MODEL 1
REMARK minimizedAffinity -10.591485
REMARK CNNscore 0.613970399
REMARK CNNaffinity 7.63912964
REMARK  5 active torsions:
REMARK  status: ('A' for Active; 'I' for Inactive)
REMARK    1  A    between atoms: C2_2  and  C3_3 
REMARK    2  A    between atoms: C20_20  and  O1_21 
REMARK    3  A    between atoms: O1_21  and  C21_22 
REMARK    4  A    between atoms: C21_22  and  C22_24 
REMARK    5  A    between atoms: C22_24  and  C23_25 
ROOT
HETATM    1  C3  UNL     1      -7.908   5.479  14.169  1.00  0.00     0.012 C 
HETATM    2  C4  UNL     1      -9.204   6.158  14.687  1.00  0.00     0.009 C 
HETATM    3  C5  UNL     1      -8.818   7.586  15.110  1.00  0.00     0.010 C 
HETATM    4  C6  UNL     1      -7.298   7.525  15.312  1.00  0.00    -0.039 C 
HETATM    5  C7  UNL     1      -7.012   6.903  16.704  1.00  0.00     0.015 C 
HETATM    6  C8  UNL     1      -6.589   8.879  15.199  1.00  0.00     0.010 C 
HETATM    7  C9  UNL     1      -5.057   8.713  15.132  1.00  0.00     0.011 C 
HETATM    8  C10 UNL     1      -4.549   7.714  14.030  1.00  0.00    -0.032 C 
HETATM    9  C11 UNL     1      -4.820   8.440  12.667  1.00  0.00     0.016 C 
HETATM   10  C12 UNL     1      -5.375   6.364  14.102  1.00  0.00    -0.000 C 
HETATM   11  C13 UNL     1      -4.929   5.378  13.016  1.00  0.00     0.006 C 
HETATM   12  C14 UNL     1      -3.427   5.088  13.052  1.00  0.00     0.006 C 
HETATM   13  C15 UNL     1      -2.547   6.359  13.042  1.00  0.00     0.003 C 
HETATM   14  C16 UNL     1      -0.983   6.086  12.871  1.00  0.00    -0.035 C 
HETATM   15  C17 UNL     1      -0.421   5.202  14.010  1.00  0.00     0.016 C 
HETATM   16  C18 UNL     1      -0.751   5.324  11.530  1.00  0.00     0.012 C 
HETATM   17  C19 UNL     1       0.709   5.257  11.087  1.00  0.00     0.034 C 
HETATM   18  C20 UNL     1       1.362   6.635  10.998  1.00  0.00     0.140 C 
HETATM   19  C26 UNL     1       1.240   7.463  12.315  1.00  0.00    -0.017 C 
HETATM   20  C27 UNL     1       1.714   8.908  11.992  1.00  0.00     0.018 C 
HETATM   21  C28 UNL     1       2.196   6.939  13.406  1.00  0.00     0.018 C 
HETATM   22  C29 UNL     1      -0.274   7.488  12.749  1.00  0.00     0.004 C 
HETATM   23  C30 UNL     1      -0.584   8.378  13.969  1.00  0.00     0.007 C 
HETATM   24  C31 UNL     1      -2.088   8.638  14.101  1.00  0.00     0.011 C 
HETATM   25  C32 UNL     1      -2.967   7.360  14.195  1.00  0.00    -0.032 C 
HETATM   26  C33 UNL     1      -2.706   6.744  15.603  1.00  0.00     0.016 C 
HETATM   27  C34 UNL     1      -6.896   6.642  14.105  1.00  0.00     0.006 C 
ENDROOT
BRANCH  18  28
HETATM   28  O1  UNL     1       2.750   6.408  10.668  1.00  0.00    -0.315 OA
BRANCH  28  29
HETATM   29  C21 UNL     1       3.094   6.396   9.352  1.00  0.00     0.259 C 
HETATM   30  O2  UNL     1       3.337   5.401   8.683  1.00  0.00    -0.265 OA
BRANCH  29  31
HETATM   31  C22 UNL     1       3.170   7.805   8.817  1.00  0.00     0.115 C 
BRANCH  31  32
HETATM   32  C23 UNL     1       2.097   8.111   7.765  1.00  0.00    -0.013 C 
HETATM   33  C24 UNL     1       2.021   6.971   6.749  1.00  0.00     0.010 C 
HETATM   34  C25 UNL     1       0.725   8.322   8.409  1.00  0.00     0.010 C 
ENDBRANCH  31  32
ENDBRANCH  29  31
ENDBRANCH  28  29
ENDBRANCH  18  28
BRANCH   1  35
HETATM   35  C2  UNL     1      -8.160   4.799  12.849  1.00  0.00    -0.032 C 
HETATM   36  C1  UNL     1      -8.083   3.474  12.660  1.00  0.00     0.007 C 
ENDBRANCH   1  35
TORSDOF 5
ENDMDL
MODEL 2
REMARK minimizedAffinity -6.51023626
REMARK CNNscore 0.550476253
REMARK CNNaffinity 6.27464914
REMARK  5 active torsions:
REMARK  status: ('A' for Active; 'I' for Inactive)
REMARK    1  A    between atoms: C2_2  and  C3_3 
REMARK    2  A    between atoms: C20_20  and  O1_21 
REMARK    3  A    between atoms: O1_21  and  C21_22 
REMARK    4  A    between atoms: C21_22  and  C22_24 
REMARK    5  A    between atoms: C22_24  and  C23_25 
ROOT
HETATM    1  C3  UNL     1      -5.545 -10.585   6.927  1.00  0.00     0.012 C 
HETATM    2  C4  UNL     1      -4.368 -10.973   7.860  1.00  0.00     0.009 C 
HETATM    3  C5  UNL     1      -3.224 -11.457   6.953  1.00  0.00     0.010 C 
HETATM    4  C6  UNL     1      -3.913 -11.818   5.630  1.00  0.00    -0.039 C 
HETATM    5  C7  UNL     1      -4.554 -13.223   5.778  1.00  0.00     0.015 C 
HETATM    6  C8  UNL     1      -2.988 -11.802   4.408  1.00  0.00     0.010 C 
HETATM    7  C9  UNL     1      -3.786 -11.896   3.092  1.00  0.00     0.011 C 
HETATM    8  C10 UNL     1      -4.940 -10.839   2.943  1.00  0.00    -0.032 C 
HETATM    9  C11 UNL     1      -4.210  -9.466   2.741  1.00  0.00     0.016 C 
HETATM   10  C12 UNL     1      -5.813 -10.801   4.265  1.00  0.00    -0.000 C 
HETATM   11  C13 UNL     1      -6.928  -9.754   4.168  1.00  0.00     0.006 C 
HETATM   12  C14 UNL     1      -7.823  -9.945   2.941  1.00  0.00     0.006 C 
HETATM   13  C15 UNL     1      -7.042 -10.048   1.610  1.00  0.00     0.003 C 
HETATM   14  C16 UNL     1      -7.954 -10.040   0.300  1.00  0.00    -0.035 C 
HETATM   15  C17 UNL     1      -8.958 -11.218   0.284  1.00  0.00     0.016 C 
HETATM   16  C18 UNL     1      -8.784  -8.719   0.275  1.00  0.00     0.012 C 
HETATM   17  C19 UNL     1      -9.473  -8.433  -1.057  1.00  0.00     0.034 C 
HETATM   18  C20 UNL     1      -8.503  -8.435  -2.236  1.00  0.00     0.140 C 
HETATM   19  C26 UNL     1      -7.660  -9.744  -2.341  1.00  0.00    -0.017 C 
HETATM   20  C27 UNL     1      -6.561  -9.496  -3.411  1.00  0.00     0.018 C 
HETATM   21  C28 UNL     1      -8.505 -10.922  -2.868  1.00  0.00     0.018 C 
HETATM   22  C29 UNL     1      -6.986 -10.015  -0.943  1.00  0.00     0.004 C 
HETATM   23  C30 UNL     1      -6.011 -11.210  -0.914  1.00  0.00     0.007 C 
HETATM   24  C31 UNL     1      -5.138 -11.185   0.344  1.00  0.00     0.011 C 
HETATM   25  C32 UNL     1      -5.923 -11.165   1.685  1.00  0.00    -0.032 C 
HETATM   26  C33 UNL     1      -6.548 -12.583   1.854  1.00  0.00     0.016 C 
HETATM   27  C34 UNL     1      -4.920 -10.647   5.516  1.00  0.00     0.006 C 
ENDROOT
BRANCH  18  28
HETATM   28  O1  UNL     1      -9.304  -8.251  -3.425  1.00  0.00    -0.315 OA
BRANCH  28  29
HETATM   29  C21 UNL     1     -10.138  -7.177  -3.466  1.00  0.00     0.259 C 
HETATM   30  O2  UNL     1     -11.350  -7.204  -3.304  1.00  0.00    -0.265 OA
BRANCH  29  31
HETATM   31  C22 UNL     1      -9.360  -5.921  -3.777  1.00  0.00     0.115 C 
BRANCH  31  32
HETATM   32  C23 UNL     1      -9.925  -5.142  -4.971  1.00  0.00    -0.013 C 
HETATM   33  C24 UNL     1      -9.326  -3.736  -5.010  1.00  0.00     0.010 C 
HETATM   34  C25 UNL     1      -9.642  -5.861  -6.293  1.00  0.00     0.010 C 
ENDBRANCH  31  32
ENDBRANCH  29  31
ENDBRANCH  28  29
ENDBRANCH  18  28
BRANCH   1  35
HETATM   35  C2  UNL     1      -6.096  -9.236   7.305  1.00  0.00    -0.032 C 
HETATM   36  C1  UNL     1      -6.435  -8.885   8.554  1.00  0.00     0.007 C 
ENDBRANCH   1  35
TORSDOF 5
ENDMDL
MODEL 3
REMARK minimizedAffinity -6.71973038
REMARK CNNscore 0.519616961
REMARK CNNaffinity 6.56604624
REMARK  5 active torsions:
REMARK  status: ('A' for Active; 'I' for Inactive)
REMARK    1  A    between atoms: C2_2  and  C3_3 
REMARK    2  A    between atoms: C20_20  and  O1_21 
REMARK    3  A    between atoms: O1_21  and  C21_22 
REMARK    4  A    between atoms: C21_22  and  C22_24 
REMARK    5  A    between atoms: C22_24  and  C23_25 
ROOT
HETATM    1  C3  UNL     1       3.976  10.417  22.339  1.00  0.00     0.012 C 
HETATM    2  C4  UNL     1       5.264  10.846  23.091  1.00  0.00     0.009 C 
HETATM    3  C5  UNL     1       5.621  12.256  22.590  1.00  0.00     0.010 C 
HETATM    4  C6  UNL     1       4.878  12.385  21.254  1.00  0.00    -0.039 C 
HETATM    5  C7  UNL     1       5.703  11.656  20.162  1.00  0.00     0.015 C 
HETATM    6  C8  UNL     1       4.609  13.829  20.816  1.00  0.00     0.010 C 
HETATM    7  C9  UNL     1       3.629  13.887  19.627  1.00  0.00     0.011 C 
HETATM    8  C10 UNL     1       2.285  13.100  19.840  1.00  0.00    -0.032 C 
HETATM    9  C11 UNL     1       1.493  13.930  20.908  1.00  0.00     0.016 C 
HETATM   10  C12 UNL     1       2.591  11.648  20.398  1.00  0.00    -0.000 C 
HETATM   11  C13 UNL     1       1.299  10.864  20.652  1.00  0.00     0.006 C 
HETATM   12  C14 UNL     1       0.395  10.783  19.419  1.00  0.00     0.006 C 
HETATM   13  C15 UNL     1       0.092  12.158  18.779  1.00  0.00     0.003 C 
HETATM   14  C16 UNL     1      -1.008  12.126  17.622  1.00  0.00    -0.035 C 
HETATM   15  C17 UNL     1      -0.591  11.205  16.450  1.00  0.00     0.016 C 
HETATM   16  C18 UNL     1      -2.338  11.561  18.210  1.00  0.00     0.012 C 
HETATM   17  C19 UNL     1      -3.556  11.749  17.310  1.00  0.00     0.034 C 
HETATM   18  C20 UNL     1      -3.769  13.205  16.902  1.00  0.00     0.140 C 
HETATM   19  C26 UNL     1      -2.512  13.854  16.244  1.00  0.00    -0.017 C 
HETATM   20  C27 UNL     1      -2.793  15.378  16.122  1.00  0.00     0.018 C 
HETATM   21  C28 UNL     1      -2.302  13.348  14.802  1.00  0.00     0.018 C 
HETATM   22  C29 UNL     1      -1.276  13.618  17.191  1.00  0.00     0.004 C 
HETATM   23  C30 UNL     1       0.026  14.312  16.743  1.00  0.00     0.007 C 
HETATM   24  C31 UNL     1       1.058  14.343  17.875  1.00  0.00     0.011 C 
HETATM   25  C32 UNL     1       1.425  12.953  18.464  1.00  0.00    -0.032 C 
HETATM   26  C33 UNL     1       2.278  12.224  17.382  1.00  0.00     0.016 C 
HETATM   27  C34 UNL     1       3.534  11.710  21.621  1.00  0.00     0.006 C 
ENDROOT
BRANCH  18  28
HETATM   28  O1  UNL     1      -4.884  13.213  15.983  1.00  0.00    -0.315 OA
BRANCH  28  29
HETATM   29  C21 UNL     1      -5.935  14.027  16.270  1.00  0.00     0.259 C 
HETATM   30  O2  UNL     1      -6.554  14.055  17.325  1.00  0.00    -0.265 OA
BRANCH  29  31
HETATM   31  C22 UNL     1      -6.268  14.893  15.079  1.00  0.00     0.115 C 
BRANCH  31  32
HETATM   32  C23 UNL     1      -7.715  15.401  15.087  1.00  0.00    -0.013 C 
HETATM   33  C24 UNL     1      -7.792  16.776  14.424  1.00  0.00     0.010 C 
HETATM   34  C25 UNL     1      -8.654  14.428  14.369  1.00  0.00     0.010 C 
ENDBRANCH  31  32
ENDBRANCH  29  31
ENDBRANCH  28  29
ENDBRANCH  18  28
BRANCH   1  35
HETATM   35  C2  UNL     1       2.962   9.863  23.304  1.00  0.00    -0.032 C 
HETATM   36  C1  UNL     1       2.495   8.606  23.265  1.00  0.00     0.007 C 
ENDBRANCH   1  35
TORSDOF 5
ENDMDL
MODEL 4
REMARK minimizedAffinity -7.14324045
REMARK CNNscore 0.401621372
REMARK CNNaffinity 7.37968302
REMARK  5 active torsions:
REMARK  status: ('A' for Active; 'I' for Inactive)
REMARK    1  A    between atoms: C2_2  and  C3_3 
REMARK    2  A    between atoms: C20_20  and  O1_21 
REMARK    3  A    between atoms: O1_21  and  C21_22 
REMARK    4  A    between atoms: C21_22  and  C22_24 
REMARK    5  A    between atoms: C22_24  and  C23_25 
ROOT
HETATM    1  C3  UNL     1      -5.417   4.680  12.437  1.00  0.00     0.012 C 
HETATM    2  C4  UNL     1      -3.964   4.329  12.855  1.00  0.00     0.009 C 
HETATM    3  C5  UNL     1      -3.752   4.916  14.260  1.00  0.00     0.010 C 
HETATM    4  C6  UNL     1      -4.844   5.986  14.394  1.00  0.00    -0.039 C 
HETATM    5  C7  UNL     1      -4.371   7.265  13.654  1.00  0.00     0.015 C 
HETATM    6  C8  UNL     1      -5.214   6.336  15.840  1.00  0.00     0.010 C 
HETATM    7  C9  UNL     1      -6.492   7.197  15.904  1.00  0.00     0.011 C 
HETATM    8  C10 UNL     1      -7.726   6.606  15.131  1.00  0.00    -0.032 C 
HETATM    9  C11 UNL     1      -8.174   5.360  15.971  1.00  0.00     0.016 C 
HETATM   10  C12 UNL     1      -7.287   6.153  13.677  1.00  0.00    -0.000 C 
HETATM   11  C13 UNL     1      -8.460   5.537  12.906  1.00  0.00     0.006 C 
HETATM   12  C14 UNL     1      -9.678   6.461  12.832  1.00  0.00     0.006 C 
HETATM   13  C15 UNL     1     -10.139   6.995  14.208  1.00  0.00     0.003 C 
HETATM   14  C16 UNL     1     -11.523   7.790  14.185  1.00  0.00    -0.035 C 
HETATM   15  C17 UNL     1     -11.465   9.029  13.258  1.00  0.00     0.016 C 
HETATM   16  C18 UNL     1     -12.635   6.845  13.634  1.00  0.00     0.012 C 
HETATM   17  C19 UNL     1     -14.058   7.362  13.833  1.00  0.00     0.034 C 
HETATM   18  C20 UNL     1     -14.365   7.699  15.290  1.00  0.00     0.140 C 
HETATM   19  C26 UNL     1     -13.342   8.691  15.925  1.00  0.00    -0.017 C 
HETATM   20  C27 UNL     1     -13.633   8.734  17.451  1.00  0.00     0.018 C 
HETATM   21  C28 UNL     1     -13.556  10.131  15.414  1.00  0.00     0.018 C 
HETATM   22  C29 UNL     1     -11.890   8.134  15.679  1.00  0.00     0.004 C 
HETATM   23  C30 UNL     1     -10.763   8.937  16.359  1.00  0.00     0.007 C 
HETATM   24  C31 UNL     1      -9.451   8.146  16.383  1.00  0.00     0.011 C 
HETATM   25  C32 UNL     1      -8.944   7.679  14.990  1.00  0.00    -0.032 C 
HETATM   26  C33 UNL     1      -8.441   8.957  14.250  1.00  0.00     0.016 C 
HETATM   27  C34 UNL     1      -6.034   5.249  13.732  1.00  0.00     0.006 C 
ENDROOT
BRANCH  18  28
HETATM   28  O1  UNL     1     -15.696   8.262  15.307  1.00  0.00    -0.315 OA
BRANCH  28  29
HETATM   29  C21 UNL     1     -16.739   7.416  15.522  1.00  0.00     0.259 C 
HETATM   30  O2  UNL     1     -17.899   7.606  15.185  1.00  0.00    -0.265 OA
BRANCH  29  31
HETATM   31  C22 UNL     1     -16.275   6.194  16.278  1.00  0.00     0.115 C 
BRANCH  31  32
HETATM   32  C23 UNL     1     -16.816   4.882  15.697  1.00  0.00    -0.013 C 
HETATM   33  C24 UNL     1     -15.707   4.145  14.946  1.00  0.00     0.010 C 
HETATM   34  C25 UNL     1     -17.388   3.979  16.792  1.00  0.00     0.010 C 
ENDBRANCH  31  32
ENDBRANCH  29  31
ENDBRANCH  28  29
ENDBRANCH  18  28
BRANCH   1  35
HETATM   35  C2  UNL     1      -6.119   3.464  11.893  1.00  0.00    -0.032 C 
HETATM   36  C1  UNL     1      -5.570   2.604  11.024  1.00  0.00     0.007 C 
ENDBRANCH   1  35
TORSDOF 5
ENDMDL
MODEL 5
REMARK minimizedAffinity -6.84777594
REMARK CNNscore 0.358730495
REMARK CNNaffinity 6.55539513
REMARK  5 active torsions:
REMARK  status: ('A' for Active; 'I' for Inactive)
REMARK    1  A    between atoms: C2_2  and  C3_3 
REMARK    2  A    between atoms: C20_20  and  O1_21 
REMARK    3  A    between atoms: O1_21  and  C21_22 
REMARK    4  A    between atoms: C21_22  and  C22_24 
REMARK    5  A    between atoms: C22_24  and  C23_25 
ROOT
HETATM    1  C3  UNL     1     -11.492  11.226  19.550  1.00  0.00     0.012 C 
HETATM    2  C4  UNL     1     -10.542  12.449  19.458  1.00  0.00     0.009 C 
HETATM    3  C5  UNL     1     -10.112  12.787  20.895  1.00  0.00     0.010 C 
HETATM    4  C6  UNL     1     -11.179  12.124  21.777  1.00  0.00    -0.039 C 
HETATM    5  C7  UNL     1     -12.430  13.039  21.806  1.00  0.00     0.015 C 
HETATM    6  C8  UNL     1     -10.722  11.833  23.211  1.00  0.00     0.010 C 
HETATM    7  C9  UNL     1     -11.726  10.926  23.951  1.00  0.00     0.011 C 
HETATM    8  C10 UNL     1     -12.100   9.599  23.195  1.00  0.00    -0.032 C 
HETATM    9  C11 UNL     1     -10.808   8.714  23.263  1.00  0.00     0.016 C 
HETATM   10  C12 UNL     1     -12.461   9.921  21.686  1.00  0.00    -0.000 C 
HETATM   11  C13 UNL     1     -12.797   8.643  20.908  1.00  0.00     0.006 C 
HETATM   12  C14 UNL     1     -13.910   7.820  21.560  1.00  0.00     0.006 C 
HETATM   13  C15 UNL     1     -13.662   7.510  23.054  1.00  0.00     0.003 C 
HETATM   14  C16 UNL     1     -14.699   6.485  23.704  1.00  0.00    -0.035 C 
HETATM   15  C17 UNL     1     -16.155   7.005  23.625  1.00  0.00     0.016 C 
HETATM   16  C18 UNL     1     -14.639   5.142  22.913  1.00  0.00     0.012 C 
HETATM   17  C19 UNL     1     -15.349   3.975  23.595  1.00  0.00     0.034 C 
HETATM   18  C20 UNL     1     -14.857   3.737  25.020  1.00  0.00     0.140 C 
HETATM   19  C26 UNL     1     -14.932   5.009  25.921  1.00  0.00    -0.017 C 
HETATM   20  C27 UNL     1     -14.173   4.683  27.238  1.00  0.00     0.018 C 
HETATM   21  C28 UNL     1     -16.383   5.325  26.338  1.00  0.00     0.018 C 
HETATM   22  C29 UNL     1     -14.209   6.192  25.173  1.00  0.00     0.004 C 
HETATM   23  C30 UNL     1     -14.083   7.495  25.988  1.00  0.00     0.007 C 
HETATM   24  C31 UNL     1     -13.071   8.453  25.353  1.00  0.00     0.011 C 
HETATM   25  C32 UNL     1     -13.366   8.831  23.875  1.00  0.00    -0.032 C 
HETATM   26  C33 UNL     1     -14.608   9.774  23.898  1.00  0.00     0.016 C 
HETATM   27  C34 UNL     1     -11.363  10.784  21.024  1.00  0.00     0.006 C 
ENDROOT
BRANCH  18  28
HETATM   28  O1  UNL     1     -15.680   2.681  25.565  1.00  0.00    -0.315 OA
BRANCH  28  29
HETATM   29  C21 UNL     1     -15.050   1.619  26.135  1.00  0.00     0.259 C 
HETATM   30  O2  UNL     1     -15.362   1.080  27.188  1.00  0.00    -0.265 OA
BRANCH  29  31
HETATM   31  C22 UNL     1     -13.865   1.201  25.298  1.00  0.00     0.115 C 
BRANCH  31  32
HETATM   32  C23 UNL     1     -12.574   1.943  25.665  1.00  0.00    -0.013 C 
HETATM   33  C24 UNL     1     -12.074   1.480  27.033  1.00  0.00     0.010 C 
HETATM   34  C25 UNL     1     -11.483   1.723  24.614  1.00  0.00     0.010 C 
ENDBRANCH  31  32
ENDBRANCH  29  31
ENDBRANCH  28  29
ENDBRANCH  18  28
BRANCH   1  35
HETATM   35  C2  UNL     1     -11.096  10.173  18.548  1.00  0.00    -0.032 C 
HETATM   36  C1  UNL     1     -10.726  10.438  17.286  1.00  0.00     0.007 C 
ENDBRANCH   1  35
TORSDOF 5
ENDMDL
MODEL 6
REMARK minimizedAffinity -7.59332705
REMARK CNNscore 0.357028484
REMARK CNNaffinity 6.89635277
REMARK  5 active torsions:
REMARK  status: ('A' for Active; 'I' for Inactive)
REMARK    1  A    between atoms: C2_2  and  C3_3 
REMARK    2  A    between atoms: C20_20  and  O1_21 
REMARK    3  A    between atoms: O1_21  and  C21_22 
REMARK    4  A    between atoms: C21_22  and  C22_24 
REMARK    5  A    between atoms: C22_24  and  C23_25 
ROOT
HETATM    1  C3  UNL     1      -6.138   4.746  12.124  1.00  0.00     0.012 C 
HETATM    2  C4  UNL     1      -5.981   3.263  11.694  1.00  0.00     0.009 C 
HETATM    3  C5  UNL     1      -4.647   2.770  12.281  1.00  0.00     0.010 C 
HETATM    4  C6  UNL     1      -3.860   4.055  12.569  1.00  0.00    -0.039 C 
HETATM    5  C7  UNL     1      -3.232   4.554  11.242  1.00  0.00     0.015 C 
HETATM    6  C8  UNL     1      -2.764   3.901  13.630  1.00  0.00     0.010 C 
HETATM    7  C9  UNL     1      -2.207   5.270  14.071  1.00  0.00     0.011 C 
HETATM    8  C10 UNL     1      -3.294   6.309  14.526  1.00  0.00    -0.032 C 
HETATM    9  C11 UNL     1      -3.832   5.763  15.894  1.00  0.00     0.016 C 
HETATM   10  C12 UNL     1      -4.468   6.366  13.463  1.00  0.00    -0.000 C 
HETATM   11  C13 UNL     1      -5.565   7.345  13.894  1.00  0.00     0.006 C 
HETATM   12  C14 UNL     1      -5.034   8.752  14.178  1.00  0.00     0.006 C 
HETATM   13  C15 UNL     1      -3.846   8.781  15.167  1.00  0.00     0.003 C 
HETATM   14  C16 UNL     1      -3.407  10.242  15.639  1.00  0.00    -0.035 C 
HETATM   15  C17 UNL     1      -2.976  11.131  14.447  1.00  0.00     0.016 C 
HETATM   16  C18 UNL     1      -4.625  10.935  16.323  1.00  0.00     0.012 C 
HETATM   17  C19 UNL     1      -4.278  12.211  17.086  1.00  0.00     0.034 C 
HETATM   18  C20 UNL     1      -3.178  11.997  18.123  1.00  0.00     0.140 C 
HETATM   19  C26 UNL     1      -1.883  11.360  17.530  1.00  0.00    -0.017 C 
HETATM   20  C27 UNL     1      -0.971  10.974  18.728  1.00  0.00     0.018 C 
HETATM   21  C28 UNL     1      -1.078  12.380  16.699  1.00  0.00     0.018 C 
HETATM   22  C29 UNL     1      -2.287  10.063  16.733  1.00  0.00     0.004 C 
HETATM   23  C30 UNL     1      -1.101   9.241  16.188  1.00  0.00     0.007 C 
HETATM   24  C31 UNL     1      -1.546   7.840  15.758  1.00  0.00     0.011 C 
HETATM   25  C32 UNL     1      -2.685   7.811  14.701  1.00  0.00    -0.032 C 
HETATM   26  C33 UNL     1      -2.054   8.286  13.356  1.00  0.00     0.016 C 
HETATM   27  C34 UNL     1      -4.990   4.948  13.137  1.00  0.00     0.006 C 
ENDROOT
BRANCH  18  28
HETATM   28  O1  UNL     1      -2.891  13.296  18.689  1.00  0.00    -0.315 OA
BRANCH  28  29
HETATM   29  C21 UNL     1      -3.913  13.964  19.288  1.00  0.00     0.259 C 
HETATM   30  O2  UNL     1      -4.154  15.158  19.174  1.00  0.00    -0.265 OA
BRANCH  29  31
HETATM   31  C22 UNL     1      -4.713  13.027  20.160  1.00  0.00     0.115 C 
BRANCH  31  32
HETATM   32  C23 UNL     1      -5.820  13.735  20.951  1.00  0.00    -0.013 C 
HETATM   33  C24 UNL     1      -7.154  13.604  20.217  1.00  0.00     0.010 C 
HETATM   34  C25 UNL     1      -5.949  13.163  22.365  1.00  0.00     0.010 C 
ENDBRANCH  31  32
ENDBRANCH  29  31
ENDBRANCH  28  29
ENDBRANCH  18  28
BRANCH   1  35
HETATM   35  C2  UNL     1      -7.514   4.990  12.685  1.00  0.00    -0.032 C 
HETATM   36  C1  UNL     1      -8.518   5.549  11.995  1.00  0.00     0.007 C 
ENDBRANCH   1  35
TORSDOF 5
ENDMDL
MODEL 7
REMARK minimizedAffinity -6.82573557
REMARK CNNscore 0.355681926
REMARK CNNaffinity 6.52113914
REMARK  5 active torsions:
REMARK  status: ('A' for Active; 'I' for Inactive)
REMARK    1  A    between atoms: C2_2  and  C3_3 
REMARK    2  A    between atoms: C20_20  and  O1_21 
REMARK    3  A    between atoms: O1_21  and  C21_22 
REMARK    4  A    between atoms: C21_22  and  C22_24 
REMARK    5  A    between atoms: C22_24  and  C23_25 
ROOT
HETATM    1  C3  UNL     1       4.040  10.236  22.321  1.00  0.00     0.012 C 
HETATM    2  C4  UNL     1       5.371  10.616  23.021  1.00  0.00     0.009 C 
HETATM    3  C5  UNL     1       5.728  12.038  22.554  1.00  0.00     0.010 C 
HETATM    4  C6  UNL     1       4.922  12.227  21.262  1.00  0.00    -0.039 C 
HETATM    5  C7  UNL     1       5.678  11.525  20.105  1.00  0.00     0.015 C 
HETATM    6  C8  UNL     1       4.657  13.690  20.890  1.00  0.00     0.010 C 
HETATM    7  C9  UNL     1       3.620  13.807  19.754  1.00  0.00     0.011 C 
HETATM    8  C10 UNL     1       2.274  13.034  20.007  1.00  0.00    -0.032 C 
HETATM    9  C11 UNL     1       1.551  13.838  21.143  1.00  0.00     0.016 C 
HETATM   10  C12 UNL     1       2.582  11.558  20.496  1.00  0.00    -0.000 C 
HETATM   11  C13 UNL     1       1.290  10.786  20.787  1.00  0.00     0.006 C 
HETATM   12  C14 UNL     1       0.325  10.765  19.599  1.00  0.00     0.006 C 
HETATM   13  C15 UNL     1       0.015  12.167  19.024  1.00  0.00     0.003 C 
HETATM   14  C16 UNL     1      -1.141  12.195  17.924  1.00  0.00    -0.035 C 
HETATM   15  C17 UNL     1      -0.800  11.311  16.700  1.00  0.00     0.016 C 
HETATM   16  C18 UNL     1      -2.450  11.630  18.558  1.00  0.00     0.012 C 
HETATM   17  C19 UNL     1      -3.708  11.870  17.727  1.00  0.00     0.034 C 
HETATM   18  C20 UNL     1      -3.915  13.343  17.383  1.00  0.00     0.140 C 
HETATM   19  C26 UNL     1      -2.681  13.996  16.686  1.00  0.00    -0.017 C 
HETATM   20  C27 UNL     1      -2.941  15.527  16.633  1.00  0.00     0.018 C 
HETATM   21  C28 UNL     1      -2.552  13.539  15.218  1.00  0.00     0.018 C 
HETATM   22  C29 UNL     1      -1.404  13.706  17.560  1.00  0.00     0.004 C 
HETATM   23  C30 UNL     1      -0.114  14.394  17.073  1.00  0.00     0.007 C 
HETATM   24  C31 UNL     1       0.973  14.368  18.152  1.00  0.00     0.011 C 
HETATM   25  C32 UNL     1       1.345  12.951  18.672  1.00  0.00    -0.032 C 
HETATM   26  C33 UNL     1       2.129  12.249  17.522  1.00  0.00     0.016 C 
HETATM   27  C34 UNL     1       3.585  11.561  21.672  1.00  0.00     0.006 C 
ENDROOT
BRANCH  18  28
HETATM   28  O1  UNL     1      -5.075  13.402  16.522  1.00  0.00    -0.315 OA
BRANCH  28  29
HETATM   29  C21 UNL     1      -6.258  13.772  17.080  1.00  0.00     0.259 C 
HETATM   30  O2  UNL     1      -7.366  13.618  16.582  1.00  0.00    -0.265 OA
BRANCH  29  31
HETATM   31  C22 UNL     1      -6.024  14.445  18.411  1.00  0.00     0.115 C 
BRANCH  31  32
HETATM   32  C23 UNL     1      -6.633  13.678  19.591  1.00  0.00    -0.013 C 
HETATM   33  C24 UNL     1      -5.594  13.510  20.700  1.00  0.00     0.010 C 
HETATM   34  C25 UNL     1      -7.869  14.391  20.144  1.00  0.00     0.010 C 
ENDBRANCH  31  32
ENDBRANCH  29  31
ENDBRANCH  28  29
ENDBRANCH  18  28
BRANCH   1  35
HETATM   35  C2  UNL     1       3.065   9.662  23.315  1.00  0.00    -0.032 C 
HETATM   36  C1  UNL     1       2.496   8.454  23.199  1.00  0.00     0.007 C 
ENDBRANCH   1  35
TORSDOF 5
ENDMDL
MODEL 8
REMARK minimizedAffinity -6.45701218
REMARK CNNscore 0.343193859
REMARK CNNaffinity 6.36669922
REMARK  5 active torsions:
REMARK  status: ('A' for Active; 'I' for Inactive)
REMARK    1  A    between atoms: C2_2  and  C3_3 
REMARK    2  A    between atoms: C20_20  and  O1_21 
REMARK    3  A    between atoms: O1_21  and  C21_22 
REMARK    4  A    between atoms: C21_22  and  C22_24 
REMARK    5  A    between atoms: C22_24  and  C23_25 
ROOT
HETATM    1  C3  UNL     1      -5.221 -11.686   2.777  1.00  0.00     0.012 C 
HETATM    2  C4  UNL     1      -4.183 -12.776   3.153  1.00  0.00     0.009 C 
HETATM    3  C5  UNL     1      -3.755 -13.453   1.840  1.00  0.00     0.010 C 
HETATM    4  C6  UNL     1      -4.882 -13.119   0.854  1.00  0.00    -0.039 C 
HETATM    5  C7  UNL     1      -6.064 -14.089   1.112  1.00  0.00     0.015 C 
HETATM    6  C8  UNL     1      -4.474 -13.188  -0.622  1.00  0.00     0.010 C 
HETATM    7  C9  UNL     1      -5.554 -12.577  -1.537  1.00  0.00     0.011 C 
HETATM    8  C10 UNL     1      -6.011 -11.126  -1.143  1.00  0.00    -0.032 C 
HETATM    9  C11 UNL     1      -4.788 -10.207  -1.487  1.00  0.00     0.016 C 
HETATM   10  C12 UNL     1      -6.321 -11.059   0.410  1.00  0.00    -0.000 C 
HETATM   11  C13 UNL     1      -6.735  -9.646   0.837  1.00  0.00     0.006 C 
HETATM   12  C14 UNL     1      -7.917  -9.101   0.032  1.00  0.00     0.006 C 
HETATM   13  C15 UNL     1      -7.718  -9.181  -1.499  1.00  0.00     0.003 C 
HETATM   14  C16 UNL     1      -8.839  -8.435  -2.357  1.00  0.00    -0.035 C 
HETATM   15  C17 UNL     1     -10.251  -9.010  -2.092  1.00  0.00     0.016 C 
HETATM   16  C18 UNL     1      -8.863  -6.929  -1.949  1.00  0.00     0.012 C 
HETATM   17  C19 UNL     1      -9.669  -6.035  -2.888  1.00  0.00     0.034 C 
HETATM   18  C20 UNL     1      -9.221  -6.150  -4.343  1.00  0.00     0.140 C 
HETATM   19  C26 UNL     1      -9.218  -7.617  -4.874  1.00  0.00    -0.017 C 
HETATM   20  C27 UNL     1      -8.508  -7.602  -6.257  1.00  0.00     0.018 C 
HETATM   21  C28 UNL     1     -10.649  -8.127  -5.141  1.00  0.00     0.018 C 
HETATM   22  C29 UNL     1      -8.398  -8.510  -3.868  1.00  0.00     0.004 C 
HETATM   23  C30 UNL     1      -8.191  -9.970  -4.317  1.00  0.00     0.007 C 
HETATM   24  C31 UNL     1      -7.100 -10.658  -3.490  1.00  0.00     0.011 C 
HETATM   25  C32 UNL     1      -7.341 -10.650  -1.954  1.00  0.00    -0.032 C 
HETATM   26  C33 UNL     1      -8.511 -11.645  -1.684  1.00  0.00     0.016 C 
HETATM   27  C34 UNL     1      -5.151 -11.642   1.235  1.00  0.00     0.006 C 
ENDROOT
BRANCH  18  28
HETATM   28  O1  UNL     1     -10.128  -5.332  -5.116  1.00  0.00    -0.315 OA
BRANCH  28  29
HETATM   29  C21 UNL     1     -10.203  -4.010  -4.810  1.00  0.00     0.259 C 
HETATM   30  O2  UNL     1     -11.185  -3.430  -4.367  1.00  0.00    -0.265 OA
BRANCH  29  31
HETATM   31  C22 UNL     1      -8.896  -3.323  -5.126  1.00  0.00     0.115 C 
BRANCH  31  32
HETATM   32  C23 UNL     1      -9.018  -2.274  -6.239  1.00  0.00    -0.013 C 
HETATM   33  C24 UNL     1     -10.012  -2.749  -7.299  1.00  0.00     0.010 C 
HETATM   34  C25 UNL     1      -9.463  -0.919  -5.684  1.00  0.00     0.010 C 
ENDBRANCH  31  32
ENDBRANCH  29  31
ENDBRANCH  28  29
ENDBRANCH  18  28
BRANCH   1  35
HETATM   35  C2  UNL     1      -4.887 -10.382   3.453  1.00  0.00    -0.032 C 
HETATM   36  C1  UNL     1      -3.798  -9.650   3.177  1.00  0.00     0.007 C 
ENDBRANCH   1  35
TORSDOF 5
ENDMDL
MODEL 9
REMARK minimizedAffinity -6.62084341
REMARK CNNscore 0.320707917
REMARK CNNaffinity 6.35685396
REMARK  5 active torsions:
REMARK  status: ('A' for Active; 'I' for Inactive)
REMARK    1  A    between atoms: C2_2  and  C3_3 
REMARK    2  A    between atoms: C20_20  and  O1_21 
REMARK    3  A    between atoms: O1_21  and  C21_22 
REMARK    4  A    between atoms: C21_22  and  C22_24 
REMARK    5  A    between atoms: C22_24  and  C23_25 
ROOT
HETATM    1  C3  UNL     1       4.774  11.448  22.290  1.00  0.00     0.012 C 
HETATM    2  C4  UNL     1       5.829  12.319  23.022  1.00  0.00     0.009 C 
HETATM    3  C5  UNL     1       5.716  13.738  22.438  1.00  0.00     0.010 C 
HETATM    4  C6  UNL     1       5.008  13.540  21.091  1.00  0.00    -0.039 C 
HETATM    5  C7  UNL     1       6.055  13.063  20.052  1.00  0.00     0.015 C 
HETATM    6  C8  UNL     1       4.291  14.788  20.564  1.00  0.00     0.010 C 
HETATM    7  C9  UNL     1       3.378  14.453  19.367  1.00  0.00     0.011 C 
HETATM    8  C10 UNL     1       2.362  13.280  19.619  1.00  0.00    -0.032 C 
HETATM    9  C11 UNL     1       1.313  13.861  20.629  1.00  0.00     0.016 C 
HETATM   10  C12 UNL     1       3.114  12.044  20.267  1.00  0.00    -0.000 C 
HETATM   11  C13 UNL     1       2.144  10.893  20.560  1.00  0.00     0.006 C 
HETATM   12  C14 UNL     1       1.350  10.451  19.328  1.00  0.00     0.006 C 
HETATM   13  C15 UNL     1       0.630  11.610  18.603  1.00  0.00     0.003 C 
HETATM   14  C16 UNL     1      -0.368  11.153  17.443  1.00  0.00    -0.035 C 
HETATM   15  C17 UNL     1       0.360  10.357  16.332  1.00  0.00     0.016 C 
HETATM   16  C18 UNL     1      -1.453  10.215  18.055  1.00  0.00     0.012 C 
HETATM   17  C19 UNL     1      -2.641   9.941  17.137  1.00  0.00     0.034 C 
HETATM   18  C20 UNL     1      -3.310  11.220  16.639  1.00  0.00     0.140 C 
HETATM   19  C26 UNL     1      -2.319  12.209  15.951  1.00  0.00    -0.017 C 
HETATM   20  C27 UNL     1      -3.082  13.546  15.734  1.00  0.00     0.018 C 
HETATM   21  C28 UNL     1      -1.916  11.721  14.544  1.00  0.00     0.018 C 
HETATM   22  C29 UNL     1      -1.100  12.447  16.919  1.00  0.00     0.004 C 
HETATM   23  C30 UNL     1      -0.086  13.505  16.438  1.00  0.00     0.007 C 
HETATM   24  C31 UNL     1       0.847  13.938  17.573  1.00  0.00     0.011 C 
HETATM   25  C32 UNL     1       1.635  12.781  18.249  1.00  0.00    -0.032 C 
HETATM   26  C33 UNL     1       2.709  12.315  17.219  1.00  0.00     0.016 C 
HETATM   27  C34 UNL     1       3.951  12.481  21.490  1.00  0.00     0.006 C 
ENDROOT
BRANCH  18  28
HETATM   28  O1  UNL     1      -4.341  10.809  15.714  1.00  0.00    -0.315 OA
BRANCH  28  29
HETATM   29  C21 UNL     1      -4.338   9.514  15.298  1.00  0.00     0.259 C 
HETATM   30  O2  UNL     1      -3.346   8.843  15.048  1.00  0.00    -0.265 OA
BRANCH  29  31
HETATM   31  C22 UNL     1      -5.752   9.008  15.149  1.00  0.00     0.115 C 
BRANCH  31  32
HETATM   32  C23 UNL     1      -5.885   7.502  15.407  1.00  0.00    -0.013 C 
HETATM   33  C24 UNL     1      -7.072   7.230  16.330  1.00  0.00     0.010 C 
HETATM   34  C25 UNL     1      -6.057   6.723  14.100  1.00  0.00     0.010 C 
ENDBRANCH  31  32
ENDBRANCH  29  31
ENDBRANCH  28  29
ENDBRANCH  18  28
BRANCH   1  35
HETATM   35  C2  UNL     1       3.973  10.645  23.280  1.00  0.00    -0.032 C 
HETATM   36  C1  UNL     1       3.593   9.374  23.086  1.00  0.00     0.007 C 
ENDBRANCH   1  35
TORSDOF 5
ENDMDL
