MODEL 1
REMARK minimizedAffinity -7.01176643
REMARK CNNscore 0.626223683
REMARK CNNaffinity 6.81678057
REMARK  6 active torsions:
REMARK  status: ('A' for Active; 'I' for Inactive)
REMARK    1  A    between atoms: C2_2  and  C3_3 
REMARK    2  A    between atoms: C5_5  and  C6_6 
REMARK    3  A    between atoms: C6_6  and  C7_7 
REMARK    4  A    between atoms: C8_8  and  C9_9 
REMARK       I    between atoms: C9_9  and  N1_11 
REMARK    5  A    between atoms: N1_11  and  C10_12 
REMARK    6  A    between atoms: C10_12  and  C12_14 
ROOT
HETATM    1  C7  UNL     1       2.013  54.077 -10.273  1.00  0.00     0.036 C 
HETATM    2  C8  UNL     1       2.500  52.847 -11.025  1.00  0.00     0.011 C 
HETATM    3  C18 UNL     1       3.497  52.103 -10.518  1.00  0.00    -0.013 C 
HETATM    4  C19 UNL     1       4.161  52.552  -9.260  1.00  0.00     0.034 C 
HETATM    5  C20 UNL     1       4.489  54.063  -9.329  1.00  0.00     0.005 C 
HETATM    6  C21 UNL     1       5.229  54.572  -8.038  1.00  0.00    -0.043 C 
HETATM    7  C22 UNL     1       6.677  54.018  -8.010  1.00  0.00     0.015 C 
HETATM    8  C23 UNL     1       4.557  54.121  -6.723  1.00  0.00     0.015 C 
HETATM    9  C24 UNL     1       5.331  56.105  -8.087  1.00  0.00     0.009 C 
HETATM   10  C25 UNL     1       3.988  56.815  -8.148  1.00  0.00     0.002 C 
HETATM   11  C26 UNL     1       2.857  56.009  -8.782  1.00  0.00     0.010 C 
HETATM   12  C27 UNL     1       3.270  54.972  -9.852  1.00  0.00    -0.031 C 
HETATM   13  C28 UNL     1       3.770  55.758 -11.099  1.00  0.00     0.016 C 
ENDROOT
BRANCH   2  14
HETATM   14  C9  UNL     1       1.909  52.398 -12.309  1.00  0.00     0.248 C 
HETATM   15  O1  UNL     1       0.747  52.028 -12.392  1.00  0.00    -0.268 OA
HETATM   16  N1  UNL     1       2.808  52.452 -13.344  1.00  0.00    -0.349 N 
HETATM   17  H11 UNL     1       3.778  52.623 -13.113  1.00  0.00     0.163 HD
BRANCH  16  18
HETATM   18  C10 UNL     1       2.522  51.848 -14.631  1.00  0.00     0.114 C 
HETATM   19  C11 UNL     1       3.612  52.219 -15.640  1.00  0.00     0.037 C 
BRANCH  18  20
HETATM   20  C12 UNL     1       2.358  50.347 -14.466  1.00  0.00    -0.036 A 
HETATM   21  C13 UNL     1       1.213  49.716 -14.981  1.00  0.00     0.009 A 
HETATM   22  C14 UNL     1       1.026  48.342 -14.833  1.00  0.00     0.001 A 
HETATM   23  C15 UNL     1       1.975  47.577 -14.159  1.00  0.00     0.000 A 
HETATM   24  C16 UNL     1       3.106  48.189 -13.621  1.00  0.00     0.001 A 
HETATM   25  C17 UNL     1       3.293  49.565 -13.769  1.00  0.00     0.009 A 
ENDBRANCH  18  20
ENDBRANCH  16  18
ENDBRANCH   2  14
BRANCH   1  26
HETATM   26  C6  UNL     1       0.842  54.796 -11.015  1.00  0.00     0.038 C 
BRANCH  26  27
HETATM   27  C5  UNL     1      -0.538  54.258 -10.736  1.00  0.00    -0.019 C 
HETATM   28  C3  UNL     1      -1.186  54.168  -9.556  1.00  0.00    -0.067 C 
HETATM   29  C4  UNL     1      -0.605  54.602  -8.235  1.00  0.00     0.048 C 
BRANCH  28  30
HETATM   30  C2  UNL     1      -2.539  53.615  -9.550  1.00  0.00    -0.004 C 
HETATM   31  C1  UNL     1      -3.523  53.899 -10.415  1.00  0.00     0.012 C 
ENDBRANCH  28  30
ENDBRANCH  26  27
ENDBRANCH   1  26
TORSDOF 6
ENDMDL
MODEL 2
REMARK minimizedAffinity -6.73187017
REMARK CNNscore 0.592510283
REMARK CNNaffinity 6.5249958
REMARK  6 active torsions:
REMARK  status: ('A' for Active; 'I' for Inactive)
REMARK    1  A    between atoms: C2_2  and  C3_3 
REMARK    2  A    between atoms: C5_5  and  C6_6 
REMARK    3  A    between atoms: C6_6  and  C7_7 
REMARK    4  A    between atoms: C8_8  and  C9_9 
REMARK       I    between atoms: C9_9  and  N1_11 
REMARK    5  A    between atoms: N1_11  and  C10_12 
REMARK    6  A    between atoms: C10_12  and  C12_14 
ROOT
HETATM    1  C7  UNL     1       1.143  52.517  -9.084  1.00  0.00     0.036 C 
HETATM    2  C8  UNL     1       2.044  52.248 -10.281  1.00  0.00     0.011 C 
HETATM    3  C18 UNL     1       3.230  52.870 -10.380  1.00  0.00    -0.013 C 
HETATM    4  C19 UNL     1       3.601  53.880  -9.347  1.00  0.00     0.034 C 
HETATM    5  C20 UNL     1       2.418  54.841  -9.078  1.00  0.00     0.005 C 
HETATM    6  C21 UNL     1       2.779  55.949  -8.023  1.00  0.00    -0.043 C 
HETATM    7  C22 UNL     1       3.770  56.966  -8.647  1.00  0.00     0.015 C 
HETATM    8  C23 UNL     1       3.457  55.394  -6.751  1.00  0.00     0.015 C 
HETATM    9  C24 UNL     1       1.505  56.727  -7.653  1.00  0.00     0.009 C 
HETATM   10  C25 UNL     1       0.408  55.868  -7.048  1.00  0.00     0.002 C 
HETATM   11  C26 UNL     1       0.425  54.401  -7.469  1.00  0.00     0.010 C 
HETATM   12  C27 UNL     1       1.008  54.097  -8.870  1.00  0.00    -0.031 C 
HETATM   13  C28 UNL     1       0.015  54.666  -9.925  1.00  0.00     0.016 C 
ENDROOT
BRANCH   2  14
HETATM   14  C9  UNL     1       1.689  51.297 -11.362  1.00  0.00     0.248 C 
HETATM   15  O1  UNL     1       1.906  50.098 -11.268  1.00  0.00    -0.268 OA
HETATM   16  N1  UNL     1       1.109  51.923 -12.437  1.00  0.00    -0.349 N 
HETATM   17  H11 UNL     1       1.130  52.934 -12.458  1.00  0.00     0.163 HD
BRANCH  16  18
HETATM   18  C10 UNL     1       0.891  51.231 -13.693  1.00  0.00     0.114 C 
HETATM   19  C11 UNL     1      -0.560  51.407 -14.146  1.00  0.00     0.037 C 
BRANCH  18  20
HETATM   20  C12 UNL     1       1.895  51.719 -14.724  1.00  0.00    -0.036 A 
HETATM   21  C13 UNL     1       1.434  52.209 -15.957  1.00  0.00     0.009 A 
HETATM   22  C14 UNL     1       2.331  52.652 -16.930  1.00  0.00     0.001 A 
HETATM   23  C15 UNL     1       3.702  52.602 -16.691  1.00  0.00     0.000 A 
HETATM   24  C16 UNL     1       4.178  52.096 -15.482  1.00  0.00     0.001 A 
HETATM   25  C17 UNL     1       3.281  51.654 -14.508  1.00  0.00     0.009 A 
ENDBRANCH  18  20
ENDBRANCH  16  18
ENDBRANCH   2  14
BRANCH   1  26
HETATM   26  C6  UNL     1      -0.180  51.690  -9.144  1.00  0.00     0.038 C 
BRANCH  26  27
HETATM   27  C5  UNL     1      -1.290  52.291  -9.968  1.00  0.00    -0.019 C 
HETATM   28  C3  UNL     1      -2.591  51.934 -10.019  1.00  0.00    -0.067 C 
HETATM   29  C4  UNL     1      -3.190  50.800  -9.227  1.00  0.00     0.048 C 
BRANCH  28  30
HETATM   30  C2  UNL     1      -3.481  52.690 -10.897  1.00  0.00    -0.004 C 
HETATM   31  C1  UNL     1      -4.065  53.865 -10.625  1.00  0.00     0.012 C 
ENDBRANCH  28  30
ENDBRANCH  26  27
ENDBRANCH   1  26
TORSDOF 6
ENDMDL
MODEL 3
REMARK minimizedAffinity -6.59860086
REMARK CNNscore 0.529373229
REMARK CNNaffinity 6.5214324
REMARK  6 active torsions:
REMARK  status: ('A' for Active; 'I' for Inactive)
REMARK    1  A    between atoms: C2_2  and  C3_3 
REMARK    2  A    between atoms: C5_5  and  C6_6 
REMARK    3  A    between atoms: C6_6  and  C7_7 
REMARK    4  A    between atoms: C8_8  and  C9_9 
REMARK       I    between atoms: C9_9  and  N1_11 
REMARK    5  A    between atoms: N1_11  and  C10_12 
REMARK    6  A    between atoms: C10_12  and  C12_14 
ROOT
HETATM    1  C7  UNL     1       0.261  54.087  -9.085  1.00  0.00     0.036 C 
HETATM    2  C8  UNL     1      -0.292  54.304  -7.684  1.00  0.00     0.011 C 
HETATM    3  C18 UNL     1      -1.124  53.398  -7.145  1.00  0.00    -0.013 C 
HETATM    4  C19 UNL     1      -1.554  52.234  -7.973  1.00  0.00     0.034 C 
HETATM    5  C20 UNL     1      -1.977  52.700  -9.387  1.00  0.00     0.005 C 
HETATM    6  C21 UNL     1      -2.477  51.509 -10.283  1.00  0.00    -0.043 C 
HETATM    7  C22 UNL     1      -3.858  51.015  -9.776  1.00  0.00     0.015 C 
HETATM    8  C23 UNL     1      -1.536  50.285 -10.265  1.00  0.00     0.015 C 
HETATM    9  C24 UNL     1      -2.677  52.009 -11.723  1.00  0.00     0.009 C 
HETATM   10  C25 UNL     1      -1.415  52.561 -12.367  1.00  0.00     0.002 C 
HETATM   11  C26 UNL     1      -0.385  53.130 -11.395  1.00  0.00     0.010 C 
HETATM   12  C27 UNL     1      -0.939  53.717 -10.076  1.00  0.00    -0.031 C 
HETATM   13  C28 UNL     1      -1.718  55.017 -10.431  1.00  0.00     0.016 C 
ENDROOT
BRANCH   2  14
HETATM   14  C9  UNL     1       0.061  55.477  -6.848  1.00  0.00     0.248 C 
HETATM   15  O1  UNL     1      -0.475  56.565  -7.000  1.00  0.00    -0.268 OA
HETATM   16  N1  UNL     1       1.031  55.184  -5.923  1.00  0.00    -0.349 N 
HETATM   17  H11 UNL     1       1.504  54.294  -6.005  1.00  0.00     0.163 HD
BRANCH  16  18
HETATM   18  C10 UNL     1       1.691  56.226  -5.158  1.00  0.00     0.114 C 
HETATM   19  C11 UNL     1       1.897  55.766  -3.713  1.00  0.00     0.037 C 
BRANCH  18  20
HETATM   20  C12 UNL     1       2.989  56.616  -5.844  1.00  0.00    -0.036 A 
HETATM   21  C13 UNL     1       4.206  56.111  -5.358  1.00  0.00     0.009 A 
HETATM   22  C14 UNL     1       5.416  56.462  -5.957  1.00  0.00     0.001 A 
HETATM   23  C15 UNL     1       5.431  57.331  -7.044  1.00  0.00     0.000 A 
HETATM   24  C16 UNL     1       4.235  57.861  -7.526  1.00  0.00     0.001 A 
HETATM   25  C17 UNL     1       3.023  57.510  -6.927  1.00  0.00     0.009 A 
ENDBRANCH  18  20
ENDBRANCH  16  18
ENDBRANCH   2  14
BRANCH   1  26
HETATM   26  C6  UNL     1       1.220  55.238  -9.525  1.00  0.00     0.038 C 
BRANCH  26  27
HETATM   27  C5  UNL     1       2.691  54.913  -9.493  1.00  0.00    -0.019 C 
HETATM   28  C3  UNL     1       3.694  55.471 -10.203  1.00  0.00    -0.067 C 
HETATM   29  C4  UNL     1       3.505  56.570 -11.218  1.00  0.00     0.048 C 
BRANCH  28  30
HETATM   30  C2  UNL     1       5.054  54.985  -9.979  1.00  0.00    -0.004 C 
HETATM   31  C1  UNL     1       5.432  54.039  -9.109  1.00  0.00     0.012 C 
ENDBRANCH  28  30
ENDBRANCH  26  27
ENDBRANCH   1  26
TORSDOF 6
ENDMDL
MODEL 4
REMARK minimizedAffinity -7.75568914
REMARK CNNscore 0.51106286
REMARK CNNaffinity 6.6052146
REMARK  6 active torsions:
REMARK  status: ('A' for Active; 'I' for Inactive)
REMARK    1  A    between atoms: C2_2  and  C3_3 
REMARK    2  A    between atoms: C5_5  and  C6_6 
REMARK    3  A    between atoms: C6_6  and  C7_7 
REMARK    4  A    between atoms: C8_8  and  C9_9 
REMARK       I    between atoms: C9_9  and  N1_11 
REMARK    5  A    between atoms: N1_11  and  C10_12 
REMARK    6  A    between atoms: C10_12  and  C12_14 
ROOT
HETATM    1  C7  UNL     1       2.229  53.960 -10.141  1.00  0.00     0.036 C 
HETATM    2  C8  UNL     1       2.917  52.729 -10.713  1.00  0.00     0.011 C 
HETATM    3  C18 UNL     1       3.938  52.163 -10.048  1.00  0.00    -0.013 C 
HETATM    4  C19 UNL     1       4.428  52.810  -8.797  1.00  0.00     0.034 C 
HETATM    5  C20 UNL     1       4.592  54.335  -9.003  1.00  0.00     0.005 C 
HETATM    6  C21 UNL     1       5.148  55.053  -7.718  1.00  0.00    -0.043 C 
HETATM    7  C22 UNL     1       6.640  54.682  -7.513  1.00  0.00     0.015 C 
HETATM    8  C23 UNL     1       4.410  54.657  -6.421  1.00  0.00     0.015 C 
HETATM    9  C24 UNL     1       5.084  56.576  -7.925  1.00  0.00     0.009 C 
HETATM   10  C25 UNL     1       3.683  57.110  -8.172  1.00  0.00     0.002 C 
HETATM   11  C26 UNL     1       2.712  56.117  -8.804  1.00  0.00     0.010 C 
HETATM   12  C27 UNL     1       3.335  55.036  -9.719  1.00  0.00    -0.031 C 
HETATM   13  C28 UNL     1       3.859  55.749 -10.999  1.00  0.00     0.016 C 
ENDROOT
BRANCH   2  14
HETATM   14  C9  UNL     1       2.502  52.088 -11.984  1.00  0.00     0.248 C 
HETATM   15  O1  UNL     1       1.426  52.330 -12.510  1.00  0.00    -0.268 OA
HETATM   16  N1  UNL     1       3.451  51.222 -12.465  1.00  0.00    -0.349 N 
HETATM   17  H11 UNL     1       4.226  50.991 -11.857  1.00  0.00     0.163 HD
BRANCH  16  18
HETATM   18  C10 UNL     1       3.168  50.318 -13.564  1.00  0.00     0.114 C 
HETATM   19  C11 UNL     1       2.048  49.350 -13.172  1.00  0.00     0.037 C 
BRANCH  18  20
HETATM   20  C12 UNL     1       2.844  51.119 -14.813  1.00  0.00    -0.036 A 
HETATM   21  C13 UNL     1       3.775  52.056 -15.292  1.00  0.00     0.009 A 
HETATM   22  C14 UNL     1       3.501  52.818 -16.429  1.00  0.00     0.001 A 
HETATM   23  C15 UNL     1       2.291  52.662 -17.099  1.00  0.00     0.000 A 
HETATM   24  C16 UNL     1       1.346  51.753 -16.625  1.00  0.00     0.001 A 
HETATM   25  C17 UNL     1       1.619  50.991 -15.488  1.00  0.00     0.009 A 
ENDBRANCH  18  20
ENDBRANCH  16  18
ENDBRANCH   2  14
BRANCH   1  26
HETATM   26  C6  UNL     1       1.061  54.457 -11.049  1.00  0.00     0.038 C 
BRANCH  26  27
HETATM   27  C5  UNL     1      -0.303  53.906 -10.722  1.00  0.00    -0.019 C 
HETATM   28  C3  UNL     1      -1.331  54.514 -10.093  1.00  0.00    -0.067 C 
HETATM   29  C4  UNL     1      -1.286  55.926  -9.568  1.00  0.00     0.048 C 
BRANCH  28  30
HETATM   30  C2  UNL     1      -2.570  53.762  -9.906  1.00  0.00    -0.004 C 
HETATM   31  C1  UNL     1      -3.730  53.959 -10.547  1.00  0.00     0.012 C 
ENDBRANCH  28  30
ENDBRANCH  26  27
ENDBRANCH   1  26
TORSDOF 6
ENDMDL
MODEL 5
REMARK minimizedAffinity -6.42716312
REMARK CNNscore 0.468270838
REMARK CNNaffinity 6.45270538
REMARK  6 active torsions:
REMARK  status: ('A' for Active; 'I' for Inactive)
REMARK    1  A    between atoms: C2_2  and  C3_3 
REMARK    2  A    between atoms: C5_5  and  C6_6 
REMARK    3  A    between atoms: C6_6  and  C7_7 
REMARK    4  A    between atoms: C8_8  and  C9_9 
REMARK       I    between atoms: C9_9  and  N1_11 
REMARK    5  A    between atoms: N1_11  and  C10_12 
REMARK    6  A    between atoms: C10_12  and  C12_14 
ROOT
HETATM    1  C7  UNL     1       0.017  54.070 -10.974  1.00  0.00     0.036 C 
HETATM    2  C8  UNL     1       1.067  53.029 -11.332  1.00  0.00     0.011 C 
HETATM    3  C18 UNL     1       0.759  52.028 -12.173  1.00  0.00    -0.013 C 
HETATM    4  C19 UNL     1      -0.642  51.915 -12.673  1.00  0.00     0.034 C 
HETATM    5  C20 UNL     1      -1.649  52.079 -11.508  1.00  0.00     0.005 C 
HETATM    6  C21 UNL     1      -3.140  51.925 -11.984  1.00  0.00    -0.043 C 
HETATM    7  C22 UNL     1      -3.428  50.442 -12.336  1.00  0.00     0.015 C 
HETATM    8  C23 UNL     1      -3.475  52.753 -13.243  1.00  0.00     0.015 C 
HETATM    9  C24 UNL     1      -4.079  52.307 -10.828  1.00  0.00     0.009 C 
HETATM   10  C25 UNL     1      -3.907  53.734 -10.334  1.00  0.00     0.002 C 
HETATM   11  C26 UNL     1      -2.517  54.330 -10.543  1.00  0.00     0.010 C 
HETATM   12  C27 UNL     1      -1.337  53.330 -10.548  1.00  0.00    -0.031 C 
HETATM   13  C28 UNL     1      -1.178  52.784  -9.099  1.00  0.00     0.016 C 
ENDROOT
BRANCH   2  14
HETATM   14  C9  UNL     1       2.455  53.069 -10.812  1.00  0.00     0.248 C 
HETATM   15  O1  UNL     1       3.333  53.721 -11.357  1.00  0.00    -0.268 OA
HETATM   16  N1  UNL     1       2.610  52.305  -9.683  1.00  0.00    -0.349 N 
HETATM   17  H11 UNL     1       1.850  51.690  -9.425  1.00  0.00     0.163 HD
BRANCH  16  18
HETATM   18  C10 UNL     1       3.923  52.013  -9.137  1.00  0.00     0.114 C 
HETATM   19  C11 UNL     1       4.726  51.165 -10.127  1.00  0.00     0.037 C 
BRANCH  18  20
HETATM   20  C12 UNL     1       4.622  53.310  -8.769  1.00  0.00    -0.036 A 
HETATM   21  C13 UNL     1       5.898  53.579  -9.291  1.00  0.00     0.009 A 
HETATM   22  C14 UNL     1       6.572  54.755  -8.960  1.00  0.00     0.001 A 
HETATM   23  C15 UNL     1       5.987  55.676  -8.095  1.00  0.00     0.000 A 
HETATM   24  C16 UNL     1       4.731  55.415  -7.550  1.00  0.00     0.001 A 
HETATM   25  C17 UNL     1       4.055  54.239  -7.880  1.00  0.00     0.009 A 
ENDBRANCH  18  20
ENDBRANCH  16  18
ENDBRANCH   2  14
BRANCH   1  26
HETATM   26  C6  UNL     1       0.571  55.157  -9.999  1.00  0.00     0.038 C 
BRANCH  26  27
HETATM   27  C5  UNL     1       0.618  54.767  -8.544  1.00  0.00    -0.019 C 
HETATM   28  C3  UNL     1       0.390  55.535  -7.457  1.00  0.00    -0.067 C 
HETATM   29  C4  UNL     1       0.042  57.000  -7.513  1.00  0.00     0.048 C 
BRANCH  28  30
HETATM   30  C2  UNL     1       0.485  54.912  -6.138  1.00  0.00    -0.004 C 
HETATM   31  C1  UNL     1       0.848  53.651  -5.873  1.00  0.00     0.012 C 
ENDBRANCH  28  30
ENDBRANCH  26  27
ENDBRANCH   1  26
TORSDOF 6
ENDMDL
MODEL 6
REMARK minimizedAffinity -7.21040535
REMARK CNNscore 0.381431639
REMARK CNNaffinity 5.75030565
REMARK  6 active torsions:
REMARK  status: ('A' for Active; 'I' for Inactive)
REMARK    1  A    between atoms: C2_2  and  C3_3 
REMARK    2  A    between atoms: C5_5  and  C6_6 
REMARK    3  A    between atoms: C6_6  and  C7_7 
REMARK    4  A    between atoms: C8_8  and  C9_9 
REMARK       I    between atoms: C9_9  and  N1_11 
REMARK    5  A    between atoms: N1_11  and  C10_12 
REMARK    6  A    between atoms: C10_12  and  C12_14 
ROOT
HETATM    1  C7  UNL     1      -6.410  46.654 -28.511  1.00  0.00     0.036 C 
HETATM    2  C8  UNL     1      -7.473  45.725 -27.942  1.00  0.00     0.011 C 
HETATM    3  C18 UNL     1      -7.821  44.615 -28.613  1.00  0.00    -0.013 C 
HETATM    4  C19 UNL     1      -7.210  44.362 -29.950  1.00  0.00     0.034 C 
HETATM    5  C20 UNL     1      -7.246  45.646 -30.815  1.00  0.00     0.005 C 
HETATM    6  C21 UNL     1      -6.649  45.414 -32.251  1.00  0.00    -0.043 C 
HETATM    7  C22 UNL     1      -7.619  44.540 -33.088  1.00  0.00     0.015 C 
HETATM    8  C23 UNL     1      -5.288  44.683 -32.243  1.00  0.00     0.015 C 
HETATM    9  C24 UNL     1      -6.524  46.767 -32.969  1.00  0.00     0.009 C 
HETATM   10  C25 UNL     1      -5.623  47.765 -32.260  1.00  0.00     0.002 C 
HETATM   11  C26 UNL     1      -5.516  47.583 -30.749  1.00  0.00     0.010 C 
HETATM   12  C27 UNL     1      -6.746  46.965 -30.044  1.00  0.00    -0.031 C 
HETATM   13  C28 UNL     1      -7.897  48.011 -30.106  1.00  0.00     0.016 C 
ENDROOT
BRANCH   2  14
HETATM   14  C9  UNL     1      -8.149  45.969 -26.645  1.00  0.00     0.248 C 
HETATM   15  O1  UNL     1      -7.881  45.322 -25.643  1.00  0.00    -0.268 OA
HETATM   16  N1  UNL     1      -9.078  46.975 -26.722  1.00  0.00    -0.349 N 
HETATM   17  H11 UNL     1      -9.318  47.322 -27.642  1.00  0.00     0.163 HD
BRANCH  16  18
HETATM   18  C10 UNL     1     -10.016  47.229 -25.645  1.00  0.00     0.114 C 
HETATM   19  C11 UNL     1     -10.827  45.966 -25.346  1.00  0.00     0.037 C 
BRANCH  18  20
HETATM   20  C12 UNL     1      -9.267  47.751 -24.430  1.00  0.00    -0.036 A 
HETATM   21  C13 UNL     1      -8.461  48.895 -24.555  1.00  0.00     0.009 A 
HETATM   22  C14 UNL     1      -7.750  49.390 -23.461  1.00  0.00     0.001 A 
HETATM   23  C15 UNL     1      -7.825  48.746 -22.229  1.00  0.00     0.000 A 
HETATM   24  C16 UNL     1      -8.602  47.596 -22.092  1.00  0.00     0.001 A 
HETATM   25  C17 UNL     1      -9.314  47.100 -23.186  1.00  0.00     0.009 A 
ENDBRANCH  18  20
ENDBRANCH  16  18
ENDBRANCH   2  14
BRANCH   1  26
HETATM   26  C6  UNL     1      -6.136  47.877 -27.579  1.00  0.00     0.038 C 
BRANCH  26  27
HETATM   27  C5  UNL     1      -4.686  48.228 -27.371  1.00  0.00    -0.019 C 
HETATM   28  C3  UNL     1      -4.029  48.450 -26.212  1.00  0.00    -0.067 C 
HETATM   29  C4  UNL     1      -4.671  48.392 -24.850  1.00  0.00     0.048 C 
BRANCH  28  30
HETATM   30  C2  UNL     1      -2.603  48.764 -26.275  1.00  0.00    -0.004 C 
HETATM   31  C1  UNL     1      -2.058  49.961 -26.533  1.00  0.00     0.012 C 
ENDBRANCH  28  30
ENDBRANCH  26  27
ENDBRANCH   1  26
TORSDOF 6
ENDMDL
MODEL 7
REMARK minimizedAffinity -7.01954746
REMARK CNNscore 0.34631148
REMARK CNNaffinity 5.89764071
REMARK  6 active torsions:
REMARK  status: ('A' for Active; 'I' for Inactive)
REMARK    1  A    between atoms: C2_2  and  C3_3 
REMARK    2  A    between atoms: C5_5  and  C6_6 
REMARK    3  A    between atoms: C6_6  and  C7_7 
REMARK    4  A    between atoms: C8_8  and  C9_9 
REMARK       I    between atoms: C9_9  and  N1_11 
REMARK    5  A    between atoms: N1_11  and  C10_12 
REMARK    6  A    between atoms: C10_12  and  C12_14 
ROOT
HETATM    1  C7  UNL     1       2.676  54.555  -8.526  1.00  0.00     0.036 C 
HETATM    2  C8  UNL     1       1.892  53.469  -9.248  1.00  0.00     0.011 C 
HETATM    3  C18 UNL     1       2.402  52.231  -9.351  1.00  0.00    -0.013 C 
HETATM    4  C19 UNL     1       3.773  51.972  -8.823  1.00  0.00     0.034 C 
HETATM    5  C20 UNL     1       4.749  53.084  -9.276  1.00  0.00     0.005 C 
HETATM    6  C21 UNL     1       6.217  52.829  -8.775  1.00  0.00    -0.043 C 
HETATM    7  C22 UNL     1       6.839  51.640  -9.553  1.00  0.00     0.015 C 
HETATM    8  C23 UNL     1       6.305  52.471  -7.275  1.00  0.00     0.015 C 
HETATM    9  C24 UNL     1       7.076  54.068  -9.079  1.00  0.00     0.009 C 
HETATM   10  C25 UNL     1       6.585  55.342  -8.412  1.00  0.00     0.002 C 
HETATM   11  C26 UNL     1       5.087  55.386  -8.120  1.00  0.00     0.010 C 
HETATM   12  C27 UNL     1       4.179  54.574  -9.073  1.00  0.00    -0.031 C 
HETATM   13  C28 UNL     1       4.203  55.281 -10.460  1.00  0.00     0.016 C 
ENDROOT
BRANCH   2  14
HETATM   14  C9  UNL     1       0.552  53.697  -9.841  1.00  0.00     0.248 C 
HETATM   15  O1  UNL     1       0.387  53.802 -11.048  1.00  0.00    -0.268 OA
HETATM   16  N1  UNL     1      -0.433  53.773  -8.889  1.00  0.00    -0.349 N 
HETATM   17  H11 UNL     1      -0.146  53.829  -7.921  1.00  0.00     0.163 HD
BRANCH  16  18
HETATM   18  C10 UNL     1      -1.775  54.217  -9.218  1.00  0.00     0.114 C 
HETATM   19  C11 UNL     1      -1.719  55.311 -10.287  1.00  0.00     0.037 C 
BRANCH  18  20
HETATM   20  C12 UNL     1      -2.618  53.025  -9.636  1.00  0.00    -0.036 A 
HETATM   21  C13 UNL     1      -2.443  51.792  -8.985  1.00  0.00     0.009 A 
HETATM   22  C14 UNL     1      -3.193  50.675  -9.356  1.00  0.00     0.001 A 
HETATM   23  C15 UNL     1      -4.121  50.769 -10.389  1.00  0.00     0.000 A 
HETATM   24  C16 UNL     1      -4.292  51.978 -11.063  1.00  0.00     0.001 A 
HETATM   25  C17 UNL     1      -3.543  53.096 -10.692  1.00  0.00     0.009 A 
ENDBRANCH  18  20
ENDBRANCH  16  18
ENDBRANCH   2  14
BRANCH   1  26
HETATM   26  C6  UNL     1       1.910  55.916  -8.499  1.00  0.00     0.038 C 
BRANCH  26  27
HETATM   27  C5  UNL     1       1.382  56.343  -7.154  1.00  0.00    -0.019 C 
HETATM   28  C3  UNL     1       1.818  57.339  -6.354  1.00  0.00    -0.067 C 
HETATM   29  C4  UNL     1       2.982  58.239  -6.680  1.00  0.00     0.048 C 
BRANCH  28  30
HETATM   30  C2  UNL     1       1.122  57.565  -5.089  1.00  0.00    -0.004 C 
HETATM   31  C1  UNL     1      -0.124  57.181  -4.782  1.00  0.00     0.012 C 
ENDBRANCH  28  30
ENDBRANCH  26  27
ENDBRANCH   1  26
TORSDOF 6
ENDMDL
MODEL 8
REMARK minimizedAffinity -7.28467226
REMARK CNNscore 0.335191995
REMARK CNNaffinity 5.74084044
REMARK  6 active torsions:
REMARK  status: ('A' for Active; 'I' for Inactive)
REMARK    1  A    between atoms: C2_2  and  C3_3 
REMARK    2  A    between atoms: C5_5  and  C6_6 
REMARK    3  A    between atoms: C6_6  and  C7_7 
REMARK    4  A    between atoms: C8_8  and  C9_9 
REMARK       I    between atoms: C9_9  and  N1_11 
REMARK    5  A    between atoms: N1_11  and  C10_12 
REMARK    6  A    between atoms: C10_12  and  C12_14 
ROOT
HETATM    1  C7  UNL     1      -6.416  46.614 -28.855  1.00  0.00     0.036 C 
HETATM    2  C8  UNL     1      -7.390  45.700 -28.125  1.00  0.00     0.011 C 
HETATM    3  C18 UNL     1      -7.725  44.515 -28.660  1.00  0.00    -0.013 C 
HETATM    4  C19 UNL     1      -7.194  44.157 -30.007  1.00  0.00     0.034 C 
HETATM    5  C20 UNL     1      -7.352  45.346 -30.986  1.00  0.00     0.005 C 
HETATM    6  C21 UNL     1      -6.840  44.999 -32.432  1.00  0.00    -0.043 C 
HETATM    7  C22 UNL     1      -7.819  44.004 -33.110  1.00  0.00     0.015 C 
HETATM    8  C23 UNL     1      -5.448  44.332 -32.451  1.00  0.00     0.015 C 
HETATM    9  C24 UNL     1      -6.832  46.278 -33.284  1.00  0.00     0.009 C 
HETATM   10  C25 UNL     1      -5.937  47.380 -32.740  1.00  0.00     0.002 C 
HETATM   11  C26 UNL     1      -5.720  47.353 -31.230  1.00  0.00     0.010 C 
HETATM   12  C27 UNL     1      -6.869  46.756 -30.383  1.00  0.00    -0.031 C 
HETATM   13  C28 UNL     1      -8.072  47.740 -30.463  1.00  0.00     0.016 C 
ENDROOT
BRANCH   2  14
HETATM   14  C9  UNL     1      -7.990  46.042 -26.812  1.00  0.00     0.248 C 
HETATM   15  O1  UNL     1      -7.891  45.304 -25.843  1.00  0.00    -0.268 OA
HETATM   16  N1  UNL     1      -8.643  47.248 -26.836  1.00  0.00    -0.349 N 
HETATM   17  H11 UNL     1      -8.789  47.684 -27.737  1.00  0.00     0.163 HD
BRANCH  16  18
HETATM   18  C10 UNL     1      -9.493  47.673 -25.740  1.00  0.00     0.114 C 
HETATM   19  C11 UNL     1      -9.162  49.115 -25.347  1.00  0.00     0.037 C 
BRANCH  18  20
HETATM   20  C12 UNL     1     -10.951  47.487 -26.123  1.00  0.00    -0.036 A 
HETATM   21  C13 UNL     1     -11.395  47.921 -27.384  1.00  0.00     0.009 A 
HETATM   22  C14 UNL     1     -12.731  47.777 -27.760  1.00  0.00     0.001 A 
HETATM   23  C15 UNL     1     -13.646  47.205 -26.880  1.00  0.00     0.000 A 
HETATM   24  C16 UNL     1     -13.229  46.789 -25.617  1.00  0.00     0.001 A 
HETATM   25  C17 UNL     1     -11.893  46.933 -25.239  1.00  0.00     0.009 A 
ENDBRANCH  18  20
ENDBRANCH  16  18
ENDBRANCH   2  14
BRANCH   1  26
HETATM   26  C6  UNL     1      -6.142  47.934 -28.067  1.00  0.00     0.038 C 
BRANCH  26  27
HETATM   27  C5  UNL     1      -4.706  48.180 -27.682  1.00  0.00    -0.019 C 
HETATM   28  C3  UNL     1      -4.186  48.395 -26.455  1.00  0.00    -0.067 C 
HETATM   29  C4  UNL     1      -4.999  48.442 -25.187  1.00  0.00     0.048 C 
BRANCH  28  30
HETATM   30  C2  UNL     1      -2.743  48.596 -26.341  1.00  0.00    -0.004 C 
HETATM   31  C1  UNL     1      -2.118  49.726 -25.985  1.00  0.00     0.012 C 
ENDBRANCH  28  30
ENDBRANCH  26  27
ENDBRANCH   1  26
TORSDOF 6
ENDMDL
MODEL 9
REMARK minimizedAffinity -6.62523413
REMARK CNNscore 0.314606011
REMARK CNNaffinity 5.51044273
REMARK  6 active torsions:
REMARK  status: ('A' for Active; 'I' for Inactive)
REMARK    1  A    between atoms: C2_2  and  C3_3 
REMARK    2  A    between atoms: C5_5  and  C6_6 
REMARK    3  A    between atoms: C6_6  and  C7_7 
REMARK    4  A    between atoms: C8_8  and  C9_9 
REMARK       I    between atoms: C9_9  and  N1_11 
REMARK    5  A    between atoms: N1_11  and  C10_12 
REMARK    6  A    between atoms: C10_12  and  C12_14 
ROOT
HETATM    1  C7  UNL     1       5.549  56.648  -6.969  1.00  0.00     0.036 C 
HETATM    2  C8  UNL     1       6.761  55.734  -7.074  1.00  0.00     0.011 C 
HETATM    3  C18 UNL     1       6.997  55.062  -8.213  1.00  0.00    -0.013 C 
HETATM    4  C19 UNL     1       6.010  55.166  -9.327  1.00  0.00     0.034 C 
HETATM    5  C20 UNL     1       4.568  54.993  -8.792  1.00  0.00     0.005 C 
HETATM    6  C21 UNL     1       3.495  55.055  -9.940  1.00  0.00    -0.043 C 
HETATM    7  C22 UNL     1       3.579  53.771 -10.807  1.00  0.00     0.015 C 
HETATM    8  C23 UNL     1       3.685  56.250 -10.899  1.00  0.00     0.015 C 
HETATM    9  C24 UNL     1       2.090  55.088  -9.316  1.00  0.00     0.009 C 
HETATM   10  C25 UNL     1       1.845  56.279  -8.404  1.00  0.00     0.002 C 
HETATM   11  C26 UNL     1       3.093  56.856  -7.740  1.00  0.00     0.010 C 
HETATM   12  C27 UNL     1       4.250  55.864  -7.478  1.00  0.00    -0.031 C 
HETATM   13  C28 UNL     1       3.784  54.883  -6.363  1.00  0.00     0.016 C 
ENDROOT
BRANCH   2  14
HETATM   14  C9  UNL     1       7.735  55.553  -5.971  1.00  0.00     0.248 C 
HETATM   15  O1  UNL     1       7.590  54.696  -5.112  1.00  0.00    -0.268 OA
HETATM   16  N1  UNL     1       8.776  56.444  -6.044  1.00  0.00    -0.349 N 
HETATM   17  H11 UNL     1       8.698  57.202  -6.709  1.00  0.00     0.163 HD
BRANCH  16  18
HETATM   18  C10 UNL     1       9.719  56.603  -4.953  1.00  0.00     0.114 C 
HETATM   19  C11 UNL     1      10.953  55.729  -5.192  1.00  0.00     0.037 C 
BRANCH  18  20
HETATM   20  C12 UNL     1      10.061  58.074  -4.786  1.00  0.00    -0.036 A 
HETATM   21  C13 UNL     1       9.060  59.042  -4.972  1.00  0.00     0.009 A 
HETATM   22  C14 UNL     1       9.346  60.401  -4.839  1.00  0.00     0.001 A 
HETATM   23  C15 UNL     1      10.638  60.815  -4.528  1.00  0.00     0.000 A 
HETATM   24  C16 UNL     1      11.650  59.871  -4.363  1.00  0.00     0.001 A 
HETATM   25  C17 UNL     1      11.364  58.510  -4.495  1.00  0.00     0.009 A 
ENDBRANCH  18  20
ENDBRANCH  16  18
ENDBRANCH   2  14
BRANCH   1  26
HETATM   26  C6  UNL     1       5.458  57.349  -5.577  1.00  0.00     0.038 C 
BRANCH  26  27
HETATM   27  C5  UNL     1       4.072  57.479  -4.999  1.00  0.00    -0.019 C 
HETATM   28  C3  UNL     1       3.529  58.521  -4.334  1.00  0.00    -0.067 C 
HETATM   29  C4  UNL     1       4.261  59.802  -4.025  1.00  0.00     0.048 C 
BRANCH  28  30
HETATM   30  C2  UNL     1       2.144  58.407  -3.882  1.00  0.00    -0.004 C 
HETATM   31  C1  UNL     1       1.593  59.024  -2.829  1.00  0.00     0.012 C 
ENDBRANCH  28  30
ENDBRANCH  26  27
ENDBRANCH   1  26
TORSDOF 6
ENDMDL
