MODEL 1
REMARK minimizedAffinity -9.98458099
REMARK  6 active torsions:
REMARK  status: ('A' for Active; 'I' for Inactive)
REMARK    1  A    between atoms: C2_2  and  C30_32 
REMARK    2  A    between atoms: C3_3  and  C4_4 
REMARK    3  A    between atoms: C4_4  and  C5_5 
REMARK    4  A    between atoms: C5_5  and  C6_6 
REMARK    5  A    between atoms: C6_6  and  C8_8 
REMARK    6  A    between atoms: C30_32  and  O4_34 
ROOT
HETATM    1  C8  UNL     1      -0.505  50.369 -21.523  1.00  0.00    -0.002 C 
HETATM    2  C9  UNL     1      -0.745  49.944 -20.047  1.00  0.00     0.007 C 
HETATM    3  C10 UNL     1      -2.041  49.113 -20.009  1.00  0.00     0.015 C 
HETATM    4  C11 UNL     1      -2.373  48.809 -21.483  1.00  0.00    -0.005 C 
HETATM    5  C12 UNL     1      -1.541  47.554 -21.891  1.00  0.00     0.021 C 
HETATM    6  C13 UNL     1      -3.803  48.480 -21.894  1.00  0.00    -0.000 C 
HETATM    7  C14 UNL     1      -4.271  48.793 -23.130  1.00  0.00    -0.060 C 
HETATM    8  C15 UNL     1      -3.373  49.527 -24.138  1.00  0.00     0.036 C 
HETATM    9  C16 UNL     1      -1.971  49.968 -23.671  1.00  0.00     0.015 C 
HETATM   10  C17 UNL     1      -1.917  50.165 -22.154  1.00  0.00    -0.028 C 
HETATM   11  C18 UNL     1      -2.830  51.377 -21.781  1.00  0.00     0.016 C 
HETATM   12  C19 UNL     1      -5.719  48.478 -23.599  1.00  0.00    -0.014 C 
HETATM   13  C20 UNL     1      -6.526  49.793 -23.503  1.00  0.00     0.020 C 
HETATM   14  C21 UNL     1      -5.714  47.959 -25.058  1.00  0.00     0.021 C 
HETATM   15  C22 UNL     1      -7.044  47.442 -25.586  1.00  0.00     0.080 C 
HETATM   16  C23 UNL     1      -8.145  47.267 -24.570  1.00  0.00     0.135 C 
HETATM   17  O1  UNL     1      -9.317  47.326 -24.953  1.00  0.00    -0.297 OA
HETATM   18  C24 UNL     1      -7.793  46.910 -23.121  1.00  0.00     0.018 C 
HETATM   19  C25 UNL     1      -8.859  47.550 -22.202  1.00  0.00     0.023 C 
HETATM   20  C26 UNL     1      -7.936  45.378 -23.008  1.00  0.00     0.023 C 
HETATM   21  C27 UNL     1      -6.328  47.325 -22.743  1.00  0.00     0.020 C 
HETATM   22  C28 UNL     1      -6.136  47.595 -21.249  1.00  0.00     0.090 C 
HETATM   23  C29 UNL     1      -4.675  47.760 -20.917  1.00  0.00     0.157 C 
HETATM   24  O2  UNL     1      -4.232  47.335 -19.852  1.00  0.00    -0.293 OA
ENDROOT
BRANCH   1  25
HETATM   25  C6  UNL     1       0.197  51.751 -21.635  1.00  0.00    -0.014 C 
HETATM   26  C7  UNL     1      -0.048  52.648 -20.416  1.00  0.00     0.010 C 
BRANCH  25  27
HETATM   27  C5  UNL     1      -0.134  52.510 -22.951  1.00  0.00     0.008 C 
BRANCH  27  28
HETATM   28  C4  UNL     1       0.932  52.574 -24.055  1.00  0.00     0.028 C 
BRANCH  28  29
HETATM   29  C3  UNL     1       0.424  52.411 -25.458  1.00  0.00    -0.013 C 
HETATM   30  C2  UNL     1       1.063  51.901 -26.532  1.00  0.00     0.008 C 
HETATM   31  C1  UNL     1       0.352  51.699 -27.843  1.00  0.00     0.055 C 
BRANCH  30  32
HETATM   32  C30 UNL     1       2.474  51.455 -26.554  1.00  0.00     0.171 C 
HETATM   33  O3  UNL     1       2.932  50.533 -25.904  1.00  0.00    -0.646 OA
BRANCH  32  34
HETATM   34  O4  UNL     1       3.235  52.113 -27.444  1.00  0.00    -0.773 OA
HETATM   35  H44 UNL     1       4.108  51.678 -27.369  1.00  0.00     0.167 HD
ENDBRANCH  32  34
ENDBRANCH  30  32
ENDBRANCH  28  29
ENDBRANCH  27  28
ENDBRANCH  25  27
ENDBRANCH   1  25
TORSDOF 6
ENDMDL
MODEL 2
REMARK minimizedAffinity -9.80558681
REMARK  6 active torsions:
REMARK  status: ('A' for Active; 'I' for Inactive)
REMARK    1  A    between atoms: C2_2  and  C30_32 
REMARK    2  A    between atoms: C3_3  and  C4_4 
REMARK    3  A    between atoms: C4_4  and  C5_5 
REMARK    4  A    between atoms: C5_5  and  C6_6 
REMARK    5  A    between atoms: C6_6  and  C8_8 
REMARK    6  A    between atoms: C30_32  and  O4_34 
ROOT
HETATM    1  C8  UNL     1      -0.494  50.344 -21.438  1.00  0.00    -0.002 C 
HETATM    2  C9  UNL     1      -0.768  49.867 -19.984  1.00  0.00     0.007 C 
HETATM    3  C10 UNL     1      -2.062  49.030 -20.007  1.00  0.00     0.015 C 
HETATM    4  C11 UNL     1      -2.355  48.777 -21.498  1.00  0.00    -0.005 C 
HETATM    5  C12 UNL     1      -1.509  47.540 -21.930  1.00  0.00     0.021 C 
HETATM    6  C13 UNL     1      -3.774  48.458 -21.956  1.00  0.00    -0.000 C 
HETATM    7  C14 UNL     1      -4.214  48.812 -23.190  1.00  0.00    -0.060 C 
HETATM    8  C15 UNL     1      -3.294  49.584 -24.150  1.00  0.00     0.036 C 
HETATM    9  C16 UNL     1      -1.906  50.013 -23.634  1.00  0.00     0.015 C 
HETATM   10  C17 UNL     1      -1.890  50.157 -22.110  1.00  0.00    -0.028 C 
HETATM   11  C18 UNL     1      -2.817  51.352 -21.716  1.00  0.00     0.016 C 
HETATM   12  C19 UNL     1      -5.649  48.509 -23.706  1.00  0.00    -0.014 C 
HETATM   13  C20 UNL     1      -6.463  49.817 -23.584  1.00  0.00     0.020 C 
HETATM   14  C21 UNL     1      -5.606  48.042 -25.182  1.00  0.00     0.021 C 
HETATM   15  C22 UNL     1      -6.920  47.539 -25.760  1.00  0.00     0.080 C 
HETATM   16  C23 UNL     1      -8.045  47.324 -24.778  1.00  0.00     0.135 C 
HETATM   17  O1  UNL     1      -9.207  47.392 -25.187  1.00  0.00    -0.297 OA
HETATM   18  C24 UNL     1      -7.726  46.918 -23.334  1.00  0.00     0.018 C 
HETATM   19  C25 UNL     1      -8.817  47.521 -22.419  1.00  0.00     0.023 C 
HETATM   20  C26 UNL     1      -7.865  45.382 -23.279  1.00  0.00     0.023 C 
HETATM   21  C27 UNL     1      -6.273  47.324 -22.906  1.00  0.00     0.020 C 
HETATM   22  C28 UNL     1      -6.118  47.542 -21.399  1.00  0.00     0.090 C 
HETATM   23  C29 UNL     1      -4.667  47.700 -21.026  1.00  0.00     0.157 C 
HETATM   24  O2  UNL     1      -4.247  47.239 -19.966  1.00  0.00    -0.293 OA
ENDROOT
BRANCH   1  25
HETATM   25  C6  UNL     1       0.204  51.731 -21.483  1.00  0.00    -0.014 C 
HETATM   26  C7  UNL     1       0.128  52.485 -20.151  1.00  0.00     0.010 C 
BRANCH  25  27
HETATM   27  C5  UNL     1      -0.283  52.632 -22.653  1.00  0.00     0.008 C 
BRANCH  27  28
HETATM   28  C4  UNL     1       0.731  53.075 -23.718  1.00  0.00     0.028 C 
BRANCH  28  29
HETATM   29  C3  UNL     1       0.796  52.217 -24.948  1.00  0.00    -0.013 C 
HETATM   30  C2  UNL     1       0.514  52.551 -26.225  1.00  0.00     0.008 C 
HETATM   31  C1  UNL     1       0.755  51.590 -27.358  1.00  0.00     0.055 C 
BRANCH  30  32
HETATM   32  C30 UNL     1      -0.012  53.862 -26.668  1.00  0.00     0.171 C 
HETATM   33  O3  UNL     1      -0.737  54.042 -27.630  1.00  0.00    -0.646 OA
BRANCH  32  34
HETATM   34  O4  UNL     1       0.310  54.877 -25.850  1.00  0.00    -0.773 OA
HETATM   35  H44 UNL     1      -0.142  55.648 -26.248  1.00  0.00     0.167 HD
ENDBRANCH  32  34
ENDBRANCH  30  32
ENDBRANCH  28  29
ENDBRANCH  27  28
ENDBRANCH  25  27
ENDBRANCH   1  25
TORSDOF 6
ENDMDL
MODEL 3
REMARK minimizedAffinity -9.65446186
REMARK  6 active torsions:
REMARK  status: ('A' for Active; 'I' for Inactive)
REMARK    1  A    between atoms: C2_2  and  C30_32 
REMARK    2  A    between atoms: C3_3  and  C4_4 
REMARK    3  A    between atoms: C4_4  and  C5_5 
REMARK    4  A    between atoms: C5_5  and  C6_6 
REMARK    5  A    between atoms: C6_6  and  C8_8 
REMARK    6  A    between atoms: C30_32  and  O4_34 
ROOT
HETATM    1  C8  UNL     1      -4.184  50.240 -24.735  1.00  0.00    -0.002 C 
HETATM    2  C9  UNL     1      -5.639  49.926 -24.288  1.00  0.00     0.007 C 
HETATM    3  C10 UNL     1      -5.653  49.883 -22.749  1.00  0.00     0.015 C 
HETATM    4  C11 UNL     1      -4.293  50.464 -22.314  1.00  0.00    -0.005 C 
HETATM    5  C12 UNL     1      -4.440  52.017 -22.304  1.00  0.00     0.021 C 
HETATM    6  C13 UNL     1      -3.714  50.118 -20.948  1.00  0.00    -0.000 C 
HETATM    7  C14 UNL     1      -2.373  50.064 -20.742  1.00  0.00    -0.060 C 
HETATM    8  C15 UNL     1      -1.399  50.317 -21.904  1.00  0.00     0.036 C 
HETATM    9  C16 UNL     1      -1.992  50.542 -23.310  1.00  0.00     0.015 C 
HETATM   10  C17 UNL     1      -3.367  49.884 -23.455  1.00  0.00    -0.028 C 
HETATM   11  C18 UNL     1      -3.183  48.334 -23.374  1.00  0.00     0.016 C 
HETATM   12  C19 UNL     1      -1.732  49.718 -19.369  1.00  0.00    -0.014 C 
HETATM   13  C20 UNL     1      -1.281  48.241 -19.436  1.00  0.00     0.020 C 
HETATM   14  C21 UNL     1      -0.516  50.637 -19.093  1.00  0.00     0.021 C 
HETATM   15  C22 UNL     1       0.098  50.530 -17.705  1.00  0.00     0.080 C 
HETATM   16  C23 UNL     1      -0.682  49.735 -16.687  1.00  0.00     0.135 C 
HETATM   17  O1  UNL     1      -0.070  49.213 -15.752  1.00  0.00    -0.297 OA
HETATM   18  C24 UNL     1      -2.213  49.688 -16.770  1.00  0.00     0.018 C 
HETATM   19  C25 UNL     1      -2.674  48.311 -16.238  1.00  0.00     0.023 C 
HETATM   20  C26 UNL     1      -2.730  50.764 -15.793  1.00  0.00     0.023 C 
HETATM   21  C27 UNL     1      -2.742  49.997 -18.214  1.00  0.00     0.020 C 
HETATM   22  C28 UNL     1      -4.102  49.362 -18.514  1.00  0.00     0.090 C 
HETATM   23  C29 UNL     1      -4.660  49.880 -19.814  1.00  0.00     0.157 C 
HETATM   24  O2  UNL     1      -5.869  50.068 -19.938  1.00  0.00    -0.293 OA
ENDROOT
BRANCH   1  25
HETATM   25  C6  UNL     1      -3.823  49.572 -26.091  1.00  0.00    -0.014 C 
HETATM   26  C7  UNL     1      -4.482  48.200 -26.276  1.00  0.00     0.010 C 
BRANCH  25  27
HETATM   27  C5  UNL     1      -2.293  49.486 -26.352  1.00  0.00     0.008 C 
BRANCH  27  28
HETATM   28  C4  UNL     1      -1.565  50.726 -26.892  1.00  0.00     0.028 C 
BRANCH  28  29
HETATM   29  C3  UNL     1      -0.074  50.731 -26.718  1.00  0.00    -0.013 C 
HETATM   30  C2  UNL     1       0.793  51.751 -26.890  1.00  0.00     0.008 C 
HETATM   31  C1  UNL     1       2.251  51.606 -26.549  1.00  0.00     0.055 C 
BRANCH  30  32
HETATM   32  C30 UNL     1       0.434  53.101 -27.380  1.00  0.00     0.171 C 
HETATM   33  O3  UNL     1       0.454  54.121 -26.714  1.00  0.00    -0.646 OA
BRANCH  32  34
HETATM   34  O4  UNL     1       0.154  53.143 -28.693  1.00  0.00    -0.773 OA
HETATM   35  H44 UNL     1      -0.013  54.091 -28.864  1.00  0.00     0.167 HD
ENDBRANCH  32  34
ENDBRANCH  30  32
ENDBRANCH  28  29
ENDBRANCH  27  28
ENDBRANCH  25  27
ENDBRANCH   1  25
TORSDOF 6
ENDMDL
MODEL 4
REMARK minimizedAffinity -9.26744843
REMARK  6 active torsions:
REMARK  status: ('A' for Active; 'I' for Inactive)
REMARK    1  A    between atoms: C2_2  and  C30_32 
REMARK    2  A    between atoms: C3_3  and  C4_4 
REMARK    3  A    between atoms: C4_4  and  C5_5 
REMARK    4  A    between atoms: C5_5  and  C6_6 
REMARK    5  A    between atoms: C6_6  and  C8_8 
REMARK    6  A    between atoms: C30_32  and  O4_34 
ROOT
HETATM    1  C8  UNL     1      -4.796  48.277 -20.305  1.00  0.00    -0.002 C 
HETATM    2  C9  UNL     1      -5.491  47.468 -21.436  1.00  0.00     0.007 C 
HETATM    3  C10 UNL     1      -4.802  47.841 -22.762  1.00  0.00     0.015 C 
HETATM    4  C11 UNL     1      -3.534  48.616 -22.358  1.00  0.00    -0.005 C 
HETATM    5  C12 UNL     1      -2.430  47.560 -22.044  1.00  0.00     0.021 C 
HETATM    6  C13 UNL     1      -2.881  49.582 -23.339  1.00  0.00    -0.000 C 
HETATM    7  C14 UNL     1      -2.206  50.679 -22.908  1.00  0.00    -0.060 C 
HETATM    8  C15 UNL     1      -2.117  50.994 -21.407  1.00  0.00     0.036 C 
HETATM    9  C16 UNL     1      -2.886  50.083 -20.428  1.00  0.00     0.015 C 
HETATM   10  C17 UNL     1      -4.082  49.409 -21.106  1.00  0.00    -0.028 C 
HETATM   11  C18 UNL     1      -5.124  50.512 -21.480  1.00  0.00     0.016 C 
HETATM   12  C19 UNL     1      -1.522  51.693 -23.867  1.00  0.00    -0.014 C 
HETATM   13  C20 UNL     1      -2.455  52.921 -23.973  1.00  0.00     0.020 C 
HETATM   14  C21 UNL     1      -0.141  52.118 -23.309  1.00  0.00     0.021 C 
HETATM   15  C22 UNL     1       0.717  52.969 -24.232  1.00  0.00     0.080 C 
HETATM   16  C23 UNL     1       0.242  53.099 -25.658  1.00  0.00     0.135 C 
HETATM   17  O1  UNL     1       0.573  54.097 -26.302  1.00  0.00    -0.297 OA
HETATM   18  C24 UNL     1      -0.538  51.948 -26.307  1.00  0.00     0.018 C 
HETATM   19  C25 UNL     1      -1.533  52.562 -27.319  1.00  0.00     0.023 C 
HETATM   20  C26 UNL     1       0.494  51.125 -27.105  1.00  0.00     0.023 C 
HETATM   21  C27 UNL     1      -1.232  51.025 -25.246  1.00  0.00     0.020 C 
HETATM   22  C28 UNL     1      -2.477  50.312 -25.779  1.00  0.00     0.090 C 
HETATM   23  C29 UNL     1      -2.960  49.273 -24.800  1.00  0.00     0.157 C 
HETATM   24  O2  UNL     1      -3.434  48.214 -25.207  1.00  0.00    -0.293 OA
ENDROOT
BRANCH   1  25
HETATM   25  C6  UNL     1      -5.773  48.644 -19.154  1.00  0.00    -0.014 C 
HETATM   26  C7  UNL     1      -5.515  47.847 -17.870  1.00  0.00     0.010 C 
BRANCH  25  27
HETATM   27  C5  UNL     1      -7.271  48.560 -19.561  1.00  0.00     0.008 C 
BRANCH  27  28
HETATM   28  C4  UNL     1      -8.339  48.986 -18.544  1.00  0.00     0.028 C 
BRANCH  28  29
HETATM   29  C3  UNL     1      -9.726  48.476 -18.806  1.00  0.00    -0.013 C 
HETATM   30  C2  UNL     1     -10.528  47.755 -17.994  1.00  0.00     0.008 C 
HETATM   31  C1  UNL     1     -11.947  47.434 -18.378  1.00  0.00     0.055 C 
BRANCH  30  32
HETATM   32  C30 UNL     1     -10.149  47.239 -16.659  1.00  0.00     0.171 C 
HETATM   33  O3  UNL     1      -9.703  46.129 -16.434  1.00  0.00    -0.646 OA
BRANCH  32  34
HETATM   34  O4  UNL     1     -10.255  48.150 -15.678  1.00  0.00    -0.773 OA
HETATM   35  H44 UNL     1      -9.931  47.677 -14.886  1.00  0.00     0.167 HD
ENDBRANCH  32  34
ENDBRANCH  30  32
ENDBRANCH  28  29
ENDBRANCH  27  28
ENDBRANCH  25  27
ENDBRANCH   1  25
TORSDOF 6
ENDMDL
MODEL 5
REMARK minimizedAffinity -9.24515438
REMARK  6 active torsions:
REMARK  status: ('A' for Active; 'I' for Inactive)
REMARK    1  A    between atoms: C2_2  and  C30_32 
REMARK    2  A    between atoms: C3_3  and  C4_4 
REMARK    3  A    between atoms: C4_4  and  C5_5 
REMARK    4  A    between atoms: C5_5  and  C6_6 
REMARK    5  A    between atoms: C6_6  and  C8_8 
REMARK    6  A    between atoms: C30_32  and  O4_34 
ROOT
HETATM    1  C8  UNL     1      -1.853  48.726 -18.446  1.00  0.00    -0.002 C 
HETATM    2  C9  UNL     1      -2.990  47.806 -18.974  1.00  0.00     0.007 C 
HETATM    3  C10 UNL     1      -3.098  48.029 -20.494  1.00  0.00     0.015 C 
HETATM    4  C11 UNL     1      -1.842  48.834 -20.877  1.00  0.00    -0.005 C 
HETATM    5  C12 UNL     1      -0.683  47.809 -21.078  1.00  0.00     0.021 C 
HETATM    6  C13 UNL     1      -1.833  49.684 -22.143  1.00  0.00    -0.000 C 
HETATM    7  C14 UNL     1      -1.087  50.815 -22.228  1.00  0.00    -0.060 C 
HETATM    8  C15 UNL     1      -0.256  51.289 -21.026  1.00  0.00     0.036 C 
HETATM    9  C16 UNL     1      -0.368  50.494 -19.709  1.00  0.00     0.015 C 
HETATM   10  C17 UNL     1      -1.708  49.761 -19.605  1.00  0.00    -0.028 C 
HETATM   11  C18 UNL     1      -2.846  50.825 -19.492  1.00  0.00     0.016 C 
HETATM   12  C19 UNL     1      -1.042  51.716 -23.494  1.00  0.00    -0.014 C 
HETATM   13  C20 UNL     1      -1.956  52.932 -23.222  1.00  0.00     0.020 C 
HETATM   14  C21 UNL     1       0.407  52.187 -23.772  1.00  0.00     0.021 C 
HETATM   15  C22 UNL     1       0.628  52.928 -25.082  1.00  0.00     0.080 C 
HETATM   16  C23 UNL     1      -0.518  52.907 -26.064  1.00  0.00     0.135 C 
HETATM   17  O1  UNL     1      -0.613  53.828 -26.879  1.00  0.00    -0.297 OA
HETATM   18  C24 UNL     1      -1.463  51.700 -26.104  1.00  0.00     0.018 C 
HETATM   19  C25 UNL     1      -2.865  52.209 -26.512  1.00  0.00     0.023 C 
HETATM   20  C26 UNL     1      -0.949  50.788 -27.237  1.00  0.00     0.023 C 
HETATM   21  C27 UNL     1      -1.469  50.901 -24.754  1.00  0.00     0.020 C 
HETATM   22  C28 UNL     1      -2.775  50.145 -24.498  1.00  0.00     0.090 C 
HETATM   23  C29 UNL     1      -2.635  49.220 -23.316  1.00  0.00     0.157 C 
HETATM   24  O2  UNL     1      -3.199  48.127 -23.316  1.00  0.00    -0.293 OA
ENDROOT
BRANCH   1  25
HETATM   25  C6  UNL     1      -2.118  49.223 -16.998  1.00  0.00    -0.014 C 
HETATM   26  C7  UNL     1      -2.925  50.525 -16.948  1.00  0.00     0.010 C 
BRANCH  25  27
HETATM   27  C5  UNL     1      -0.827  49.344 -16.139  1.00  0.00     0.008 C 
BRANCH  27  28
HETATM   28  C4  UNL     1      -0.075  50.683 -16.120  1.00  0.00     0.028 C 
BRANCH  28  29
HETATM   29  C3  UNL     1       1.131  50.738 -15.228  1.00  0.00    -0.013 C 
HETATM   30  C2  UNL     1       2.218  51.531 -15.327  1.00  0.00     0.008 C 
HETATM   31  C1  UNL     1       3.284  51.536 -14.264  1.00  0.00     0.055 C 
BRANCH  30  32
HETATM   32  C30 UNL     1       2.479  52.489 -16.426  1.00  0.00     0.171 C 
HETATM   33  O3  UNL     1       1.788  52.626 -17.420  1.00  0.00    -0.646 OA
BRANCH  32  34
HETATM   34  O4  UNL     1       3.531  53.294 -16.203  1.00  0.00    -0.773 OA
HETATM   35  H44 UNL     1       3.540  53.884 -16.982  1.00  0.00     0.167 HD
ENDBRANCH  32  34
ENDBRANCH  30  32
ENDBRANCH  28  29
ENDBRANCH  27  28
ENDBRANCH  25  27
ENDBRANCH   1  25
TORSDOF 6
ENDMDL
MODEL 6
REMARK minimizedAffinity -9.22093105
REMARK  6 active torsions:
REMARK  status: ('A' for Active; 'I' for Inactive)
REMARK    1  A    between atoms: C2_2  and  C30_32 
REMARK    2  A    between atoms: C3_3  and  C4_4 
REMARK    3  A    between atoms: C4_4  and  C5_5 
REMARK    4  A    between atoms: C5_5  and  C6_6 
REMARK    5  A    between atoms: C6_6  and  C8_8 
REMARK    6  A    between atoms: C30_32  and  O4_34 
ROOT
HETATM    1  C8  UNL     1      -1.787  50.717 -22.665  1.00  0.00    -0.002 C 
HETATM    2  C9  UNL     1      -1.300  52.184 -22.829  1.00  0.00     0.007 C 
HETATM    3  C10 UNL     1      -0.533  52.564 -21.549  1.00  0.00     0.015 C 
HETATM    4  C11 UNL     1      -0.320  51.238 -20.794  1.00  0.00    -0.005 C 
HETATM    5  C12 UNL     1       0.952  50.565 -21.396  1.00  0.00     0.021 C 
HETATM    6  C13 UNL     1      -0.083  51.243 -19.288  1.00  0.00    -0.000 C 
HETATM    7  C14 UNL     1      -0.480  50.205 -18.508  1.00  0.00    -0.060 C 
HETATM    8  C15 UNL     1      -1.219  49.008 -19.125  1.00  0.00     0.036 C 
HETATM    9  C16 UNL     1      -1.567  49.068 -20.626  1.00  0.00     0.015 C 
HETATM   10  C17 UNL     1      -1.684  50.511 -21.122  1.00  0.00    -0.028 C 
HETATM   11  C18 UNL     1      -2.919  51.172 -20.429  1.00  0.00     0.016 C 
HETATM   12  C19 UNL     1      -0.261  50.161 -16.969  1.00  0.00    -0.014 C 
HETATM   13  C20 UNL     1      -1.607  50.530 -16.305  1.00  0.00     0.020 C 
HETATM   14  C21 UNL     1       0.184  48.745 -16.527  1.00  0.00     0.021 C 
HETATM   15  C22 UNL     1       0.608  48.603 -15.073  1.00  0.00     0.080 C 
HETATM   16  C23 UNL     1       0.780  49.886 -14.298  1.00  0.00     0.135 C 
HETATM   17  O1  UNL     1       0.645  49.858 -13.072  1.00  0.00    -0.297 OA
HETATM   18  C24 UNL     1       1.227  51.160 -15.026  1.00  0.00     0.018 C 
HETATM   19  C25 UNL     1       0.583  52.368 -14.306  1.00  0.00     0.023 C 
HETATM   20  C26 UNL     1       2.754  51.256 -14.827  1.00  0.00     0.023 C 
HETATM   21  C27 UNL     1       0.904  51.115 -16.560  1.00  0.00     0.020 C 
HETATM   22  C28 UNL     1       0.719  52.500 -17.185  1.00  0.00     0.090 C 
HETATM   23  C29 UNL     1       0.643  52.404 -18.688  1.00  0.00     0.157 C 
HETATM   24  O2  UNL     1       1.143  53.281 -19.389  1.00  0.00    -0.293 OA
ENDROOT
BRANCH   1  25
HETATM   25  C6  UNL     1      -3.137  50.456 -23.389  1.00  0.00    -0.014 C 
HETATM   26  C7  UNL     1      -4.314  50.287 -22.422  1.00  0.00     0.010 C 
BRANCH  25  27
HETATM   27  C5  UNL     1      -3.081  49.274 -24.397  1.00  0.00     0.008 C 
BRANCH  27  28
HETATM   28  C4  UNL     1      -3.081  49.585 -25.901  1.00  0.00     0.028 C 
BRANCH  28  29
HETATM   29  C3  UNL     1      -1.770  50.047 -26.469  1.00  0.00    -0.013 C 
HETATM   30  C2  UNL     1      -1.415  51.285 -26.872  1.00  0.00     0.008 C 
HETATM   31  C1  UNL     1      -0.007  51.594 -27.304  1.00  0.00     0.055 C 
BRANCH  30  32
HETATM   32  C30 UNL     1      -2.312  52.462 -26.904  1.00  0.00     0.171 C 
HETATM   33  O3  UNL     1      -3.163  52.723 -26.073  1.00  0.00    -0.646 OA
BRANCH  32  34
HETATM   34  O4  UNL     1      -2.057  53.308 -27.916  1.00  0.00    -0.773 OA
HETATM   35  H44 UNL     1      -2.690  54.039 -27.772  1.00  0.00     0.167 HD
ENDBRANCH  32  34
ENDBRANCH  30  32
ENDBRANCH  28  29
ENDBRANCH  27  28
ENDBRANCH  25  27
ENDBRANCH   1  25
TORSDOF 6
ENDMDL
MODEL 7
REMARK minimizedAffinity -9.18918133
REMARK  6 active torsions:
REMARK  status: ('A' for Active; 'I' for Inactive)
REMARK    1  A    between atoms: C2_2  and  C30_32 
REMARK    2  A    between atoms: C3_3  and  C4_4 
REMARK    3  A    between atoms: C4_4  and  C5_5 
REMARK    4  A    between atoms: C5_5  and  C6_6 
REMARK    5  A    between atoms: C6_6  and  C8_8 
REMARK    6  A    between atoms: C30_32  and  O4_34 
ROOT
HETATM    1  C8  UNL     1      -3.651  50.259 -24.437  1.00  0.00    -0.002 C 
HETATM    2  C9  UNL     1      -5.066  49.712 -24.099  1.00  0.00     0.007 C 
HETATM    3  C10 UNL     1      -5.195  49.676 -22.564  1.00  0.00     0.015 C 
HETATM    4  C11 UNL     1      -3.988  50.475 -22.036  1.00  0.00    -0.005 C 
HETATM    5  C12 UNL     1      -4.388  51.983 -22.066  1.00  0.00     0.021 C 
HETATM    6  C13 UNL     1      -3.471  50.237 -20.623  1.00  0.00    -0.000 C 
HETATM    7  C14 UNL     1      -2.160  50.406 -20.313  1.00  0.00    -0.060 C 
HETATM    8  C15 UNL     1      -1.151  50.809 -21.400  1.00  0.00     0.036 C 
HETATM    9  C16 UNL     1      -1.659  50.925 -22.851  1.00  0.00     0.015 C 
HETATM   10  C17 UNL     1      -2.891  50.049 -23.090  1.00  0.00    -0.028 C 
HETATM   11  C18 UNL     1      -2.464  48.551 -22.967  1.00  0.00     0.016 C 
HETATM   12  C19 UNL     1      -1.582  50.177 -18.888  1.00  0.00    -0.014 C 
HETATM   13  C20 UNL     1      -0.891  48.795 -18.891  1.00  0.00     0.020 C 
HETATM   14  C21 UNL     1      -0.560  51.286 -18.535  1.00  0.00     0.021 C 
HETATM   15  C22 UNL     1      -0.049  51.289 -17.101  1.00  0.00     0.080 C 
HETATM   16  C23 UNL     1      -0.767  50.382 -16.133  1.00  0.00     0.135 C 
HETATM   17  O1  UNL     1      -0.154  49.973 -15.143  1.00  0.00    -0.297 OA
HETATM   18  C24 UNL     1      -2.257  50.082 -16.334  1.00  0.00     0.018 C 
HETATM   19  C25 UNL     1      -2.528  48.652 -15.813  1.00  0.00     0.023 C 
HETATM   20  C26 UNL     1      -3.020  51.065 -15.420  1.00  0.00     0.023 C 
HETATM   21  C27 UNL     1      -2.714  50.292 -17.820  1.00  0.00     0.020 C 
HETATM   22  C28 UNL     1      -3.923  49.441 -18.213  1.00  0.00     0.090 C 
HETATM   23  C29 UNL     1      -4.452  49.852 -19.562  1.00  0.00     0.157 C 
HETATM   24  O2  UNL     1      -5.662  49.838 -19.782  1.00  0.00    -0.293 OA
ENDROOT
BRANCH   1  25
HETATM   25  C6  UNL     1      -3.079  49.651 -25.747  1.00  0.00    -0.014 C 
HETATM   26  C7  UNL     1      -2.916  50.686 -26.867  1.00  0.00     0.010 C 
BRANCH  25  27
HETATM   27  C5  UNL     1      -3.871  48.413 -26.254  1.00  0.00     0.008 C 
BRANCH  27  28
HETATM   28  C4  UNL     1      -3.995  48.184 -27.767  1.00  0.00     0.028 C 
BRANCH  28  29
HETATM   29  C3  UNL     1      -5.393  47.997 -28.284  1.00  0.00    -0.013 C 
HETATM   30  C2  UNL     1      -5.854  48.144 -29.543  1.00  0.00     0.008 C 
HETATM   31  C1  UNL     1      -7.272  47.792 -29.905  1.00  0.00     0.055 C 
BRANCH  30  32
HETATM   32  C30 UNL     1      -5.052  48.614 -30.696  1.00  0.00     0.171 C 
HETATM   33  O3  UNL     1      -4.794  47.958 -31.690  1.00  0.00    -0.646 OA
BRANCH  32  34
HETATM   34  O4  UNL     1      -4.680  49.901 -30.607  1.00  0.00    -0.773 OA
HETATM   35  H44 UNL     1      -4.210  50.066 -31.448  1.00  0.00     0.167 HD
ENDBRANCH  32  34
ENDBRANCH  30  32
ENDBRANCH  28  29
ENDBRANCH  27  28
ENDBRANCH  25  27
ENDBRANCH   1  25
TORSDOF 6
ENDMDL
MODEL 8
REMARK minimizedAffinity -9.07924461
REMARK  6 active torsions:
REMARK  status: ('A' for Active; 'I' for Inactive)
REMARK    1  A    between atoms: C2_2  and  C30_32 
REMARK    2  A    between atoms: C3_3  and  C4_4 
REMARK    3  A    between atoms: C4_4  and  C5_5 
REMARK    4  A    between atoms: C5_5  and  C6_6 
REMARK    5  A    between atoms: C6_6  and  C8_8 
REMARK    6  A    between atoms: C30_32  and  O4_34 
ROOT
HETATM    1  C8  UNL     1      -1.800  51.356 -22.359  1.00  0.00    -0.002 C 
HETATM    2  C9  UNL     1      -3.179  51.985 -22.704  1.00  0.00     0.007 C 
HETATM    3  C10 UNL     1      -4.252  51.206 -21.921  1.00  0.00     0.015 C 
HETATM    4  C11 UNL     1      -3.472  50.345 -20.909  1.00  0.00    -0.005 C 
HETATM    5  C12 UNL     1      -3.176  51.246 -19.670  1.00  0.00     0.021 C 
HETATM    6  C13 UNL     1      -4.102  49.083 -20.331  1.00  0.00    -0.000 C 
HETATM    7  C14 UNL     1      -3.342  48.019 -19.964  1.00  0.00    -0.060 C 
HETATM    8  C15 UNL     1      -1.818  48.050 -20.159  1.00  0.00     0.036 C 
HETATM    9  C16 UNL     1      -1.202  49.278 -20.859  1.00  0.00     0.015 C 
HETATM   10  C17 UNL     1      -2.211  49.966 -21.782  1.00  0.00    -0.028 C 
HETATM   11  C18 UNL     1      -2.544  48.996 -22.961  1.00  0.00     0.016 C 
HETATM   12  C19 UNL     1      -3.934  46.711 -19.369  1.00  0.00    -0.014 C 
HETATM   13  C20 UNL     1      -3.964  45.665 -20.506  1.00  0.00     0.020 C 
HETATM   14  C21 UNL     1      -3.056  46.203 -18.198  1.00  0.00     0.021 C 
HETATM   15  C22 UNL     1      -3.614  45.030 -17.406  1.00  0.00     0.080 C 
HETATM   16  C23 UNL     1      -5.049  44.655 -17.687  1.00  0.00     0.135 C 
HETATM   17  O1  UNL     1      -5.407  43.493 -17.476  1.00  0.00    -0.297 OA
HETATM   18  C24 UNL     1      -6.048  45.737 -18.115  1.00  0.00     0.018 C 
HETATM   19  C25 UNL     1      -7.084  45.081 -19.056  1.00  0.00     0.023 C 
HETATM   20  C26 UNL     1      -6.789  46.169 -16.832  1.00  0.00     0.023 C 
HETATM   21  C27 UNL     1      -5.341  46.984 -18.752  1.00  0.00     0.020 C 
HETATM   22  C28 UNL     1      -6.228  47.751 -19.736  1.00  0.00     0.090 C 
HETATM   23  C29 UNL     1      -5.584  49.054 -20.134  1.00  0.00     0.157 C 
HETATM   24  O2  UNL     1      -6.275  50.055 -20.318  1.00  0.00    -0.293 OA
ENDROOT
BRANCH   1  25
HETATM   25  C6  UNL     1      -0.800  51.433 -23.546  1.00  0.00    -0.014 C 
HETATM   26  C7  UNL     1       0.304  52.474 -23.334  1.00  0.00     0.010 C 
BRANCH  25  27
HETATM   27  C5  UNL     1      -1.490  51.637 -24.925  1.00  0.00     0.008 C 
BRANCH  27  28
HETATM   28  C4  UNL     1      -1.121  50.698 -26.082  1.00  0.00     0.028 C 
BRANCH  28  29
HETATM   29  C3  UNL     1       0.310  50.755 -26.534  1.00  0.00    -0.013 C 
HETATM   30  C2  UNL     1       0.978  51.786 -27.092  1.00  0.00     0.008 C 
HETATM   31  C1  UNL     1       2.455  51.703 -27.372  1.00  0.00     0.055 C 
BRANCH  30  32
HETATM   32  C30 UNL     1       0.384  53.093 -27.451  1.00  0.00     0.171 C 
HETATM   33  O3  UNL     1       0.369  54.081 -26.739  1.00  0.00    -0.646 OA
BRANCH  32  34
HETATM   34  O4  UNL     1      -0.086  53.146 -28.709  1.00  0.00    -0.773 OA
HETATM   35  H44 UNL     1      -0.395  54.069 -28.802  1.00  0.00     0.167 HD
ENDBRANCH  32  34
ENDBRANCH  30  32
ENDBRANCH  28  29
ENDBRANCH  27  28
ENDBRANCH  25  27
ENDBRANCH   1  25
TORSDOF 6
ENDMDL
MODEL 9
REMARK minimizedAffinity -8.95970058
REMARK  6 active torsions:
REMARK  status: ('A' for Active; 'I' for Inactive)
REMARK    1  A    between atoms: C2_2  and  C30_32 
REMARK    2  A    between atoms: C3_3  and  C4_4 
REMARK    3  A    between atoms: C4_4  and  C5_5 
REMARK    4  A    between atoms: C5_5  and  C6_6 
REMARK    5  A    between atoms: C6_6  and  C8_8 
REMARK    6  A    between atoms: C30_32  and  O4_34 
ROOT
HETATM    1  C8  UNL     1      -4.501  47.908 -20.329  1.00  0.00    -0.002 C 
HETATM    2  C9  UNL     1      -5.244  47.152 -21.466  1.00  0.00     0.007 C 
HETATM    3  C10 UNL     1      -4.639  47.616 -22.804  1.00  0.00     0.015 C 
HETATM    4  C11 UNL     1      -3.365  48.395 -22.425  1.00  0.00    -0.005 C 
HETATM    5  C12 UNL     1      -2.225  47.346 -22.236  1.00  0.00     0.021 C 
HETATM    6  C13 UNL     1      -2.786  49.430 -23.382  1.00  0.00    -0.000 C 
HETATM    7  C14 UNL     1      -2.109  50.514 -22.924  1.00  0.00    -0.060 C 
HETATM    8  C15 UNL     1      -1.941  50.743 -21.414  1.00  0.00     0.036 C 
HETATM    9  C16 UNL     1      -2.635  49.759 -20.451  1.00  0.00     0.015 C 
HETATM   10  C17 UNL     1      -3.855  49.100 -21.100  1.00  0.00    -0.028 C 
HETATM   11  C18 UNL     1      -4.937  50.201 -21.349  1.00  0.00     0.016 C 
HETATM   12  C19 UNL     1      -1.500  51.598 -23.858  1.00  0.00    -0.014 C 
HETATM   13  C20 UNL     1      -2.460  52.809 -23.839  1.00  0.00     0.020 C 
HETATM   14  C21 UNL     1      -0.097  52.019 -23.353  1.00  0.00     0.021 C 
HETATM   15  C22 UNL     1       0.692  52.941 -24.271  1.00  0.00     0.080 C 
HETATM   16  C23 UNL     1       0.133  53.143 -25.658  1.00  0.00     0.135 C 
HETATM   17  O1  UNL     1       0.409  54.185 -26.259  1.00  0.00    -0.297 OA
HETATM   18  C24 UNL     1      -0.661  52.016 -26.329  1.00  0.00     0.018 C 
HETATM   19  C25 UNL     1      -1.723  52.666 -27.246  1.00  0.00     0.023 C 
HETATM   20  C26 UNL     1       0.339  51.264 -27.232  1.00  0.00     0.023 C 
HETATM   21  C27 UNL     1      -1.276  51.017 -25.288  1.00  0.00     0.020 C 
HETATM   22  C28 UNL     1      -2.536  50.310 -25.792  1.00  0.00     0.090 C 
HETATM   23  C29 UNL     1      -2.943  49.205 -24.852  1.00  0.00     0.157 C 
HETATM   24  O2  UNL     1      -3.420  48.161 -25.294  1.00  0.00    -0.293 OA
ENDROOT
BRANCH   1  25
HETATM   25  C6  UNL     1      -5.418  48.187 -19.105  1.00  0.00    -0.014 C 
HETATM   26  C7  UNL     1      -6.648  49.030 -19.458  1.00  0.00     0.010 C 
BRANCH  25  27
HETATM   27  C5  UNL     1      -4.663  48.797 -17.891  1.00  0.00     0.008 C 
BRANCH  27  28
HETATM   28  C4  UNL     1      -3.692  47.908 -17.101  1.00  0.00     0.028 C 
BRANCH  28  29
HETATM   29  C3  UNL     1      -2.242  48.284 -17.196  1.00  0.00    -0.013 C 
HETATM   30  C2  UNL     1      -1.660  49.474 -16.936  1.00  0.00     0.008 C 
HETATM   31  C1  UNL     1      -0.164  49.638 -16.966  1.00  0.00     0.055 C 
BRANCH  30  32
HETATM   32  C30 UNL     1      -2.380  50.713 -16.565  1.00  0.00     0.171 C 
HETATM   33  O3  UNL     1      -2.754  51.001 -15.442  1.00  0.00    -0.646 OA
BRANCH  32  34
HETATM   34  O4  UNL     1      -2.525  51.579 -17.582  1.00  0.00    -0.773 OA
HETATM   35  H44 UNL     1      -2.968  52.347 -17.170  1.00  0.00     0.167 HD
ENDBRANCH  32  34
ENDBRANCH  30  32
ENDBRANCH  28  29
ENDBRANCH  27  28
ENDBRANCH  25  27
ENDBRANCH   1  25
TORSDOF 6
ENDMDL
