MODEL 1
REMARK minimizedAffinity -9.36813259
REMARK CNNscore 0.36731112
REMARK CNNaffinity 6.26146507
REMARK  11 active torsions:
REMARK  status: ('A' for Active; 'I' for Inactive)
REMARK    1  A    between atoms: C5_5  and  C6_6 
REMARK    2  A    between atoms: C8_8  and  C9_9 
REMARK    3  A    between atoms: C9_9  and  O1_10 
REMARK    4  A    between atoms: C11_12  and  C12_13 
REMARK    5  A    between atoms: C12_13  and  C13_14 
REMARK    6  A    between atoms: C13_14  and  O2_15 
REMARK    7  A    between atoms: C13_14  and  C14_16 
REMARK    8  A    between atoms: C14_16  and  O3_18 
REMARK    9  A    between atoms: C24_29  and  O6_30 
REMARK   10  A    between atoms: C29_35  and  C30_36 
REMARK   11  A    between atoms: C30_36  and  O7_37 
ROOT
HETATM    1  C1  UNL     1      -6.906  42.853 -23.200  1.00  0.00     0.036 C 
HETATM    2  C2  UNL     1      -8.083  43.607 -23.738  1.00  0.00    -0.018 C 
HETATM    3  C3  UNL     1      -8.364  44.917 -23.582  1.00  0.00     0.015 C 
HETATM    4  C4  UNL     1      -9.602  45.544 -24.199  1.00  0.00     0.066 C 
HETATM    5  C5  UNL     1     -10.962  45.070 -23.599  1.00  0.00     0.102 C 
HETATM    6  C17 UNL     1     -11.086  45.434 -22.168  1.00  0.00    -0.096 C 
HETATM    7  C18 UNL     1     -11.032  45.813 -21.028  1.00  0.00    -0.096 C 
HETATM    8  C19 UNL     1     -10.665  46.370 -19.709  1.00  0.00     0.110 C 
HETATM    9  C20 UNL     1     -11.859  46.800 -18.884  1.00  0.00     0.133 C 
HETATM   10  C21 UNL     1     -11.394  47.268 -17.527  1.00  0.00     0.265 C 
HETATM   11  O4  UNL     1     -12.029  47.038 -16.501  1.00  0.00    -0.265 OA
HETATM   12  O5  UNL     1     -10.234  48.042 -17.496  1.00  0.00    -0.278 OA
HETATM   13  C22 UNL     1      -9.505  48.304 -18.671  1.00  0.00     0.089 A 
HETATM   14  C23 UNL     1      -8.541  49.311 -18.645  1.00  0.00     0.075 A 
HETATM   15  C24 UNL     1      -7.810  49.581 -19.806  1.00  0.00     0.074 A 
HETATM   16  C25 UNL     1      -8.063  48.888 -20.994  1.00  0.00    -0.022 A 
HETATM   17  C26 UNL     1      -9.062  47.913 -20.981  1.00  0.00     0.021 A 
HETATM   18  C27 UNL     1      -9.742  47.558 -19.816  1.00  0.00    -0.007 A 
HETATM   19  C28 UNL     1      -7.310  49.130 -22.287  1.00  0.00     0.077 C 
HETATM   20  C29 UNL     1      -6.390  47.948 -22.733  1.00  0.00     0.171 C 
HETATM   21  O9  UNL     1      -7.220  46.953 -23.405  1.00  0.00    -0.309 OA
HETATM   22  C40 UNL     1      -7.464  45.781 -22.759  1.00  0.00     0.289 C 
HETATM   23  O10 UNL     1      -7.021  45.454 -21.671  1.00  0.00    -0.260 OA
ENDROOT
BRANCH   5  24
HETATM   24  C6  UNL     1     -12.122  45.643 -24.406  1.00  0.00    -0.041 A 
HETATM   25  C7  UNL     1     -11.893  46.503 -25.494  1.00  0.00     0.017 A 
HETATM   26  C8  UNL     1     -12.952  47.006 -26.262  1.00  0.00    -0.034 A 
HETATM   27  C10 UNL     1     -14.262  46.655 -25.915  1.00  0.00     0.016 A 
HETATM   28  C11 UNL     1     -14.520  45.804 -24.830  1.00  0.00    -0.054 A 
HETATM   29  C16 UNL     1     -13.445  45.302 -24.083  1.00  0.00     0.015 A 
BRANCH  26  30
HETATM   30  C9  UNL     1     -12.691  47.955 -27.402  1.00  0.00     0.202 C 
BRANCH  30  31
HETATM   31  O1  UNL     1     -12.017  49.116 -26.931  1.00  0.00    -0.396 OA
HETATM   32  H11 UNL     1     -11.850  49.674 -27.708  1.00  0.00     0.209 HD
ENDBRANCH  30  31
ENDBRANCH  26  30
BRANCH  28  33
HETATM   33  C12 UNL     1     -15.943  45.452 -24.460  1.00  0.00     0.073 C 
BRANCH  33  34
HETATM   34  C13 UNL     1     -16.735  46.669 -23.957  1.00  0.00     0.150 C 
BRANCH  34  35
HETATM   35  O2  UNL     1     -16.957  46.558 -22.536  1.00  0.00    -0.393 OA
HETATM   36  H16 UNL     1     -16.077  46.590 -22.114  1.00  0.00     0.210 HD
ENDBRANCH  34  35
BRANCH  34  37
HETATM   37  C14 UNL     1     -18.129  46.789 -24.607  1.00  0.00     0.143 C 
HETATM   38  C15 UNL     1     -19.250  46.167 -23.789  1.00  0.00     0.042 C 
BRANCH  37  39
HETATM   39  O3  UNL     1     -18.087  46.114 -25.871  1.00  0.00    -0.393 OA
HETATM   40  H21 UNL     1     -17.270  46.444 -26.298  1.00  0.00     0.210 HD
ENDBRANCH  37  39
ENDBRANCH  34  37
ENDBRANCH  33  34
ENDBRANCH  28  33
ENDBRANCH   5  24
BRANCH  20  41
HETATM   41  C30 UNL     1      -5.253  48.441 -23.707  1.00  0.00     0.089 C 
HETATM   42  C31 UNL     1      -3.881  47.816 -23.347  1.00  0.00     0.041 C 
HETATM   43  C32 UNL     1      -2.662  48.599 -23.849  1.00  0.00     0.004 C 
HETATM   44  C33 UNL     1      -2.923  49.418 -25.102  1.00  0.00     0.005 C 
HETATM   45  C34 UNL     1      -4.164  50.336 -25.025  1.00  0.00    -0.001 C 
HETATM   46  C35 UNL     1      -3.800  51.819 -25.130  1.00  0.00     0.083 C 
HETATM   47  C39 UNL     1      -5.129  50.000 -23.838  1.00  0.00     0.027 C 
HETATM   48  C36 UNL     1      -3.402  52.370 -23.790  1.00  0.00     0.127 C 
HETATM   49  O8  UNL     1      -2.343  52.966 -23.609  1.00  0.00    -0.298 OA
HETATM   50  C37 UNL     1      -4.426  52.207 -22.705  1.00  0.00     0.079 C 
HETATM   51  C38 UNL     1      -4.763  50.734 -22.530  1.00  0.00     0.015 C 
BRANCH  41  52
HETATM   52  O7  UNL     1      -5.616  48.012 -25.041  1.00  0.00    -0.387 OA
HETATM   53  H32 UNL     1      -5.342  47.090 -25.181  1.00  0.00     0.210 HD
ENDBRANCH  41  52
ENDBRANCH  20  41
BRANCH  15  54
HETATM   54  O6  UNL     1      -6.842  50.545 -19.799  1.00  0.00    -0.360 OA
HETATM   55  H27 UNL     1      -6.789  50.933 -18.907  1.00  0.00     0.217 HD
ENDBRANCH  15  54
TORSDOF 11
ENDMDL
MODEL 2
REMARK minimizedAffinity -9.46528435
REMARK CNNscore 0.271635741
REMARK CNNaffinity 6.28535604
REMARK  11 active torsions:
REMARK  status: ('A' for Active; 'I' for Inactive)
REMARK    1  A    between atoms: C5_5  and  C6_6 
REMARK    2  A    between atoms: C8_8  and  C9_9 
REMARK    3  A    between atoms: C9_9  and  O1_10 
REMARK    4  A    between atoms: C11_12  and  C12_13 
REMARK    5  A    between atoms: C12_13  and  C13_14 
REMARK    6  A    between atoms: C13_14  and  O2_15 
REMARK    7  A    between atoms: C13_14  and  C14_16 
REMARK    8  A    between atoms: C14_16  and  O3_18 
REMARK    9  A    between atoms: C24_29  and  O6_30 
REMARK   10  A    between atoms: C29_35  and  C30_36 
REMARK   11  A    between atoms: C30_36  and  O7_37 
ROOT
HETATM    1  C1  UNL     1      -7.089  41.863 -21.823  1.00  0.00     0.036 C 
HETATM    2  C2  UNL     1      -7.366  42.856 -22.909  1.00  0.00    -0.018 C 
HETATM    3  C3  UNL     1      -7.580  44.181 -22.779  1.00  0.00     0.015 C 
HETATM    4  C4  UNL     1      -7.842  45.066 -23.985  1.00  0.00     0.066 C 
HETATM    5  C5  UNL     1      -9.194  44.811 -24.721  1.00  0.00     0.102 C 
HETATM    6  C17 UNL     1     -10.357  45.092 -23.846  1.00  0.00    -0.096 C 
HETATM    7  C18 UNL     1     -11.181  45.374 -23.017  1.00  0.00    -0.096 C 
HETATM    8  C19 UNL     1     -11.935  45.761 -21.807  1.00  0.00     0.110 C 
HETATM    9  C20 UNL     1     -13.298  46.346 -22.108  1.00  0.00     0.133 C 
HETATM   10  C21 UNL     1     -14.025  46.626 -20.815  1.00  0.00     0.265 C 
HETATM   11  O4  UNL     1     -15.234  46.447 -20.691  1.00  0.00    -0.265 OA
HETATM   12  O5  UNL     1     -13.268  47.169 -19.777  1.00  0.00    -0.278 OA
HETATM   13  C22 UNL     1     -11.884  47.373 -19.917  1.00  0.00     0.089 A 
HETATM   14  C23 UNL     1     -11.232  48.180 -18.987  1.00  0.00     0.075 A 
HETATM   15  C24 UNL     1      -9.855  48.391 -19.116  1.00  0.00     0.074 A 
HETATM   16  C25 UNL     1      -9.140  47.840 -20.184  1.00  0.00    -0.022 A 
HETATM   17  C26 UNL     1      -9.841  47.067 -21.111  1.00  0.00     0.021 A 
HETATM   18  C27 UNL     1     -11.195  46.764 -20.956  1.00  0.00    -0.007 A 
HETATM   19  C28 UNL     1      -7.649  48.028 -20.385  1.00  0.00     0.077 C 
HETATM   20  C29 UNL     1      -6.800  46.730 -20.192  1.00  0.00     0.171 C 
HETATM   21  O9  UNL     1      -6.867  45.954 -21.426  1.00  0.00    -0.309 OA
HETATM   22  C40 UNL     1      -7.595  44.805 -21.422  1.00  0.00     0.289 C 
HETATM   23  O10 UNL     1      -8.179  44.328 -20.463  1.00  0.00    -0.260 OA
ENDROOT
BRANCH   5  24
HETATM   24  C6  UNL     1      -9.264  45.642 -25.997  1.00  0.00    -0.041 A 
HETATM   25  C7  UNL     1     -10.453  46.287 -26.379  1.00  0.00     0.017 A 
HETATM   26  C8  UNL     1     -10.515  47.082 -27.532  1.00  0.00    -0.034 A 
HETATM   27  C10 UNL     1      -9.368  47.211 -28.324  1.00  0.00     0.016 A 
HETATM   28  C11 UNL     1      -8.169  46.572 -27.971  1.00  0.00    -0.054 A 
HETATM   29  C16 UNL     1      -8.126  45.792 -26.807  1.00  0.00     0.015 A 
BRANCH  26  30
HETATM   30  C9  UNL     1     -11.807  47.737 -27.944  1.00  0.00     0.202 C 
BRANCH  30  31
HETATM   31  O1  UNL     1     -12.057  48.881 -27.138  1.00  0.00    -0.396 OA
HETATM   32  H11 UNL     1     -12.882  49.276 -27.466  1.00  0.00     0.209 HD
ENDBRANCH  30  31
ENDBRANCH  26  30
BRANCH  28  33
HETATM   33  C12 UNL     1      -6.946  46.709 -28.850  1.00  0.00     0.073 C 
BRANCH  33  34
HETATM   34  C13 UNL     1      -6.413  48.150 -28.888  1.00  0.00     0.150 C 
BRANCH  34  35
HETATM   35  O2  UNL     1      -6.746  48.764 -30.150  1.00  0.00    -0.393 OA
HETATM   36  H16 UNL     1      -7.721  48.815 -30.185  1.00  0.00     0.210 HD
ENDBRANCH  34  35
BRANCH  34  37
HETATM   37  C14 UNL     1      -4.878  48.225 -28.759  1.00  0.00     0.143 C 
HETATM   38  C15 UNL     1      -4.381  48.341 -27.327  1.00  0.00     0.042 C 
BRANCH  37  39
HETATM   39  O3  UNL     1      -4.431  49.386 -29.471  1.00  0.00    -0.393 OA
HETATM   40  H21 UNL     1      -4.892  49.338 -30.333  1.00  0.00     0.210 HD
ENDBRANCH  37  39
ENDBRANCH  34  37
ENDBRANCH  33  34
ENDBRANCH  28  33
ENDBRANCH   5  24
BRANCH  20  41
HETATM   41  C30 UNL     1      -5.298  47.072 -19.855  1.00  0.00     0.089 C 
HETATM   42  C31 UNL     1      -5.182  48.357 -18.998  1.00  0.00     0.041 C 
HETATM   43  C32 UNL     1      -3.820  49.059 -19.066  1.00  0.00     0.004 C 
HETATM   44  C33 UNL     1      -2.657  48.130 -19.371  1.00  0.00     0.005 C 
HETATM   45  C34 UNL     1      -2.863  47.222 -20.605  1.00  0.00    -0.001 C 
HETATM   46  C35 UNL     1      -1.849  47.510 -21.716  1.00  0.00     0.083 C 
HETATM   47  C39 UNL     1      -4.347  47.154 -21.101  1.00  0.00     0.027 C 
HETATM   48  C36 UNL     1      -2.304  48.656 -22.574  1.00  0.00     0.127 C 
HETATM   49  O8  UNL     1      -1.595  49.633 -22.800  1.00  0.00    -0.298 OA
HETATM   50  C37 UNL     1      -3.658  48.485 -23.199  1.00  0.00     0.079 C 
HETATM   51  C38 UNL     1      -4.702  48.262 -22.115  1.00  0.00     0.015 C 
BRANCH  41  52
HETATM   52  O7  UNL     1      -4.768  45.961 -19.091  1.00  0.00    -0.387 OA
HETATM   53  H32 UNL     1      -5.005  46.059 -18.154  1.00  0.00     0.210 HD
ENDBRANCH  41  52
ENDBRANCH  20  41
BRANCH  15  54
HETATM   54  O6  UNL     1      -9.190  49.158 -18.202  1.00  0.00    -0.360 OA
HETATM   55  H27 UNL     1      -9.822  49.466 -17.528  1.00  0.00     0.217 HD
ENDBRANCH  15  54
TORSDOF 11
ENDMDL
MODEL 3
REMARK minimizedAffinity -8.50702858
REMARK CNNscore 0.270852208
REMARK CNNaffinity 5.28403044
REMARK  11 active torsions:
REMARK  status: ('A' for Active; 'I' for Inactive)
REMARK    1  A    between atoms: C5_5  and  C6_6 
REMARK    2  A    between atoms: C8_8  and  C9_9 
REMARK    3  A    between atoms: C9_9  and  O1_10 
REMARK    4  A    between atoms: C11_12  and  C12_13 
REMARK    5  A    between atoms: C12_13  and  C13_14 
REMARK    6  A    between atoms: C13_14  and  O2_15 
REMARK    7  A    between atoms: C13_14  and  C14_16 
REMARK    8  A    between atoms: C14_16  and  O3_18 
REMARK    9  A    between atoms: C24_29  and  O6_30 
REMARK   10  A    between atoms: C29_35  and  C30_36 
REMARK   11  A    between atoms: C30_36  and  O7_37 
ROOT
HETATM    1  C1  UNL     1     -10.252  40.723 -25.510  1.00  0.00     0.036 C 
HETATM    2  C2  UNL     1     -10.170  41.779 -26.569  1.00  0.00    -0.018 C 
HETATM    3  C3  UNL     1     -10.483  43.087 -26.454  1.00  0.00     0.015 C 
HETATM    4  C4  UNL     1     -10.338  44.044 -27.624  1.00  0.00     0.066 C 
HETATM    5  C5  UNL     1     -11.318  43.801 -28.814  1.00  0.00     0.102 C 
HETATM    6  C17 UNL     1     -12.731  43.988 -28.407  1.00  0.00    -0.096 C 
HETATM    7  C18 UNL     1     -13.812  44.190 -27.920  1.00  0.00    -0.096 C 
HETATM    8  C19 UNL     1     -14.970  44.473 -27.047  1.00  0.00     0.110 C 
HETATM    9  C20 UNL     1     -16.161  45.038 -27.792  1.00  0.00     0.133 C 
HETATM   10  C21 UNL     1     -17.319  45.208 -26.838  1.00  0.00     0.265 C 
HETATM   11  O4  UNL     1     -18.480  44.986 -27.172  1.00  0.00    -0.265 OA
HETATM   12  O5  UNL     1     -17.017  45.700 -25.569  1.00  0.00    -0.278 OA
HETATM   13  C22 UNL     1     -15.687  45.952 -25.186  1.00  0.00     0.089 A 
HETATM   14  C23 UNL     1     -15.457  46.712 -24.040  1.00  0.00     0.075 A 
HETATM   15  C24 UNL     1     -14.139  46.971 -23.650  1.00  0.00     0.074 A 
HETATM   16  C25 UNL     1     -13.059  46.514 -24.412  1.00  0.00    -0.022 A 
HETATM   17  C26 UNL     1     -13.339  45.786 -25.570  1.00  0.00     0.021 A 
HETATM   18  C27 UNL     1     -14.639  45.435 -25.934  1.00  0.00    -0.007 A 
HETATM   19  C28 UNL     1     -11.608  46.757 -24.047  1.00  0.00     0.077 C 
HETATM   20  C29 UNL     1     -10.821  45.474 -23.628  1.00  0.00     0.171 C 
HETATM   21  O9  UNL     1     -10.398  44.782 -24.842  1.00  0.00    -0.309 OA
HETATM   22  C40 UNL     1     -11.019  43.616 -25.164  1.00  0.00     0.289 C 
HETATM   23  O10 UNL     1     -11.884  43.057 -24.510  1.00  0.00    -0.260 OA
ENDROOT
BRANCH   5  24
HETATM   24  C6  UNL     1     -10.965  44.715 -29.982  1.00  0.00    -0.041 A 
HETATM   25  C7  UNL     1     -11.195  44.317 -31.309  1.00  0.00     0.017 A 
HETATM   26  C8  UNL     1     -10.906  45.166 -32.387  1.00  0.00    -0.034 A 
HETATM   27  C10 UNL     1     -10.356  46.427 -32.123  1.00  0.00     0.016 A 
HETATM   28  C11 UNL     1     -10.109  46.847 -30.807  1.00  0.00    -0.054 A 
HETATM   29  C16 UNL     1     -10.418  45.987 -29.744  1.00  0.00     0.015 A 
BRANCH  26  30
HETATM   30  C9  UNL     1     -11.125  44.709 -33.805  1.00  0.00     0.202 C 
BRANCH  30  31
HETATM   31  O1  UNL     1     -12.503  44.806 -34.145  1.00  0.00    -0.396 OA
HETATM   32  H11 UNL     1     -12.579  44.528 -35.073  1.00  0.00     0.209 HD
ENDBRANCH  30  31
ENDBRANCH  26  30
BRANCH  28  33
HETATM   33  C12 UNL     1      -9.498  48.205 -30.544  1.00  0.00     0.073 C 
BRANCH  33  34
HETATM   34  C13 UNL     1      -8.585  48.205 -29.308  1.00  0.00     0.150 C 
BRANCH  34  35
HETATM   35  O2  UNL     1      -8.794  49.410 -28.543  1.00  0.00    -0.393 OA
HETATM   36  H16 UNL     1      -9.716  49.378 -28.221  1.00  0.00     0.210 HD
ENDBRANCH  34  35
BRANCH  34  37
HETATM   37  C14 UNL     1      -7.086  48.174 -29.670  1.00  0.00     0.143 C 
HETATM   38  C15 UNL     1      -6.807  47.862 -31.132  1.00  0.00     0.042 C 
BRANCH  37  39
HETATM   39  O3  UNL     1      -6.461  47.154 -28.880  1.00  0.00    -0.393 OA
HETATM   40  H21 UNL     1      -6.786  47.315 -27.971  1.00  0.00     0.210 HD
ENDBRANCH  37  39
ENDBRANCH  34  37
ENDBRANCH  33  34
ENDBRANCH  28  33
ENDBRANCH   5  24
BRANCH  20  41
HETATM   41  C30 UNL     1      -9.561  45.834 -22.751  1.00  0.00     0.089 C 
HETATM   42  C31 UNL     1      -9.003  44.590 -22.014  1.00  0.00     0.041 C 
HETATM   43  C32 UNL     1      -8.162  44.899 -20.770  1.00  0.00     0.004 C 
HETATM   44  C33 UNL     1      -7.466  46.250 -20.810  1.00  0.00     0.005 C 
HETATM   45  C34 UNL     1      -8.390  47.441 -21.151  1.00  0.00    -0.001 C 
HETATM   46  C35 UNL     1      -8.487  48.450 -20.004  1.00  0.00     0.083 C 
HETATM   47  C39 UNL     1      -9.777  47.019 -21.744  1.00  0.00     0.027 C 
HETATM   48  C36 UNL     1      -9.524  48.028 -19.003  1.00  0.00     0.127 C 
HETATM   49  O8  UNL     1      -9.281  47.927 -17.803  1.00  0.00    -0.298 OA
HETATM   50  C37 UNL     1     -10.899  47.812 -19.563  1.00  0.00     0.079 C 
HETATM   51  C38 UNL     1     -10.849  46.764 -20.664  1.00  0.00     0.015 C 
BRANCH  41  52
HETATM   52  O7  UNL     1      -8.541  46.330 -23.651  1.00  0.00    -0.387 OA
HETATM   53  H32 UNL     1      -8.058  45.587 -24.049  1.00  0.00     0.210 HD
ENDBRANCH  41  52
ENDBRANCH  20  41
BRANCH  15  54
HETATM   54  O6  UNL     1     -13.888  47.691 -22.516  1.00  0.00    -0.360 OA
HETATM   55  H27 UNL     1     -14.736  47.935 -22.103  1.00  0.00     0.217 HD
ENDBRANCH  15  54
TORSDOF 11
ENDMDL
MODEL 4
REMARK minimizedAffinity -8.96692181
REMARK CNNscore 0.245937958
REMARK CNNaffinity 6.04294157
REMARK  11 active torsions:
REMARK  status: ('A' for Active; 'I' for Inactive)
REMARK    1  A    between atoms: C5_5  and  C6_6 
REMARK    2  A    between atoms: C8_8  and  C9_9 
REMARK    3  A    between atoms: C9_9  and  O1_10 
REMARK    4  A    between atoms: C11_12  and  C12_13 
REMARK    5  A    between atoms: C12_13  and  C13_14 
REMARK    6  A    between atoms: C13_14  and  O2_15 
REMARK    7  A    between atoms: C13_14  and  C14_16 
REMARK    8  A    between atoms: C14_16  and  O3_18 
REMARK    9  A    between atoms: C24_29  and  O6_30 
REMARK   10  A    between atoms: C29_35  and  C30_36 
REMARK   11  A    between atoms: C30_36  and  O7_37 
ROOT
HETATM    1  C1  UNL     1      -9.405  42.791 -24.864  1.00  0.00     0.036 C 
HETATM    2  C2  UNL     1     -10.398  43.639 -24.130  1.00  0.00    -0.018 C 
HETATM    3  C3  UNL     1     -10.366  44.975 -23.950  1.00  0.00     0.015 C 
HETATM    4  C4  UNL     1     -11.459  45.700 -23.184  1.00  0.00     0.066 C 
HETATM    5  C5  UNL     1     -11.525  45.387 -21.657  1.00  0.00     0.102 C 
HETATM    6  C17 UNL     1     -10.291  45.813 -20.955  1.00  0.00    -0.096 C 
HETATM    7  C18 UNL     1      -9.240  46.226 -20.543  1.00  0.00    -0.096 C 
HETATM    8  C19 UNL     1      -7.888  46.790 -20.349  1.00  0.00     0.110 C 
HETATM    9  C20 UNL     1      -7.669  47.367 -18.967  1.00  0.00     0.133 C 
HETATM   10  C21 UNL     1      -6.240  47.836 -18.835  1.00  0.00     0.265 C 
HETATM   11  O4  UNL     1      -5.603  47.708 -17.793  1.00  0.00    -0.265 OA
HETATM   12  O5  UNL     1      -5.692  48.490 -19.938  1.00  0.00    -0.278 OA
HETATM   13  C22 UNL     1      -6.422  48.635 -21.132  1.00  0.00     0.089 A 
HETATM   14  C23 UNL     1      -5.962  49.540 -22.087  1.00  0.00     0.075 A 
HETATM   15  C24 UNL     1      -6.679  49.694 -23.278  1.00  0.00     0.074 A 
HETATM   16  C25 UNL     1      -7.865  48.987 -23.501  1.00  0.00    -0.022 A 
HETATM   17  C26 UNL     1      -8.305  48.118 -22.502  1.00  0.00     0.021 A 
HETATM   18  C27 UNL     1      -7.563  47.876 -21.345  1.00  0.00    -0.007 A 
HETATM   19  C28 UNL     1      -8.690  49.105 -24.767  1.00  0.00     0.077 C 
HETATM   20  C29 UNL     1      -8.698  47.822 -25.658  1.00  0.00     0.171 C 
HETATM   21  O9  UNL     1      -9.679  46.891 -25.108  1.00  0.00    -0.309 OA
HETATM   22  C40 UNL     1      -9.221  45.773 -24.482  1.00  0.00     0.289 C 
HETATM   23  O10 UNL     1      -8.053  45.443 -24.365  1.00  0.00    -0.260 OA
ENDROOT
BRANCH   5  24
HETATM   24  C6  UNL     1     -12.754  46.044 -21.038  1.00  0.00    -0.041 A 
HETATM   25  C7  UNL     1     -12.679  46.697 -19.796  1.00  0.00     0.017 A 
HETATM   26  C8  UNL     1     -13.796  47.333 -19.237  1.00  0.00    -0.034 A 
HETATM   27  C10 UNL     1     -15.012  47.292 -19.930  1.00  0.00     0.016 A 
HETATM   28  C11 UNL     1     -15.118  46.640 -21.168  1.00  0.00    -0.054 A 
HETATM   29  C16 UNL     1     -13.985  46.021 -21.714  1.00  0.00     0.015 A 
BRANCH  26  30
HETATM   30  C9  UNL     1     -13.706  47.998 -17.888  1.00  0.00     0.202 C 
BRANCH  30  31
HETATM   31  O1  UNL     1     -15.008  48.198 -17.351  1.00  0.00    -0.396 OA
HETATM   32  H11 UNL     1     -14.887  48.600 -16.475  1.00  0.00     0.209 HD
ENDBRANCH  30  31
ENDBRANCH  26  30
BRANCH  28  33
HETATM   33  C12 UNL     1     -16.444  46.591 -21.891  1.00  0.00     0.073 C 
BRANCH  33  34
HETATM   34  C13 UNL     1     -17.410  45.568 -21.272  1.00  0.00     0.150 C 
BRANCH  34  35
HETATM   35  O2  UNL     1     -17.674  44.509 -22.216  1.00  0.00    -0.393 OA
HETATM   36  H16 UNL     1     -16.824  44.052 -22.365  1.00  0.00     0.210 HD
ENDBRANCH  34  35
BRANCH  34  37
HETATM   37  C14 UNL     1     -18.779  46.178 -20.909  1.00  0.00     0.143 C 
HETATM   38  C15 UNL     1     -18.718  47.228 -19.810  1.00  0.00     0.042 C 
BRANCH  37  39
HETATM   39  O3  UNL     1     -19.629  45.118 -20.451  1.00  0.00    -0.393 OA
HETATM   40  H21 UNL     1     -19.521  44.412 -21.121  1.00  0.00     0.210 HD
ENDBRANCH  37  39
ENDBRANCH  34  37
ENDBRANCH  33  34
ENDBRANCH  28  33
ENDBRANCH   5  24
BRANCH  20  41
HETATM   41  C30 UNL     1      -9.065  48.163 -27.153  1.00  0.00     0.089 C 
HETATM   42  C31 UNL     1     -10.453  47.595 -27.545  1.00  0.00     0.041 C 
HETATM   43  C32 UNL     1     -10.670  47.397 -29.050  1.00  0.00     0.004 C 
HETATM   44  C33 UNL     1      -9.855  48.337 -29.924  1.00  0.00     0.005 C 
HETATM   45  C34 UNL     1      -8.346  48.380 -29.592  1.00  0.00    -0.001 C 
HETATM   46  C35 UNL     1      -7.480  47.882 -30.753  1.00  0.00     0.083 C 
HETATM   47  C39 UNL     1      -7.982  47.743 -28.209  1.00  0.00     0.027 C 
HETATM   48  C36 UNL     1      -7.367  46.385 -30.734  1.00  0.00     0.127 C 
HETATM   49  O8  UNL     1      -7.632  45.690 -31.712  1.00  0.00    -0.298 OA
HETATM   50  C37 UNL     1      -6.832  45.803 -29.458  1.00  0.00     0.079 C 
HETATM   51  C38 UNL     1      -7.710  46.226 -28.290  1.00  0.00     0.015 C 
BRANCH  41  52
HETATM   52  O7  UNL     1      -9.111  49.606 -27.264  1.00  0.00    -0.387 OA
HETATM   53  H32 UNL     1      -9.978  49.934 -26.972  1.00  0.00     0.210 HD
ENDBRANCH  41  52
ENDBRANCH  20  41
BRANCH  15  54
HETATM   54  O6  UNL     1      -6.234  50.556 -24.241  1.00  0.00    -0.360 OA
HETATM   55  H27 UNL     1      -5.405  50.968 -23.937  1.00  0.00     0.217 HD
ENDBRANCH  15  54
TORSDOF 11
ENDMDL
MODEL 5
REMARK minimizedAffinity -9.04310322
REMARK CNNscore 0.226497933
REMARK CNNaffinity 6.2976613
REMARK  11 active torsions:
REMARK  status: ('A' for Active; 'I' for Inactive)
REMARK    1  A    between atoms: C5_5  and  C6_6 
REMARK    2  A    between atoms: C8_8  and  C9_9 
REMARK    3  A    between atoms: C9_9  and  O1_10 
REMARK    4  A    between atoms: C11_12  and  C12_13 
REMARK    5  A    between atoms: C12_13  and  C13_14 
REMARK    6  A    between atoms: C13_14  and  O2_15 
REMARK    7  A    between atoms: C13_14  and  C14_16 
REMARK    8  A    between atoms: C14_16  and  O3_18 
REMARK    9  A    between atoms: C24_29  and  O6_30 
REMARK   10  A    between atoms: C29_35  and  C30_36 
REMARK   11  A    between atoms: C30_36  and  O7_37 
ROOT
HETATM    1  C1  UNL     1      -0.212  50.970  -5.088  1.00  0.00     0.036 C 
HETATM    2  C2  UNL     1      -0.420  52.422  -4.788  1.00  0.00    -0.018 C 
HETATM    3  C3  UNL     1      -0.192  53.473  -5.604  1.00  0.00     0.015 C 
HETATM    4  C4  UNL     1      -0.461  54.899  -5.156  1.00  0.00     0.066 C 
HETATM    5  C5  UNL     1       0.474  55.433  -4.027  1.00  0.00     0.102 C 
HETATM    6  C17 UNL     1       1.889  55.486  -4.466  1.00  0.00    -0.096 C 
HETATM    7  C18 UNL     1       2.976  55.478  -4.981  1.00  0.00    -0.096 C 
HETATM    8  C19 UNL     1       4.153  55.332  -5.862  1.00  0.00     0.110 C 
HETATM    9  C20 UNL     1       5.264  56.312  -5.549  1.00  0.00     0.133 C 
HETATM   10  C21 UNL     1       6.452  56.028  -6.436  1.00  0.00     0.265 C 
HETATM   11  O4  UNL     1       7.608  56.126  -6.032  1.00  0.00    -0.265 OA
HETATM   12  O5  UNL     1       6.179  55.714  -7.767  1.00  0.00    -0.278 OA
HETATM   13  C22 UNL     1       4.855  55.600  -8.229  1.00  0.00     0.089 A 
HETATM   14  C23 UNL     1       4.629  55.584  -9.604  1.00  0.00     0.075 A 
HETATM   15  C24 UNL     1       3.317  55.472 -10.076  1.00  0.00     0.074 A 
HETATM   16  C25 UNL     1       2.236  55.419  -9.191  1.00  0.00    -0.022 A 
HETATM   17  C26 UNL     1       2.508  55.474  -7.823  1.00  0.00     0.021 A 
HETATM   18  C27 UNL     1       3.811  55.493  -7.322  1.00  0.00    -0.007 A 
HETATM   19  C28 UNL     1       0.791  55.298  -9.633  1.00  0.00     0.077 C 
HETATM   20  C29 UNL     1       0.117  53.934  -9.277  1.00  0.00     0.171 C 
HETATM   21  O9  UNL     1      -0.317  53.990  -7.884  1.00  0.00    -0.309 OA
HETATM   22  C40 UNL     1       0.368  53.249  -6.970  1.00  0.00     0.289 C 
HETATM   23  O10 UNL     1       1.300  52.500  -7.206  1.00  0.00    -0.260 OA
ENDROOT
BRANCH   5  24
HETATM   24  C6  UNL     1       0.002  56.805  -3.558  1.00  0.00    -0.041 A 
HETATM   25  C7  UNL     1      -1.366  57.121  -3.501  1.00  0.00     0.017 A 
HETATM   26  C8  UNL     1      -1.810  58.367  -3.038  1.00  0.00    -0.034 A 
HETATM   27  C10 UNL     1      -0.859  59.318  -2.646  1.00  0.00     0.016 A 
HETATM   28  C11 UNL     1       0.514  59.032  -2.700  1.00  0.00    -0.054 A 
HETATM   29  C16 UNL     1       0.935  57.774  -3.155  1.00  0.00     0.015 A 
BRANCH  26  30
HETATM   30  C9  UNL     1      -3.278  58.701  -3.018  1.00  0.00     0.202 C 
BRANCH  30  31
HETATM   31  O1  UNL     1      -3.462  60.098  -2.823  1.00  0.00    -0.396 OA
HETATM   32  H11 UNL     1      -4.420  60.257  -2.848  1.00  0.00     0.209 HD
ENDBRANCH  30  31
ENDBRANCH  26  30
BRANCH  28  33
HETATM   33  C12 UNL     1       1.525  60.079  -2.290  1.00  0.00     0.073 C 
BRANCH  33  34
HETATM   34  C13 UNL     1       0.890  61.216  -1.474  1.00  0.00     0.150 C 
BRANCH  34  35
HETATM   35  O2  UNL     1       0.243  62.153  -2.360  1.00  0.00    -0.393 OA
HETATM   36  H16 UNL     1      -0.485  61.667  -2.794  1.00  0.00     0.210 HD
ENDBRANCH  34  35
BRANCH  34  37
HETATM   37  C14 UNL     1       1.926  62.026  -0.666  1.00  0.00     0.143 C 
HETATM   38  C15 UNL     1       1.445  62.443   0.715  1.00  0.00     0.042 C 
BRANCH  37  39
HETATM   39  O3  UNL     1       2.225  63.219  -1.402  1.00  0.00    -0.393 OA
HETATM   40  H21 UNL     1       2.387  62.909  -2.317  1.00  0.00     0.210 HD
ENDBRANCH  37  39
ENDBRANCH  34  37
ENDBRANCH  33  34
ENDBRANCH  28  33
ENDBRANCH   5  24
BRANCH  20  41
HETATM   41  C30 UNL     1      -1.121  53.645 -10.210  1.00  0.00     0.089 C 
HETATM   42  C31 UNL     1      -2.284  54.633  -9.941  1.00  0.00     0.041 C 
HETATM   43  C32 UNL     1      -3.668  54.137 -10.375  1.00  0.00     0.004 C 
HETATM   44  C33 UNL     1      -3.640  53.147 -11.528  1.00  0.00     0.005 C 
HETATM   45  C34 UNL     1      -2.672  51.958 -11.334  1.00  0.00    -0.001 C 
HETATM   46  C35 UNL     1      -3.404  50.614 -11.283  1.00  0.00     0.083 C 
HETATM   47  C39 UNL     1      -1.639  52.163 -10.175  1.00  0.00     0.027 C 
HETATM   48  C36 UNL     1      -3.912  50.331  -9.899  1.00  0.00     0.127 C 
HETATM   49  O8  UNL     1      -5.086  50.047  -9.671  1.00  0.00    -0.298 OA
HETATM   50  C37 UNL     1      -2.867  50.344  -8.822  1.00  0.00     0.079 C 
HETATM   51  C38 UNL     1      -2.164  51.693  -8.801  1.00  0.00     0.015 C 
BRANCH  41  52
HETATM   52  O7  UNL     1      -0.677  53.820 -11.577  1.00  0.00    -0.387 OA
HETATM   53  H32 UNL     1      -0.709  54.760 -11.819  1.00  0.00     0.210 HD
ENDBRANCH  41  52
ENDBRANCH  20  41
BRANCH  15  54
HETATM   54  O6  UNL     1       3.073  55.427 -11.420  1.00  0.00    -0.360 OA
HETATM   55  H27 UNL     1       3.921  55.474 -11.896  1.00  0.00     0.217 HD
ENDBRANCH  15  54
TORSDOF 11
ENDMDL
MODEL 6
REMARK minimizedAffinity -9.00278473
REMARK CNNscore 0.216014802
REMARK CNNaffinity 5.150352
REMARK  11 active torsions:
REMARK  status: ('A' for Active; 'I' for Inactive)
REMARK    1  A    between atoms: C5_5  and  C6_6 
REMARK    2  A    between atoms: C8_8  and  C9_9 
REMARK    3  A    between atoms: C9_9  and  O1_10 
REMARK    4  A    between atoms: C11_12  and  C12_13 
REMARK    5  A    between atoms: C12_13  and  C13_14 
REMARK    6  A    between atoms: C13_14  and  O2_15 
REMARK    7  A    between atoms: C13_14  and  C14_16 
REMARK    8  A    between atoms: C14_16  and  O3_18 
REMARK    9  A    between atoms: C24_29  and  O6_30 
REMARK   10  A    between atoms: C29_35  and  C30_36 
REMARK   11  A    between atoms: C30_36  and  O7_37 
ROOT
HETATM    1  C1  UNL     1     -10.202  40.818 -25.573  1.00  0.00     0.036 C 
HETATM    2  C2  UNL     1     -10.152  41.886 -26.622  1.00  0.00    -0.018 C 
HETATM    3  C3  UNL     1     -10.522  43.178 -26.501  1.00  0.00     0.015 C 
HETATM    4  C4  UNL     1     -10.404  44.150 -27.662  1.00  0.00     0.066 C 
HETATM    5  C5  UNL     1     -11.360  43.876 -28.864  1.00  0.00     0.102 C 
HETATM    6  C17 UNL     1     -12.783  44.001 -28.472  1.00  0.00    -0.096 C 
HETATM    7  C18 UNL     1     -13.877  44.154 -27.996  1.00  0.00    -0.096 C 
HETATM    8  C19 UNL     1     -15.056  44.380 -27.134  1.00  0.00     0.110 C 
HETATM    9  C20 UNL     1     -16.261  44.901 -27.887  1.00  0.00     0.133 C 
HETATM   10  C21 UNL     1     -17.435  45.016 -26.946  1.00  0.00     0.265 C 
HETATM   11  O4  UNL     1     -18.582  44.749 -27.294  1.00  0.00    -0.265 OA
HETATM   12  O5  UNL     1     -17.168  45.509 -25.669  1.00  0.00    -0.278 OA
HETATM   13  C22 UNL     1     -15.854  45.813 -25.269  1.00  0.00     0.089 A 
HETATM   14  C23 UNL     1     -15.668  46.573 -24.115  1.00  0.00     0.075 A 
HETATM   15  C24 UNL     1     -14.367  46.883 -23.708  1.00  0.00     0.074 A 
HETATM   16  C25 UNL     1     -13.261  46.478 -24.462  1.00  0.00    -0.022 A 
HETATM   17  C26 UNL     1     -13.497  45.749 -25.628  1.00  0.00     0.021 A 
HETATM   18  C27 UNL     1     -14.778  45.347 -26.010  1.00  0.00    -0.007 A 
HETATM   19  C28 UNL     1     -11.825  46.778 -24.079  1.00  0.00     0.077 C 
HETATM   20  C29 UNL     1     -10.990  45.526 -23.661  1.00  0.00     0.171 C 
HETATM   21  O9  UNL     1     -10.525  44.862 -24.875  1.00  0.00    -0.309 OA
HETATM   22  C40 UNL     1     -11.093  43.673 -25.213  1.00  0.00     0.289 C 
HETATM   23  O10 UNL     1     -11.941  43.074 -24.573  1.00  0.00    -0.260 OA
ENDROOT
BRANCH   5  24
HETATM   24  C6  UNL     1     -11.032  44.814 -30.021  1.00  0.00    -0.041 A 
HETATM   25  C7  UNL     1     -11.357  44.473 -31.345  1.00  0.00     0.017 A 
HETATM   26  C8  UNL     1     -11.091  45.346 -32.410  1.00  0.00    -0.034 A 
HETATM   27  C10 UNL     1     -10.469  46.570 -32.138  1.00  0.00     0.016 A 
HETATM   28  C11 UNL     1     -10.127  46.933 -30.827  1.00  0.00    -0.054 A 
HETATM   29  C16 UNL     1     -10.414  46.051 -29.775  1.00  0.00     0.015 A 
BRANCH  26  30
HETATM   30  C9  UNL     1     -11.413  44.949 -33.827  1.00  0.00     0.202 C 
BRANCH  30  31
HETATM   31  O1  UNL     1     -12.532  45.688 -34.302  1.00  0.00    -0.396 OA
HETATM   32  H11 UNL     1     -12.674  45.413 -35.222  1.00  0.00     0.209 HD
ENDBRANCH  30  31
ENDBRANCH  26  30
BRANCH  28  33
HETATM   33  C12 UNL     1      -9.439  48.252 -30.557  1.00  0.00     0.073 C 
BRANCH  33  34
HETATM   34  C13 UNL     1      -8.555  48.203 -29.300  1.00  0.00     0.150 C 
BRANCH  34  35
HETATM   35  O2  UNL     1      -8.751  49.399 -28.516  1.00  0.00    -0.393 OA
HETATM   36  H16 UNL     1      -9.680  49.385 -28.217  1.00  0.00     0.210 HD
ENDBRANCH  34  35
BRANCH  34  37
HETATM   37  C14 UNL     1      -7.049  48.139 -29.628  1.00  0.00     0.143 C 
HETATM   38  C15 UNL     1      -6.567  46.763 -30.060  1.00  0.00     0.042 C 
BRANCH  37  39
HETATM   39  O3  UNL     1      -6.324  48.504 -28.447  1.00  0.00    -0.393 OA
HETATM   40  H21 UNL     1      -6.766  49.318 -28.129  1.00  0.00     0.210 HD
ENDBRANCH  37  39
ENDBRANCH  34  37
ENDBRANCH  33  34
ENDBRANCH  28  33
ENDBRANCH   5  24
BRANCH  20  41
HETATM   41  C30 UNL     1      -9.755  45.931 -22.767  1.00  0.00     0.089 C 
HETATM   42  C31 UNL     1     -10.169  46.889 -21.622  1.00  0.00     0.041 C 
HETATM   43  C32 UNL     1      -9.030  47.742 -21.050  1.00  0.00     0.004 C 
HETATM   44  C33 UNL     1      -7.655  47.108 -21.176  1.00  0.00     0.005 C 
HETATM   45  C34 UNL     1      -7.302  46.611 -22.596  1.00  0.00    -0.001 C 
HETATM   46  C35 UNL     1      -6.103  47.355 -23.192  1.00  0.00     0.083 C 
HETATM   47  C39 UNL     1      -8.533  46.515 -23.559  1.00  0.00     0.027 C 
HETATM   48  C36 UNL     1      -6.535  48.645 -23.830  1.00  0.00     0.127 C 
HETATM   49  O8  UNL     1      -6.022  49.724 -23.549  1.00  0.00    -0.298 OA
HETATM   50  C37 UNL     1      -7.587  48.509 -24.892  1.00  0.00     0.079 C 
HETATM   51  C38 UNL     1      -8.819  47.831 -24.315  1.00  0.00     0.015 C 
BRANCH  41  52
HETATM   52  O7  UNL     1      -9.234  44.713 -22.181  1.00  0.00    -0.387 OA
HETATM   53  H32 UNL     1      -9.741  44.484 -21.385  1.00  0.00     0.210 HD
ENDBRANCH  41  52
ENDBRANCH  20  41
BRANCH  15  54
HETATM   54  O6  UNL     1     -14.159  47.604 -22.566  1.00  0.00    -0.360 OA
HETATM   55  H27 UNL     1     -15.020  47.808 -22.160  1.00  0.00     0.217 HD
ENDBRANCH  15  54
TORSDOF 11
ENDMDL
MODEL 7
REMARK minimizedAffinity -8.26808262
REMARK CNNscore 0.196789026
REMARK CNNaffinity 5.99331617
REMARK  11 active torsions:
REMARK  status: ('A' for Active; 'I' for Inactive)
REMARK    1  A    between atoms: C5_5  and  C6_6 
REMARK    2  A    between atoms: C8_8  and  C9_9 
REMARK    3  A    between atoms: C9_9  and  O1_10 
REMARK    4  A    between atoms: C11_12  and  C12_13 
REMARK    5  A    between atoms: C12_13  and  C13_14 
REMARK    6  A    between atoms: C13_14  and  O2_15 
REMARK    7  A    between atoms: C13_14  and  C14_16 
REMARK    8  A    between atoms: C14_16  and  O3_18 
REMARK    9  A    between atoms: C24_29  and  O6_30 
REMARK   10  A    between atoms: C29_35  and  C30_36 
REMARK   11  A    between atoms: C30_36  and  O7_37 
ROOT
HETATM    1  C1  UNL     1      -9.731  42.544 -25.098  1.00  0.00     0.036 C 
HETATM    2  C2  UNL     1     -10.301  43.520 -24.116  1.00  0.00    -0.018 C 
HETATM    3  C3  UNL     1      -9.953  44.812 -23.941  1.00  0.00     0.015 C 
HETATM    4  C4  UNL     1     -10.634  45.685 -22.901  1.00  0.00     0.066 C 
HETATM    5  C5  UNL     1     -10.356  45.296 -21.416  1.00  0.00     0.102 C 
HETATM    6  C17 UNL     1      -8.920  45.433 -21.074  1.00  0.00    -0.096 C 
HETATM    7  C18 UNL     1      -7.736  45.609 -20.960  1.00  0.00    -0.096 C 
HETATM    8  C19 UNL     1      -6.296  45.890 -21.136  1.00  0.00     0.110 C 
HETATM    9  C20 UNL     1      -5.607  46.328 -19.862  1.00  0.00     0.133 C 
HETATM   10  C21 UNL     1      -4.130  46.503 -20.120  1.00  0.00     0.265 C 
HETATM   11  O4  UNL     1      -3.279  46.191 -19.292  1.00  0.00    -0.265 OA
HETATM   12  O5  UNL     1      -3.774  47.107 -21.326  1.00  0.00    -0.278 OA
HETATM   13  C22 UNL     1      -4.748  47.463 -22.275  1.00  0.00     0.089 A 
HETATM   14  C23 UNL     1      -4.385  48.320 -23.313  1.00  0.00     0.075 A 
HETATM   15  C24 UNL     1      -5.346  48.683 -24.263  1.00  0.00     0.074 A 
HETATM   16  C25 UNL     1      -6.666  48.232 -24.160  1.00  0.00    -0.022 A 
HETATM   17  C26 UNL     1      -6.991  47.404 -23.085  1.00  0.00     0.021 A 
HETATM   18  C27 UNL     1      -6.034  46.952 -22.176  1.00  0.00    -0.007 A 
HETATM   19  C28 UNL     1      -7.755  48.585 -25.153  1.00  0.00     0.077 C 
HETATM   20  C29 UNL     1      -8.258  47.384 -26.018  1.00  0.00     0.171 C 
HETATM   21  O9  UNL     1      -9.225  46.628 -25.228  1.00  0.00    -0.309 OA
HETATM   22  C40 UNL     1      -8.853  45.406 -24.759  1.00  0.00     0.289 C 
HETATM   23  O10 UNL     1      -7.788  44.851 -24.966  1.00  0.00    -0.260 OA
ENDROOT
BRANCH   5  24
HETATM   24  C6  UNL     1     -11.218  46.138 -20.481  1.00  0.00    -0.041 A 
HETATM   25  C7  UNL     1     -10.746  46.532 -19.218  1.00  0.00     0.017 A 
HETATM   26  C8  UNL     1     -11.518  47.335 -18.368  1.00  0.00    -0.034 A 
HETATM   27  C10 UNL     1     -12.794  47.729 -18.788  1.00  0.00     0.016 A 
HETATM   28  C11 UNL     1     -13.294  47.344 -20.042  1.00  0.00    -0.054 A 
HETATM   29  C16 UNL     1     -12.499  46.551 -20.881  1.00  0.00     0.015 A 
BRANCH  26  30
HETATM   30  C9  UNL     1     -11.011  47.718 -17.002  1.00  0.00     0.202 C 
BRANCH  30  31
HETATM   31  O1  UNL     1     -10.417  46.593 -16.365  1.00  0.00    -0.396 OA
HETATM   32  H11 UNL     1     -10.085  46.905 -15.507  1.00  0.00     0.209 HD
ENDBRANCH  30  31
ENDBRANCH  26  30
BRANCH  28  33
HETATM   33  C12 UNL     1     -14.682  47.764 -20.470  1.00  0.00     0.073 C 
BRANCH  33  34
HETATM   34  C13 UNL     1     -15.779  46.916 -19.807  1.00  0.00     0.150 C 
BRANCH  34  35
HETATM   35  O2  UNL     1     -15.187  45.787 -19.133  1.00  0.00    -0.393 OA
HETATM   36  H16 UNL     1     -14.631  46.151 -18.417  1.00  0.00     0.210 HD
ENDBRANCH  34  35
BRANCH  34  37
HETATM   37  C14 UNL     1     -16.785  46.336 -20.823  1.00  0.00     0.143 C 
HETATM   38  C15 UNL     1     -16.402  46.569 -22.277  1.00  0.00     0.042 C 
BRANCH  37  39
HETATM   39  O3  UNL     1     -18.052  46.968 -20.601  1.00  0.00    -0.393 OA
HETATM   40  H21 UNL     1     -18.185  46.917 -19.632  1.00  0.00     0.210 HD
ENDBRANCH  37  39
ENDBRANCH  34  37
ENDBRANCH  33  34
ENDBRANCH  28  33
ENDBRANCH   5  24
BRANCH  20  41
HETATM   41  C30 UNL     1      -8.931  47.881 -27.354  1.00  0.00     0.089 C 
HETATM   42  C31 UNL     1     -10.123  46.980 -27.764  1.00  0.00     0.041 C 
HETATM   43  C32 UNL     1     -10.492  47.031 -29.251  1.00  0.00     0.004 C 
HETATM   44  C33 UNL     1     -10.143  48.345 -29.932  1.00  0.00     0.005 C 
HETATM   45  C34 UNL     1      -8.687  48.815 -29.717  1.00  0.00    -0.001 C 
HETATM   46  C35 UNL     1      -7.895  48.879 -31.026  1.00  0.00     0.083 C 
HETATM   47  C39 UNL     1      -7.943  48.067 -28.559  1.00  0.00     0.027 C 
HETATM   48  C36 UNL     1      -7.330  47.532 -31.376  1.00  0.00     0.127 C 
HETATM   49  O8  UNL     1      -7.514  47.003 -32.470  1.00  0.00    -0.298 OA
HETATM   50  C37 UNL     1      -6.458  46.913 -30.323  1.00  0.00     0.079 C 
HETATM   51  C38 UNL     1      -7.237  46.775 -29.024  1.00  0.00     0.015 C 
BRANCH  41  52
HETATM   52  O7  UNL     1      -9.430  49.219 -27.110  1.00  0.00    -0.387 OA
HETATM   53  H32 UNL     1     -10.302  49.176 -26.682  1.00  0.00     0.210 HD
ENDBRANCH  41  52
ENDBRANCH  20  41
BRANCH  15  54
HETATM   54  O6  UNL     1      -5.007  49.500 -25.304  1.00  0.00    -0.360 OA
HETATM   55  H27 UNL     1      -4.062  49.726 -25.234  1.00  0.00     0.217 HD
ENDBRANCH  15  54
TORSDOF 11
ENDMDL
MODEL 8
REMARK minimizedAffinity -8.27033806
REMARK CNNscore 0.195928395
REMARK CNNaffinity 5.51666451
REMARK  11 active torsions:
REMARK  status: ('A' for Active; 'I' for Inactive)
REMARK    1  A    between atoms: C5_5  and  C6_6 
REMARK    2  A    between atoms: C8_8  and  C9_9 
REMARK    3  A    between atoms: C9_9  and  O1_10 
REMARK    4  A    between atoms: C11_12  and  C12_13 
REMARK    5  A    between atoms: C12_13  and  C13_14 
REMARK    6  A    between atoms: C13_14  and  O2_15 
REMARK    7  A    between atoms: C13_14  and  C14_16 
REMARK    8  A    between atoms: C14_16  and  O3_18 
REMARK    9  A    between atoms: C24_29  and  O6_30 
REMARK   10  A    between atoms: C29_35  and  C30_36 
REMARK   11  A    between atoms: C30_36  and  O7_37 
ROOT
HETATM    1  C1  UNL     1     -13.280  40.658 -25.573  1.00  0.00     0.036 C 
HETATM    2  C2  UNL     1     -12.180  41.256 -24.751  1.00  0.00    -0.018 C 
HETATM    3  C3  UNL     1     -11.847  42.559 -24.643  1.00  0.00     0.015 C 
HETATM    4  C4  UNL     1     -10.703  43.016 -23.755  1.00  0.00     0.066 C 
HETATM    5  C5  UNL     1      -9.279  42.579 -24.220  1.00  0.00     0.102 C 
HETATM    6  C17 UNL     1      -8.929  43.162 -25.537  1.00  0.00    -0.096 C 
HETATM    7  C18 UNL     1      -8.799  43.722 -26.593  1.00  0.00    -0.096 C 
HETATM    8  C19 UNL     1      -8.946  44.501 -27.840  1.00  0.00     0.110 C 
HETATM    9  C20 UNL     1      -7.630  44.999 -28.398  1.00  0.00     0.133 C 
HETATM   10  C21 UNL     1      -7.871  45.703 -29.711  1.00  0.00     0.265 C 
HETATM   11  O4  UNL     1      -7.093  45.610 -30.657  1.00  0.00    -0.265 OA
HETATM   12  O5  UNL     1      -8.994  46.528 -29.782  1.00  0.00    -0.278 OA
HETATM   13  C22 UNL     1      -9.887  46.633 -28.700  1.00  0.00     0.089 A 
HETATM   14  C23 UNL     1     -10.811  47.676 -28.699  1.00  0.00     0.075 A 
HETATM   15  C24 UNL     1     -11.703  47.792 -27.628  1.00  0.00     0.074 A 
HETATM   16  C25 UNL     1     -11.652  46.905 -26.549  1.00  0.00    -0.022 A 
HETATM   17  C26 UNL     1     -10.687  45.896 -26.578  1.00  0.00     0.021 A 
HETATM   18  C27 UNL     1      -9.846  45.701 -27.673  1.00  0.00    -0.007 A 
HETATM   19  C28 UNL     1     -12.588  46.972 -25.358  1.00  0.00     0.077 C 
HETATM   20  C29 UNL     1     -13.593  45.780 -25.256  1.00  0.00     0.171 C 
HETATM   21  O9  UNL     1     -12.900  44.650 -24.644  1.00  0.00    -0.309 OA
HETATM   22  C40 UNL     1     -12.589  43.587 -25.434  1.00  0.00     0.289 C 
HETATM   23  O10 UNL     1     -12.869  43.462 -26.614  1.00  0.00    -0.260 OA
ENDROOT
BRANCH   5  24
HETATM   24  C6  UNL     1      -8.243  42.957 -23.168  1.00  0.00    -0.041 A 
HETATM   25  C7  UNL     1      -7.696  41.989 -22.308  1.00  0.00     0.017 A 
HETATM   26  C8  UNL     1      -6.718  42.323 -21.361  1.00  0.00    -0.034 A 
HETATM   27  C10 UNL     1      -6.299  43.656 -21.266  1.00  0.00     0.016 A 
HETATM   28  C11 UNL     1      -6.833  44.644 -22.107  1.00  0.00    -0.054 A 
HETATM   29  C16 UNL     1      -7.802  44.285 -23.055  1.00  0.00     0.015 A 
BRANCH  26  30
HETATM   30  C9  UNL     1      -6.169  41.280 -20.423  1.00  0.00     0.202 C 
BRANCH  30  31
HETATM   31  O1  UNL     1      -5.359  40.354 -21.138  1.00  0.00    -0.396 OA
HETATM   32  H11 UNL     1      -5.012  39.727 -20.482  1.00  0.00     0.209 HD
ENDBRANCH  30  31
ENDBRANCH  26  30
BRANCH  28  33
HETATM   33  C12 UNL     1      -6.381  46.081 -21.976  1.00  0.00     0.073 C 
BRANCH  33  34
HETATM   34  C13 UNL     1      -7.291  47.052 -22.744  1.00  0.00     0.150 C 
BRANCH  34  35
HETATM   35  O2  UNL     1      -6.570  47.629 -23.852  1.00  0.00    -0.393 OA
HETATM   36  H16 UNL     1      -6.355  46.893 -24.457  1.00  0.00     0.210 HD
ENDBRANCH  34  35
BRANCH  34  37
HETATM   37  C14 UNL     1      -7.775  48.233 -21.878  1.00  0.00     0.143 C 
HETATM   38  C15 UNL     1      -7.107  49.559 -22.208  1.00  0.00     0.042 C 
BRANCH  37  39
HETATM   39  O3  UNL     1      -7.482  47.927 -20.508  1.00  0.00    -0.393 OA
HETATM   40  H21 UNL     1      -7.805  47.010 -20.388  1.00  0.00     0.210 HD
ENDBRANCH  37  39
ENDBRANCH  34  37
ENDBRANCH  33  34
ENDBRANCH  28  33
ENDBRANCH   5  24
BRANCH  20  41
HETATM   41  C30 UNL     1     -14.854  46.166 -24.390  1.00  0.00     0.089 C 
HETATM   42  C31 UNL     1     -15.003  45.242 -23.155  1.00  0.00     0.041 C 
HETATM   43  C32 UNL     1     -16.419  45.168 -22.570  1.00  0.00     0.004 C 
HETATM   44  C33 UNL     1     -17.256  46.414 -22.809  1.00  0.00     0.005 C 
HETATM   45  C34 UNL     1     -17.299  46.889 -24.279  1.00  0.00    -0.001 C 
HETATM   46  C35 UNL     1     -18.711  46.832 -24.869  1.00  0.00     0.083 C 
HETATM   47  C39 UNL     1     -16.203  46.238 -25.189  1.00  0.00     0.027 C 
HETATM   48  C36 UNL     1     -19.023  45.455 -25.382  1.00  0.00     0.127 C 
HETATM   49  O8  UNL     1     -20.026  44.835 -25.040  1.00  0.00    -0.298 OA
HETATM   50  C37 UNL     1     -18.059  44.922 -26.402  1.00  0.00     0.079 C 
HETATM   51  C38 UNL     1     -16.653  44.905 -25.824  1.00  0.00     0.015 C 
BRANCH  41  52
HETATM   52  O7  UNL     1     -14.656  47.523 -23.927  1.00  0.00    -0.387 OA
HETATM   53  H32 UNL     1     -14.102  47.525 -23.129  1.00  0.00     0.210 HD
ENDBRANCH  41  52
ENDBRANCH  20  41
BRANCH  15  54
HETATM   54  O6  UNL     1     -12.636  48.791 -27.617  1.00  0.00    -0.360 OA
HETATM   55  H27 UNL     1     -12.542  49.319 -28.430  1.00  0.00     0.217 HD
ENDBRANCH  15  54
TORSDOF 11
ENDMDL
MODEL 9
REMARK minimizedAffinity -9.16295338
REMARK CNNscore 0.163274765
REMARK CNNaffinity 6.70692873
REMARK  11 active torsions:
REMARK  status: ('A' for Active; 'I' for Inactive)
REMARK    1  A    between atoms: C5_5  and  C6_6 
REMARK    2  A    between atoms: C8_8  and  C9_9 
REMARK    3  A    between atoms: C9_9  and  O1_10 
REMARK    4  A    between atoms: C11_12  and  C12_13 
REMARK    5  A    between atoms: C12_13  and  C13_14 
REMARK    6  A    between atoms: C13_14  and  O2_15 
REMARK    7  A    between atoms: C13_14  and  C14_16 
REMARK    8  A    between atoms: C14_16  and  O3_18 
REMARK    9  A    between atoms: C24_29  and  O6_30 
REMARK   10  A    between atoms: C29_35  and  C30_36 
REMARK   11  A    between atoms: C30_36  and  O7_37 
ROOT
HETATM    1  C1  UNL     1      -2.207  46.057 -16.369  1.00  0.00     0.036 C 
HETATM    2  C2  UNL     1      -2.667  47.134 -15.435  1.00  0.00    -0.018 C 
HETATM    3  C3  UNL     1      -2.209  48.400 -15.348  1.00  0.00     0.015 C 
HETATM    4  C4  UNL     1      -2.786  49.386 -14.348  1.00  0.00     0.066 C 
HETATM    5  C5  UNL     1      -2.499  49.064 -12.849  1.00  0.00     0.102 C 
HETATM    6  C17 UNL     1      -1.048  49.099 -12.548  1.00  0.00    -0.096 C 
HETATM    7  C18 UNL     1       0.149  49.182 -12.472  1.00  0.00    -0.096 C 
HETATM    8  C19 UNL     1       1.602  49.329 -12.698  1.00  0.00     0.110 C 
HETATM    9  C20 UNL     1       2.360  49.782 -11.469  1.00  0.00     0.133 C 
HETATM   10  C21 UNL     1       3.838  49.817 -11.771  1.00  0.00     0.265 C 
HETATM   11  O4  UNL     1       4.684  49.483 -10.945  1.00  0.00    -0.265 OA
HETATM   12  O5  UNL     1       4.210  50.316 -13.020  1.00  0.00    -0.278 OA
HETATM   13  C22 UNL     1       3.242  50.697 -13.966  1.00  0.00     0.089 A 
HETATM   14  C23 UNL     1       3.646  51.458 -15.062  1.00  0.00     0.075 A 
HETATM   15  C24 UNL     1       2.692  51.843 -16.010  1.00  0.00     0.074 A 
HETATM   16  C25 UNL     1       1.343  51.512 -15.850  1.00  0.00    -0.022 A 
HETATM   17  C26 UNL     1       0.980  50.779 -14.720  1.00  0.00     0.021 A 
HETATM   18  C27 UNL     1       1.922  50.303 -13.806  1.00  0.00    -0.007 A 
HETATM   19  C28 UNL     1       0.259  51.896 -16.838  1.00  0.00     0.077 C 
HETATM   20  C29 UNL     1      -0.365  50.693 -17.616  1.00  0.00     0.171 C 
HETATM   21  O9  UNL     1      -1.369  50.069 -16.760  1.00  0.00    -0.309 OA
HETATM   22  C40 UNL     1      -1.086  48.850 -16.225  1.00  0.00     0.289 C 
HETATM   23  O10 UNL     1      -0.077  48.196 -16.422  1.00  0.00    -0.260 OA
ENDROOT
BRANCH   5  24
HETATM   24  C6  UNL     1      -3.262  50.029 -11.948  1.00  0.00    -0.041 A 
HETATM   25  C7  UNL     1      -2.820  51.349 -11.760  1.00  0.00     0.017 A 
HETATM   26  C8  UNL     1      -3.535  52.253 -10.962  1.00  0.00    -0.034 A 
HETATM   27  C10 UNL     1      -4.702  51.812 -10.325  1.00  0.00     0.016 A 
HETATM   28  C11 UNL     1      -5.162  50.496 -10.488  1.00  0.00    -0.054 A 
HETATM   29  C16 UNL     1      -4.438  49.613 -11.302  1.00  0.00     0.015 A 
BRANCH  26  30
HETATM   30  C9  UNL     1      -3.027  53.654 -10.743  1.00  0.00     0.202 C 
BRANCH  30  31
HETATM   31  O1  UNL     1      -1.692  53.772 -11.220  1.00  0.00    -0.396 OA
HETATM   32  H11 UNL     1      -1.430  54.697 -11.080  1.00  0.00     0.209 HD
ENDBRANCH  30  31
ENDBRANCH  26  30
BRANCH  28  33
HETATM   33  C12 UNL     1      -6.414  50.034  -9.777  1.00  0.00     0.073 C 
BRANCH  33  34
HETATM   34  C13 UNL     1      -7.028  48.785 -10.428  1.00  0.00     0.150 C 
BRANCH  34  35
HETATM   35  O2  UNL     1      -8.101  49.169 -11.312  1.00  0.00    -0.393 OA
HETATM   36  H16 UNL     1      -7.697  49.698 -12.026  1.00  0.00     0.210 HD
ENDBRANCH  34  35
BRANCH  34  37
HETATM   37  C14 UNL     1      -7.639  47.811  -9.400  1.00  0.00     0.143 C 
HETATM   38  C15 UNL     1      -9.157  47.731  -9.447  1.00  0.00     0.042 C 
BRANCH  37  39
HETATM   39  O3  UNL     1      -7.267  48.260  -8.090  1.00  0.00    -0.393 OA
HETATM   40  H21 UNL     1      -6.305  48.433  -8.154  1.00  0.00     0.210 HD
ENDBRANCH  37  39
ENDBRANCH  34  37
ENDBRANCH  33  34
ENDBRANCH  28  33
ENDBRANCH   5  24
BRANCH  20  41
HETATM   41  C30 UNL     1      -1.032  51.166 -18.964  1.00  0.00     0.089 C 
HETATM   42  C31 UNL     1      -2.537  51.483 -18.778  1.00  0.00     0.041 C 
HETATM   43  C32 UNL     1      -3.375  51.426 -20.061  1.00  0.00     0.004 C 
HETATM   44  C33 UNL     1      -2.591  51.727 -21.328  1.00  0.00     0.005 C 
HETATM   45  C34 UNL     1      -1.290  50.909 -21.490  1.00  0.00    -0.001 C 
HETATM   46  C35 UNL     1      -1.326  49.994 -22.718  1.00  0.00     0.083 C 
HETATM   47  C39 UNL     1      -0.822  50.193 -20.178  1.00  0.00     0.027 C 
HETATM   48  C36 UNL     1      -2.015  48.697 -22.400  1.00  0.00     0.127 C 
HETATM   49  O8  UNL     1      -2.950  48.265 -23.070  1.00  0.00    -0.298 OA
HETATM   50  C37 UNL     1      -1.429  47.929 -21.252  1.00  0.00     0.079 C 
HETATM   51  C38 UNL     1      -1.437  48.789 -19.998  1.00  0.00     0.015 C 
BRANCH  41  52
HETATM   52  O7  UNL     1      -0.355  52.378 -19.375  1.00  0.00    -0.387 OA
HETATM   53  H32 UNL     1      -0.735  53.144 -18.914  1.00  0.00     0.210 HD
ENDBRANCH  41  52
ENDBRANCH  20  41
BRANCH  15  54
HETATM   54  O6  UNL     1       3.069  52.566 -17.107  1.00  0.00    -0.360 OA
HETATM   55  H27 UNL     1       4.031  52.715 -17.072  1.00  0.00     0.217 HD
ENDBRANCH  15  54
TORSDOF 11
ENDMDL
