MODEL 1
REMARK minimizedAffinity -7.22890997
REMARK CNNscore 0.690452874
REMARK CNNaffinity 6.16207838
REMARK  4 active torsions:
REMARK  status: ('A' for Active; 'I' for Inactive)
REMARK    1  A    between atoms: C2_2  and  C3_3 
REMARK    2  A    between atoms: C2_2  and  C9_9 
REMARK    3  A    between atoms: C3_3  and  C4_4 
REMARK    4  A    between atoms: C4_4  and  C5_5 
ROOT
HETATM    1  C9  UNL     1     -10.318  46.222 -28.311  1.00  0.00     0.018 C 
HETATM    2  C10 UNL     1     -10.658  45.347 -29.548  1.00  0.00     0.010 C 
HETATM    3  C11 UNL     1     -11.906  44.539 -29.151  1.00  0.00     0.011 C 
HETATM    4  C12 UNL     1     -12.716  45.511 -28.263  1.00  0.00    -0.032 C 
HETATM    5  C13 UNL     1     -13.326  46.585 -29.219  1.00  0.00     0.016 C 
HETATM    6  C14 UNL     1     -11.565  46.087 -27.390  1.00  0.00     0.002 C 
HETATM    7  C15 UNL     1     -12.048  47.234 -26.515  1.00  0.00     0.006 C 
HETATM    8  C16 UNL     1     -13.187  46.756 -25.593  1.00  0.00     0.006 C 
HETATM    9  C17 UNL     1     -14.352  46.044 -26.338  1.00  0.00     0.003 C 
HETATM   10  C18 UNL     1     -15.620  45.688 -25.442  1.00  0.00    -0.035 C 
HETATM   11  C19 UNL     1     -15.266  44.696 -24.311  1.00  0.00     0.016 C 
HETATM   12  C20 UNL     1     -16.153  46.997 -24.781  1.00  0.00     0.017 C 
HETATM   13  C21 UNL     1     -17.511  46.858 -24.104  1.00  0.00     0.080 C 
HETATM   14  C22 UNL     1     -18.545  46.269 -25.033  1.00  0.00     0.135 C 
HETATM   15  O1  UNL     1     -19.669  46.770 -25.090  1.00  0.00    -0.297 OA
HETATM   16  C23 UNL     1     -18.174  44.984 -25.792  1.00  0.00     0.017 C 
HETATM   17  C24 UNL     1     -19.221  44.786 -26.919  1.00  0.00     0.023 C 
HETATM   18  C25 UNL     1     -18.314  43.793 -24.834  1.00  0.00     0.023 C 
HETATM   19  C26 UNL     1     -16.748  45.173 -26.418  1.00  0.00     0.009 C 
HETATM   20  C27 UNL     1     -16.265  43.978 -27.268  1.00  0.00     0.007 C 
HETATM   21  C28 UNL     1     -15.038  44.342 -28.114  1.00  0.00     0.011 C 
HETATM   22  C29 UNL     1     -13.837  44.887 -27.300  1.00  0.00    -0.032 C 
HETATM   23  C30 UNL     1     -13.255  43.686 -26.499  1.00  0.00     0.016 C 
ENDROOT
BRANCH   1  24
HETATM   24  C2  UNL     1      -9.732  47.614 -28.534  1.00  0.00    -0.084 C 
HETATM   25  C1  UNL     1      -9.028  48.287 -27.607  1.00  0.00     0.014 C 
BRANCH  24  26
HETATM   26  C3  UNL     1     -10.082  48.216 -29.896  1.00  0.00     0.037 C 
BRANCH  26  27
HETATM   27  C4  UNL     1      -9.059  49.160 -30.545  1.00  0.00     0.031 C 
BRANCH  27  28
HETATM   28  C5  UNL     1      -8.191  48.431 -31.538  1.00  0.00    -0.024 C 
HETATM   29  C6  UNL     1      -6.980  47.882 -31.324  1.00  0.00    -0.091 C 
HETATM   30  C7  UNL     1      -6.224  47.937 -30.025  1.00  0.00     0.042 C 
HETATM   31  C8  UNL     1      -6.262  47.151 -32.429  1.00  0.00     0.042 C 
ENDBRANCH  27  28
ENDBRANCH  26  27
ENDBRANCH  24  26
ENDBRANCH   1  24
TORSDOF 4
ENDMDL
MODEL 2
REMARK minimizedAffinity -7.30914736
REMARK CNNscore 0.678918004
REMARK CNNaffinity 6.83740854
REMARK  4 active torsions:
REMARK  status: ('A' for Active; 'I' for Inactive)
REMARK    1  A    between atoms: C2_2  and  C3_3 
REMARK    2  A    between atoms: C2_2  and  C9_9 
REMARK    3  A    between atoms: C3_3  and  C4_4 
REMARK    4  A    between atoms: C4_4  and  C5_5 
ROOT
HETATM    1  C9  UNL     1      -3.629  51.923 -10.330  1.00  0.00     0.018 C 
HETATM    2  C10 UNL     1      -3.231  51.971 -11.829  1.00  0.00     0.010 C 
HETATM    3  C11 UNL     1      -2.124  53.036 -11.929  1.00  0.00     0.011 C 
HETATM    4  C12 UNL     1      -1.334  52.880 -10.609  1.00  0.00    -0.032 C 
HETATM    5  C13 UNL     1      -0.513  51.558 -10.734  1.00  0.00     0.016 C 
HETATM    6  C14 UNL     1      -2.519  52.745  -9.611  1.00  0.00     0.002 C 
HETATM    7  C15 UNL     1      -2.034  52.393  -8.213  1.00  0.00     0.006 C 
HETATM    8  C16 UNL     1      -1.065  53.476  -7.698  1.00  0.00     0.006 C 
HETATM    9  C17 UNL     1       0.105  53.796  -8.671  1.00  0.00     0.003 C 
HETATM   10  C18 UNL     1       1.217  54.785  -8.101  1.00  0.00    -0.035 C 
HETATM   11  C19 UNL     1       0.635  56.180  -7.777  1.00  0.00     0.016 C 
HETATM   12  C20 UNL     1       1.792  54.187  -6.780  1.00  0.00     0.017 C 
HETATM   13  C21 UNL     1       3.040  54.888  -6.258  1.00  0.00     0.080 C 
HETATM   14  C22 UNL     1       4.114  54.986  -7.313  1.00  0.00     0.135 C 
HETATM   15  O1  UNL     1       5.281  54.716  -7.023  1.00  0.00    -0.297 OA
HETATM   16  C23 UNL     1       3.713  55.532  -8.694  1.00  0.00     0.017 C 
HETATM   17  C24 UNL     1       4.862  55.202  -9.682  1.00  0.00     0.023 C 
HETATM   18  C25 UNL     1       3.621  57.061  -8.606  1.00  0.00     0.023 C 
HETATM   19  C26 UNL     1       2.397  54.809  -9.148  1.00  0.00     0.009 C 
HETATM   20  C27 UNL     1       1.904  55.214 -10.555  1.00  0.00     0.007 C 
HETATM   21  C28 UNL     1       0.828  54.254 -11.077  1.00  0.00     0.011 C 
HETATM   22  C29 UNL     1      -0.403  54.102 -10.147  1.00  0.00    -0.032 C 
HETATM   23  C30 UNL     1      -1.190  55.442 -10.222  1.00  0.00     0.016 C 
ENDROOT
BRANCH   1  24
HETATM   24  C2  UNL     1      -4.045  50.586  -9.721  1.00  0.00    -0.084 C 
HETATM   25  C1  UNL     1      -3.234  49.821  -8.970  1.00  0.00     0.014 C 
BRANCH  24  26
HETATM   26  C3  UNL     1      -5.461  50.153 -10.105  1.00  0.00     0.037 C 
BRANCH  26  27
HETATM   27  C4  UNL     1      -5.972  48.813  -9.555  1.00  0.00     0.031 C 
BRANCH  27  28
HETATM   28  C5  UNL     1      -6.512  47.937 -10.657  1.00  0.00    -0.024 C 
HETATM   29  C6  UNL     1      -7.676  48.073 -11.319  1.00  0.00    -0.091 C 
HETATM   30  C7  UNL     1      -8.710  49.130 -11.042  1.00  0.00     0.042 C 
HETATM   31  C8  UNL     1      -8.045  47.121 -12.428  1.00  0.00     0.042 C 
ENDBRANCH  27  28
ENDBRANCH  26  27
ENDBRANCH  24  26
ENDBRANCH   1  24
TORSDOF 4
ENDMDL
MODEL 3
REMARK minimizedAffinity -7.27663136
REMARK CNNscore 0.677583277
REMARK CNNaffinity 6.85647821
REMARK  4 active torsions:
REMARK  status: ('A' for Active; 'I' for Inactive)
REMARK    1  A    between atoms: C2_2  and  C3_3 
REMARK    2  A    between atoms: C2_2  and  C9_9 
REMARK    3  A    between atoms: C3_3  and  C4_4 
REMARK    4  A    between atoms: C4_4  and  C5_5 
ROOT
HETATM    1  C9  UNL     1      -2.952  52.704  -9.955  1.00  0.00     0.018 C 
HETATM    2  C10 UNL     1      -3.058  54.052 -10.717  1.00  0.00     0.010 C 
HETATM    3  C11 UNL     1      -1.832  54.872 -10.276  1.00  0.00     0.011 C 
HETATM    4  C12 UNL     1      -0.716  53.816 -10.104  1.00  0.00    -0.032 C 
HETATM    5  C13 UNL     1      -0.298  53.370 -11.541  1.00  0.00     0.016 C 
HETATM    6  C14 UNL     1      -1.516  52.712  -9.355  1.00  0.00     0.002 C 
HETATM    7  C15 UNL     1      -0.699  51.438  -9.202  1.00  0.00     0.006 C 
HETATM    8  C16 UNL     1       0.601  51.730  -8.427  1.00  0.00     0.006 C 
HETATM    9  C17 UNL     1       1.437  52.906  -9.008  1.00  0.00     0.003 C 
HETATM   10  C18 UNL     1       2.865  53.126  -8.337  1.00  0.00    -0.035 C 
HETATM   11  C19 UNL     1       2.747  53.482  -6.837  1.00  0.00     0.016 C 
HETATM   12  C20 UNL     1       3.684  51.804  -8.453  1.00  0.00     0.017 C 
HETATM   13  C21 UNL     1       5.157  51.937  -8.088  1.00  0.00     0.080 C 
HETATM   14  C22 UNL     1       5.828  53.051  -8.854  1.00  0.00     0.135 C 
HETATM   15  O1  UNL     1       6.935  52.861  -9.364  1.00  0.00    -0.297 OA
HETATM   16  C23 UNL     1       5.138  54.425  -8.869  1.00  0.00     0.017 C 
HETATM   17  C24 UNL     1       5.803  55.273  -9.984  1.00  0.00     0.023 C 
HETATM   18  C25 UNL     1       5.426  55.131  -7.537  1.00  0.00     0.023 C 
HETATM   19  C26 UNL     1       3.619  54.213  -9.197  1.00  0.00     0.009 C 
HETATM   20  C27 UNL     1       2.805  55.520  -9.307  1.00  0.00     0.007 C 
HETATM   21  C28 UNL     1       1.431  55.281  -9.947  1.00  0.00     0.011 C 
HETATM   22  C29 UNL     1       0.564  54.218  -9.225  1.00  0.00    -0.032 C 
HETATM   23  C30 UNL     1       0.117  54.846  -7.873  1.00  0.00     0.016 C 
ENDROOT
BRANCH   1  24
HETATM   24  C2  UNL     1      -3.440  51.431 -10.641  1.00  0.00    -0.084 C 
HETATM   25  C1  UNL     1      -2.727  50.754 -11.559  1.00  0.00     0.014 C 
BRANCH  24  26
HETATM   26  C3  UNL     1      -4.860  51.024 -10.242  1.00  0.00     0.037 C 
BRANCH  26  27
HETATM   27  C4  UNL     1      -5.157  49.526 -10.081  1.00  0.00     0.031 C 
BRANCH  27  28
HETATM   28  C5  UNL     1      -6.408  49.131 -10.822  1.00  0.00    -0.024 C 
HETATM   29  C6  UNL     1      -7.683  49.242 -10.400  1.00  0.00    -0.091 C 
HETATM   30  C7  UNL     1      -8.104  49.754  -9.049  1.00  0.00     0.042 C 
HETATM   31  C8  UNL     1      -8.825  48.831 -11.291  1.00  0.00     0.042 C 
ENDBRANCH  27  28
ENDBRANCH  26  27
ENDBRANCH  24  26
ENDBRANCH   1  24
TORSDOF 4
ENDMDL
MODEL 4
REMARK minimizedAffinity -7.07721996
REMARK CNNscore 0.524145663
REMARK CNNaffinity 6.85730314
REMARK  4 active torsions:
REMARK  status: ('A' for Active; 'I' for Inactive)
REMARK    1  A    between atoms: C2_2  and  C3_3 
REMARK    2  A    between atoms: C2_2  and  C9_9 
REMARK    3  A    between atoms: C3_3  and  C4_4 
REMARK    4  A    between atoms: C4_4  and  C5_5 
ROOT
HETATM    1  C9  UNL     1       3.610  55.495  -7.431  1.00  0.00     0.018 C 
HETATM    2  C10 UNL     1       4.610  54.769  -8.370  1.00  0.00     0.010 C 
HETATM    3  C11 UNL     1       3.800  53.651  -9.049  1.00  0.00     0.011 C 
HETATM    4  C12 UNL     1       2.396  54.267  -9.241  1.00  0.00    -0.032 C 
HETATM    5  C13 UNL     1       2.522  55.312 -10.395  1.00  0.00     0.016 C 
HETATM    6  C14 UNL     1       2.217  54.944  -7.853  1.00  0.00     0.002 C 
HETATM    7  C15 UNL     1       0.963  55.804  -7.808  1.00  0.00     0.006 C 
HETATM    8  C16 UNL     1      -0.282  54.946  -8.113  1.00  0.00     0.006 C 
HETATM    9  C17 UNL     1      -0.175  54.117  -9.424  1.00  0.00     0.003 C 
HETATM   10  C18 UNL     1      -1.503  53.351  -9.858  1.00  0.00    -0.035 C 
HETATM   11  C19 UNL     1      -1.931  52.301  -8.808  1.00  0.00     0.016 C 
HETATM   12  C20 UNL     1      -2.659  54.389  -9.997  1.00  0.00     0.017 C 
HETATM   13  C21 UNL     1      -3.923  53.847 -10.653  1.00  0.00     0.080 C 
HETATM   14  C22 UNL     1      -3.630  53.192 -11.981  1.00  0.00     0.135 C 
HETATM   15  O1  UNL     1      -4.352  53.432 -12.951  1.00  0.00    -0.297 OA
HETATM   16  C23 UNL     1      -2.495  52.156 -12.033  1.00  0.00     0.017 C 
HETATM   17  C24 UNL     1      -2.155  51.906 -13.525  1.00  0.00     0.023 C 
HETATM   18  C25 UNL     1      -3.017  50.831 -11.463  1.00  0.00     0.023 C 
HETATM   19  C26 UNL     1      -1.246  52.754 -11.296  1.00  0.00     0.009 C 
HETATM   20  C27 UNL     1       0.001  51.844 -11.322  1.00  0.00     0.007 C 
HETATM   21  C28 UNL     1       1.265  52.600 -10.890  1.00  0.00     0.011 C 
HETATM   22  C29 UNL     1       1.168  53.267  -9.495  1.00  0.00    -0.032 C 
HETATM   23  C30 UNL     1       1.181  52.117  -8.446  1.00  0.00     0.016 C 
ENDROOT
BRANCH   1  24
HETATM   24  C2  UNL     1       3.757  57.000  -7.222  1.00  0.00    -0.084 C 
HETATM   25  C1  UNL     1       2.718  57.840  -7.068  1.00  0.00     0.014 C 
BRANCH  24  26
HETATM   26  C3  UNL     1       5.206  57.487  -7.275  1.00  0.00     0.037 C 
BRANCH  26  27
HETATM   27  C4  UNL     1       5.981  57.572  -5.952  1.00  0.00     0.031 C 
BRANCH  27  28
HETATM   28  C5  UNL     1       6.370  56.204  -5.454  1.00  0.00    -0.024 C 
HETATM   29  C6  UNL     1       7.611  55.735  -5.222  1.00  0.00    -0.091 C 
HETATM   30  C7  UNL     1       8.883  56.499  -5.470  1.00  0.00     0.042 C 
HETATM   31  C8  UNL     1       7.819  54.343  -4.685  1.00  0.00     0.042 C 
ENDBRANCH  27  28
ENDBRANCH  26  27
ENDBRANCH  24  26
ENDBRANCH   1  24
TORSDOF 4
ENDMDL
MODEL 5
REMARK minimizedAffinity -6.85871267
REMARK CNNscore 0.492731482
REMARK CNNaffinity 6.71461248
REMARK  4 active torsions:
REMARK  status: ('A' for Active; 'I' for Inactive)
REMARK    1  A    between atoms: C2_2  and  C3_3 
REMARK    2  A    between atoms: C2_2  and  C9_9 
REMARK    3  A    between atoms: C3_3  and  C4_4 
REMARK    4  A    between atoms: C4_4  and  C5_5 
ROOT
HETATM    1  C9  UNL     1      -2.763  53.221  -9.806  1.00  0.00     0.018 C 
HETATM    2  C10 UNL     1      -2.766  54.593 -10.532  1.00  0.00     0.010 C 
HETATM    3  C11 UNL     1      -1.483  55.306 -10.071  1.00  0.00     0.011 C 
HETATM    4  C12 UNL     1      -0.450  54.165  -9.929  1.00  0.00    -0.032 C 
HETATM    5  C13 UNL     1      -0.066  53.727 -11.378  1.00  0.00     0.016 C 
HETATM    6  C14 UNL     1      -1.330  53.105  -9.209  1.00  0.00     0.002 C 
HETATM    7  C15 UNL     1      -0.612  51.769  -9.091  1.00  0.00     0.006 C 
HETATM    8  C16 UNL     1       0.706  51.941  -8.311  1.00  0.00     0.006 C 
HETATM    9  C17 UNL     1       1.628  53.066  -8.861  1.00  0.00     0.003 C 
HETATM   10  C18 UNL     1       3.068  53.160  -8.187  1.00  0.00    -0.035 C 
HETATM   11  C19 UNL     1       2.978  53.484  -6.678  1.00  0.00     0.016 C 
HETATM   12  C20 UNL     1       3.786  51.783  -8.340  1.00  0.00     0.017 C 
HETATM   13  C21 UNL     1       5.265  51.796  -7.974  1.00  0.00     0.080 C 
HETATM   14  C22 UNL     1       6.018  52.876  -8.711  1.00  0.00     0.135 C 
HETATM   15  O1  UNL     1       7.107  52.617  -9.227  1.00  0.00    -0.297 OA
HETATM   16  C23 UNL     1       5.434  54.298  -8.688  1.00  0.00     0.017 C 
HETATM   17  C24 UNL     1       6.161  55.123  -9.781  1.00  0.00     0.023 C 
HETATM   18  C25 UNL     1       5.773  54.944  -7.338  1.00  0.00     0.023 C 
HETATM   19  C26 UNL     1       3.903  54.210  -9.019  1.00  0.00     0.009 C 
HETATM   20  C27 UNL     1       3.189  55.577  -9.093  1.00  0.00     0.007 C 
HETATM   21  C28 UNL     1       1.801  55.459  -9.737  1.00  0.00     0.011 C 
HETATM   22  C29 UNL     1       0.857  54.445  -9.042  1.00  0.00    -0.032 C 
HETATM   23  C30 UNL     1       0.458  55.069  -7.672  1.00  0.00     0.016 C 
ENDROOT
BRANCH   1  24
HETATM   24  C2  UNL     1      -3.345  52.007 -10.525  1.00  0.00    -0.084 C 
HETATM   25  C1  UNL     1      -3.679  50.860  -9.908  1.00  0.00     0.014 C 
BRANCH  24  26
HETATM   26  C3  UNL     1      -3.452  52.185 -12.041  1.00  0.00     0.037 C 
BRANCH  26  27
HETATM   27  C4  UNL     1      -2.248  51.764 -12.897  1.00  0.00     0.031 C 
BRANCH  27  28
HETATM   28  C5  UNL     1      -2.390  50.345 -13.385  1.00  0.00    -0.024 C 
HETATM   29  C6  UNL     1      -2.661  49.930 -14.637  1.00  0.00    -0.091 C 
HETATM   30  C7  UNL     1      -2.927  50.835 -15.809  1.00  0.00     0.042 C 
HETATM   31  C8  UNL     1      -2.731  48.460 -14.961  1.00  0.00     0.042 C 
ENDBRANCH  27  28
ENDBRANCH  26  27
ENDBRANCH  24  26
ENDBRANCH   1  24
TORSDOF 4
ENDMDL
MODEL 6
REMARK minimizedAffinity -6.76285362
REMARK CNNscore 0.389838755
REMARK CNNaffinity 6.71366835
REMARK  4 active torsions:
REMARK  status: ('A' for Active; 'I' for Inactive)
REMARK    1  A    between atoms: C2_2  and  C3_3 
REMARK    2  A    between atoms: C2_2  and  C9_9 
REMARK    3  A    between atoms: C3_3  and  C4_4 
REMARK    4  A    between atoms: C4_4  and  C5_5 
ROOT
HETATM    1  C9  UNL     1       4.094  55.439  -7.811  1.00  0.00     0.018 C 
HETATM    2  C10 UNL     1       5.016  54.802  -8.886  1.00  0.00     0.010 C 
HETATM    3  C11 UNL     1       4.173  53.700  -9.550  1.00  0.00     0.011 C 
HETATM    4  C12 UNL     1       2.741  54.280  -9.566  1.00  0.00    -0.032 C 
HETATM    5  C13 UNL     1       2.723  55.394 -10.661  1.00  0.00     0.016 C 
HETATM    6  C14 UNL     1       2.682  54.868  -8.128  1.00  0.00     0.002 C 
HETATM    7  C15 UNL     1       1.416  55.683  -7.909  1.00  0.00     0.006 C 
HETATM    8  C16 UNL     1       0.171  54.804  -8.144  1.00  0.00     0.006 C 
HETATM    9  C17 UNL     1       0.169  54.056  -9.508  1.00  0.00     0.003 C 
HETATM   10  C18 UNL     1      -1.174  53.274  -9.856  1.00  0.00    -0.035 C 
HETATM   11  C19 UNL     1      -1.468  52.151  -8.836  1.00  0.00     0.016 C 
HETATM   12  C20 UNL     1      -2.366  54.281  -9.818  1.00  0.00     0.017 C 
HETATM   13  C21 UNL     1      -3.673  53.737 -10.380  1.00  0.00     0.080 C 
HETATM   14  C22 UNL     1      -3.496  53.170 -11.768  1.00  0.00     0.135 C 
HETATM   15  O1  UNL     1      -4.317  53.442 -12.647  1.00  0.00    -0.297 OA
HETATM   16  C23 UNL     1      -2.345  52.177 -11.993  1.00  0.00     0.017 C 
HETATM   17  C24 UNL     1      -2.147  52.025 -13.524  1.00  0.00     0.023 C 
HETATM   18  C25 UNL     1      -2.772  50.804 -11.457  1.00  0.00     0.023 C 
HETATM   19  C26 UNL     1      -1.045  52.771 -11.346  1.00  0.00     0.009 C 
HETATM   20  C27 UNL     1       0.218  51.905 -11.548  1.00  0.00     0.007 C 
HETATM   21  C28 UNL     1       1.497  52.676 -11.197  1.00  0.00     0.011 C 
HETATM   22  C29 UNL     1       1.521  53.257  -9.760  1.00  0.00    -0.032 C 
HETATM   23  C30 UNL     1       1.668  52.049  -8.790  1.00  0.00     0.016 C 
ENDROOT
BRANCH   1  24
HETATM   24  C2  UNL     1       4.221  56.934  -7.526  1.00  0.00    -0.084 C 
HETATM   25  C1  UNL     1       3.743  57.894  -8.336  1.00  0.00     0.014 C 
BRANCH  24  26
HETATM   26  C3  UNL     1       5.013  57.251  -6.255  1.00  0.00     0.037 C 
BRANCH  26  27
HETATM   27  C4  UNL     1       4.553  56.597  -4.944  1.00  0.00     0.031 C 
BRANCH  27  28
HETATM   28  C5  UNL     1       3.053  56.643  -4.803  1.00  0.00    -0.024 C 
HETATM   29  C6  UNL     1       2.304  57.645  -4.305  1.00  0.00    -0.091 C 
HETATM   30  C7  UNL     1       2.847  58.927  -3.734  1.00  0.00     0.042 C 
HETATM   31  C8  UNL     1       0.802  57.540  -4.273  1.00  0.00     0.042 C 
ENDBRANCH  27  28
ENDBRANCH  26  27
ENDBRANCH  24  26
ENDBRANCH   1  24
TORSDOF 4
ENDMDL
MODEL 7
REMARK minimizedAffinity -6.57609558
REMARK CNNscore 0.382122219
REMARK CNNaffinity 5.74019289
REMARK  4 active torsions:
REMARK  status: ('A' for Active; 'I' for Inactive)
REMARK    1  A    between atoms: C2_2  and  C3_3 
REMARK    2  A    between atoms: C2_2  and  C9_9 
REMARK    3  A    between atoms: C3_3  and  C4_4 
REMARK    4  A    between atoms: C4_4  and  C5_5 
ROOT
HETATM    1  C9  UNL     1     -14.125  44.115 -28.286  1.00  0.00     0.018 C 
HETATM    2  C10 UNL     1     -13.407  42.775 -27.968  1.00  0.00     0.010 C 
HETATM    3  C11 UNL     1     -12.170  42.743 -28.883  1.00  0.00     0.011 C 
HETATM    4  C12 UNL     1     -11.715  44.218 -28.952  1.00  0.00    -0.032 C 
HETATM    5  C13 UNL     1     -11.076  44.553 -27.567  1.00  0.00     0.016 C 
HETATM    6  C14 UNL     1     -13.096  44.908 -29.144  1.00  0.00     0.002 C 
HETATM    7  C15 UNL     1     -12.980  46.422 -29.067  1.00  0.00     0.006 C 
HETATM    8  C16 UNL     1     -12.006  46.937 -30.146  1.00  0.00     0.006 C 
HETATM    9  C17 UNL     1     -10.620  46.232 -30.139  1.00  0.00     0.003 C 
HETATM   10  C18 UNL     1      -9.534  46.852 -31.127  1.00  0.00    -0.035 C 
HETATM   11  C19 UNL     1      -9.976  46.751 -32.605  1.00  0.00     0.016 C 
HETATM   12  C20 UNL     1      -9.347  48.362 -30.785  1.00  0.00     0.017 C 
HETATM   13  C21 UNL     1      -8.159  49.025 -31.471  1.00  0.00     0.080 C 
HETATM   14  C22 UNL     1      -6.878  48.262 -31.239  1.00  0.00     0.135 C 
HETATM   15  O1  UNL     1      -5.850  48.872 -30.937  1.00  0.00    -0.297 OA
HETATM   16  C23 UNL     1      -6.890  46.747 -31.502  1.00  0.00     0.017 C 
HETATM   17  C24 UNL     1      -5.611  46.148 -30.863  1.00  0.00     0.023 C 
HETATM   18  C25 UNL     1      -6.789  46.513 -33.015  1.00  0.00     0.023 C 
HETATM   19  C26 UNL     1      -8.163  46.136 -30.816  1.00  0.00     0.009 C 
HETATM   20  C27 UNL     1      -8.277  44.601 -30.945  1.00  0.00     0.007 C 
HETATM   21  C28 UNL     1      -9.336  44.030 -29.992  1.00  0.00     0.011 C 
HETATM   22  C29 UNL     1     -10.748  44.647 -30.157  1.00  0.00    -0.032 C 
HETATM   23  C30 UNL     1     -11.309  44.127 -31.513  1.00  0.00     0.016 C 
ENDROOT
BRANCH   1  24
HETATM   24  C2  UNL     1     -14.843  44.851 -27.158  1.00  0.00    -0.084 C 
HETATM   25  C1  UNL     1     -16.094  45.333 -27.255  1.00  0.00     0.014 C 
BRANCH  24  26
HETATM   26  C3  UNL     1     -13.977  45.058 -25.913  1.00  0.00     0.037 C 
BRANCH  26  27
HETATM   27  C4  UNL     1     -13.619  46.499 -25.522  1.00  0.00     0.031 C 
BRANCH  27  28
HETATM   28  C5  UNL     1     -13.859  46.747 -24.055  1.00  0.00    -0.024 C 
HETATM   29  C6  UNL     1     -15.019  47.080 -23.457  1.00  0.00    -0.091 C 
HETATM   30  C7  UNL     1     -16.321  47.322 -24.171  1.00  0.00     0.042 C 
HETATM   31  C8  UNL     1     -15.091  47.254 -21.963  1.00  0.00     0.042 C 
ENDBRANCH  27  28
ENDBRANCH  26  27
ENDBRANCH  24  26
ENDBRANCH   1  24
TORSDOF 4
ENDMDL
MODEL 8
REMARK minimizedAffinity -7.45538139
REMARK CNNscore 0.381899685
REMARK CNNaffinity 5.69276428
REMARK  4 active torsions:
REMARK  status: ('A' for Active; 'I' for Inactive)
REMARK    1  A    between atoms: C2_2  and  C3_3 
REMARK    2  A    between atoms: C2_2  and  C9_9 
REMARK    3  A    between atoms: C3_3  and  C4_4 
REMARK    4  A    between atoms: C4_4  and  C5_5 
ROOT
HETATM    1  C9  UNL     1     -13.931  46.775 -26.206  1.00  0.00     0.018 C 
HETATM    2  C10 UNL     1     -14.744  45.894 -27.192  1.00  0.00     0.010 C 
HETATM    3  C11 UNL     1     -14.069  46.078 -28.563  1.00  0.00     0.011 C 
HETATM    4  C12 UNL     1     -12.566  46.213 -28.226  1.00  0.00    -0.032 C 
HETATM    5  C13 UNL     1     -12.071  44.789 -27.819  1.00  0.00     0.016 C 
HETATM    6  C14 UNL     1     -12.658  47.174 -27.008  1.00  0.00     0.002 C 
HETATM    7  C15 UNL     1     -11.306  47.353 -26.334  1.00  0.00     0.006 C 
HETATM    8  C16 UNL     1     -10.281  47.913 -27.341  1.00  0.00     0.006 C 
HETATM    9  C17 UNL     1     -10.184  47.105 -28.665  1.00  0.00     0.003 C 
HETATM   10  C18 UNL     1      -9.019  47.553 -29.656  1.00  0.00    -0.035 C 
HETATM   11  C19 UNL     1      -9.206  49.009 -30.142  1.00  0.00     0.016 C 
HETATM   12  C20 UNL     1      -7.657  47.471 -28.900  1.00  0.00     0.017 C 
HETATM   13  C21 UNL     1      -6.429  47.622 -29.789  1.00  0.00     0.080 C 
HETATM   14  C22 UNL     1      -6.455  46.659 -30.951  1.00  0.00     0.135 C 
HETATM   15  O1  UNL     1      -5.436  46.030 -31.245  1.00  0.00    -0.297 OA
HETATM   16  C23 UNL     1      -7.739  46.589 -31.794  1.00  0.00     0.017 C 
HETATM   17  C24 UNL     1      -7.658  45.311 -32.669  1.00  0.00     0.023 C 
HETATM   18  C25 UNL     1      -7.761  47.788 -32.751  1.00  0.00     0.023 C 
HETATM   19  C26 UNL     1      -8.965  46.489 -30.820  1.00  0.00     0.009 C 
HETATM   20  C27 UNL     1     -10.329  46.349 -31.530  1.00  0.00     0.007 C 
HETATM   21  C28 UNL     1     -11.436  45.927 -30.554  1.00  0.00     0.011 C 
HETATM   22  C29 UNL     1     -11.608  46.866 -29.333  1.00  0.00    -0.032 C 
HETATM   23  C30 UNL     1     -12.224  48.191 -29.870  1.00  0.00     0.016 C 
ENDROOT
BRANCH   1  24
HETATM   24  C2  UNL     1     -13.758  46.299 -24.766  1.00  0.00    -0.084 C 
HETATM   25  C1  UNL     1     -12.594  45.855 -24.259  1.00  0.00     0.014 C 
BRANCH  24  26
HETATM   26  C3  UNL     1     -15.057  46.304 -23.958  1.00  0.00     0.037 C 
BRANCH  26  27
HETATM   27  C4  UNL     1     -16.026  47.477 -24.170  1.00  0.00     0.031 C 
BRANCH  27  28
HETATM   28  C5  UNL     1     -17.347  47.005 -24.723  1.00  0.00    -0.024 C 
HETATM   29  C6  UNL     1     -18.415  46.560 -24.034  1.00  0.00    -0.091 C 
HETATM   30  C7  UNL     1     -18.474  46.400 -22.539  1.00  0.00     0.042 C 
HETATM   31  C8  UNL     1     -19.679  46.161 -24.750  1.00  0.00     0.042 C 
ENDBRANCH  27  28
ENDBRANCH  26  27
ENDBRANCH  24  26
ENDBRANCH   1  24
TORSDOF 4
ENDMDL
MODEL 9
REMARK minimizedAffinity -7.00917864
REMARK CNNscore 0.366571695
REMARK CNNaffinity 5.9862628
REMARK  4 active torsions:
REMARK  status: ('A' for Active; 'I' for Inactive)
REMARK    1  A    between atoms: C2_2  and  C3_3 
REMARK    2  A    between atoms: C2_2  and  C9_9 
REMARK    3  A    between atoms: C3_3  and  C4_4 
REMARK    4  A    between atoms: C4_4  and  C5_5 
ROOT
HETATM    1  C9  UNL     1       1.177  55.611  -7.771  1.00  0.00     0.018 C 
HETATM    2  C10 UNL     1       0.512  56.900  -7.218  1.00  0.00     0.010 C 
HETATM    3  C11 UNL     1       1.421  57.372  -6.070  1.00  0.00     0.011 C 
HETATM    4  C12 UNL     1       2.847  57.016  -6.548  1.00  0.00    -0.032 C 
HETATM    5  C13 UNL     1       3.207  58.035  -7.675  1.00  0.00     0.016 C 
HETATM    6  C14 UNL     1       2.584  55.589  -7.107  1.00  0.00     0.002 C 
HETATM    7  C15 UNL     1       3.806  55.037  -7.827  1.00  0.00     0.006 C 
HETATM    8  C16 UNL     1       5.011  54.987  -6.866  1.00  0.00     0.006 C 
HETATM    9  C17 UNL     1       5.303  56.332  -6.143  1.00  0.00     0.003 C 
HETATM   10  C18 UNL     1       6.638  56.365  -5.274  1.00  0.00    -0.035 C 
HETATM   11  C19 UNL     1       6.597  55.341  -4.116  1.00  0.00     0.016 C 
HETATM   12  C20 UNL     1       7.845  56.000  -6.193  1.00  0.00     0.017 C 
HETATM   13  C21 UNL     1       9.213  56.240  -5.567  1.00  0.00     0.080 C 
HETATM   14  C22 UNL     1       9.350  57.647  -5.037  1.00  0.00     0.135 C 
HETATM   15  O1  UNL     1      10.379  58.287  -5.265  1.00  0.00    -0.297 OA
HETATM   16  C23 UNL     1       8.229  58.182  -4.131  1.00  0.00     0.017 C 
HETATM   17  C24 UNL     1       8.409  59.718  -4.018  1.00  0.00     0.023 C 
HETATM   18  C25 UNL     1       8.421  57.603  -2.723  1.00  0.00     0.023 C 
HETATM   19  C26 UNL     1       6.851  57.856  -4.805  1.00  0.00     0.009 C 
HETATM   20  C27 UNL     1       5.625  58.392  -4.033  1.00  0.00     0.007 C 
HETATM   21  C28 UNL     1       4.351  58.341  -4.886  1.00  0.00     0.011 C 
HETATM   22  C29 UNL     1       4.008  56.936  -5.444  1.00  0.00    -0.032 C 
HETATM   23  C30 UNL     1       3.547  56.073  -4.234  1.00  0.00     0.016 C 
ENDROOT
BRANCH   1  24
HETATM   24  C2  UNL     1       1.079  55.316  -9.266  1.00  0.00    -0.084 C 
HETATM   25  C1  UNL     1       2.142  55.256 -10.088  1.00  0.00     0.014 C 
BRANCH  24  26
HETATM   26  C3  UNL     1      -0.357  55.164  -9.768  1.00  0.00     0.037 C 
BRANCH  26  27
HETATM   27  C4  UNL     1      -0.620  54.146 -10.888  1.00  0.00     0.031 C 
BRANCH  27  28
HETATM   28  C5  UNL     1      -1.372  52.945 -10.375  1.00  0.00    -0.024 C 
HETATM   29  C6  UNL     1      -2.706  52.784 -10.293  1.00  0.00    -0.091 C 
HETATM   30  C7  UNL     1      -3.727  53.825 -10.667  1.00  0.00     0.042 C 
HETATM   31  C8  UNL     1      -3.295  51.494  -9.786  1.00  0.00     0.042 C 
ENDBRANCH  27  28
ENDBRANCH  26  27
ENDBRANCH  24  26
ENDBRANCH   1  24
TORSDOF 4
ENDMDL
