MODEL 1
REMARK minimizedAffinity -10.1849337
REMARK CNNscore 0.59732753
REMARK CNNaffinity 7.22220373
REMARK  13 active torsions:
REMARK  status: ('A' for Active; 'I' for Inactive)
REMARK    1  A    between atoms: C12_13  and  O2_14 
REMARK    2  A    between atoms: C19_21  and  O3_22 
REMARK    3  A    between atoms: C19_21  and  C20_23 
REMARK    4  A    between atoms: C20_23  and  C21_25 
REMARK    5  A    between atoms: C21_25  and  O5_26 
REMARK    6  A    between atoms: O5_26  and  C22_27 
REMARK    7  A    between atoms: C22_27  and  C23_29 
REMARK    8  A    between atoms: C23_29  and  C24_30 
REMARK    9  A    between atoms: C24_30  and  C25_31 
REMARK       I    between atoms: C25_31  and  N1_33 
REMARK   10  A    between atoms: N1_33  and  C26_34 
REMARK   11  A    between atoms: C26_34  and  C27_35 
REMARK   12  A    between atoms: C30_38  and  C31_39 
REMARK   13  A    between atoms: C31_39  and  O9_41 
ROOT
HETATM    1  C1  UNL     1       4.348   8.065  10.104  1.00  0.00     0.020 C 
HETATM    2  C2  UNL     1       2.921   7.472  10.171  1.00  0.00    -0.014 C 
HETATM    3  C3  UNL     1       2.973   6.034  10.753  1.00  0.00     0.022 C 
HETATM    4  C4  UNL     1       3.717   5.045   9.857  1.00  0.00     0.084 C 
HETATM    5  C5  UNL     1       3.249   5.101   8.424  1.00  0.00     0.149 C 
HETATM    6  O1  UNL     1       3.487   4.195   7.626  1.00  0.00    -0.293 OA
HETATM    7  C6  UNL     1       2.514   6.299   7.958  1.00  0.00     0.053 C 
HETATM    8  C7  UNL     1       2.362   7.379   8.744  1.00  0.00    -0.068 C 
HETATM    9  C8  UNL     1       1.529   8.547   8.290  1.00  0.00     0.035 C 
HETATM   10  C9  UNL     1       0.300   8.719   9.192  1.00  0.00     0.010 C 
HETATM   11  C10 UNL     1       0.526   8.251  10.653  1.00  0.00    -0.002 C 
HETATM   12  C11 UNL     1       2.019   8.447  11.031  1.00  0.00     0.031 C 
HETATM   13  C12 UNL     1       2.286   8.394  12.552  1.00  0.00     0.124 C 
HETATM   14  C13 UNL     1       1.124   7.794  13.347  1.00  0.00     0.045 C 
HETATM   15  C14 UNL     1      -0.238   8.504  13.122  1.00  0.00     0.001 C 
HETATM   16  C15 UNL     1      -0.326   9.762  14.027  1.00  0.00     0.019 C 
HETATM   17  C16 UNL     1      -0.432   8.955  11.637  1.00  0.00     0.002 C 
HETATM   18  C17 UNL     1      -1.917   8.687  11.302  1.00  0.00     0.009 C 
HETATM   19  C18 UNL     1      -2.588   8.233  12.595  1.00  0.00     0.047 C 
HETATM   20  C19 UNL     1      -1.459   7.558  13.370  1.00  0.00     0.128 C 
ENDROOT
BRANCH  20  21
HETATM   21  O3  UNL     1      -1.236   6.286  12.732  1.00  0.00    -0.381 OA
HETATM   22  H27 UNL     1      -0.838   5.702  13.411  1.00  0.00     0.211 HD
ENDBRANCH  20  21
BRANCH  20  23
HETATM   23  C20 UNL     1      -1.743   7.251  14.853  1.00  0.00     0.185 C 
HETATM   24  O4  UNL     1      -0.791   7.003  15.606  1.00  0.00    -0.292 OA
BRANCH  23  25
HETATM   25  C21 UNL     1      -3.186   7.269  15.350  1.00  0.00     0.260 C 
BRANCH  25  26
HETATM   26  O5  UNL     1      -4.041   6.439  14.563  1.00  0.00    -0.314 OA
BRANCH  26  27
HETATM   27  C22 UNL     1      -5.278   6.244  15.096  1.00  0.00     0.259 C 
HETATM   28  O6  UNL     1      -5.509   6.061  16.285  1.00  0.00    -0.265 OA
BRANCH  27  29
HETATM   29  C23 UNL     1      -6.328   6.321  14.015  1.00  0.00     0.120 C 
BRANCH  29  30
HETATM   30  C24 UNL     1      -7.440   5.310  14.267  1.00  0.00     0.112 C 
BRANCH  30  31
HETATM   31  C25 UNL     1      -7.315   4.112  13.345  1.00  0.00     0.218 C 
HETATM   32  O7  UNL     1      -8.082   3.157  13.385  1.00  0.00    -0.274 OA
HETATM   33  N1  UNL     1      -6.236   4.192  12.494  1.00  0.00    -0.357 N 
HETATM   34  H34 UNL     1      -5.778   5.088  12.388  1.00  0.00     0.162 HD
BRANCH  33  35
HETATM   35  C26 UNL     1      -6.049   3.235  11.428  1.00  0.00     0.161 C 
BRANCH  35  36
HETATM   36  C27 UNL     1      -4.609   2.790  11.361  1.00  0.00    -0.040 A 
HETATM   37  C28 UNL     1      -4.274   1.449  11.601  1.00  0.00     0.010 A 
HETATM   38  C29 UNL     1      -2.951   1.017  11.500  1.00  0.00     0.019 A 
HETATM   39  C30 UNL     1      -1.941   1.920  11.150  1.00  0.00     0.037 A 
HETATM   40  C32 UNL     1      -2.268   3.260  10.907  1.00  0.00     0.019 A 
HETATM   41  C33 UNL     1      -3.595   3.690  11.008  1.00  0.00     0.010 A 
BRANCH  39  42
HETATM   42  C31 UNL     1      -0.552   1.414  11.041  1.00  0.00     0.176 C 
HETATM   43  O8  UNL     1      -0.217   0.245  11.016  1.00  0.00    -0.646 OA
BRANCH  42  44
HETATM   44  O9  UNL     1       0.358   2.401  10.959  1.00  0.00    -0.773 OA
HETATM   45  H39 UNL     1       1.210   1.924  10.881  1.00  0.00     0.167 HD
ENDBRANCH  42  44
ENDBRANCH  39  42
ENDBRANCH  35  36
ENDBRANCH  33  35
ENDBRANCH  30  31
ENDBRANCH  29  30
ENDBRANCH  27  29
ENDBRANCH  26  27
ENDBRANCH  25  26
ENDBRANCH  23  25
ENDBRANCH  20  23
BRANCH  13  46
HETATM   46  O2  UNL     1       2.534   9.717  13.030  1.00  0.00    -0.395 OA
HETATM   47  H16 UNL     1       3.353  10.036  12.613  1.00  0.00     0.210 HD
ENDBRANCH  13  46
TORSDOF 13
ENDMDL
MODEL 2
REMARK minimizedAffinity -7.76053858
REMARK CNNscore 0.557388186
REMARK CNNaffinity 6.52012634
REMARK  13 active torsions:
REMARK  status: ('A' for Active; 'I' for Inactive)
REMARK    1  A    between atoms: C12_13  and  O2_14 
REMARK    2  A    between atoms: C19_21  and  O3_22 
REMARK    3  A    between atoms: C19_21  and  C20_23 
REMARK    4  A    between atoms: C20_23  and  C21_25 
REMARK    5  A    between atoms: C21_25  and  O5_26 
REMARK    6  A    between atoms: O5_26  and  C22_27 
REMARK    7  A    between atoms: C22_27  and  C23_29 
REMARK    8  A    between atoms: C23_29  and  C24_30 
REMARK    9  A    between atoms: C24_30  and  C25_31 
REMARK       I    between atoms: C25_31  and  N1_33 
REMARK   10  A    between atoms: N1_33  and  C26_34 
REMARK   11  A    between atoms: C26_34  and  C27_35 
REMARK   12  A    between atoms: C30_38  and  C31_39 
REMARK   13  A    between atoms: C31_39  and  O9_41 
ROOT
HETATM    1  C1  UNL     1      -2.043   6.308  13.280  1.00  0.00     0.020 C 
HETATM    2  C2  UNL     1      -0.936   7.333  12.936  1.00  0.00    -0.014 C 
HETATM    3  C3  UNL     1      -0.123   7.681  14.212  1.00  0.00     0.022 C 
HETATM    4  C4  UNL     1      -0.948   8.405  15.276  1.00  0.00     0.084 C 
HETATM    5  C5  UNL     1      -1.718   9.573  14.712  1.00  0.00     0.149 C 
HETATM    6  O1  UNL     1      -2.180  10.456  15.433  1.00  0.00    -0.293 OA
HETATM    7  C6  UNL     1      -1.953   9.636  13.251  1.00  0.00     0.053 C 
HETATM    8  C7  UNL     1      -1.602   8.624  12.439  1.00  0.00    -0.068 C 
HETATM    9  C8  UNL     1      -1.759   8.747  10.947  1.00  0.00     0.035 C 
HETATM   10  C9  UNL     1      -0.391   8.709  10.254  1.00  0.00     0.010 C 
HETATM   11  C10 UNL     1       0.670   7.868  11.010  1.00  0.00    -0.002 C 
HETATM   12  C11 UNL     1      -0.037   6.724  11.785  1.00  0.00     0.031 C 
HETATM   13  C12 UNL     1       0.921   5.602  12.245  1.00  0.00     0.124 C 
HETATM   14  C13 UNL     1       2.396   6.008  12.187  1.00  0.00     0.045 C 
HETATM   15  C14 UNL     1       2.867   6.502  10.793  1.00  0.00     0.001 C 
HETATM   16  C15 UNL     1       3.212   5.282   9.897  1.00  0.00     0.019 C 
HETATM   17  C16 UNL     1       1.774   7.349  10.065  1.00  0.00     0.002 C 
HETATM   18  C17 UNL     1       2.529   8.500   9.359  1.00  0.00     0.009 C 
HETATM   19  C18 UNL     1       4.019   8.238   9.555  1.00  0.00     0.047 C 
HETATM   20  C19 UNL     1       4.082   7.485  10.881  1.00  0.00     0.128 C 
ENDROOT
BRANCH  20  21
HETATM   21  O3  UNL     1       3.851   8.463  11.912  1.00  0.00    -0.381 OA
HETATM   22  H27 UNL     1       4.270   8.111  12.725  1.00  0.00     0.211 HD
ENDBRANCH  20  21
BRANCH  20  23
HETATM   23  C20 UNL     1       5.428   6.814  11.217  1.00  0.00     0.185 C 
HETATM   24  O4  UNL     1       6.168   6.459  10.290  1.00  0.00    -0.292 OA
BRANCH  23  25
HETATM   25  C21 UNL     1       5.810   6.614  12.681  1.00  0.00     0.260 C 
BRANCH  25  26
HETATM   26  O5  UNL     1       6.110   7.847  13.336  1.00  0.00    -0.314 OA
BRANCH  26  27
HETATM   27  C22 UNL     1       7.411   8.237  13.228  1.00  0.00     0.259 C 
HETATM   28  O6  UNL     1       7.893   8.810  12.259  1.00  0.00    -0.265 OA
BRANCH  27  29
HETATM   29  C23 UNL     1       8.163   7.892  14.490  1.00  0.00     0.120 C 
BRANCH  29  30
HETATM   30  C24 UNL     1       7.709   8.776  15.647  1.00  0.00     0.112 C 
BRANCH  30  31
HETATM   31  C25 UNL     1       8.842   9.032  16.622  1.00  0.00     0.218 C 
HETATM   32  O7  UNL     1       9.436   8.133  17.206  1.00  0.00    -0.274 OA
HETATM   33  N1  UNL     1       9.104  10.370  16.809  1.00  0.00    -0.357 N 
HETATM   34  H34 UNL     1       8.712  11.030  16.151  1.00  0.00     0.162 HD
BRANCH  33  35
HETATM   35  C26 UNL     1      10.256  10.810  17.564  1.00  0.00     0.161 C 
BRANCH  35  36
HETATM   36  C27 UNL     1       9.830  11.408  18.882  1.00  0.00    -0.040 A 
HETATM   37  C28 UNL     1       8.468  11.588  19.166  1.00  0.00     0.010 A 
HETATM   38  C29 UNL     1       8.060  12.101  20.398  1.00  0.00     0.019 A 
HETATM   39  C30 UNL     1       9.010  12.437  21.369  1.00  0.00     0.037 A 
HETATM   40  C32 UNL     1      10.371  12.259  21.093  1.00  0.00     0.019 A 
HETATM   41  C33 UNL     1      10.778  11.744  19.858  1.00  0.00     0.010 A 
BRANCH  39  42
HETATM   42  C31 UNL     1       8.531  12.966  22.668  1.00  0.00     0.176 C 
HETATM   43  O8  UNL     1       7.743  12.418  23.416  1.00  0.00    -0.646 OA
BRANCH  42  44
HETATM   44  O9  UNL     1       9.071  14.159  22.978  1.00  0.00    -0.773 OA
HETATM   45  H39 UNL     1       8.679  14.371  23.850  1.00  0.00     0.167 HD
ENDBRANCH  42  44
ENDBRANCH  39  42
ENDBRANCH  35  36
ENDBRANCH  33  35
ENDBRANCH  30  31
ENDBRANCH  29  30
ENDBRANCH  27  29
ENDBRANCH  26  27
ENDBRANCH  25  26
ENDBRANCH  23  25
ENDBRANCH  20  23
BRANCH  13  46
HETATM   46  O2  UNL     1       0.728   4.453  11.419  1.00  0.00    -0.395 OA
HETATM   47  H16 UNL     1      -0.177   4.127  11.568  1.00  0.00     0.210 HD
ENDBRANCH  13  46
TORSDOF 13
ENDMDL
MODEL 3
REMARK minimizedAffinity -9.31986141
REMARK CNNscore 0.506496251
REMARK CNNaffinity 6.81477785
REMARK  13 active torsions:
REMARK  status: ('A' for Active; 'I' for Inactive)
REMARK    1  A    between atoms: C12_13  and  O2_14 
REMARK    2  A    between atoms: C19_21  and  O3_22 
REMARK    3  A    between atoms: C19_21  and  C20_23 
REMARK    4  A    between atoms: C20_23  and  C21_25 
REMARK    5  A    between atoms: C21_25  and  O5_26 
REMARK    6  A    between atoms: O5_26  and  C22_27 
REMARK    7  A    between atoms: C22_27  and  C23_29 
REMARK    8  A    between atoms: C23_29  and  C24_30 
REMARK    9  A    between atoms: C24_30  and  C25_31 
REMARK       I    between atoms: C25_31  and  N1_33 
REMARK   10  A    between atoms: N1_33  and  C26_34 
REMARK   11  A    between atoms: C26_34  and  C27_35 
REMARK   12  A    between atoms: C30_38  and  C31_39 
REMARK   13  A    between atoms: C31_39  and  O9_41 
ROOT
HETATM    1  C1  UNL     1      -7.161   4.778  15.614  1.00  0.00     0.020 C 
HETATM    2  C2  UNL     1      -6.491   5.590  14.480  1.00  0.00    -0.014 C 
HETATM    3  C3  UNL     1      -7.111   7.012  14.412  1.00  0.00     0.022 C 
HETATM    4  C4  UNL     1      -8.585   7.010  14.011  1.00  0.00     0.084 C 
HETATM    5  C5  UNL     1      -8.848   6.176  12.783  1.00  0.00     0.149 C 
HETATM    6  O1  UNL     1      -9.882   6.292  12.126  1.00  0.00    -0.293 OA
HETATM    7  C6  UNL     1      -7.846   5.164  12.378  1.00  0.00     0.053 C 
HETATM    8  C7  UNL     1      -6.775   4.891  13.143  1.00  0.00    -0.068 C 
HETATM    9  C8  UNL     1      -5.717   3.931  12.669  1.00  0.00     0.035 C 
HETATM   10  C9  UNL     1      -4.379   4.655  12.468  1.00  0.00     0.010 C 
HETATM   11  C10 UNL     1      -4.177   5.868  13.412  1.00  0.00    -0.002 C 
HETATM   12  C11 UNL     1      -4.931   5.615  14.745  1.00  0.00     0.031 C 
HETATM   13  C12 UNL     1      -4.490   6.549  15.894  1.00  0.00     0.124 C 
HETATM   14  C13 UNL     1      -3.693   7.763  15.411  1.00  0.00     0.045 C 
HETATM   15  C14 UNL     1      -2.437   7.409  14.569  1.00  0.00     0.001 C 
HETATM   16  C15 UNL     1      -1.256   7.065  15.516  1.00  0.00     0.019 C 
HETATM   17  C16 UNL     1      -2.682   6.186  13.628  1.00  0.00     0.002 C 
HETATM   18  C17 UNL     1      -1.956   6.518  12.303  1.00  0.00     0.009 C 
HETATM   19  C18 UNL     1      -1.199   7.823  12.528  1.00  0.00     0.047 C 
HETATM   20  C19 UNL     1      -2.036   8.550  13.577  1.00  0.00     0.128 C 
ENDROOT
BRANCH  20  21
HETATM   21  O3  UNL     1      -3.203   9.042  12.891  1.00  0.00    -0.381 OA
HETATM   22  H27 UNL     1      -3.524   9.810  13.408  1.00  0.00     0.211 HD
ENDBRANCH  20  21
BRANCH  20  23
HETATM   23  C20 UNL     1      -1.378   9.776  14.239  1.00  0.00     0.185 C 
HETATM   24  O4  UNL     1      -1.532  10.891  13.721  1.00  0.00    -0.292 OA
BRANCH  23  25
HETATM   25  C21 UNL     1      -0.563   9.581  15.514  1.00  0.00     0.260 C 
BRANCH  25  26
HETATM   26  O5  UNL     1      -1.010  10.423  16.577  1.00  0.00    -0.314 OA
BRANCH  26  27
HETATM   27  C22 UNL     1      -0.007  11.045  17.258  1.00  0.00     0.259 C 
HETATM   28  O6  UNL     1       1.087  11.330  16.790  1.00  0.00    -0.265 OA
BRANCH  27  29
HETATM   29  C23 UNL     1      -0.455  11.365  18.663  1.00  0.00     0.120 C 
BRANCH  29  30
HETATM   30  C24 UNL     1       0.640  11.029  19.670  1.00  0.00     0.112 C 
BRANCH  30  31
HETATM   31  C25 UNL     1       1.060  12.256  20.456  1.00  0.00     0.218 C 
HETATM   32  O7  UNL     1       0.436  13.310  20.432  1.00  0.00    -0.274 OA
HETATM   33  N1  UNL     1       2.228  12.073  21.162  1.00  0.00    -0.357 N 
HETATM   34  H34 UNL     1       2.567  11.129  21.287  1.00  0.00     0.162 HD
BRANCH  33  35
HETATM   35  C26 UNL     1       2.696  13.064  22.105  1.00  0.00     0.161 C 
BRANCH  35  36
HETATM   36  C27 UNL     1       4.166  12.874  22.389  1.00  0.00    -0.040 A 
HETATM   37  C28 UNL     1       4.981  13.984  22.653  1.00  0.00     0.010 A 
HETATM   38  C29 UNL     1       6.333  13.817  22.959  1.00  0.00     0.019 A 
HETATM   39  C30 UNL     1       6.889  12.534  23.011  1.00  0.00     0.037 A 
HETATM   40  C32 UNL     1       6.081  11.421  22.750  1.00  0.00     0.019 A 
HETATM   41  C33 UNL     1       4.726  11.590  22.444  1.00  0.00     0.010 A 
BRANCH  39  42
HETATM   42  C31 UNL     1       8.325  12.403  23.353  1.00  0.00     0.176 C 
HETATM   43  O8  UNL     1       9.087  13.319  23.603  1.00  0.00    -0.646 OA
BRANCH  42  44
HETATM   44  O9  UNL     1       8.742  11.125  23.375  1.00  0.00    -0.773 OA
HETATM   45  H39 UNL     1       9.688  11.194  23.623  1.00  0.00     0.167 HD
ENDBRANCH  42  44
ENDBRANCH  39  42
ENDBRANCH  35  36
ENDBRANCH  33  35
ENDBRANCH  30  31
ENDBRANCH  29  30
ENDBRANCH  27  29
ENDBRANCH  26  27
ENDBRANCH  25  26
ENDBRANCH  23  25
ENDBRANCH  20  23
BRANCH  13  46
HETATM   46  O2  UNL     1      -3.687   5.810  16.816  1.00  0.00    -0.395 OA
HETATM   47  H16 UNL     1      -4.248   5.122  17.214  1.00  0.00     0.210 HD
ENDBRANCH  13  46
TORSDOF 13
ENDMDL
MODEL 4
REMARK minimizedAffinity -7.92059565
REMARK CNNscore 0.503095388
REMARK CNNaffinity 6.20584249
REMARK  13 active torsions:
REMARK  status: ('A' for Active; 'I' for Inactive)
REMARK    1  A    between atoms: C12_13  and  O2_14 
REMARK    2  A    between atoms: C19_21  and  O3_22 
REMARK    3  A    between atoms: C19_21  and  C20_23 
REMARK    4  A    between atoms: C20_23  and  C21_25 
REMARK    5  A    between atoms: C21_25  and  O5_26 
REMARK    6  A    between atoms: O5_26  and  C22_27 
REMARK    7  A    between atoms: C22_27  and  C23_29 
REMARK    8  A    between atoms: C23_29  and  C24_30 
REMARK    9  A    between atoms: C24_30  and  C25_31 
REMARK       I    between atoms: C25_31  and  N1_33 
REMARK   10  A    between atoms: N1_33  and  C26_34 
REMARK   11  A    between atoms: C26_34  and  C27_35 
REMARK   12  A    between atoms: C30_38  and  C31_39 
REMARK   13  A    between atoms: C31_39  and  O9_41 
ROOT
HETATM    1  C1  UNL     1      -1.820   9.019  12.083  1.00  0.00     0.020 C 
HETATM    2  C2  UNL     1      -1.467   8.654  13.545  1.00  0.00    -0.014 C 
HETATM    3  C3  UNL     1      -0.052   8.018  13.602  1.00  0.00     0.022 C 
HETATM    4  C4  UNL     1       0.038   6.675  12.878  1.00  0.00     0.084 C 
HETATM    5  C5  UNL     1      -1.068   5.730  13.278  1.00  0.00     0.149 C 
HETATM    6  O1  UNL     1      -1.001   4.521  13.059  1.00  0.00    -0.293 OA
HETATM    7  C6  UNL     1      -2.283   6.281  13.920  1.00  0.00     0.053 C 
HETATM    8  C7  UNL     1      -2.471   7.606  14.044  1.00  0.00    -0.068 C 
HETATM    9  C8  UNL     1      -3.665   8.145  14.787  1.00  0.00     0.035 C 
HETATM   10  C9  UNL     1      -3.222   8.907  16.042  1.00  0.00     0.010 C 
HETATM   11  C10 UNL     1      -1.830   9.578  15.909  1.00  0.00    -0.002 C 
HETATM   12  C11 UNL     1      -1.585   9.964  14.425  1.00  0.00     0.031 C 
HETATM   13  C12 UNL     1      -0.432  10.974  14.230  1.00  0.00     0.124 C 
HETATM   14  C13 UNL     1       0.470  11.104  15.459  1.00  0.00     0.045 C 
HETATM   15  C14 UNL     1      -0.281  11.477  16.766  1.00  0.00     0.001 C 
HETATM   16  C15 UNL     1      -0.502  13.012  16.820  1.00  0.00     0.019 C 
HETATM   17  C16 UNL     1      -1.676  10.778  16.866  1.00  0.00     0.002 C 
HETATM   18  C17 UNL     1      -1.840  10.370  18.349  1.00  0.00     0.009 C 
HETATM   19  C18 UNL     1      -0.644  10.944  19.101  1.00  0.00     0.047 C 
HETATM   20  C19 UNL     1       0.462  10.979  18.050  1.00  0.00     0.128 C 
ENDROOT
BRANCH  20  21
HETATM   21  O3  UNL     1       0.895   9.617  17.874  1.00  0.00    -0.381 OA
HETATM   22  H27 UNL     1       1.816   9.661  17.541  1.00  0.00     0.211 HD
ENDBRANCH  20  21
BRANCH  20  23
HETATM   23  C20 UNL     1       1.722  11.787  18.417  1.00  0.00     0.185 C 
HETATM   24  O4  UNL     1       2.039  12.754  17.711  1.00  0.00    -0.292 OA
BRANCH  23  25
HETATM   25  C21 UNL     1       2.535  11.375  19.641  1.00  0.00     0.260 C 
BRANCH  25  26
HETATM   26  O5  UNL     1       2.563   9.959  19.822  1.00  0.00    -0.314 OA
BRANCH  26  27
HETATM   27  C22 UNL     1       2.671   9.562  21.120  1.00  0.00     0.259 C 
HETATM   28  O6  UNL     1       1.819   8.935  21.735  1.00  0.00    -0.265 OA
BRANCH  27  29
HETATM   29  C23 UNL     1       4.011   9.975  21.678  1.00  0.00     0.120 C 
BRANCH  29  30
HETATM   30  C24 UNL     1       3.835  10.844  22.918  1.00  0.00     0.112 C 
BRANCH  30  31
HETATM   31  C25 UNL     1       4.449  12.216  22.721  1.00  0.00     0.218 C 
HETATM   32  O7  UNL     1       3.985  13.234  23.223  1.00  0.00    -0.274 OA
HETATM   33  N1  UNL     1       5.550  12.204  21.894  1.00  0.00    -0.357 N 
HETATM   34  H34 UNL     1       5.981  11.313  21.686  1.00  0.00     0.162 HD
BRANCH  33  35
HETATM   35  C26 UNL     1       6.372  13.381  21.724  1.00  0.00     0.161 C 
BRANCH  35  36
HETATM   36  C27 UNL     1       7.760  12.997  21.270  1.00  0.00    -0.040 A 
HETATM   37  C28 UNL     1       8.819  12.973  22.190  1.00  0.00     0.010 A 
HETATM   38  C29 UNL     1      10.098  12.579  21.791  1.00  0.00     0.019 A 
HETATM   39  C30 UNL     1      10.335  12.196  20.466  1.00  0.00     0.037 A 
HETATM   40  C32 UNL     1       9.282  12.216  19.543  1.00  0.00     0.019 A 
HETATM   41  C33 UNL     1       8.001  12.611  19.945  1.00  0.00     0.010 A 
BRANCH  39  42
HETATM   42  C31 UNL     1      11.704  11.773  20.090  1.00  0.00     0.176 C 
HETATM   43  O8  UNL     1      12.685  12.491  20.036  1.00  0.00    -0.646 OA
BRANCH  42  44
HETATM   44  O9  UNL     1      11.786  10.460  19.808  1.00  0.00    -0.773 OA
HETATM   45  H39 UNL     1      12.733  10.328  19.595  1.00  0.00     0.167 HD
ENDBRANCH  42  44
ENDBRANCH  39  42
ENDBRANCH  35  36
ENDBRANCH  33  35
ENDBRANCH  30  31
ENDBRANCH  29  30
ENDBRANCH  27  29
ENDBRANCH  26  27
ENDBRANCH  25  26
ENDBRANCH  23  25
ENDBRANCH  20  23
BRANCH  13  46
HETATM   46  O2  UNL     1      -0.982  12.258  13.926  1.00  0.00    -0.395 OA
HETATM   47  H16 UNL     1      -1.443  12.189  13.072  1.00  0.00     0.210 HD
ENDBRANCH  13  46
TORSDOF 13
ENDMDL
MODEL 5
REMARK minimizedAffinity -10.1405563
REMARK CNNscore 0.429765403
REMARK CNNaffinity 6.9337616
REMARK  13 active torsions:
REMARK  status: ('A' for Active; 'I' for Inactive)
REMARK    1  A    between atoms: C12_13  and  O2_14 
REMARK    2  A    between atoms: C19_21  and  O3_22 
REMARK    3  A    between atoms: C19_21  and  C20_23 
REMARK    4  A    between atoms: C20_23  and  C21_25 
REMARK    5  A    between atoms: C21_25  and  O5_26 
REMARK    6  A    between atoms: O5_26  and  C22_27 
REMARK    7  A    between atoms: C22_27  and  C23_29 
REMARK    8  A    between atoms: C23_29  and  C24_30 
REMARK    9  A    between atoms: C24_30  and  C25_31 
REMARK       I    between atoms: C25_31  and  N1_33 
REMARK   10  A    between atoms: N1_33  and  C26_34 
REMARK   11  A    between atoms: C26_34  and  C27_35 
REMARK   12  A    between atoms: C30_38  and  C31_39 
REMARK   13  A    between atoms: C31_39  and  O9_41 
ROOT
HETATM    1  C1  UNL     1       2.607   5.352  10.162  1.00  0.00     0.020 C 
HETATM    2  C2  UNL     1       2.002   6.703  10.613  1.00  0.00    -0.014 C 
HETATM    3  C3  UNL     1       1.021   7.230   9.531  1.00  0.00     0.022 C 
HETATM    4  C4  UNL     1       1.708   7.581   8.212  1.00  0.00     0.084 C 
HETATM    5  C5  UNL     1       2.920   8.458   8.409  1.00  0.00     0.149 C 
HETATM    6  O1  UNL     1       3.417   9.097   7.483  1.00  0.00    -0.293 OA
HETATM    7  C6  UNL     1       3.547   8.519   9.749  1.00  0.00     0.053 C 
HETATM    8  C7  UNL     1       3.137   7.726  10.753  1.00  0.00    -0.068 C 
HETATM    9  C8  UNL     1       3.721   7.871  12.133  1.00  0.00     0.035 C 
HETATM   10  C9  UNL     1       2.646   8.325  13.130  1.00  0.00     0.010 C 
HETATM   11  C10 UNL     1       1.217   7.843  12.772  1.00  0.00    -0.002 C 
HETATM   12  C11 UNL     1       1.305   6.488  12.018  1.00  0.00     0.031 C 
HETATM   13  C12 UNL     1      -0.037   5.723  11.959  1.00  0.00     0.124 C 
HETATM   14  C13 UNL     1      -1.244   6.596  12.309  1.00  0.00     0.045 C 
HETATM   15  C14 UNL     1      -1.148   7.294  13.692  1.00  0.00     0.001 C 
HETATM   16  C15 UNL     1      -1.594   6.308  14.805  1.00  0.00     0.019 C 
HETATM   17  C16 UNL     1       0.306   7.771  14.015  1.00  0.00     0.002 C 
HETATM   18  C17 UNL     1       0.157   9.142  14.713  1.00  0.00     0.009 C 
HETATM   19  C18 UNL     1      -1.336   9.378  14.914  1.00  0.00     0.047 C 
HETATM   20  C19 UNL     1      -1.981   8.616  13.759  1.00  0.00     0.128 C 
ENDROOT
BRANCH  20  21
HETATM   21  O3  UNL     1      -1.751   9.406  12.577  1.00  0.00    -0.381 OA
HETATM   22  H27 UNL     1      -2.460   9.169  11.944  1.00  0.00     0.211 HD
ENDBRANCH  20  21
BRANCH  20  23
HETATM   23  C20 UNL     1      -3.506   8.411  13.849  1.00  0.00     0.185 C 
HETATM   24  O4  UNL     1      -4.176   8.442  12.808  1.00  0.00    -0.292 OA
BRANCH  23  25
HETATM   25  C21 UNL     1      -4.142   8.171  15.215  1.00  0.00     0.260 C 
BRANCH  25  26
HETATM   26  O5  UNL     1      -4.902   6.963  15.254  1.00  0.00    -0.314 OA
BRANCH  26  27
HETATM   27  C22 UNL     1      -6.237   7.147  15.454  1.00  0.00     0.259 C 
HETATM   28  O6  UNL     1      -6.781   7.205  16.549  1.00  0.00    -0.265 OA
BRANCH  27  29
HETATM   29  C23 UNL     1      -6.942   7.306  14.129  1.00  0.00     0.120 C 
BRANCH  29  30
HETATM   30  C24 UNL     1      -8.352   6.729  14.194  1.00  0.00     0.112 C 
BRANCH  30  31
HETATM   31  C25 UNL     1      -8.537   5.612  13.185  1.00  0.00     0.218 C 
HETATM   32  O7  UNL     1      -8.985   5.798  12.060  1.00  0.00    -0.274 OA
HETATM   33  N1  UNL     1      -8.189   4.374  13.676  1.00  0.00    -0.357 N 
HETATM   34  H34 UNL     1      -7.648   4.334  14.530  1.00  0.00     0.162 HD
BRANCH  33  35
HETATM   35  C26 UNL     1      -8.131   3.215  12.813  1.00  0.00     0.161 C 
BRANCH  35  36
HETATM   36  C27 UNL     1      -6.706   2.925  12.410  1.00  0.00    -0.040 A 
HETATM   37  C28 UNL     1      -5.673   3.787  12.806  1.00  0.00     0.010 A 
HETATM   38  C29 UNL     1      -4.346   3.507  12.475  1.00  0.00     0.019 A 
HETATM   39  C30 UNL     1      -4.032   2.354  11.746  1.00  0.00     0.037 A 
HETATM   40  C32 UNL     1      -5.058   1.488  11.349  1.00  0.00     0.019 A 
HETATM   41  C33 UNL     1      -6.387   1.771  11.682  1.00  0.00     0.010 A 
BRANCH  39  42
HETATM   42  C31 UNL     1      -2.609   2.089  11.428  1.00  0.00     0.176 C 
HETATM   43  O8  UNL     1      -1.703   2.900  11.475  1.00  0.00    -0.646 OA
BRANCH  42  44
HETATM   44  O9  UNL     1      -2.381   0.811  11.074  1.00  0.00    -0.773 OA
HETATM   45  H39 UNL     1      -1.416   0.785  10.910  1.00  0.00     0.167 HD
ENDBRANCH  42  44
ENDBRANCH  39  42
ENDBRANCH  35  36
ENDBRANCH  33  35
ENDBRANCH  30  31
ENDBRANCH  29  30
ENDBRANCH  27  29
ENDBRANCH  26  27
ENDBRANCH  25  26
ENDBRANCH  23  25
ENDBRANCH  20  23
BRANCH  13  46
HETATM   46  O2  UNL     1       0.012   4.622  12.867  1.00  0.00    -0.395 OA
HETATM   47  H16 UNL     1       0.699   4.008  12.554  1.00  0.00     0.210 HD
ENDBRANCH  13  46
TORSDOF 13
ENDMDL
MODEL 6
REMARK minimizedAffinity -10.0923738
REMARK CNNscore 0.371114343
REMARK CNNaffinity 6.69744062
REMARK  13 active torsions:
REMARK  status: ('A' for Active; 'I' for Inactive)
REMARK    1  A    between atoms: C12_13  and  O2_14 
REMARK    2  A    between atoms: C19_21  and  O3_22 
REMARK    3  A    between atoms: C19_21  and  C20_23 
REMARK    4  A    between atoms: C20_23  and  C21_25 
REMARK    5  A    between atoms: C21_25  and  O5_26 
REMARK    6  A    between atoms: O5_26  and  C22_27 
REMARK    7  A    between atoms: C22_27  and  C23_29 
REMARK    8  A    between atoms: C23_29  and  C24_30 
REMARK    9  A    between atoms: C24_30  and  C25_31 
REMARK       I    between atoms: C25_31  and  N1_33 
REMARK   10  A    between atoms: N1_33  and  C26_34 
REMARK   11  A    between atoms: C26_34  and  C27_35 
REMARK   12  A    between atoms: C30_38  and  C31_39 
REMARK   13  A    between atoms: C31_39  and  O9_41 
ROOT
HETATM    1  C1  UNL     1       3.361   8.326   9.069  1.00  0.00     0.020 C 
HETATM    2  C2  UNL     1       3.193   7.584  10.416  1.00  0.00    -0.014 C 
HETATM    3  C3  UNL     1       3.866   8.397  11.555  1.00  0.00     0.022 C 
HETATM    4  C4  UNL     1       5.383   8.506  11.405  1.00  0.00     0.084 C 
HETATM    5  C5  UNL     1       6.034   7.169  11.150  1.00  0.00     0.149 C 
HETATM    6  O1  UNL     1       7.241   6.992  11.311  1.00  0.00    -0.293 OA
HETATM    7  C6  UNL     1       5.199   6.049  10.658  1.00  0.00     0.053 C 
HETATM    8  C7  UNL     1       3.910   6.230  10.322  1.00  0.00    -0.068 C 
HETATM    9  C8  UNL     1       3.051   5.062   9.917  1.00  0.00     0.035 C 
HETATM   10  C9  UNL     1       1.918   4.847  10.930  1.00  0.00     0.010 C 
HETATM   11  C10 UNL     1       1.446   6.149  11.627  1.00  0.00    -0.002 C 
HETATM   12  C11 UNL     1       1.647   7.350  10.664  1.00  0.00     0.031 C 
HETATM   13  C12 UNL     1       0.865   8.616  11.080  1.00  0.00     0.124 C 
HETATM   14  C13 UNL     1       0.362   8.566  12.524  1.00  0.00     0.045 C 
HETATM   15  C14 UNL     1      -0.515   7.328  12.853  1.00  0.00     0.001 C 
HETATM   16  C15 UNL     1      -1.976   7.590  12.399  1.00  0.00     0.019 C 
HETATM   17  C16 UNL     1      -0.006   6.035  12.137  1.00  0.00     0.002 C 
HETATM   18  C17 UNL     1      -0.179   4.887  13.158  1.00  0.00     0.009 C 
HETATM   19  C18 UNL     1      -0.899   5.476  14.368  1.00  0.00     0.047 C 
HETATM   20  C19 UNL     1      -0.467   6.940  14.368  1.00  0.00     0.128 C 
ENDROOT
BRANCH  20  21
HETATM   21  O3  UNL     1       0.893   6.959  14.840  1.00  0.00    -0.381 OA
HETATM   22  H27 UNL     1       1.042   7.851  15.218  1.00  0.00     0.211 HD
ENDBRANCH  20  21
BRANCH  20  23
HETATM   23  C20 UNL     1      -1.259   7.881  15.297  1.00  0.00     0.185 C 
HETATM   24  O4  UNL     1      -0.700   8.335  16.305  1.00  0.00    -0.292 OA
BRANCH  23  25
HETATM   25  C21 UNL     1      -2.702   8.229  14.944  1.00  0.00     0.260 C 
BRANCH  25  26
HETATM   26  O5  UNL     1      -3.642   7.390  15.617  1.00  0.00    -0.314 OA
BRANCH  26  27
HETATM   27  C22 UNL     1      -4.863   7.324  15.017  1.00  0.00     0.259 C 
HETATM   28  O6  UNL     1      -5.165   7.892  13.976  1.00  0.00    -0.265 OA
BRANCH  27  29
HETATM   29  C23 UNL     1      -5.778   6.417  15.803  1.00  0.00     0.120 C 
BRANCH  29  30
HETATM   30  C24 UNL     1      -7.237   6.686  15.453  1.00  0.00     0.112 C 
BRANCH  30  31
HETATM   31  C25 UNL     1      -7.681   5.855  14.264  1.00  0.00     0.218 C 
HETATM   32  O7  UNL     1      -8.242   6.336  13.286  1.00  0.00    -0.274 OA
HETATM   33  N1  UNL     1      -7.424   4.511  14.416  1.00  0.00    -0.357 N 
HETATM   34  H34 UNL     1      -6.789   4.227  15.149  1.00  0.00     0.162 HD
BRANCH  33  35
HETATM   35  C26 UNL     1      -7.615   3.584  13.323  1.00  0.00     0.161 C 
BRANCH  35  36
HETATM   36  C27 UNL     1      -6.295   3.256  12.670  1.00  0.00    -0.040 A 
HETATM   37  C28 UNL     1      -5.158   4.028  12.953  1.00  0.00     0.010 A 
HETATM   38  C29 UNL     1      -3.922   3.708  12.388  1.00  0.00     0.019 A 
HETATM   39  C30 UNL     1      -3.804   2.606  11.533  1.00  0.00     0.037 A 
HETATM   40  C32 UNL     1      -4.934   1.831  11.247  1.00  0.00     0.019 A 
HETATM   41  C33 UNL     1      -6.171   2.153  11.815  1.00  0.00     0.010 A 
BRANCH  39  42
HETATM   42  C31 UNL     1      -2.470   2.296  10.966  1.00  0.00     0.176 C 
HETATM   43  O8  UNL     1      -1.668   3.107  10.540  1.00  0.00    -0.646 OA
BRANCH  42  44
HETATM   44  O9  UNL     1      -2.196   0.979  10.966  1.00  0.00    -0.773 OA
HETATM   45  H39 UNL     1      -1.295   0.931  10.583  1.00  0.00     0.167 HD
ENDBRANCH  42  44
ENDBRANCH  39  42
ENDBRANCH  35  36
ENDBRANCH  33  35
ENDBRANCH  30  31
ENDBRANCH  29  30
ENDBRANCH  27  29
ENDBRANCH  26  27
ENDBRANCH  25  26
ENDBRANCH  23  25
ENDBRANCH  20  23
BRANCH  13  46
HETATM   46  O2  UNL     1      -0.256   8.781  10.209  1.00  0.00    -0.395 OA
HETATM   47  H16 UNL     1       0.085   8.944   9.313  1.00  0.00     0.210 HD
ENDBRANCH  13  46
TORSDOF 13
ENDMDL
MODEL 7
REMARK minimizedAffinity -8.83013725
REMARK CNNscore 0.29896161
REMARK CNNaffinity 5.70744371
REMARK  13 active torsions:
REMARK  status: ('A' for Active; 'I' for Inactive)
REMARK    1  A    between atoms: C12_13  and  O2_14 
REMARK    2  A    between atoms: C19_21  and  O3_22 
REMARK    3  A    between atoms: C19_21  and  C20_23 
REMARK    4  A    between atoms: C20_23  and  C21_25 
REMARK    5  A    between atoms: C21_25  and  O5_26 
REMARK    6  A    between atoms: O5_26  and  C22_27 
REMARK    7  A    between atoms: C22_27  and  C23_29 
REMARK    8  A    between atoms: C23_29  and  C24_30 
REMARK    9  A    between atoms: C24_30  and  C25_31 
REMARK       I    between atoms: C25_31  and  N1_33 
REMARK   10  A    between atoms: N1_33  and  C26_34 
REMARK   11  A    between atoms: C26_34  and  C27_35 
REMARK   12  A    between atoms: C30_38  and  C31_39 
REMARK   13  A    between atoms: C31_39  and  O9_41 
ROOT
HETATM    1  C1  UNL     1       0.665   5.739  10.729  1.00  0.00     0.020 C 
HETATM    2  C2  UNL     1       1.862   6.688  10.481  1.00  0.00    -0.014 C 
HETATM    3  C3  UNL     1       1.345   8.097  10.085  1.00  0.00     0.022 C 
HETATM    4  C4  UNL     1       0.604   8.116   8.748  1.00  0.00     0.084 C 
HETATM    5  C5  UNL     1       1.376   7.425   7.652  1.00  0.00     0.149 C 
HETATM    6  O1  UNL     1       1.113   7.598   6.463  1.00  0.00    -0.293 OA
HETATM    7  C6  UNL     1       2.457   6.483   8.023  1.00  0.00     0.053 C 
HETATM    8  C7  UNL     1       2.683   6.143   9.304  1.00  0.00    -0.068 C 
HETATM    9  C8  UNL     1       3.847   5.261   9.670  1.00  0.00     0.035 C 
HETATM   10  C9  UNL     1       4.852   6.027  10.541  1.00  0.00     0.010 C 
HETATM   11  C10 UNL     1       4.206   7.127  11.422  1.00  0.00    -0.002 C 
HETATM   12  C11 UNL     1       2.756   6.709  11.786  1.00  0.00     0.031 C 
HETATM   13  C12 UNL     1       2.156   7.512  12.962  1.00  0.00     0.124 C 
HETATM   14  C13 UNL     1       2.939   8.787  13.283  1.00  0.00     0.045 C 
HETATM   15  C14 UNL     1       4.446   8.554  13.578  1.00  0.00     0.001 C 
HETATM   16  C15 UNL     1       4.626   8.124  15.058  1.00  0.00     0.019 C 
HETATM   17  C16 UNL     1       5.062   7.443  12.667  1.00  0.00     0.002 C 
HETATM   18  C17 UNL     1       6.478   7.938  12.293  1.00  0.00     0.009 C 
HETATM   19  C18 UNL     1       6.721   9.221  13.081  1.00  0.00     0.047 C 
HETATM   20  C19 UNL     1       5.324   9.808  13.256  1.00  0.00     0.128 C 
ENDROOT
BRANCH  20  21
HETATM   21  O3  UNL     1       4.953  10.355  11.976  1.00  0.00    -0.381 OA
HETATM   22  H27 UNL     1       4.289  11.054  12.155  1.00  0.00     0.211 HD
ENDBRANCH  20  21
BRANCH  20  23
HETATM   23  C20 UNL     1       5.193  10.961  14.270  1.00  0.00     0.185 C 
HETATM   24  O4  UNL     1       6.122  11.774  14.374  1.00  0.00    -0.292 OA
BRANCH  23  25
HETATM   25  C21 UNL     1       3.923  11.070  15.109  1.00  0.00     0.260 C 
BRANCH  25  26
HETATM   26  O5  UNL     1       4.022  12.079  16.115  1.00  0.00    -0.314 OA
BRANCH  26  27
HETATM   27  C22 UNL     1       4.254  11.600  17.368  1.00  0.00     0.259 C 
HETATM   28  O6  UNL     1       5.113  10.777  17.657  1.00  0.00    -0.265 OA
BRANCH  27  29
HETATM   29  C23 UNL     1       3.321  12.258  18.356  1.00  0.00     0.120 C 
BRANCH  29  30
HETATM   30  C24 UNL     1       2.374  11.234  18.970  1.00  0.00     0.112 C 
BRANCH  30  31
HETATM   31  C25 UNL     1       2.833  10.821  20.356  1.00  0.00     0.218 C 
HETATM   32  O7  UNL     1       3.256   9.700  20.613  1.00  0.00    -0.274 OA
HETATM   33  N1  UNL     1       2.689  11.819  21.294  1.00  0.00    -0.357 N 
HETATM   34  H34 UNL     1       2.525  12.761  20.967  1.00  0.00     0.162 HD
BRANCH  33  35
HETATM   35  C26 UNL     1       3.230  11.677  22.627  1.00  0.00     0.161 C 
BRANCH  35  36
HETATM   36  C27 UNL     1       4.610  12.283  22.707  1.00  0.00    -0.040 A 
HETATM   37  C28 UNL     1       4.776  13.671  22.587  1.00  0.00     0.010 A 
HETATM   38  C29 UNL     1       6.042  14.247  22.702  1.00  0.00     0.019 A 
HETATM   39  C30 UNL     1       7.162  13.443  22.946  1.00  0.00     0.037 A 
HETATM   40  C32 UNL     1       7.003  12.058  23.068  1.00  0.00     0.019 A 
HETATM   41  C33 UNL     1       5.733  11.482  22.953  1.00  0.00     0.010 A 
BRANCH  39  42
HETATM   42  C31 UNL     1       8.484  14.100  23.074  1.00  0.00     0.176 C 
HETATM   43  O8  UNL     1       9.347  14.144  22.216  1.00  0.00    -0.646 OA
BRANCH  42  44
HETATM   44  O9  UNL     1       8.664  14.683  24.272  1.00  0.00    -0.773 OA
HETATM   45  H39 UNL     1       9.558  15.078  24.205  1.00  0.00     0.167 HD
ENDBRANCH  42  44
ENDBRANCH  39  42
ENDBRANCH  35  36
ENDBRANCH  33  35
ENDBRANCH  30  31
ENDBRANCH  29  30
ENDBRANCH  27  29
ENDBRANCH  26  27
ENDBRANCH  25  26
ENDBRANCH  23  25
ENDBRANCH  20  23
BRANCH  13  46
HETATM   46  O2  UNL     1       2.127   6.686  14.128  1.00  0.00    -0.395 OA
HETATM   47  H16 UNL     1       1.519   5.947  13.953  1.00  0.00     0.210 HD
ENDBRANCH  13  46
TORSDOF 13
ENDMDL
MODEL 8
REMARK minimizedAffinity -8.29407024
REMARK CNNscore 0.279652655
REMARK CNNaffinity 5.94419432
REMARK  13 active torsions:
REMARK  status: ('A' for Active; 'I' for Inactive)
REMARK    1  A    between atoms: C12_13  and  O2_14 
REMARK    2  A    between atoms: C19_21  and  O3_22 
REMARK    3  A    between atoms: C19_21  and  C20_23 
REMARK    4  A    between atoms: C20_23  and  C21_25 
REMARK    5  A    between atoms: C21_25  and  O5_26 
REMARK    6  A    between atoms: O5_26  and  C22_27 
REMARK    7  A    between atoms: C22_27  and  C23_29 
REMARK    8  A    between atoms: C23_29  and  C24_30 
REMARK    9  A    between atoms: C24_30  and  C25_31 
REMARK       I    between atoms: C25_31  and  N1_33 
REMARK   10  A    between atoms: N1_33  and  C26_34 
REMARK   11  A    between atoms: C26_34  and  C27_35 
REMARK   12  A    between atoms: C30_38  and  C31_39 
REMARK   13  A    between atoms: C31_39  and  O9_41 
ROOT
HETATM    1  C1  UNL     1      -1.189   8.025  16.151  1.00  0.00     0.020 C 
HETATM    2  C2  UNL     1      -0.598   8.635  14.858  1.00  0.00    -0.014 C 
HETATM    3  C3  UNL     1       0.762   9.317  15.170  1.00  0.00     0.022 C 
HETATM    4  C4  UNL     1       0.634  10.526  16.097  1.00  0.00     0.084 C 
HETATM    5  C5  UNL     1      -0.436  11.488  15.644  1.00  0.00     0.149 C 
HETATM    6  O1  UNL     1      -0.485  12.646  16.056  1.00  0.00    -0.293 OA
HETATM    7  C6  UNL     1      -1.476  11.011  14.705  1.00  0.00     0.053 C 
HETATM    8  C7  UNL     1      -1.557   9.718  14.344  1.00  0.00    -0.068 C 
HETATM    9  C8  UNL     1      -2.559   9.270  13.314  1.00  0.00     0.035 C 
HETATM   10  C9  UNL     1      -1.847   8.737  12.064  1.00  0.00     0.010 C 
HETATM   11  C10 UNL     1      -0.464   8.099  12.355  1.00  0.00    -0.002 C 
HETATM   12  C11 UNL     1      -0.471   7.484  13.780  1.00  0.00     0.031 C 
HETATM   13  C12 UNL     1       0.687   6.492  14.033  1.00  0.00     0.124 C 
HETATM   14  C13 UNL     1       1.805   6.593  12.994  1.00  0.00     0.045 C 
HETATM   15  C14 UNL     1       1.331   6.416  11.526  1.00  0.00     0.001 C 
HETATM   16  C15 UNL     1       1.219   4.903  11.195  1.00  0.00     0.019 C 
HETATM   17  C16 UNL     1      -0.063   7.076  11.270  1.00  0.00     0.002 C 
HETATM   18  C17 UNL     1       0.022   7.716   9.865  1.00  0.00     0.009 C 
HETATM   19  C18 UNL     1       1.369   7.311   9.275  1.00  0.00     0.047 C 
HETATM   20  C19 UNL     1       2.263   7.139  10.499  1.00  0.00     0.128 C 
ENDROOT
BRANCH  20  21
HETATM   21  O3  UNL     1       2.571   8.467  10.963  1.00  0.00    -0.381 OA
HETATM   22  H27 UNL     1       3.417   8.400  11.454  1.00  0.00     0.211 HD
ENDBRANCH  20  21
BRANCH  20  23
HETATM   23  C20 UNL     1       3.617   6.443  10.259  1.00  0.00     0.185 C 
HETATM   24  O4  UNL     1       3.782   5.801   9.213  1.00  0.00    -0.292 OA
BRANCH  23  25
HETATM   25  C21 UNL     1       4.713   6.571  11.313  1.00  0.00     0.260 C 
BRANCH  25  26
HETATM   26  O5  UNL     1       5.184   7.913  11.446  1.00  0.00    -0.314 OA
BRANCH  26  27
HETATM   27  C22 UNL     1       6.500   8.078  11.138  1.00  0.00     0.259 C 
HETATM   28  O6  UNL     1       7.149   7.336  10.411  1.00  0.00    -0.265 OA
BRANCH  27  29
HETATM   29  C23 UNL     1       7.033   9.328  11.793  1.00  0.00     0.120 C 
BRANCH  29  30
HETATM   30  C24 UNL     1       7.727   8.995  13.109  1.00  0.00     0.112 C 
BRANCH  30  31
HETATM   31  C25 UNL     1       7.298   9.942  14.213  1.00  0.00     0.218 C 
HETATM   32  O7  UNL     1       6.902  11.082  13.998  1.00  0.00    -0.274 OA
HETATM   33  N1  UNL     1       7.437   9.405  15.474  1.00  0.00    -0.357 N 
HETATM   34  H34 UNL     1       7.578   8.407  15.554  1.00  0.00     0.162 HD
BRANCH  33  35
HETATM   35  C26 UNL     1       6.921  10.086  16.639  1.00  0.00     0.161 C 
BRANCH  35  36
HETATM   36  C27 UNL     1       8.047  10.488  17.560  1.00  0.00    -0.040 A 
HETATM   37  C28 UNL     1       9.379  10.260  17.185  1.00  0.00     0.010 A 
HETATM   38  C29 UNL     1      10.430  10.666  18.009  1.00  0.00     0.019 A 
HETATM   39  C30 UNL     1      10.163  11.313  19.221  1.00  0.00     0.037 A 
HETATM   40  C32 UNL     1       8.836  11.546  19.601  1.00  0.00     0.019 A 
HETATM   41  C33 UNL     1       7.784  11.138  18.774  1.00  0.00     0.010 A 
BRANCH  39  42
HETATM   42  C31 UNL     1      11.310  11.739  20.058  1.00  0.00     0.176 C 
HETATM   43  O8  UNL     1      12.233  11.032  20.418  1.00  0.00    -0.646 OA
BRANCH  42  44
HETATM   44  O9  UNL     1      11.253  13.038  20.400  1.00  0.00    -0.773 OA
HETATM   45  H39 UNL     1      12.066  13.174  20.929  1.00  0.00     0.167 HD
ENDBRANCH  42  44
ENDBRANCH  39  42
ENDBRANCH  35  36
ENDBRANCH  33  35
ENDBRANCH  30  31
ENDBRANCH  29  30
ENDBRANCH  27  29
ENDBRANCH  26  27
ENDBRANCH  25  26
ENDBRANCH  23  25
ENDBRANCH  20  23
BRANCH  13  46
HETATM   46  O2  UNL     1       0.171   5.159  14.025  1.00  0.00    -0.395 OA
HETATM   47  H16 UNL     1      -0.442   5.073  14.776  1.00  0.00     0.210 HD
ENDBRANCH  13  46
TORSDOF 13
ENDMDL
MODEL 9
REMARK minimizedAffinity -9.68593597
REMARK CNNscore 0.253217816
REMARK CNNaffinity 6.60935545
REMARK  13 active torsions:
REMARK  status: ('A' for Active; 'I' for Inactive)
REMARK    1  A    between atoms: C12_13  and  O2_14 
REMARK    2  A    between atoms: C19_21  and  O3_22 
REMARK    3  A    between atoms: C19_21  and  C20_23 
REMARK    4  A    between atoms: C20_23  and  C21_25 
REMARK    5  A    between atoms: C21_25  and  O5_26 
REMARK    6  A    between atoms: O5_26  and  C22_27 
REMARK    7  A    between atoms: C22_27  and  C23_29 
REMARK    8  A    between atoms: C23_29  and  C24_30 
REMARK    9  A    between atoms: C24_30  and  C25_31 
REMARK       I    between atoms: C25_31  and  N1_33 
REMARK   10  A    between atoms: N1_33  and  C26_34 
REMARK   11  A    between atoms: C26_34  and  C27_35 
REMARK   12  A    between atoms: C30_38  and  C31_39 
REMARK   13  A    between atoms: C31_39  and  O9_41 
ROOT
HETATM    1  C1  UNL     1       2.700   5.117  10.214  1.00  0.00     0.020 C 
HETATM    2  C2  UNL     1       1.945   6.398  10.642  1.00  0.00    -0.014 C 
HETATM    3  C3  UNL     1       1.011   6.868   9.494  1.00  0.00     0.022 C 
HETATM    4  C4  UNL     1       1.767   7.313   8.243  1.00  0.00     0.084 C 
HETATM    5  C5  UNL     1       2.877   8.285   8.556  1.00  0.00     0.149 C 
HETATM    6  O1  UNL     1       3.389   8.989   7.687  1.00  0.00    -0.293 OA
HETATM    7  C6  UNL     1       3.389   8.364   9.943  1.00  0.00     0.053 C 
HETATM    8  C7  UNL     1       2.971   7.511  10.895  1.00  0.00    -0.068 C 
HETATM    9  C8  UNL     1       3.428   7.668  12.321  1.00  0.00     0.035 C 
HETATM   10  C9  UNL     1       2.242   8.001  13.235  1.00  0.00     0.010 C 
HETATM   11  C10 UNL     1       0.894   7.407  12.752  1.00  0.00    -0.002 C 
HETATM   12  C11 UNL     1       1.160   6.087  11.980  1.00  0.00     0.031 C 
HETATM   13  C12 UNL     1      -0.100   5.211  11.797  1.00  0.00     0.124 C 
HETATM   14  C13 UNL     1      -1.403   5.967  12.064  1.00  0.00     0.045 C 
HETATM   15  C14 UNL     1      -1.479   6.633  13.465  1.00  0.00     0.001 C 
HETATM   16  C15 UNL     1      -1.924   5.582  14.517  1.00  0.00     0.019 C 
HETATM   17  C16 UNL     1      -0.104   7.224  13.915  1.00  0.00     0.002 C 
HETATM   18  C17 UNL     1      -0.427   8.558  14.626  1.00  0.00     0.009 C 
HETATM   19  C18 UNL     1      -1.947   8.659  14.709  1.00  0.00     0.047 C 
HETATM   20  C19 UNL     1      -2.428   7.877  13.491  1.00  0.00     0.128 C 
ENDROOT
BRANCH  20  21
HETATM   21  O3  UNL     1      -2.175   8.715  12.347  1.00  0.00    -0.381 OA
HETATM   22  H27 UNL     1      -2.808   8.435  11.653  1.00  0.00     0.211 HD
ENDBRANCH  20  21
BRANCH  20  23
HETATM   23  C20 UNL     1      -3.931   7.539  13.451  1.00  0.00     0.185 C 
HETATM   24  O4  UNL     1      -4.731   8.411  13.085  1.00  0.00    -0.292 OA
BRANCH  23  25
HETATM   25  C21 UNL     1      -4.387   6.140  13.858  1.00  0.00     0.260 C 
BRANCH  25  26
HETATM   26  O5  UNL     1      -5.554   5.723  13.148  1.00  0.00    -0.314 OA
BRANCH  26  27
HETATM   27  C22 UNL     1      -5.732   4.374  13.107  1.00  0.00     0.259 C 
HETATM   28  O6  UNL     1      -4.849   3.556  12.883  1.00  0.00    -0.265 OA
BRANCH  27  29
HETATM   29  C23 UNL     1      -7.170   4.030  13.413  1.00  0.00     0.120 C 
BRANCH  29  30
HETATM   30  C24 UNL     1      -7.376   3.858  14.914  1.00  0.00     0.112 C 
BRANCH  30  31
HETATM   31  C25 UNL     1      -7.572   5.196  15.600  1.00  0.00     0.218 C 
HETATM   32  O7  UNL     1      -6.794   5.635  16.439  1.00  0.00    -0.274 OA
HETATM   33  N1  UNL     1      -8.725   5.840  15.214  1.00  0.00    -0.357 N 
HETATM   34  H34 UNL     1      -9.201   5.511  14.384  1.00  0.00     0.162 HD
BRANCH  33  35
HETATM   35  C26 UNL     1      -8.998   7.199  15.624  1.00  0.00     0.161 C 
BRANCH  35  36
HETATM   36  C27 UNL     1     -10.056   7.817  14.743  1.00  0.00    -0.040 A 
HETATM   37  C28 UNL     1     -10.821   7.009  13.889  1.00  0.00     0.010 A 
HETATM   38  C29 UNL     1     -11.830   7.564  13.101  1.00  0.00     0.019 A 
HETATM   39  C30 UNL     1     -12.095   8.937  13.160  1.00  0.00     0.037 A 
HETATM   40  C32 UNL     1     -11.337   9.749  14.012  1.00  0.00     0.019 A 
HETATM   41  C33 UNL     1     -10.325   9.191  14.801  1.00  0.00     0.010 A 
BRANCH  39  42
HETATM   42  C31 UNL     1     -13.185   9.480  12.316  1.00  0.00     0.176 C 
HETATM   43  O8  UNL     1     -14.301   9.009  12.198  1.00  0.00    -0.646 OA
BRANCH  42  44
HETATM   44  O9  UNL     1     -12.830  10.599  11.660  1.00  0.00    -0.773 OA
HETATM   45  H39 UNL     1     -13.639  10.844  11.165  1.00  0.00     0.167 HD
ENDBRANCH  42  44
ENDBRANCH  39  42
ENDBRANCH  35  36
ENDBRANCH  33  35
ENDBRANCH  30  31
ENDBRANCH  29  30
ENDBRANCH  27  29
ENDBRANCH  26  27
ENDBRANCH  25  26
ENDBRANCH  23  25
ENDBRANCH  20  23
BRANCH  13  46
HETATM   46  O2  UNL     1      -0.027   4.094  12.684  1.00  0.00    -0.395 OA
HETATM   47  H16 UNL     1       0.734   3.550  12.416  1.00  0.00     0.210 HD
ENDBRANCH  13  46
TORSDOF 13
ENDMDL
