MODEL 1
REMARK minimizedAffinity -9.1428175
REMARK CNNscore 0.629078388
REMARK CNNaffinity 7.12945318
REMARK  11 active torsions:
REMARK  status: ('A' for Active; 'I' for Inactive)
REMARK    1  A    between atoms: C3_3  and  O1_4 
REMARK    2  A    between atoms: N1_14  and  O2_16 
REMARK    3  A    between atoms: O2_16  and  C13_17 
REMARK    4  A    between atoms: C13_17  and  C14_18 
REMARK       I    between atoms: C14_18  and  N2_20 
REMARK    5  A    between atoms: N2_20  and  C15_21 
REMARK    6  A    between atoms: C15_21  and  C16_22 
REMARK    7  A    between atoms: C15_21  and  C17_25 
REMARK    8  A    between atoms: C16_22  and  O5_24 
REMARK    9  A    between atoms: C17_25  and  O6_26 
REMARK   10  A    between atoms: C17_25  and  C18_27 
REMARK   11  A    between atoms: C22_31  and  N3_32 
ROOT
HETATM    1  C1  UNL     1     -13.115   2.842  30.763  1.00  0.00     0.015 C 
HETATM    2  C2  UNL     1     -13.281   2.469  29.632  1.00  0.00    -0.078 C 
HETATM    3  C3  UNL     1     -13.513   2.006  28.254  1.00  0.00     0.128 C 
HETATM    4  C4  UNL     1     -12.207   1.833  27.463  1.00  0.00     0.052 C 
HETATM    5  C5  UNL     1     -12.562   2.114  25.994  1.00  0.00     0.010 C 
HETATM    6  C6  UNL     1     -14.068   2.436  25.965  1.00  0.00     0.002 C 
HETATM    7  C7  UNL     1     -14.540   3.356  24.821  1.00  0.00    -0.004 C 
HETATM    8  C8  UNL     1     -14.131   2.787  23.457  1.00  0.00     0.010 C 
HETATM    9  C9  UNL     1     -14.728   3.609  22.325  1.00  0.00     0.035 C 
HETATM   10  C10 UNL     1     -14.359   5.070  22.424  1.00  0.00    -0.069 C 
HETATM   11  C11 UNL     1     -13.945   5.715  21.316  1.00  0.00     0.030 C 
HETATM   12  C12 UNL     1     -13.753   7.186  21.287  1.00  0.00     0.032 C 
HETATM   13  N1  UNL     1     -13.550   7.734  20.122  1.00  0.00    -0.271 N 
ATOM     14  H1  UNL     1     -13.455   7.204  19.255  1.00  0.00     0.194 HD
HETATM   15  C24 UNL     1     -13.904   7.959  22.580  1.00  0.00     0.060 C 
HETATM   16  C25 UNL     1     -13.712   7.068  23.805  1.00  0.00     0.020 C 
HETATM   17  C26 UNL     1     -14.554   5.756  23.782  1.00  0.00    -0.016 C 
HETATM   18  C27 UNL     1     -16.052   6.108  23.920  1.00  0.00     0.020 C 
HETATM   19  C28 UNL     1     -14.059   4.823  24.962  1.00  0.00     0.002 C 
HETATM   20  C29 UNL     1     -14.409   5.358  26.369  1.00  0.00     0.007 C 
HETATM   21  C30 UNL     1     -13.889   4.454  27.490  1.00  0.00     0.014 C 
HETATM   22  C31 UNL     1     -14.363   2.981  27.383  1.00  0.00     0.003 C 
HETATM   23  C32 UNL     1     -15.865   2.882  27.719  1.00  0.00     0.020 C 
ENDROOT
BRANCH   3  24
HETATM   24  O1  UNL     1     -14.151   0.726  28.310  1.00  0.00    -0.377 OA
HETATM   25  H2  UNL     1     -13.685   0.204  28.989  1.00  0.00     0.211 HD
ENDBRANCH   3  24
BRANCH  13  26
HETATM   26  O2  UNL     1     -13.476   9.132  20.192  1.00  0.00    -0.271 OA
BRANCH  26  27
HETATM   27  C13 UNL     1     -13.175   9.626  18.892  1.00  0.00     0.303 C 
BRANCH  27  28
HETATM   28  C14 UNL     1     -11.776   9.212  18.441  1.00  0.00     0.244 C 
HETATM   29  O3  UNL     1     -10.850   9.038  19.231  1.00  0.00    -0.271 OA
HETATM   30  N2  UNL     1     -11.622   9.118  17.070  1.00  0.00    -0.342 N 
HETATM   31  H16 UNL     1     -12.350   9.587  16.534  1.00  0.00     0.163 HD
BRANCH  30  32
HETATM   32  C15 UNL     1     -10.264   9.126  16.476  1.00  0.00     0.216 C 
BRANCH  32  33
HETATM   33  C16 UNL     1      -9.904  10.550  16.050  1.00  0.00     0.166 C 
HETATM   34  O4  UNL     1     -10.100  11.574  16.685  1.00  0.00    -0.648 OA
BRANCH  33  35
HETATM   35  O5  UNL     1      -9.257  10.621  14.861  1.00  0.00    -0.775 OA
HETATM   36  H18 UNL     1      -9.168  11.588  14.700  1.00  0.00     0.167 HD
ENDBRANCH  33  35
ENDBRANCH  32  33
BRANCH  32  37
HETATM   37  C17 UNL     1     -10.225   8.192  15.247  1.00  0.00     0.184 C 
BRANCH  37  38
HETATM   38  O6  UNL     1     -11.448   7.440  15.157  1.00  0.00    -0.388 OA
HETATM   39  H20 UNL     1     -12.144   8.004  15.544  1.00  0.00     0.210 HD
ENDBRANCH  37  38
BRANCH  37  40
HETATM   40  C18 UNL     1      -9.083   7.197  15.268  1.00  0.00    -0.025 A 
HETATM   41  C19 UNL     1      -8.223   7.134  16.379  1.00  0.00     0.010 A 
HETATM   42  C20 UNL     1      -7.193   6.190  16.438  1.00  0.00     0.003 A 
HETATM   43  C21 UNL     1      -6.996   5.301  15.381  1.00  0.00     0.036 A 
HETATM   44  C22 UNL     1      -7.838   5.366  14.263  1.00  0.00     0.103 A 
HETATM   45  C23 UNL     1      -8.876   6.308  14.202  1.00  0.00     0.045 A 
BRANCH  44  46
HETATM   46  N3  UNL     1      -7.645   4.415  13.157  1.00  0.00    -0.116 N 
HETATM   47  O7  UNL     1      -6.550   4.420  12.576  1.00  0.00    -0.532 OA
HETATM   48  O8  UNL     1      -8.592   3.673  12.857  1.00  0.00    -0.532 OA
ENDBRANCH  44  46
ENDBRANCH  37  40
ENDBRANCH  32  37
ENDBRANCH  30  32
ENDBRANCH  27  28
ENDBRANCH  26  27
ENDBRANCH  13  26
TORSDOF 11
ENDMDL
MODEL 2
REMARK minimizedAffinity -8.37245178
REMARK CNNscore 0.481362998
REMARK CNNaffinity 7.17727804
REMARK  11 active torsions:
REMARK  status: ('A' for Active; 'I' for Inactive)
REMARK    1  A    between atoms: C3_3  and  O1_4 
REMARK    2  A    between atoms: N1_14  and  O2_16 
REMARK    3  A    between atoms: O2_16  and  C13_17 
REMARK    4  A    between atoms: C13_17  and  C14_18 
REMARK       I    between atoms: C14_18  and  N2_20 
REMARK    5  A    between atoms: N2_20  and  C15_21 
REMARK    6  A    between atoms: C15_21  and  C16_22 
REMARK    7  A    between atoms: C15_21  and  C17_25 
REMARK    8  A    between atoms: C16_22  and  O5_24 
REMARK    9  A    between atoms: C17_25  and  O6_26 
REMARK   10  A    between atoms: C17_25  and  C18_27 
REMARK   11  A    between atoms: C22_31  and  N3_32 
ROOT
HETATM    1  C1  UNL     1      -0.398  11.477  15.272  1.00  0.00     0.015 C 
HETATM    2  C2  UNL     1      -0.823  10.454  14.804  1.00  0.00    -0.078 C 
HETATM    3  C3  UNL     1      -1.332   9.188  14.253  1.00  0.00     0.128 C 
HETATM    4  C4  UNL     1      -1.873   9.342  12.823  1.00  0.00     0.052 C 
HETATM    5  C5  UNL     1      -2.987   8.292  12.677  1.00  0.00     0.010 C 
HETATM    6  C6  UNL     1      -3.060   7.547  14.023  1.00  0.00     0.002 C 
HETATM    7  C7  UNL     1      -4.432   6.944  14.387  1.00  0.00    -0.004 C 
HETATM    8  C8  UNL     1      -4.932   6.010  13.278  1.00  0.00     0.010 C 
HETATM    9  C9  UNL     1      -6.206   5.296  13.703  1.00  0.00     0.035 C 
HETATM   10  C10 UNL     1      -7.291   6.263  14.113  1.00  0.00    -0.069 C 
HETATM   11  C11 UNL     1      -8.543   6.071  13.654  1.00  0.00     0.030 C 
HETATM   12  C12 UNL     1      -9.697   6.854  14.163  1.00  0.00     0.032 C 
HETATM   13  N1  UNL     1     -10.886   6.456  13.806  1.00  0.00    -0.271 N 
ATOM     14  H1  UNL     1     -11.055   5.687  13.157  1.00  0.00     0.194 HD
HETATM   15  C24 UNL     1      -9.429   7.987  15.131  1.00  0.00     0.060 C 
HETATM   16  C25 UNL     1      -7.992   8.494  15.036  1.00  0.00     0.020 C 
HETATM   17  C26 UNL     1      -6.911   7.372  15.102  1.00  0.00    -0.016 C 
HETATM   18  C27 UNL     1      -6.900   6.756  16.519  1.00  0.00     0.020 C 
HETATM   19  C28 UNL     1      -5.508   8.006  14.726  1.00  0.00     0.002 C 
HETATM   20  C29 UNL     1      -4.963   8.987  15.789  1.00  0.00     0.007 C 
HETATM   21  C30 UNL     1      -3.625   9.610  15.385  1.00  0.00     0.014 C 
HETATM   22  C31 UNL     1      -2.522   8.572  15.050  1.00  0.00     0.003 C 
HETATM   23  C32 UNL     1      -2.043   7.873  16.339  1.00  0.00     0.020 C 
ENDROOT
BRANCH   3  24
HETATM   24  O1  UNL     1      -0.249   8.252  14.200  1.00  0.00    -0.377 OA
HETATM   25  H2  UNL     1       0.523   8.730  13.846  1.00  0.00     0.211 HD
ENDBRANCH   3  24
BRANCH  13  26
HETATM   26  O2  UNL     1     -11.905   7.202  14.414  1.00  0.00    -0.271 OA
BRANCH  26  27
HETATM   27  C13 UNL     1     -13.087   6.408  14.428  1.00  0.00     0.303 C 
BRANCH  27  28
HETATM   28  C14 UNL     1     -14.100   6.888  13.393  1.00  0.00     0.244 C 
HETATM   29  O3  UNL     1     -13.806   7.668  12.488  1.00  0.00    -0.271 OA
HETATM   30  N2  UNL     1     -15.389   6.428  13.598  1.00  0.00    -0.342 N 
HETATM   31  H16 UNL     1     -15.560   6.065  14.534  1.00  0.00     0.163 HD
BRANCH  30  32
HETATM   32  C15 UNL     1     -16.530   7.108  12.942  1.00  0.00     0.216 C 
BRANCH  32  33
HETATM   33  C16 UNL     1     -17.005   8.267  13.820  1.00  0.00     0.166 C 
HETATM   34  O4  UNL     1     -18.158   8.629  13.992  1.00  0.00    -0.648 OA
BRANCH  33  35
HETATM   35  O5  UNL     1     -16.007   8.892  14.492  1.00  0.00    -0.775 OA
HETATM   36  H18 UNL     1     -16.459   9.643  14.938  1.00  0.00     0.167 HD
ENDBRANCH  33  35
ENDBRANCH  32  33
BRANCH  32  37
HETATM   37  C17 UNL     1     -17.688   6.106  12.735  1.00  0.00     0.184 C 
BRANCH  37  38
HETATM   38  O6  UNL     1     -18.866   6.562  13.422  1.00  0.00    -0.388 OA
HETATM   39  H20 UNL     1     -18.820   7.537  13.425  1.00  0.00     0.210 HD
ENDBRANCH  37  38
BRANCH  37  40
HETATM   40  C18 UNL     1     -17.386   4.708  13.235  1.00  0.00    -0.025 A 
HETATM   41  C19 UNL     1     -16.671   4.526  14.433  1.00  0.00     0.010 A 
HETATM   42  C20 UNL     1     -16.424   3.245  14.935  1.00  0.00     0.003 A 
HETATM   43  C21 UNL     1     -16.876   2.122  14.242  1.00  0.00     0.036 A 
HETATM   44  C22 UNL     1     -17.576   2.293  13.039  1.00  0.00     0.103 A 
HETATM   45  C23 UNL     1     -17.830   3.576  12.535  1.00  0.00     0.045 A 
BRANCH  44  46
HETATM   46  N3  UNL     1     -18.071   1.110  12.318  1.00  0.00    -0.116 N 
HETATM   47  O7  UNL     1     -19.106   0.570  12.735  1.00  0.00    -0.532 OA
HETATM   48  O8  UNL     1     -17.419   0.709  11.342  1.00  0.00    -0.532 OA
ENDBRANCH  44  46
ENDBRANCH  37  40
ENDBRANCH  32  37
ENDBRANCH  30  32
ENDBRANCH  27  28
ENDBRANCH  26  27
ENDBRANCH  13  26
TORSDOF 11
ENDMDL
MODEL 3
REMARK minimizedAffinity -8.29817486
REMARK CNNscore 0.409647763
REMARK CNNaffinity 5.71263885
REMARK  11 active torsions:
REMARK  status: ('A' for Active; 'I' for Inactive)
REMARK    1  A    between atoms: C3_3  and  O1_4 
REMARK    2  A    between atoms: N1_14  and  O2_16 
REMARK    3  A    between atoms: O2_16  and  C13_17 
REMARK    4  A    between atoms: C13_17  and  C14_18 
REMARK       I    between atoms: C14_18  and  N2_20 
REMARK    5  A    between atoms: N2_20  and  C15_21 
REMARK    6  A    between atoms: C15_21  and  C16_22 
REMARK    7  A    between atoms: C15_21  and  C17_25 
REMARK    8  A    between atoms: C16_22  and  O5_24 
REMARK    9  A    between atoms: C17_25  and  O6_26 
REMARK   10  A    between atoms: C17_25  and  C18_27 
REMARK   11  A    between atoms: C22_31  and  N3_32 
ROOT
HETATM    1  C1  UNL     1      -4.555  -9.871   8.676  1.00  0.00     0.015 C 
HETATM    2  C2  UNL     1      -4.063 -10.217   7.635  1.00  0.00    -0.078 C 
HETATM    3  C3  UNL     1      -3.467 -10.667   6.366  1.00  0.00     0.128 C 
HETATM    4  C4  UNL     1      -2.670  -9.557   5.663  1.00  0.00     0.052 C 
HETATM    5  C5  UNL     1      -2.778  -9.849   4.158  1.00  0.00     0.010 C 
HETATM    6  C6  UNL     1      -3.628 -11.126   4.022  1.00  0.00     0.002 C 
HETATM    7  C7  UNL     1      -4.421 -11.273   2.708  1.00  0.00    -0.004 C 
HETATM    8  C8  UNL     1      -3.492 -11.169   1.492  1.00  0.00     0.010 C 
HETATM    9  C9  UNL     1      -4.245 -11.468   0.206  1.00  0.00     0.035 C 
HETATM   10  C10 UNL     1      -5.451 -10.577   0.030  1.00  0.00    -0.069 C 
HETATM   11  C11 UNL     1      -5.670 -10.004  -1.169  1.00  0.00     0.030 C 
HETATM   12  C12 UNL     1      -6.928  -9.278  -1.477  1.00  0.00     0.032 C 
HETATM   13  N1  UNL     1      -7.127  -8.940  -2.720  1.00  0.00    -0.271 N 
ATOM     14  H1  UNL     1      -6.445  -9.089  -3.465  1.00  0.00     0.194 HD
HETATM   15  C24 UNL     1      -7.933  -9.072  -0.363  1.00  0.00     0.060 C 
HETATM   16  C25 UNL     1      -7.286  -9.170   1.016  1.00  0.00     0.020 C 
HETATM   17  C26 UNL     1      -6.406 -10.439   1.223  1.00  0.00    -0.016 C 
HETATM   18  C27 UNL     1      -7.313 -11.691   1.246  1.00  0.00     0.020 C 
HETATM   19  C28 UNL     1      -5.599 -10.274   2.576  1.00  0.00     0.002 C 
HETATM   20  C29 UNL     1      -6.485 -10.335   3.842  1.00  0.00     0.007 C 
HETATM   21  C30 UNL     1      -5.683 -10.139   5.131  1.00  0.00     0.014 C 
HETATM   22  C31 UNL     1      -4.504 -11.131   5.298  1.00  0.00     0.003 C 
HETATM   23  C32 UNL     1      -5.040 -12.545   5.602  1.00  0.00     0.020 C 
ENDROOT
BRANCH   3  24
HETATM   24  O1  UNL     1      -2.554 -11.733   6.651  1.00  0.00    -0.377 OA
HETATM   25  H2  UNL     1      -2.036 -11.464   7.431  1.00  0.00     0.211 HD
ENDBRANCH   3  24
BRANCH  13  26
HETATM   26  O2  UNL     1      -8.381  -8.347  -2.920  1.00  0.00    -0.271 OA
BRANCH  26  27
HETATM   27  C13 UNL     1      -8.203  -7.200  -3.743  1.00  0.00     0.303 C 
BRANCH  27  28
HETATM   28  C14 UNL     1      -9.534  -6.527  -4.069  1.00  0.00     0.244 C 
HETATM   29  O3  UNL     1     -10.560  -7.164  -4.299  1.00  0.00    -0.271 OA
HETATM   30  N2  UNL     1      -9.472  -5.148  -4.151  1.00  0.00    -0.342 N 
HETATM   31  H16 UNL     1      -8.530  -4.776  -4.257  1.00  0.00     0.163 HD
BRANCH  30  32
HETATM   32  C15 UNL     1     -10.551  -4.398  -4.838  1.00  0.00     0.216 C 
BRANCH  32  33
HETATM   33  C16 UNL     1     -10.385  -4.541  -6.352  1.00  0.00     0.166 C 
HETATM   34  O4  UNL     1      -9.401  -4.957  -6.943  1.00  0.00    -0.648 OA
BRANCH  33  35
HETATM   35  O5  UNL     1     -11.490  -4.204  -7.060  1.00  0.00    -0.775 OA
HETATM   36  H18 UNL     1     -11.199  -4.275  -7.997  1.00  0.00     0.167 HD
ENDBRANCH  33  35
ENDBRANCH  32  33
BRANCH  32  37
HETATM   37  C17 UNL     1     -10.482  -2.906  -4.447  1.00  0.00     0.184 C 
BRANCH  37  38
HETATM   38  O6  UNL     1     -11.754  -2.275  -4.676  1.00  0.00    -0.388 OA
HETATM   39  H20 UNL     1     -12.429  -2.967  -4.547  1.00  0.00     0.210 HD
ENDBRANCH  37  38
BRANCH  37  40
HETATM   40  C18 UNL     1      -9.441  -2.117  -5.216  1.00  0.00    -0.025 A 
HETATM   41  C19 UNL     1      -8.074  -2.292  -4.935  1.00  0.00     0.010 A 
HETATM   42  C20 UNL     1      -7.096  -1.610  -5.666  1.00  0.00     0.003 A 
HETATM   43  C21 UNL     1      -7.469  -0.730  -6.682  1.00  0.00     0.036 A 
HETATM   44  C22 UNL     1      -8.829  -0.537  -6.959  1.00  0.00     0.103 A 
HETATM   45  C23 UNL     1      -9.813  -1.224  -6.231  1.00  0.00     0.045 A 
BRANCH  44  46
HETATM   46  N3  UNL     1      -9.223   0.375  -8.044  1.00  0.00    -0.116 N 
HETATM   47  O7  UNL     1      -8.575   1.422  -8.182  1.00  0.00    -0.532 OA
HETATM   48  O8  UNL     1     -10.189   0.053  -8.751  1.00  0.00    -0.532 OA
ENDBRANCH  44  46
ENDBRANCH  37  40
ENDBRANCH  32  37
ENDBRANCH  30  32
ENDBRANCH  27  28
ENDBRANCH  26  27
ENDBRANCH  13  26
TORSDOF 11
ENDMDL
MODEL 4
REMARK minimizedAffinity -8.59290695
REMARK CNNscore 0.392871171
REMARK CNNaffinity 6.73497391
REMARK  11 active torsions:
REMARK  status: ('A' for Active; 'I' for Inactive)
REMARK    1  A    between atoms: C3_3  and  O1_4 
REMARK    2  A    between atoms: N1_14  and  O2_16 
REMARK    3  A    between atoms: O2_16  and  C13_17 
REMARK    4  A    between atoms: C13_17  and  C14_18 
REMARK       I    between atoms: C14_18  and  N2_20 
REMARK    5  A    between atoms: N2_20  and  C15_21 
REMARK    6  A    between atoms: C15_21  and  C16_22 
REMARK    7  A    between atoms: C15_21  and  C17_25 
REMARK    8  A    between atoms: C16_22  and  O5_24 
REMARK    9  A    between atoms: C17_25  and  O6_26 
REMARK   10  A    between atoms: C17_25  and  C18_27 
REMARK   11  A    between atoms: C22_31  and  N3_32 
ROOT
HETATM    1  C1  UNL     1     -13.024   2.846  30.665  1.00  0.00     0.015 C 
HETATM    2  C2  UNL     1     -13.253   2.483  29.542  1.00  0.00    -0.078 C 
HETATM    3  C3  UNL     1     -13.562   2.035  28.174  1.00  0.00     0.128 C 
HETATM    4  C4  UNL     1     -12.299   1.732  27.353  1.00  0.00     0.052 C 
HETATM    5  C5  UNL     1     -12.662   2.036  25.891  1.00  0.00     0.010 C 
HETATM    6  C6  UNL     1     -14.131   2.499  25.895  1.00  0.00     0.002 C 
HETATM    7  C7  UNL     1     -14.541   3.452  24.754  1.00  0.00    -0.004 C 
HETATM    8  C8  UNL     1     -14.223   2.837  23.386  1.00  0.00     0.010 C 
HETATM    9  C9  UNL     1     -14.768   3.705  22.261  1.00  0.00     0.035 C 
HETATM   10  C10 UNL     1     -14.259   5.124  22.338  1.00  0.00    -0.069 C 
HETATM   11  C11 UNL     1     -13.814   5.719  21.214  1.00  0.00     0.030 C 
HETATM   12  C12 UNL     1     -13.483   7.165  21.167  1.00  0.00     0.032 C 
HETATM   13  N1  UNL     1     -13.258   7.683  19.991  1.00  0.00    -0.271 N 
ATOM     14  H1  UNL     1     -13.236   7.140  19.128  1.00  0.00     0.194 HD
HETATM   15  C24 UNL     1     -13.528   7.958  22.456  1.00  0.00     0.060 C 
HETATM   16  C25 UNL     1     -13.391   7.061  23.684  1.00  0.00     0.020 C 
HETATM   17  C26 UNL     1     -14.354   5.835  23.693  1.00  0.00    -0.016 C 
HETATM   18  C27 UNL     1     -15.808   6.329  23.864  1.00  0.00     0.020 C 
HETATM   19  C28 UNL     1     -13.920   4.867  24.870  1.00  0.00     0.002 C 
HETATM   20  C29 UNL     1     -14.183   5.444  26.280  1.00  0.00     0.007 C 
HETATM   21  C30 UNL     1     -13.723   4.502  27.396  1.00  0.00     0.014 C 
HETATM   22  C31 UNL     1     -14.337   3.080  27.315  1.00  0.00     0.003 C 
HETATM   23  C32 UNL     1     -15.833   3.127  27.688  1.00  0.00     0.020 C 
ENDROOT
BRANCH   3  24
HETATM   24  O1  UNL     1     -14.317   0.821  28.257  1.00  0.00    -0.377 OA
HETATM   25  H2  UNL     1     -13.886   0.262  28.929  1.00  0.00     0.211 HD
ENDBRANCH   3  24
BRANCH  13  26
HETATM   26  O2  UNL     1     -13.050   9.068  20.047  1.00  0.00    -0.271 OA
BRANCH  26  27
HETATM   27  C13 UNL     1     -11.798   9.353  19.434  1.00  0.00     0.303 C 
BRANCH  27  28
HETATM   28  C14 UNL     1     -11.975  10.058  18.092  1.00  0.00     0.244 C 
HETATM   29  O3  UNL     1     -12.212  11.261  18.001  1.00  0.00    -0.271 OA
HETATM   30  N2  UNL     1     -11.915   9.220  16.993  1.00  0.00    -0.342 N 
HETATM   31  H16 UNL     1     -12.034   8.232  17.213  1.00  0.00     0.163 HD
BRANCH  30  32
HETATM   32  C15 UNL     1     -12.456   9.669  15.689  1.00  0.00     0.216 C 
BRANCH  32  33
HETATM   33  C16 UNL     1     -13.423   8.614  15.149  1.00  0.00     0.166 C 
HETATM   34  O4  UNL     1     -14.036   8.656  14.094  1.00  0.00    -0.648 OA
BRANCH  33  35
HETATM   35  O5  UNL     1     -13.538   7.518  15.939  1.00  0.00    -0.775 OA
HETATM   36  H18 UNL     1     -14.239   6.985  15.500  1.00  0.00     0.167 HD
ENDBRANCH  33  35
ENDBRANCH  32  33
BRANCH  32  37
HETATM   37  C17 UNL     1     -11.301   9.875  14.685  1.00  0.00     0.184 C 
BRANCH  37  38
HETATM   38  O6  UNL     1     -11.823  10.256  13.400  1.00  0.00    -0.388 OA
HETATM   39  H20 UNL     1     -12.649  10.744  13.575  1.00  0.00     0.210 HD
ENDBRANCH  37  38
BRANCH  37  40
HETATM   40  C18 UNL     1     -10.441   8.645  14.478  1.00  0.00    -0.025 A 
HETATM   41  C19 UNL     1     -10.806   7.683  13.518  1.00  0.00     0.010 A 
HETATM   42  C20 UNL     1     -10.001   6.565  13.278  1.00  0.00     0.003 A 
HETATM   43  C21 UNL     1      -8.823   6.382  14.003  1.00  0.00     0.036 A 
HETATM   44  C22 UNL     1      -8.460   7.327  14.973  1.00  0.00     0.103 A 
HETATM   45  C23 UNL     1      -9.262   8.452  15.213  1.00  0.00     0.045 A 
BRANCH  44  46
HETATM   46  N3  UNL     1      -7.207   7.146  15.724  1.00  0.00    -0.116 N 
HETATM   47  O7  UNL     1      -6.173   7.639  15.250  1.00  0.00    -0.532 OA
HETATM   48  O8  UNL     1      -7.252   6.499  16.780  1.00  0.00    -0.532 OA
ENDBRANCH  44  46
ENDBRANCH  37  40
ENDBRANCH  32  37
ENDBRANCH  30  32
ENDBRANCH  27  28
ENDBRANCH  26  27
ENDBRANCH  13  26
TORSDOF 11
ENDMDL
MODEL 5
REMARK minimizedAffinity -8.19952202
REMARK CNNscore 0.364399403
REMARK CNNaffinity 6.00875998
REMARK  11 active torsions:
REMARK  status: ('A' for Active; 'I' for Inactive)
REMARK    1  A    between atoms: C3_3  and  O1_4 
REMARK    2  A    between atoms: N1_14  and  O2_16 
REMARK    3  A    between atoms: O2_16  and  C13_17 
REMARK    4  A    between atoms: C13_17  and  C14_18 
REMARK       I    between atoms: C14_18  and  N2_20 
REMARK    5  A    between atoms: N2_20  and  C15_21 
REMARK    6  A    between atoms: C15_21  and  C16_22 
REMARK    7  A    between atoms: C15_21  and  C17_25 
REMARK    8  A    between atoms: C16_22  and  O5_24 
REMARK    9  A    between atoms: C17_25  and  O6_26 
REMARK   10  A    between atoms: C17_25  and  C18_27 
REMARK   11  A    between atoms: C22_31  and  N3_32 
ROOT
HETATM    1  C1  UNL     1      -6.871 -10.261  -6.785  1.00  0.00     0.015 C 
HETATM    2  C2  UNL     1      -7.435  -9.968  -5.764  1.00  0.00    -0.078 C 
HETATM    3  C3  UNL     1      -8.142  -9.633  -4.517  1.00  0.00     0.128 C 
HETATM    4  C4  UNL     1      -7.859  -8.197  -4.047  1.00  0.00     0.052 C 
HETATM    5  C5  UNL     1      -7.964  -8.227  -2.514  1.00  0.00     0.010 C 
HETATM    6  C6  UNL     1      -8.315  -9.676  -2.130  1.00  0.00     0.002 C 
HETATM    7  C7  UNL     1      -7.851 -10.135  -0.733  1.00  0.00    -0.004 C 
HETATM    8  C8  UNL     1      -8.382  -9.196   0.357  1.00  0.00     0.010 C 
HETATM    9  C9  UNL     1      -8.057  -9.733   1.743  1.00  0.00     0.035 C 
HETATM   10  C10 UNL     1      -6.579  -9.979   1.927  1.00  0.00    -0.069 C 
HETATM   11  C11 UNL     1      -5.983  -9.559   3.060  1.00  0.00     0.030 C 
HETATM   12  C12 UNL     1      -4.588  -9.933   3.401  1.00  0.00     0.032 C 
HETATM   13  N1  UNL     1      -4.177  -9.647   4.605  1.00  0.00    -0.271 N 
ATOM     14  H1  UNL     1      -4.734  -9.134   5.288  1.00  0.00     0.194 HD
HETATM   15  C24 UNL     1      -3.777 -10.702   2.380  1.00  0.00     0.060 C 
HETATM   16  C25 UNL     1      -4.321 -10.524   0.965  1.00  0.00     0.020 C 
HETATM   17  C26 UNL     1      -5.854 -10.772   0.832  1.00  0.00    -0.016 C 
HETATM   18  C27 UNL     1      -6.150 -12.271   1.062  1.00  0.00     0.020 C 
HETATM   19  C28 UNL     1      -6.315 -10.297  -0.608  1.00  0.00     0.002 C 
HETATM   20  C29 UNL     1      -5.783 -11.184  -1.757  1.00  0.00     0.007 C 
HETATM   21  C30 UNL     1      -6.216 -10.682  -3.137  1.00  0.00     0.014 C 
HETATM   22  C31 UNL     1      -7.750 -10.521  -3.297  1.00  0.00     0.003 C 
HETATM   23  C32 UNL     1      -8.424 -11.906  -3.362  1.00  0.00     0.020 C 
ENDROOT
BRANCH   3  24
HETATM   24  O1  UNL     1      -9.550  -9.733  -4.757  1.00  0.00    -0.377 OA
HETATM   25  H2  UNL     1      -9.725  -9.304  -5.615  1.00  0.00     0.211 HD
ENDBRANCH   3  24
BRANCH  13  26
HETATM   26  O2  UNL     1      -2.883 -10.126   4.856  1.00  0.00    -0.271 OA
BRANCH  26  27
HETATM   27  C13 UNL     1      -2.614  -9.965   6.245  1.00  0.00     0.303 C 
BRANCH  27  28
HETATM   28  C14 UNL     1      -3.641 -10.694   7.107  1.00  0.00     0.244 C 
HETATM   29  O3  UNL     1      -4.209 -11.720   6.737  1.00  0.00    -0.271 OA
HETATM   30  N2  UNL     1      -3.929 -10.068   8.306  1.00  0.00    -0.342 N 
HETATM   31  H16 UNL     1      -3.643  -9.091   8.347  1.00  0.00     0.163 HD
BRANCH  30  32
HETATM   32  C15 UNL     1      -5.164 -10.419   9.047  1.00  0.00     0.216 C 
BRANCH  32  33
HETATM   33  C16 UNL     1      -6.381  -9.889   8.287  1.00  0.00     0.166 C 
HETATM   34  O4  UNL     1      -6.757  -8.729   8.228  1.00  0.00    -0.648 OA
BRANCH  33  35
HETATM   35  O5  UNL     1      -7.046 -10.839   7.584  1.00  0.00    -0.775 OA
HETATM   36  H18 UNL     1      -7.827 -10.360   7.225  1.00  0.00     0.167 HD
ENDBRANCH  33  35
ENDBRANCH  32  33
BRANCH  32  37
HETATM   37  C17 UNL     1      -5.122  -9.796  10.459  1.00  0.00     0.184 C 
BRANCH  37  38
HETATM   38  O6  UNL     1      -3.794  -9.888  11.002  1.00  0.00    -0.388 OA
HETATM   39  H20 UNL     1      -3.185  -9.855  10.241  1.00  0.00     0.210 HD
ENDBRANCH  37  38
BRANCH  37  40
HETATM   40  C18 UNL     1      -6.062 -10.454  11.448  1.00  0.00    -0.025 A 
HETATM   41  C19 UNL     1      -5.871 -11.798  11.816  1.00  0.00     0.010 A 
HETATM   42  C20 UNL     1      -6.698 -12.409  12.763  1.00  0.00     0.003 A 
HETATM   43  C21 UNL     1      -7.740 -11.690  13.351  1.00  0.00     0.036 A 
HETATM   44  C22 UNL     1      -7.948 -10.355  12.980  1.00  0.00     0.103 A 
HETATM   45  C23 UNL     1      -7.117  -9.737  12.033  1.00  0.00     0.045 A 
BRANCH  44  46
HETATM   46  N3  UNL     1      -9.033  -9.589  13.613  1.00  0.00    -0.116 N 
HETATM   47  O7  UNL     1      -9.495 -10.018  14.681  1.00  0.00    -0.532 OA
HETATM   48  O8  UNL     1      -9.434  -8.567  13.039  1.00  0.00    -0.532 OA
ENDBRANCH  44  46
ENDBRANCH  37  40
ENDBRANCH  32  37
ENDBRANCH  30  32
ENDBRANCH  27  28
ENDBRANCH  26  27
ENDBRANCH  13  26
TORSDOF 11
ENDMDL
MODEL 6
REMARK minimizedAffinity -8.82544899
REMARK CNNscore 0.348116577
REMARK CNNaffinity 6.21963167
REMARK  11 active torsions:
REMARK  status: ('A' for Active; 'I' for Inactive)
REMARK    1  A    between atoms: C3_3  and  O1_4 
REMARK    2  A    between atoms: N1_14  and  O2_16 
REMARK    3  A    between atoms: O2_16  and  C13_17 
REMARK    4  A    between atoms: C13_17  and  C14_18 
REMARK       I    between atoms: C14_18  and  N2_20 
REMARK    5  A    between atoms: N2_20  and  C15_21 
REMARK    6  A    between atoms: C15_21  and  C16_22 
REMARK    7  A    between atoms: C15_21  and  C17_25 
REMARK    8  A    between atoms: C16_22  and  O5_24 
REMARK    9  A    between atoms: C17_25  and  O6_26 
REMARK   10  A    between atoms: C17_25  and  C18_27 
REMARK   11  A    between atoms: C22_31  and  N3_32 
ROOT
HETATM    1  C1  UNL     1      -8.730  14.210  24.836  1.00  0.00     0.015 C 
HETATM    2  C2  UNL     1      -8.771  14.320  23.640  1.00  0.00    -0.078 C 
HETATM    3  C3  UNL     1      -8.814  14.484  22.178  1.00  0.00     0.128 C 
HETATM    4  C4  UNL     1      -9.453  13.280  21.468  1.00  0.00     0.052 C 
HETATM    5  C5  UNL     1      -8.782  13.198  20.088  1.00  0.00     0.010 C 
HETATM    6  C6  UNL     1      -7.776  14.362  20.024  1.00  0.00     0.002 C 
HETATM    7  C7  UNL     1      -6.557  14.150  19.103  1.00  0.00    -0.004 C 
HETATM    8  C8  UNL     1      -7.002  13.806  17.676  1.00  0.00     0.010 C 
HETATM    9  C9  UNL     1      -5.810  13.751  16.733  1.00  0.00     0.035 C 
HETATM   10  C10 UNL     1      -4.751  12.784  17.208  1.00  0.00    -0.069 C 
HETATM   11  C11 UNL     1      -4.202  11.932  16.322  1.00  0.00     0.030 C 
HETATM   12  C12 UNL     1      -3.026  11.092  16.662  1.00  0.00     0.032 C 
HETATM   13  N1  UNL     1      -2.449  10.456  15.681  1.00  0.00    -0.271 N 
ATOM     14  H1  UNL     1      -2.797  10.458  14.722  1.00  0.00     0.194 HD
HETATM   15  C24 UNL     1      -2.517  11.107  18.088  1.00  0.00     0.060 C 
HETATM   16  C25 UNL     1      -3.590  11.564  19.074  1.00  0.00     0.020 C 
HETATM   17  C26 UNL     1      -4.307  12.888  18.673  1.00  0.00    -0.016 C 
HETATM   18  C27 UNL     1      -3.307  14.062  18.778  1.00  0.00     0.020 C 
HETATM   19  C28 UNL     1      -5.555  13.092  19.628  1.00  0.00     0.002 C 
HETATM   20  C29 UNL     1      -5.174  13.408  21.092  1.00  0.00     0.007 C 
HETATM   21  C30 UNL     1      -6.397  13.566  21.998  1.00  0.00     0.014 C 
HETATM   22  C31 UNL     1      -7.415  14.627  21.505  1.00  0.00     0.003 C 
HETATM   23  C32 UNL     1      -6.836  16.044  21.694  1.00  0.00     0.020 C 
ENDROOT
BRANCH   3  24
HETATM   24  O1  UNL     1      -9.616  15.631  21.876  1.00  0.00    -0.377 OA
HETATM   25  H2  UNL     1     -10.408  15.583  22.442  1.00  0.00     0.211 HD
ENDBRANCH   3  24
BRANCH  13  26
HETATM   26  O2  UNL     1      -1.297   9.771  16.091  1.00  0.00    -0.271 OA
BRANCH  26  27
HETATM   27  C13 UNL     1      -1.638   8.402  16.276  1.00  0.00     0.303 C 
BRANCH  27  28
HETATM   28  C14 UNL     1      -1.671   7.645  14.950  1.00  0.00     0.244 C 
HETATM   29  O3  UNL     1      -1.750   8.215  13.864  1.00  0.00    -0.271 OA
HETATM   30  N2  UNL     1      -1.672   6.268  15.078  1.00  0.00    -0.342 N 
HETATM   31  H16 UNL     1      -1.923   5.934  16.007  1.00  0.00     0.163 HD
BRANCH  30  32
HETATM   32  C15 UNL     1      -2.100   5.420  13.940  1.00  0.00     0.216 C 
BRANCH  32  33
HETATM   33  C16 UNL     1      -1.013   5.427  12.864  1.00  0.00     0.166 C 
HETATM   34  O4  UNL     1      -0.885   6.237  11.960  1.00  0.00    -0.648 OA
BRANCH  33  35
HETATM   35  O5  UNL     1      -0.095   4.439  13.004  1.00  0.00    -0.775 OA
HETATM   36  H18 UNL     1       0.475   4.535  12.208  1.00  0.00     0.167 HD
ENDBRANCH  33  35
ENDBRANCH  32  33
BRANCH  32  37
HETATM   37  C17 UNL     1      -3.419   5.964  13.349  1.00  0.00     0.184 C 
BRANCH  37  38
HETATM   38  O6  UNL     1      -4.202   6.592  14.379  1.00  0.00    -0.388 OA
HETATM   39  H20 UNL     1      -3.565   6.948  15.027  1.00  0.00     0.210 HD
ENDBRANCH  37  38
BRANCH  37  40
HETATM   40  C18 UNL     1      -4.286   4.902  12.705  1.00  0.00    -0.025 A 
HETATM   41  C19 UNL     1      -3.733   4.012  11.767  1.00  0.00     0.010 A 
HETATM   42  C20 UNL     1      -4.505   2.994  11.198  1.00  0.00     0.003 A 
HETATM   43  C21 UNL     1      -5.849   2.858  11.546  1.00  0.00     0.036 A 
HETATM   44  C22 UNL     1      -6.414   3.750  12.468  1.00  0.00     0.103 A 
HETATM   45  C23 UNL     1      -5.641   4.769  13.045  1.00  0.00     0.045 A 
BRANCH  44  46
HETATM   46  N3  UNL     1      -7.826   3.595  12.851  1.00  0.00    -0.116 N 
HETATM   47  O7  UNL     1      -8.425   4.597  13.267  1.00  0.00    -0.532 OA
HETATM   48  O8  UNL     1      -8.334   2.469  12.752  1.00  0.00    -0.532 OA
ENDBRANCH  44  46
ENDBRANCH  37  40
ENDBRANCH  32  37
ENDBRANCH  30  32
ENDBRANCH  27  28
ENDBRANCH  26  27
ENDBRANCH  13  26
TORSDOF 11
ENDMDL
MODEL 7
REMARK minimizedAffinity -8.94879627
REMARK CNNscore 0.226725772
REMARK CNNaffinity 5.92441368
REMARK  11 active torsions:
REMARK  status: ('A' for Active; 'I' for Inactive)
REMARK    1  A    between atoms: C3_3  and  O1_4 
REMARK    2  A    between atoms: N1_14  and  O2_16 
REMARK    3  A    between atoms: O2_16  and  C13_17 
REMARK    4  A    between atoms: C13_17  and  C14_18 
REMARK       I    between atoms: C14_18  and  N2_20 
REMARK    5  A    between atoms: N2_20  and  C15_21 
REMARK    6  A    between atoms: C15_21  and  C16_22 
REMARK    7  A    between atoms: C15_21  and  C17_25 
REMARK    8  A    between atoms: C16_22  and  O5_24 
REMARK    9  A    between atoms: C17_25  and  O6_26 
REMARK   10  A    between atoms: C17_25  and  C18_27 
REMARK   11  A    between atoms: C22_31  and  N3_32 
ROOT
HETATM    1  C1  UNL     1      -0.585   8.497   8.885  1.00  0.00     0.015 C 
HETATM    2  C2  UNL     1       0.432   7.866   8.998  1.00  0.00    -0.078 C 
HETATM    3  C3  UNL     1       1.688   7.107   9.113  1.00  0.00     0.128 C 
HETATM    4  C4  UNL     1       1.583   5.941  10.109  1.00  0.00     0.052 C 
HETATM    5  C5  UNL     1       2.992   5.759  10.695  1.00  0.00     0.010 C 
HETATM    6  C6  UNL     1       3.885   6.816  10.019  1.00  0.00     0.002 C 
HETATM    7  C7  UNL     1       5.102   7.294  10.837  1.00  0.00    -0.004 C 
HETATM    8  C8  UNL     1       5.978   6.108  11.259  1.00  0.00     0.010 C 
HETATM    9  C9  UNL     1       7.256   6.589  11.929  1.00  0.00     0.035 C 
HETATM   10  C10 UNL     1       6.979   7.492  13.107  1.00  0.00    -0.069 C 
HETATM   11  C11 UNL     1       7.655   7.292  14.255  1.00  0.00     0.030 C 
HETATM   12  C12 UNL     1       7.584   8.250  15.387  1.00  0.00     0.032 C 
HETATM   13  N1  UNL     1       8.427   8.073  16.365  1.00  0.00    -0.271 N 
ATOM     14  H1  UNL     1       9.077   7.288  16.419  1.00  0.00     0.194 HD
HETATM   15  C24 UNL     1       6.621   9.414  15.287  1.00  0.00     0.060 C 
HETATM   16  C25 UNL     1       5.498   9.145  14.288  1.00  0.00     0.020 C 
HETATM   17  C26 UNL     1       5.987   8.643  12.896  1.00  0.00    -0.016 C 
HETATM   18  C27 UNL     1       6.739   9.785  12.176  1.00  0.00     0.020 C 
HETATM   19  C28 UNL     1       4.726   8.156  12.068  1.00  0.00     0.002 C 
HETATM   20  C29 UNL     1       3.782   9.302  11.640  1.00  0.00     0.007 C 
HETATM   21  C30 UNL     1       2.556   8.800  10.873  1.00  0.00     0.014 C 
HETATM   22  C31 UNL     1       2.899   7.943   9.627  1.00  0.00     0.003 C 
HETATM   23  C32 UNL     1       3.486   8.836   8.515  1.00  0.00     0.020 C 
ENDROOT
BRANCH   3  24
HETATM   24  O1  UNL     1       1.995   6.546   7.832  1.00  0.00    -0.377 OA
HETATM   25  H2  UNL     1       1.166   6.177   7.476  1.00  0.00     0.211 HD
ENDBRANCH   3  24
BRANCH  13  26
HETATM   26  O2  UNL     1       8.342   9.083  17.334  1.00  0.00    -0.271 OA
BRANCH  26  27
HETATM   27  C13 UNL     1       9.586   9.773  17.365  1.00  0.00     0.303 C 
BRANCH  27  28
HETATM   28  C14 UNL     1       9.659  10.753  18.533  1.00  0.00     0.244 C 
HETATM   29  O3  UNL     1       8.767  11.564  18.775  1.00  0.00    -0.271 OA
HETATM   30  N2  UNL     1      10.840  10.700  19.251  1.00  0.00    -0.342 N 
HETATM   31  H16 UNL     1      11.603  10.229  18.768  1.00  0.00     0.163 HD
BRANCH  30  32
HETATM   32  C15 UNL     1      11.222  11.828  20.132  1.00  0.00     0.216 C 
BRANCH  32  33
HETATM   33  C16 UNL     1       9.986  12.328  20.883  1.00  0.00     0.166 C 
HETATM   34  O4  UNL     1       9.411  11.764  21.800  1.00  0.00    -0.648 OA
BRANCH  33  35
HETATM   35  O5  UNL     1       9.556  13.550  20.481  1.00  0.00    -0.775 OA
HETATM   36  H18 UNL     1       8.729  13.687  20.996  1.00  0.00     0.167 HD
ENDBRANCH  33  35
ENDBRANCH  32  33
BRANCH  32  37
HETATM   37  C17 UNL     1      11.814  12.976  19.286  1.00  0.00     0.184 C 
BRANCH  37  38
HETATM   38  O6  UNL     1      11.142  13.053  18.017  1.00  0.00    -0.388 OA
HETATM   39  H20 UNL     1      10.231  12.740  18.171  1.00  0.00     0.210 HD
ENDBRANCH  37  38
BRANCH  37  40
HETATM   40  C18 UNL     1      13.295  12.831  19.006  1.00  0.00    -0.025 A 
HETATM   41  C19 UNL     1      13.756  12.727  17.680  1.00  0.00     0.010 A 
HETATM   42  C20 UNL     1      15.123  12.641  17.399  1.00  0.00     0.003 A 
HETATM   43  C21 UNL     1      16.054  12.644  18.438  1.00  0.00     0.036 A 
HETATM   44  C22 UNL     1      15.604  12.731  19.763  1.00  0.00     0.103 A 
HETATM   45  C23 UNL     1      14.233  12.823  20.049  1.00  0.00     0.045 A 
BRANCH  44  46
HETATM   46  N3  UNL     1      16.585  12.755  20.859  1.00  0.00    -0.116 N 
HETATM   47  O7  UNL     1      16.167  12.571  22.012  1.00  0.00    -0.532 OA
HETATM   48  O8  UNL     1      17.771  12.971  20.572  1.00  0.00    -0.532 OA
ENDBRANCH  44  46
ENDBRANCH  37  40
ENDBRANCH  32  37
ENDBRANCH  30  32
ENDBRANCH  27  28
ENDBRANCH  26  27
ENDBRANCH  13  26
TORSDOF 11
ENDMDL
MODEL 8
REMARK minimizedAffinity -9.3294363
REMARK CNNscore 0.201705873
REMARK CNNaffinity 5.79395294
REMARK  11 active torsions:
REMARK  status: ('A' for Active; 'I' for Inactive)
REMARK    1  A    between atoms: C3_3  and  O1_4 
REMARK    2  A    between atoms: N1_14  and  O2_16 
REMARK    3  A    between atoms: O2_16  and  C13_17 
REMARK    4  A    between atoms: C13_17  and  C14_18 
REMARK       I    between atoms: C14_18  and  N2_20 
REMARK    5  A    between atoms: N2_20  and  C15_21 
REMARK    6  A    between atoms: C15_21  and  C16_22 
REMARK    7  A    between atoms: C15_21  and  C17_25 
REMARK    8  A    between atoms: C16_22  and  O5_24 
REMARK    9  A    between atoms: C17_25  and  O6_26 
REMARK   10  A    between atoms: C17_25  and  C18_27 
REMARK   11  A    between atoms: C22_31  and  N3_32 
ROOT
HETATM    1  C1  UNL     1       9.818  16.395  21.636  1.00  0.00     0.015 C 
HETATM    2  C2  UNL     1       9.202  15.485  22.125  1.00  0.00    -0.078 C 
HETATM    3  C3  UNL     1       8.441  14.389  22.745  1.00  0.00     0.128 C 
HETATM    4  C4  UNL     1       8.732  13.027  22.095  1.00  0.00     0.052 C 
HETATM    5  C5  UNL     1       7.443  12.204  22.243  1.00  0.00     0.010 C 
HETATM    6  C6  UNL     1       6.435  13.103  22.983  1.00  0.00     0.002 C 
HETATM    7  C7  UNL     1       4.946  12.826  22.697  1.00  0.00    -0.004 C 
HETATM    8  C8  UNL     1       4.597  11.359  22.980  1.00  0.00     0.010 C 
HETATM    9  C9  UNL     1       3.100  11.122  22.847  1.00  0.00     0.035 C 
HETATM   10  C10 UNL     1       2.573  11.543  21.497  1.00  0.00    -0.069 C 
HETATM   11  C11 UNL     1       1.734  10.719  20.839  1.00  0.00     0.030 C 
HETATM   12  C12 UNL     1       1.023  11.141  19.606  1.00  0.00     0.032 C 
HETATM   13  N1  UNL     1       0.086  10.350  19.163  1.00  0.00    -0.271 N 
ATOM     14  H1  UNL     1      -0.134   9.444  19.577  1.00  0.00     0.194 HD
HETATM   15  C24 UNL     1       1.354  12.492  19.009  1.00  0.00     0.060 C 
HETATM   16  C25 UNL     1       2.729  12.991  19.448  1.00  0.00     0.020 C 
HETATM   17  C26 UNL     1       2.969  12.934  20.987  1.00  0.00    -0.016 C 
HETATM   18  C27 UNL     1       2.057  13.968  21.685  1.00  0.00     0.020 C 
HETATM   19  C28 UNL     1       4.502  13.222  21.265  1.00  0.00     0.002 C 
HETATM   20  C29 UNL     1       4.928  14.677  20.966  1.00  0.00     0.007 C 
HETATM   21  C30 UNL     1       6.419  14.917  21.211  1.00  0.00     0.014 C 
HETATM   22  C31 UNL     1       6.893  14.541  22.640  1.00  0.00     0.003 C 
HETATM   23  C32 UNL     1       6.350  15.559  23.663  1.00  0.00     0.020 C 
ENDROOT
BRANCH   3  24
HETATM   24  O1  UNL     1       8.826  14.295  24.121  1.00  0.00    -0.377 OA
HETATM   25  H2  UNL     1       9.797  14.370  24.152  1.00  0.00     0.211 HD
ENDBRANCH   3  24
BRANCH  13  26
HETATM   26  O2  UNL     1      -0.586  10.884  18.055  1.00  0.00    -0.271 OA
BRANCH  26  27
HETATM   27  C13 UNL     1      -1.816  10.183  17.903  1.00  0.00     0.303 C 
BRANCH  27  28
HETATM   28  C14 UNL     1      -1.747   9.162  16.770  1.00  0.00     0.244 C 
HETATM   29  O3  UNL     1      -0.696   8.870  16.204  1.00  0.00    -0.271 OA
HETATM   30  N2  UNL     1      -2.973   8.646  16.390  1.00  0.00    -0.342 N 
HETATM   31  H16 UNL     1      -3.773   9.192  16.707  1.00  0.00     0.163 HD
BRANCH  30  32
HETATM   32  C15 UNL     1      -3.118   7.974  15.078  1.00  0.00     0.216 C 
BRANCH  32  33
HETATM   33  C16 UNL     1      -3.406   9.021  14.000  1.00  0.00     0.166 C 
HETATM   34  O4  UNL     1      -2.582   9.655  13.359  1.00  0.00    -0.648 OA
BRANCH  33  35
HETATM   35  O5  UNL     1      -4.725   9.186  13.733  1.00  0.00    -0.775 OA
HETATM   36  H18 UNL     1      -4.741   9.930  13.089  1.00  0.00     0.167 HD
ENDBRANCH  33  35
ENDBRANCH  32  33
BRANCH  32  37
HETATM   37  C17 UNL     1      -4.279   6.957  15.136  1.00  0.00     0.184 C 
BRANCH  37  38
HETATM   38  O6  UNL     1      -4.224   6.214  16.366  1.00  0.00    -0.388 OA
HETATM   39  H20 UNL     1      -3.827   6.810  17.028  1.00  0.00     0.210 HD
ENDBRANCH  37  38
BRANCH  37  40
HETATM   40  C18 UNL     1      -4.274   5.954  14.001  1.00  0.00    -0.025 A 
HETATM   41  C19 UNL     1      -3.075   5.658  13.326  1.00  0.00     0.010 A 
HETATM   42  C20 UNL     1      -3.040   4.700  12.308  1.00  0.00     0.003 A 
HETATM   43  C21 UNL     1      -4.207   4.031  11.937  1.00  0.00     0.036 A 
HETATM   44  C22 UNL     1      -5.409   4.330  12.592  1.00  0.00     0.103 A 
HETATM   45  C23 UNL     1      -5.447   5.286  13.618  1.00  0.00     0.045 A 
BRANCH  44  46
HETATM   46  N3  UNL     1      -6.635   3.610  12.216  1.00  0.00    -0.116 N 
HETATM   47  O7  UNL     1      -6.549   2.391  12.008  1.00  0.00    -0.532 OA
HETATM   48  O8  UNL     1      -7.684   4.263  12.113  1.00  0.00    -0.532 OA
ENDBRANCH  44  46
ENDBRANCH  37  40
ENDBRANCH  32  37
ENDBRANCH  30  32
ENDBRANCH  27  28
ENDBRANCH  26  27
ENDBRANCH  13  26
TORSDOF 11
ENDMDL
MODEL 9
REMARK minimizedAffinity -7.77272892
REMARK CNNscore 0.196210161
REMARK CNNaffinity 5.73967981
REMARK  11 active torsions:
REMARK  status: ('A' for Active; 'I' for Inactive)
REMARK    1  A    between atoms: C3_3  and  O1_4 
REMARK    2  A    between atoms: N1_14  and  O2_16 
REMARK    3  A    between atoms: O2_16  and  C13_17 
REMARK    4  A    between atoms: C13_17  and  C14_18 
REMARK       I    between atoms: C14_18  and  N2_20 
REMARK    5  A    between atoms: N2_20  and  C15_21 
REMARK    6  A    between atoms: C15_21  and  C16_22 
REMARK    7  A    between atoms: C15_21  and  C17_25 
REMARK    8  A    between atoms: C16_22  and  O5_24 
REMARK    9  A    between atoms: C17_25  and  O6_26 
REMARK   10  A    between atoms: C17_25  and  C18_27 
REMARK   11  A    between atoms: C22_31  and  N3_32 
ROOT
HETATM    1  C1  UNL     1      -2.613   4.929  13.235  1.00  0.00     0.015 C 
HETATM    2  C2  UNL     1      -2.622   6.129  13.304  1.00  0.00    -0.078 C 
HETATM    3  C3  UNL     1      -2.654   7.597  13.408  1.00  0.00     0.128 C 
HETATM    4  C4  UNL     1      -1.838   8.285  12.302  1.00  0.00     0.052 C 
HETATM    5  C5  UNL     1      -1.324   9.599  12.911  1.00  0.00     0.010 C 
HETATM    6  C6  UNL     1      -1.860   9.648  14.354  1.00  0.00     0.002 C 
HETATM    7  C7  UNL     1      -1.014  10.454  15.361  1.00  0.00    -0.004 C 
HETATM    8  C8  UNL     1      -0.795  11.889  14.868  1.00  0.00     0.010 C 
HETATM    9  C9  UNL     1      -0.096  12.727  15.928  1.00  0.00     0.035 C 
HETATM   10  C10 UNL     1       1.209  12.112  16.373  1.00  0.00    -0.069 C 
HETATM   11  C11 UNL     1       2.296  12.899  16.484  1.00  0.00     0.030 C 
HETATM   12  C12 UNL     1       3.558  12.416  17.098  1.00  0.00     0.032 C 
HETATM   13  N1  UNL     1       4.477  13.308  17.342  1.00  0.00    -0.271 N 
ATOM     14  H1  UNL     1       4.397  14.291  17.080  1.00  0.00     0.194 HD
HETATM   15  C24 UNL     1       3.658  10.957  17.489  1.00  0.00     0.060 C 
HETATM   16  C25 UNL     1       2.660  10.090  16.724  1.00  0.00     0.020 C 
HETATM   17  C26 UNL     1       1.197  10.625  16.748  1.00  0.00    -0.016 C 
HETATM   18  C27 UNL     1       0.633  10.507  18.182  1.00  0.00     0.020 C 
HETATM   19  C28 UNL     1       0.341   9.788  15.710  1.00  0.00     0.002 C 
HETATM   20  C29 UNL     1       0.112   8.319  16.132  1.00  0.00     0.007 C 
HETATM   21  C30 UNL     1      -0.688   7.526  15.095  1.00  0.00     0.014 C 
HETATM   22  C31 UNL     1      -2.056   8.161  14.733  1.00  0.00     0.003 C 
HETATM   23  C32 UNL     1      -3.039   8.009  15.911  1.00  0.00     0.020 C 
ENDROOT
BRANCH   3  24
HETATM   24  O1  UNL     1      -4.012   8.030  13.267  1.00  0.00    -0.377 OA
HETATM   25  H2  UNL     1      -4.396   7.528  12.526  1.00  0.00     0.211 HD
ENDBRANCH   3  24
BRANCH  13  26
HETATM   26  O2  UNL     1       5.586  12.766  18.007  1.00  0.00    -0.271 OA
BRANCH  26  27
HETATM   27  C13 UNL     1       5.615  13.299  19.327  1.00  0.00     0.303 C 
BRANCH  27  28
HETATM   28  C14 UNL     1       6.972  13.084  19.992  1.00  0.00     0.244 C 
HETATM   29  O3  UNL     1       7.653  12.079  19.799  1.00  0.00    -0.271 OA
HETATM   30  N2  UNL     1       7.338  14.080  20.879  1.00  0.00    -0.342 N 
HETATM   31  H16 UNL     1       6.568  14.674  21.183  1.00  0.00     0.163 HD
BRANCH  30  32
HETATM   32  C15 UNL     1       8.402  13.826  21.879  1.00  0.00     0.216 C 
BRANCH  32  33
HETATM   33  C16 UNL     1       9.474  12.926  21.263  1.00  0.00     0.166 C 
HETATM   34  O4  UNL     1      10.411  13.279  20.565  1.00  0.00    -0.648 OA
BRANCH  33  35
HETATM   35  O5  UNL     1       9.353  11.618  21.599  1.00  0.00    -0.775 OA
HETATM   36  H18 UNL     1      10.056  11.175  21.072  1.00  0.00     0.167 HD
ENDBRANCH  33  35
ENDBRANCH  32  33
BRANCH  32  37
HETATM   37  C17 UNL     1       7.798  13.137  23.122  1.00  0.00     0.184 C 
BRANCH  37  38
HETATM   38  O6  UNL     1       8.430  11.864  23.338  1.00  0.00    -0.388 OA
HETATM   39  H20 UNL     1       9.341  11.951  23.002  1.00  0.00     0.210 HD
ENDBRANCH  37  38
BRANCH  37  40
HETATM   40  C18 UNL     1       6.306  12.890  23.023  1.00  0.00    -0.025 A 
HETATM   41  C19 UNL     1       5.407  13.971  23.078  1.00  0.00     0.010 A 
HETATM   42  C20 UNL     1       4.030  13.769  22.940  1.00  0.00     0.003 A 
HETATM   43  C21 UNL     1       3.527  12.480  22.758  1.00  0.00     0.036 A 
HETATM   44  C22 UNL     1       4.413  11.396  22.718  1.00  0.00     0.103 A 
HETATM   45  C23 UNL     1       5.796  11.595  22.851  1.00  0.00     0.045 A 
BRANCH  44  46
HETATM   46  N3  UNL     1       3.886  10.039  22.506  1.00  0.00    -0.116 N 
HETATM   47  O7  UNL     1       3.661   9.343  23.507  1.00  0.00    -0.532 OA
HETATM   48  O8  UNL     1       3.708   9.660  21.339  1.00  0.00    -0.532 OA
ENDBRANCH  44  46
ENDBRANCH  37  40
ENDBRANCH  32  37
ENDBRANCH  30  32
ENDBRANCH  27  28
ENDBRANCH  26  27
ENDBRANCH  13  26
TORSDOF 11
ENDMDL
