MODEL 1
REMARK minimizedAffinity -9.24298954
REMARK  7 active torsions:
REMARK  status: ('A' for Active; 'I' for Inactive)
REMARK    1  A    between atoms: C2_2  and  C4_4 
REMARK    2  A    between atoms: C7_7  and  O1_9 
REMARK    3  A    between atoms: C9_10  and  C10_11 
REMARK    4  A    between atoms: C11_12  and  C12_13 
REMARK    5  A    between atoms: C14_15  and  C15_16 
REMARK    6  A    between atoms: C24_26  and  C26_28 
REMARK    7  A    between atoms: C29_32  and  O4_34 
ROOT
HETATM    1  C15 UNL     1      -2.736  48.866 -24.811  1.00  0.00     0.149 C 
HETATM    2  C16 UNL     1      -1.863  49.914 -25.506  1.00  0.00     0.054 C 
HETATM    3  C17 UNL     1      -1.726  51.100 -24.508  1.00  0.00     0.050 C 
HETATM    4  C18 UNL     1      -2.304  50.472 -23.225  1.00  0.00     0.272 C 
HETATM    5  O2  UNL     1      -1.281  49.786 -22.508  1.00  0.00    -0.360 OA
HETATM    6  C19 UNL     1      -0.675  50.562 -21.478  1.00  0.00     0.171 C 
HETATM    7  C20 UNL     1      -0.429  52.031 -21.809  1.00  0.00     0.027 C 
HETATM    8  C21 UNL     1       0.240  52.309 -23.154  1.00  0.00     0.012 C 
HETATM    9  C22 UNL     1      -0.205  51.463 -24.373  1.00  0.00     0.032 C 
HETATM   10  C23 UNL     1       0.333  52.100 -25.670  1.00  0.00    -0.066 C 
HETATM   11  C24 UNL     1       1.401  51.601 -26.348  1.00  0.00    -0.021 C 
HETATM   12  C25 UNL     1       2.218  50.397 -25.946  1.00  0.00     0.052 C 
HETATM   13  C27 UNL     1      -0.490  53.300 -26.108  1.00  0.00     0.038 C 
HETATM   14  C28 UNL     1      -1.977  52.969 -26.242  1.00  0.00     0.042 C 
HETATM   15  C29 UNL     1      -2.571  52.338 -24.968  1.00  0.00     0.067 C 
HETATM   16  C30 UNL     1      -4.065  52.052 -25.197  1.00  0.00     0.047 C 
HETATM   17  O5  UNL     1      -3.277  49.515 -23.665  1.00  0.00    -0.351 OA
ENDROOT
BRANCH   1  18
HETATM   18  C14 UNL     1      -3.809  48.313 -25.714  1.00  0.00     0.011 C 
HETATM   19  C12 UNL     1      -4.121  48.653 -26.985  1.00  0.00    -0.064 C 
HETATM   20  C13 UNL     1      -3.441  49.768 -27.740  1.00  0.00     0.048 C 
BRANCH  19  21
HETATM   21  C11 UNL     1      -5.201  47.923 -27.648  1.00  0.00     0.003 C 
HETATM   22  C10 UNL     1      -5.375  47.773 -28.973  1.00  0.00    -0.018 C 
BRANCH  22  23
HETATM   23  C9  UNL     1      -6.511  47.011 -29.629  1.00  0.00     0.050 C 
HETATM   24  C4  UNL     1      -7.088  45.860 -28.743  1.00  0.00     0.024 C 
HETATM   25  C5  UNL     1      -7.532  44.790 -29.748  1.00  0.00     0.013 C 
HETATM   26  C6  UNL     1      -6.442  44.853 -30.811  1.00  0.00     0.039 C 
HETATM   27  C7  UNL     1      -6.232  46.357 -31.024  1.00  0.00     0.062 C 
HETATM   28  C8  UNL     1      -4.890  46.651 -31.692  1.00  0.00     0.046 C 
BRANCH  24  29
HETATM   29  C2  UNL     1      -8.159  46.302 -27.757  1.00  0.00    -0.088 C 
HETATM   30  C1  UNL     1      -8.414  45.587 -26.644  1.00  0.00     0.014 C 
HETATM   31  C3  UNL     1      -8.924  47.566 -28.041  1.00  0.00     0.043 C 
ENDBRANCH  24  29
BRANCH  27  32
HETATM   32  O1  UNL     1      -7.253  46.800 -31.936  1.00  0.00    -0.390 OA
HETATM   33  H14 UNL     1      -7.116  47.751 -32.092  1.00  0.00     0.210 HD
ENDBRANCH  27  32
ENDBRANCH  22  23
ENDBRANCH  19  21
ENDBRANCH   1  18
BRANCH  15  34
HETATM   34  O4  UNL     1      -2.510  53.337 -23.938  1.00  0.00    -0.389 OA
HETATM   35  H44 UNL     1      -3.061  54.095 -24.207  1.00  0.00     0.210 HD
ENDBRANCH  15  34
BRANCH  11  36
HETATM   36  C26 UNL     1       1.907  52.224 -27.616  1.00  0.00     0.265 C 
HETATM   37  O3  UNL     1       1.439  51.955 -28.715  1.00  0.00    -0.302 OA
ENDBRANCH  11  36
TORSDOF 7
ENDMDL
MODEL 2
REMARK minimizedAffinity -9.15842056
REMARK  7 active torsions:
REMARK  status: ('A' for Active; 'I' for Inactive)
REMARK    1  A    between atoms: C2_2  and  C4_4 
REMARK    2  A    between atoms: C7_7  and  O1_9 
REMARK    3  A    between atoms: C9_10  and  C10_11 
REMARK    4  A    between atoms: C11_12  and  C12_13 
REMARK    5  A    between atoms: C14_15  and  C15_16 
REMARK    6  A    between atoms: C24_26  and  C26_28 
REMARK    7  A    between atoms: C29_32  and  O4_34 
ROOT
HETATM    1  C15 UNL     1      -3.254  48.350 -25.098  1.00  0.00     0.149 C 
HETATM    2  C16 UNL     1      -2.740  49.787 -25.213  1.00  0.00     0.054 C 
HETATM    3  C17 UNL     1      -2.727  50.364 -23.769  1.00  0.00     0.050 C 
HETATM    4  C18 UNL     1      -2.965  49.087 -22.940  1.00  0.00     0.272 C 
HETATM    5  O2  UNL     1      -1.726  48.439 -22.665  1.00  0.00    -0.360 OA
HETATM    6  C19 UNL     1      -1.164  48.776 -21.399  1.00  0.00     0.171 C 
HETATM    7  C20 UNL     1      -1.296  50.237 -20.981  1.00  0.00     0.027 C 
HETATM    8  C21 UNL     1      -0.901  51.271 -22.034  1.00  0.00     0.012 C 
HETATM    9  C22 UNL     1      -1.318  51.004 -23.502  1.00  0.00     0.032 C 
HETATM   10  C23 UNL     1      -1.123  52.287 -24.337  1.00  0.00    -0.066 C 
HETATM   11  C24 UNL     1      -0.079  52.456 -25.191  1.00  0.00    -0.021 C 
HETATM   12  C25 UNL     1       1.031  51.463 -25.439  1.00  0.00     0.052 C 
HETATM   13  C27 UNL     1      -2.243  53.291 -24.123  1.00  0.00     0.038 C 
HETATM   14  C28 UNL     1      -3.624  52.686 -24.374  1.00  0.00     0.042 C 
HETATM   15  C29 UNL     1      -3.879  51.405 -23.554  1.00  0.00     0.067 C 
HETATM   16  C30 UNL     1      -5.291  50.881 -23.865  1.00  0.00     0.047 C 
HETATM   17  O5  UNL     1      -3.757  48.227 -23.771  1.00  0.00    -0.351 OA
ENDROOT
BRANCH   1  18
HETATM   18  C14 UNL     1      -4.298  48.022 -26.136  1.00  0.00     0.011 C 
HETATM   19  C12 UNL     1      -4.461  48.528 -27.379  1.00  0.00    -0.064 C 
HETATM   20  C13 UNL     1      -3.606  49.633 -27.948  1.00  0.00     0.048 C 
BRANCH  19  21
HETATM   21  C11 UNL     1      -5.549  48.000 -28.200  1.00  0.00     0.003 C 
HETATM   22  C10 UNL     1      -5.718  48.176 -29.523  1.00  0.00    -0.018 C 
BRANCH  22  23
HETATM   23  C9  UNL     1      -6.864  47.617 -30.345  1.00  0.00     0.050 C 
HETATM   24  C4  UNL     1      -6.844  48.074 -31.839  1.00  0.00     0.024 C 
HETATM   25  C5  UNL     1      -8.324  48.148 -32.235  1.00  0.00     0.013 C 
HETATM   26  C6  UNL     1      -8.983  48.698 -30.976  1.00  0.00     0.039 C 
HETATM   27  C7  UNL     1      -8.319  47.902 -29.846  1.00  0.00     0.062 C 
HETATM   28  C8  UNL     1      -8.484  48.597 -28.494  1.00  0.00     0.046 C 
BRANCH  24  29
HETATM   29  C2  UNL     1      -5.976  47.217 -32.749  1.00  0.00    -0.088 C 
HETATM   30  C1  UNL     1      -5.406  47.735 -33.853  1.00  0.00     0.014 C 
HETATM   31  C3  UNL     1      -5.755  45.773 -32.384  1.00  0.00     0.043 C 
ENDBRANCH  24  29
BRANCH  27  32
HETATM   32  O1  UNL     1      -9.013  46.645 -29.751  1.00  0.00    -0.390 OA
HETATM   33  H14 UNL     1      -8.611  46.141 -29.023  1.00  0.00     0.210 HD
ENDBRANCH  27  32
ENDBRANCH  22  23
ENDBRANCH  19  21
ENDBRANCH   1  18
BRANCH  15  34
HETATM   34  O4  UNL     1      -3.893  51.790 -22.171  1.00  0.00    -0.389 OA
HETATM   35  H44 UNL     1      -4.629  52.412 -22.028  1.00  0.00     0.210 HD
ENDBRANCH  15  34
BRANCH  11  36
HETATM   36  C26 UNL     1       0.094  53.704 -26.007  1.00  0.00     0.265 C 
HETATM   37  O3  UNL     1       0.381  54.785 -25.506  1.00  0.00    -0.302 OA
ENDBRANCH  11  36
TORSDOF 7
ENDMDL
MODEL 3
REMARK minimizedAffinity -9.14336109
REMARK  7 active torsions:
REMARK  status: ('A' for Active; 'I' for Inactive)
REMARK    1  A    between atoms: C2_2  and  C4_4 
REMARK    2  A    between atoms: C7_7  and  O1_9 
REMARK    3  A    between atoms: C9_10  and  C10_11 
REMARK    4  A    between atoms: C11_12  and  C12_13 
REMARK    5  A    between atoms: C14_15  and  C15_16 
REMARK    6  A    between atoms: C24_26  and  C26_28 
REMARK    7  A    between atoms: C29_32  and  O4_34 
ROOT
HETATM    1  C15 UNL     1      -4.293  48.188 -24.899  1.00  0.00     0.149 C 
HETATM    2  C16 UNL     1      -3.610  49.540 -25.120  1.00  0.00     0.054 C 
HETATM    3  C17 UNL     1      -3.233  50.075 -23.709  1.00  0.00     0.050 C 
HETATM    4  C18 UNL     1      -3.486  48.825 -22.844  1.00  0.00     0.272 C 
HETATM    5  O2  UNL     1      -2.323  48.002 -22.813  1.00  0.00    -0.360 OA
HETATM    6  C19 UNL     1      -1.483  48.227 -21.685  1.00  0.00     0.171 C 
HETATM    7  C20 UNL     1      -1.320  49.682 -21.256  1.00  0.00     0.027 C 
HETATM    8  C21 UNL     1      -0.994  50.674 -22.371  1.00  0.00     0.012 C 
HETATM    9  C22 UNL     1      -1.723  50.503 -23.727  1.00  0.00     0.032 C 
HETATM   10  C23 UNL     1      -1.512  51.764 -24.591  1.00  0.00    -0.066 C 
HETATM   11  C24 UNL     1      -0.641  51.804 -25.634  1.00  0.00    -0.021 C 
HETATM   12  C25 UNL     1       0.245  50.670 -26.090  1.00  0.00     0.052 C 
HETATM   13  C27 UNL     1      -2.413  52.912 -24.166  1.00  0.00     0.038 C 
HETATM   14  C28 UNL     1      -3.889  52.513 -24.137  1.00  0.00     0.042 C 
HETATM   15  C29 UNL     1      -4.160  51.263 -23.278  1.00  0.00     0.067 C 
HETATM   16  C30 UNL     1      -5.666  50.951 -23.303  1.00  0.00     0.047 C 
HETATM   17  O5  UNL     1      -4.539  48.105 -23.499  1.00  0.00    -0.351 OA
ENDROOT
BRANCH   1  18
HETATM   18  C14 UNL     1      -5.555  48.034 -25.711  1.00  0.00     0.011 C 
HETATM   19  C12 UNL     1      -5.711  47.984 -27.053  1.00  0.00    -0.064 C 
HETATM   20  C13 UNL     1      -4.575  48.153 -28.031  1.00  0.00     0.048 C 
BRANCH  19  21
HETATM   21  C11 UNL     1      -7.061  47.793 -27.582  1.00  0.00     0.003 C 
HETATM   22  C10 UNL     1      -7.391  47.450 -28.840  1.00  0.00    -0.018 C 
BRANCH  22  23
HETATM   23  C9  UNL     1      -8.804  47.263 -29.358  1.00  0.00     0.050 C 
HETATM   24  C4  UNL     1      -9.068  45.847 -29.962  1.00  0.00     0.024 C 
HETATM   25  C5  UNL     1     -10.092  46.092 -31.078  1.00  0.00     0.013 C 
HETATM   26  C6  UNL     1      -9.633  47.419 -31.670  1.00  0.00     0.039 C 
HETATM   27  C7  UNL     1      -9.318  48.274 -30.437  1.00  0.00     0.062 C 
HETATM   28  C8  UNL     1      -8.418  49.459 -30.787  1.00  0.00     0.046 C 
BRANCH  24  29
HETATM   29  C2  UNL     1      -9.468  44.791 -28.941  1.00  0.00    -0.088 C 
HETATM   30  C1  UNL     1     -10.764  44.515 -28.701  1.00  0.00     0.014 C 
HETATM   31  C3  UNL     1      -8.383  44.048 -28.210  1.00  0.00     0.043 C 
ENDBRANCH  24  29
BRANCH  27  32
HETATM   32  O1  UNL     1     -10.565  48.824 -29.975  1.00  0.00    -0.390 OA
HETATM   33  H14 UNL     1     -10.371  49.384 -29.204  1.00  0.00     0.210 HD
ENDBRANCH  27  32
ENDBRANCH  22  23
ENDBRANCH  19  21
ENDBRANCH   1  18
BRANCH  15  34
HETATM   34  O4  UNL     1      -3.849  51.613 -21.920  1.00  0.00    -0.389 OA
HETATM   35  H44 UNL     1      -4.446  52.330 -21.639  1.00  0.00     0.210 HD
ENDBRANCH  15  34
BRANCH  11  36
HETATM   36  C26 UNL     1      -0.454  53.033 -26.474  1.00  0.00     0.265 C 
HETATM   37  O3  UNL     1       0.490  53.800 -26.320  1.00  0.00    -0.302 OA
ENDBRANCH  11  36
TORSDOF 7
ENDMDL
MODEL 4
REMARK minimizedAffinity -9.1111002
REMARK  7 active torsions:
REMARK  status: ('A' for Active; 'I' for Inactive)
REMARK    1  A    between atoms: C2_2  and  C4_4 
REMARK    2  A    between atoms: C7_7  and  O1_9 
REMARK    3  A    between atoms: C9_10  and  C10_11 
REMARK    4  A    between atoms: C11_12  and  C12_13 
REMARK    5  A    between atoms: C14_15  and  C15_16 
REMARK    6  A    between atoms: C24_26  and  C26_28 
REMARK    7  A    between atoms: C29_32  and  O4_34 
ROOT
HETATM    1  C15 UNL     1      -3.896  48.320 -24.836  1.00  0.00     0.149 C 
HETATM    2  C16 UNL     1      -3.265  49.707 -24.985  1.00  0.00     0.054 C 
HETATM    3  C17 UNL     1      -2.988  50.219 -23.543  1.00  0.00     0.050 C 
HETATM    4  C18 UNL     1      -3.228  48.936 -22.724  1.00  0.00     0.272 C 
HETATM    5  O2  UNL     1      -2.032  48.166 -22.652  1.00  0.00    -0.360 OA
HETATM    6  C19 UNL     1      -1.264  48.396 -21.474  1.00  0.00     0.171 C 
HETATM    7  C20 UNL     1      -1.191  49.844 -21.001  1.00  0.00     0.027 C 
HETATM    8  C21 UNL     1      -0.853  50.880 -22.071  1.00  0.00     0.012 C 
HETATM    9  C22 UNL     1      -1.500  50.715 -23.469  1.00  0.00     0.032 C 
HETATM   10  C23 UNL     1      -1.303  52.007 -24.288  1.00  0.00    -0.066 C 
HETATM   11  C24 UNL     1      -0.381  52.115 -25.281  1.00  0.00    -0.021 C 
HETATM   12  C25 UNL     1       0.580  51.034 -25.717  1.00  0.00     0.052 C 
HETATM   13  C27 UNL     1      -2.277  53.101 -23.883  1.00  0.00     0.038 C 
HETATM   14  C28 UNL     1      -3.732  52.637 -23.945  1.00  0.00     0.042 C 
HETATM   15  C29 UNL     1      -3.990  51.353 -23.133  1.00  0.00     0.067 C 
HETATM   16  C30 UNL     1      -5.477  50.974 -23.247  1.00  0.00     0.047 C 
HETATM   17  O5  UNL     1      -4.212  48.188 -23.453  1.00  0.00    -0.351 OA
ENDROOT
BRANCH   1  18
HETATM   18  C14 UNL     1      -5.104  48.133 -25.718  1.00  0.00     0.011 C 
HETATM   19  C12 UNL     1      -5.183  48.079 -27.067  1.00  0.00    -0.064 C 
HETATM   20  C13 UNL     1      -3.997  48.278 -27.978  1.00  0.00     0.048 C 
BRANCH  19  21
HETATM   21  C11 UNL     1      -6.494  47.851 -27.671  1.00  0.00     0.003 C 
HETATM   22  C10 UNL     1      -6.776  47.023 -28.693  1.00  0.00    -0.018 C 
BRANCH  22  23
HETATM   23  C9  UNL     1      -8.150  46.813 -29.300  1.00  0.00     0.050 C 
HETATM   24  C4  UNL     1      -8.975  48.131 -29.452  1.00  0.00     0.024 C 
HETATM   25  C5  UNL     1     -10.433  47.693 -29.263  1.00  0.00     0.013 C 
HETATM   26  C6  UNL     1     -10.328  46.638 -28.168  1.00  0.00     0.039 C 
HETATM   27  C7  UNL     1      -9.110  45.805 -28.586  1.00  0.00     0.062 C 
HETATM   28  C8  UNL     1      -8.550  44.997 -27.415  1.00  0.00     0.046 C 
BRANCH  24  29
HETATM   29  C2  UNL     1      -8.697  48.904 -30.733  1.00  0.00    -0.088 C 
HETATM   30  C1  UNL     1      -8.720  50.251 -30.749  1.00  0.00     0.014 C 
HETATM   31  C3  UNL     1      -8.381  48.134 -31.987  1.00  0.00     0.043 C 
ENDBRANCH  24  29
BRANCH  27  32
HETATM   32  O1  UNL     1      -9.566  44.854 -29.564  1.00  0.00    -0.390 OA
HETATM   33  H14 UNL     1      -8.803  44.307 -29.821  1.00  0.00     0.210 HD
ENDBRANCH  27  32
ENDBRANCH  22  23
ENDBRANCH  19  21
ENDBRANCH   1  18
BRANCH  15  34
HETATM   34  O4  UNL     1      -3.768  51.679 -21.752  1.00  0.00    -0.389 OA
HETATM   35  H44 UNL     1      -4.411  52.360 -21.485  1.00  0.00     0.210 HD
ENDBRANCH  15  34
BRANCH  11  36
HETATM   36  C26 UNL     1      -0.206  53.374 -26.078  1.00  0.00     0.265 C 
HETATM   37  O3  UNL     1       0.224  54.411 -25.587  1.00  0.00    -0.302 OA
ENDBRANCH  11  36
TORSDOF 7
ENDMDL
MODEL 5
REMARK minimizedAffinity -8.83450222
REMARK  7 active torsions:
REMARK  status: ('A' for Active; 'I' for Inactive)
REMARK    1  A    between atoms: C2_2  and  C4_4 
REMARK    2  A    between atoms: C7_7  and  O1_9 
REMARK    3  A    between atoms: C9_10  and  C10_11 
REMARK    4  A    between atoms: C11_12  and  C12_13 
REMARK    5  A    between atoms: C14_15  and  C15_16 
REMARK    6  A    between atoms: C24_26  and  C26_28 
REMARK    7  A    between atoms: C29_32  and  O4_34 
ROOT
HETATM    1  C15 UNL     1      -5.948  48.158 -28.333  1.00  0.00     0.149 C 
HETATM    2  C16 UNL     1      -5.793  46.868 -29.142  1.00  0.00     0.054 C 
HETATM    3  C17 UNL     1      -7.187  46.575 -29.768  1.00  0.00     0.050 C 
HETATM    4  C18 UNL     1      -7.921  47.899 -29.481  1.00  0.00     0.272 C 
HETATM    5  O2  UNL     1      -7.678  48.835 -30.527  1.00  0.00    -0.360 OA
HETATM    6  C19 UNL     1      -8.687  48.858 -31.532  1.00  0.00     0.171 C 
HETATM    7  C20 UNL     1      -9.261  47.502 -31.930  1.00  0.00     0.027 C 
HETATM    8  C21 UNL     1      -8.238  46.405 -32.224  1.00  0.00     0.012 C 
HETATM    9  C22 UNL     1      -6.995  46.310 -31.304  1.00  0.00     0.032 C 
HETATM   10  C23 UNL     1      -6.270  44.971 -31.551  1.00  0.00    -0.066 C 
HETATM   11  C24 UNL     1      -5.121  44.879 -32.273  1.00  0.00    -0.021 C 
HETATM   12  C25 UNL     1      -4.404  46.026 -32.942  1.00  0.00     0.052 C 
HETATM   13  C27 UNL     1      -6.961  43.804 -30.864  1.00  0.00     0.038 C 
HETATM   14  C28 UNL     1      -7.161  44.045 -29.368  1.00  0.00     0.042 C 
HETATM   15  C29 UNL     1      -7.893  45.367 -29.062  1.00  0.00     0.067 C 
HETATM   16  C30 UNL     1      -8.054  45.512 -27.539  1.00  0.00     0.047 C 
HETATM   17  O5  UNL     1      -7.348  48.406 -28.269  1.00  0.00    -0.351 OA
ENDROOT
BRANCH   1  18
HETATM   18  C14 UNL     1      -5.321  48.064 -26.965  1.00  0.00     0.011 C 
HETATM   19  C12 UNL     1      -4.178  48.621 -26.504  1.00  0.00    -0.064 C 
HETATM   20  C13 UNL     1      -3.240  49.431 -27.364  1.00  0.00     0.048 C 
BRANCH  19  21
HETATM   21  C11 UNL     1      -3.816  48.393 -25.106  1.00  0.00     0.003 C 
HETATM   22  C10 UNL     1      -4.426  48.908 -24.023  1.00  0.00    -0.018 C 
BRANCH  22  23
HETATM   23  C9  UNL     1      -4.022  48.654 -22.584  1.00  0.00     0.050 C 
HETATM   24  C4  UNL     1      -2.512  48.294 -22.411  1.00  0.00     0.024 C 
HETATM   25  C5  UNL     1      -2.482  47.336 -21.213  1.00  0.00     0.013 C 
HETATM   26  C6  UNL     1      -3.744  46.507 -21.414  1.00  0.00     0.039 C 
HETATM   27  C7  UNL     1      -4.802  47.548 -21.798  1.00  0.00     0.062 C 
HETATM   28  C8  UNL     1      -6.006  46.904 -22.483  1.00  0.00     0.046 C 
BRANCH  24  29
HETATM   29  C2  UNL     1      -1.586  49.496 -22.297  1.00  0.00    -0.088 C 
HETATM   30  C1  UNL     1      -1.473  50.382 -23.305  1.00  0.00     0.014 C 
HETATM   31  C3  UNL     1      -0.804  49.687 -21.025  1.00  0.00     0.043 C 
ENDBRANCH  24  29
BRANCH  27  32
HETATM   32  O1  UNL     1      -5.286  48.129 -20.573  1.00  0.00    -0.390 OA
HETATM   33  H14 UNL     1      -5.973  48.778 -20.806  1.00  0.00     0.210 HD
ENDBRANCH  27  32
ENDBRANCH  22  23
ENDBRANCH  19  21
ENDBRANCH   1  18
BRANCH  15  34
HETATM   34  O4  UNL     1      -9.221  45.242 -29.593  1.00  0.00    -0.389 OA
HETATM   35  H44 UNL     1      -9.673  44.512 -29.133  1.00  0.00     0.210 HD
ENDBRANCH  15  34
BRANCH  11  36
HETATM   36  C26 UNL     1      -4.419  43.572 -32.496  1.00  0.00     0.265 C 
HETATM   37  O3  UNL     1      -4.678  42.837 -33.442  1.00  0.00    -0.302 OA
ENDBRANCH  11  36
TORSDOF 7
ENDMDL
MODEL 6
REMARK minimizedAffinity -8.74984741
REMARK  7 active torsions:
REMARK  status: ('A' for Active; 'I' for Inactive)
REMARK    1  A    between atoms: C2_2  and  C4_4 
REMARK    2  A    between atoms: C7_7  and  O1_9 
REMARK    3  A    between atoms: C9_10  and  C10_11 
REMARK    4  A    between atoms: C11_12  and  C12_13 
REMARK    5  A    between atoms: C14_15  and  C15_16 
REMARK    6  A    between atoms: C24_26  and  C26_28 
REMARK    7  A    between atoms: C29_32  and  O4_34 
ROOT
HETATM    1  C15 UNL     1      -4.453  48.276 -24.754  1.00  0.00     0.149 C 
HETATM    2  C16 UNL     1      -3.705  49.598 -24.943  1.00  0.00     0.054 C 
HETATM    3  C17 UNL     1      -3.243  50.045 -23.526  1.00  0.00     0.050 C 
HETATM    4  C18 UNL     1      -3.532  48.772 -22.708  1.00  0.00     0.272 C 
HETATM    5  O2  UNL     1      -2.416  47.886 -22.763  1.00  0.00    -0.360 OA
HETATM    6  C19 UNL     1      -1.522  48.012 -21.661  1.00  0.00     0.171 C 
HETATM    7  C20 UNL     1      -1.261  49.434 -21.175  1.00  0.00     0.027 C 
HETATM    8  C21 UNL     1      -0.923  50.458 -22.257  1.00  0.00     0.012 C 
HETATM    9  C22 UNL     1      -1.713  50.391 -23.588  1.00  0.00     0.032 C 
HETATM   10  C23 UNL     1      -1.465  51.677 -24.403  1.00  0.00    -0.066 C 
HETATM   11  C24 UNL     1      -0.635  51.719 -25.478  1.00  0.00    -0.021 C 
HETATM   12  C25 UNL     1       0.167  50.560 -26.021  1.00  0.00     0.052 C 
HETATM   13  C27 UNL     1      -2.283  52.851 -23.890  1.00  0.00     0.038 C 
HETATM   14  C28 UNL     1      -3.777  52.533 -23.818  1.00  0.00     0.042 C 
HETATM   15  C29 UNL     1      -4.084  51.260 -23.005  1.00  0.00     0.067 C 
HETATM   16  C30 UNL     1      -5.605  51.032 -22.981  1.00  0.00     0.047 C 
HETATM   17  O5  UNL     1      -4.649  48.142 -23.350  1.00  0.00    -0.351 OA
ENDROOT
BRANCH   1  18
HETATM   18  C14 UNL     1      -5.752  48.230 -25.519  1.00  0.00     0.011 C 
HETATM   19  C12 UNL     1      -6.940  47.691 -25.162  1.00  0.00    -0.064 C 
HETATM   20  C13 UNL     1      -7.158  46.934 -23.875  1.00  0.00     0.048 C 
BRANCH  19  21
HETATM   21  C11 UNL     1      -8.061  47.819 -26.091  1.00  0.00     0.003 C 
HETATM   22  C10 UNL     1      -8.005  47.746 -27.434  1.00  0.00    -0.018 C 
BRANCH  22  23
HETATM   23  C9  UNL     1      -9.189  47.888 -28.371  1.00  0.00     0.050 C 
HETATM   24  C4  UNL     1     -10.158  46.662 -28.346  1.00  0.00     0.024 C 
HETATM   25  C5  UNL     1     -10.708  46.580 -29.776  1.00  0.00     0.013 C 
HETATM   26  C6  UNL     1      -9.495  46.945 -30.624  1.00  0.00     0.039 C 
HETATM   27  C7  UNL     1      -8.886  48.143 -29.885  1.00  0.00     0.062 C 
HETATM   28  C8  UNL     1      -7.431  48.375 -30.290  1.00  0.00     0.046 C 
BRANCH  24  29
HETATM   29  C2  UNL     1     -11.215  46.716 -27.252  1.00  0.00    -0.088 C 
HETATM   30  C1  UNL     1     -11.261  45.781 -26.285  1.00  0.00     0.014 C 
HETATM   31  C3  UNL     1     -12.206  47.849 -27.262  1.00  0.00     0.043 C 
ENDBRANCH  24  29
BRANCH  27  32
HETATM   32  O1  UNL     1      -9.621  49.310 -30.296  1.00  0.00    -0.390 OA
HETATM   33  H14 UNL     1      -9.228  50.078 -29.847  1.00  0.00     0.210 HD
ENDBRANCH  27  32
ENDBRANCH  22  23
ENDBRANCH  19  21
ENDBRANCH   1  18
BRANCH  15  34
HETATM   34  O4  UNL     1      -3.701  51.529 -21.647  1.00  0.00    -0.389 OA
HETATM   35  H44 UNL     1      -4.246  52.264 -21.310  1.00  0.00     0.210 HD
ENDBRANCH  15  34
BRANCH  11  36
HETATM   36  C26 UNL     1      -0.412  52.974 -26.270  1.00  0.00     0.265 C 
HETATM   37  O3  UNL     1       0.559  53.700 -26.095  1.00  0.00    -0.302 OA
ENDBRANCH  11  36
TORSDOF 7
ENDMDL
MODEL 7
REMARK minimizedAffinity -8.70121574
REMARK  7 active torsions:
REMARK  status: ('A' for Active; 'I' for Inactive)
REMARK    1  A    between atoms: C2_2  and  C4_4 
REMARK    2  A    between atoms: C7_7  and  O1_9 
REMARK    3  A    between atoms: C9_10  and  C10_11 
REMARK    4  A    between atoms: C11_12  and  C12_13 
REMARK    5  A    between atoms: C14_15  and  C15_16 
REMARK    6  A    between atoms: C24_26  and  C26_28 
REMARK    7  A    between atoms: C29_32  and  O4_34 
ROOT
HETATM    1  C15 UNL     1      -6.174  48.117 -28.357  1.00  0.00     0.149 C 
HETATM    2  C16 UNL     1      -5.942  46.834 -29.159  1.00  0.00     0.054 C 
HETATM    3  C17 UNL     1      -7.289  46.514 -29.869  1.00  0.00     0.050 C 
HETATM    4  C18 UNL     1      -8.068  47.820 -29.623  1.00  0.00     0.272 C 
HETATM    5  O2  UNL     1      -7.782  48.766 -30.650  1.00  0.00    -0.360 OA
HETATM    6  C19 UNL     1      -8.730  48.771 -31.714  1.00  0.00     0.171 C 
HETATM    7  C20 UNL     1      -9.248  47.404 -32.150  1.00  0.00     0.027 C 
HETATM    8  C21 UNL     1      -8.186  46.331 -32.384  1.00  0.00     0.012 C 
HETATM    9  C22 UNL     1      -6.999  46.259 -31.391  1.00  0.00     0.032 C 
HETATM   10  C23 UNL     1      -6.231  44.937 -31.598  1.00  0.00    -0.066 C 
HETATM   11  C24 UNL     1      -5.039  44.873 -32.249  1.00  0.00    -0.021 C 
HETATM   12  C25 UNL     1      -4.307  46.039 -32.870  1.00  0.00     0.052 C 
HETATM   13  C27 UNL     1      -6.936  43.753 -30.958  1.00  0.00     0.038 C 
HETATM   14  C28 UNL     1      -7.231  43.983 -29.475  1.00  0.00     0.042 C 
HETATM   15  C29 UNL     1      -8.009  45.287 -29.210  1.00  0.00     0.067 C 
HETATM   16  C30 UNL     1      -8.266  45.423 -27.700  1.00  0.00     0.047 C 
HETATM   17  O5  UNL     1      -7.581  48.335 -28.377  1.00  0.00    -0.351 OA
ENDROOT
BRANCH   1  18
HETATM   18  C14 UNL     1      -5.629  48.031 -26.953  1.00  0.00     0.011 C 
HETATM   19  C12 UNL     1      -4.421  48.408 -26.477  1.00  0.00    -0.064 C 
HETATM   20  C13 UNL     1      -3.316  48.954 -27.347  1.00  0.00     0.048 C 
BRANCH  19  21
HETATM   21  C11 UNL     1      -4.162  48.243 -25.048  1.00  0.00     0.003 C 
HETATM   22  C10 UNL     1      -3.186  48.831 -24.333  1.00  0.00    -0.018 C 
BRANCH  22  23
HETATM   23  C9  UNL     1      -2.943  48.634 -22.849  1.00  0.00     0.050 C 
HETATM   24  C4  UNL     1      -4.251  48.638 -21.994  1.00  0.00     0.024 C 
HETATM   25  C5  UNL     1      -3.826  49.242 -20.649  1.00  0.00     0.013 C 
HETATM   26  C6  UNL     1      -2.838  50.325 -21.064  1.00  0.00     0.039 C 
HETATM   27  C7  UNL     1      -1.980  49.639 -22.134  1.00  0.00     0.062 C 
HETATM   28  C8  UNL     1      -1.242  50.656 -23.003  1.00  0.00     0.046 C 
BRANCH  24  29
HETATM   29  C2  UNL     1      -4.948  47.288 -21.902  1.00  0.00    -0.088 C 
HETATM   30  C1  UNL     1      -4.375  46.255 -21.256  1.00  0.00     0.014 C 
HETATM   31  C3  UNL     1      -6.303  47.131 -22.537  1.00  0.00     0.043 C 
ENDBRANCH  24  29
BRANCH  27  32
HETATM   32  O1  UNL     1      -0.973  48.878 -21.444  1.00  0.00    -0.390 OA
HETATM   33  H14 UNL     1      -0.412  48.454 -22.116  1.00  0.00     0.210 HD
ENDBRANCH  27  32
ENDBRANCH  22  23
ENDBRANCH  19  21
ENDBRANCH   1  18
BRANCH  15  34
HETATM   34  O4  UNL     1      -9.300  45.136 -29.821  1.00  0.00    -0.389 OA
HETATM   35  H44 UNL     1      -9.763  44.394 -29.391  1.00  0.00     0.210 HD
ENDBRANCH  15  34
BRANCH  11  36
HETATM   36  C26 UNL     1      -4.295  43.583 -32.433  1.00  0.00     0.265 C 
HETATM   37  O3  UNL     1      -4.522  42.819 -33.363  1.00  0.00    -0.302 OA
ENDBRANCH  11  36
TORSDOF 7
ENDMDL
MODEL 8
REMARK minimizedAffinity -8.68709087
REMARK  7 active torsions:
REMARK  status: ('A' for Active; 'I' for Inactive)
REMARK    1  A    between atoms: C2_2  and  C4_4 
REMARK    2  A    between atoms: C7_7  and  O1_9 
REMARK    3  A    between atoms: C9_10  and  C10_11 
REMARK    4  A    between atoms: C11_12  and  C12_13 
REMARK    5  A    between atoms: C14_15  and  C15_16 
REMARK    6  A    between atoms: C24_26  and  C26_28 
REMARK    7  A    between atoms: C29_32  and  O4_34 
ROOT
HETATM    1  C15 UNL     1      -4.015  48.305 -25.225  1.00  0.00     0.149 C 
HETATM    2  C16 UNL     1      -3.302  49.652 -25.356  1.00  0.00     0.054 C 
HETATM    3  C17 UNL     1      -3.077  50.171 -23.907  1.00  0.00     0.050 C 
HETATM    4  C18 UNL     1      -3.433  48.915 -23.088  1.00  0.00     0.272 C 
HETATM    5  O2  UNL     1      -2.286  48.082 -22.939  1.00  0.00    -0.360 OA
HETATM    6  C19 UNL     1      -1.573  48.288 -21.723  1.00  0.00     0.171 C 
HETATM    7  C20 UNL     1      -1.447  49.738 -21.263  1.00  0.00     0.027 C 
HETATM    8  C21 UNL     1      -0.993  50.737 -22.326  1.00  0.00     0.012 C 
HETATM    9  C22 UNL     1      -1.571  50.586 -23.755  1.00  0.00     0.032 C 
HETATM   10  C23 UNL     1      -1.257  51.853 -24.577  1.00  0.00    -0.066 C 
HETATM   11  C24 UNL     1      -0.277  51.895 -25.519  1.00  0.00    -0.021 C 
HETATM   12  C25 UNL     1       0.645  50.758 -25.887  1.00  0.00     0.052 C 
HETATM   13  C27 UNL     1      -2.190  53.004 -24.242  1.00  0.00     0.038 C 
HETATM   14  C28 UNL     1      -3.663  52.619 -24.379  1.00  0.00     0.042 C 
HETATM   15  C29 UNL     1      -4.036  51.363 -23.567  1.00  0.00     0.067 C 
HETATM   16  C30 UNL     1      -5.533  51.065 -23.761  1.00  0.00     0.047 C 
HETATM   17  O5  UNL     1      -4.414  48.211 -23.861  1.00  0.00    -0.351 OA
ENDROOT
BRANCH   1  18
HETATM   18  C14 UNL     1      -5.181  48.170 -26.172  1.00  0.00     0.011 C 
HETATM   19  C12 UNL     1      -6.453  47.788 -25.918  1.00  0.00    -0.064 C 
HETATM   20  C13 UNL     1      -6.932  47.336 -24.561  1.00  0.00     0.048 C 
BRANCH  19  21
HETATM   21  C11 UNL     1      -7.404  47.778 -27.029  1.00  0.00     0.003 C 
HETATM   22  C10 UNL     1      -7.709  46.732 -27.817  1.00  0.00    -0.018 C 
BRANCH  22  23
HETATM   23  C9  UNL     1      -8.698  46.757 -28.966  1.00  0.00     0.050 C 
HETATM   24  C4  UNL     1      -8.719  48.111 -29.746  1.00  0.00     0.024 C 
HETATM   25  C5  UNL     1     -10.172  48.260 -30.213  1.00  0.00     0.013 C 
HETATM   26  C6  UNL     1     -10.964  47.715 -29.031  1.00  0.00     0.039 C 
HETATM   27  C7  UNL     1     -10.196  46.448 -28.637  1.00  0.00     0.062 C 
HETATM   28  C8  UNL     1     -10.535  46.002 -27.215  1.00  0.00     0.046 C 
BRANCH  24  29
HETATM   29  C2  UNL     1      -7.674  48.221 -30.846  1.00  0.00    -0.088 C 
HETATM   30  C1  UNL     1      -8.024  48.146 -32.145  1.00  0.00     0.014 C 
HETATM   31  C3  UNL     1      -6.235  48.429 -30.457  1.00  0.00     0.043 C 
ENDBRANCH  24  29
BRANCH  27  32
HETATM   32  O1  UNL     1     -10.638  45.397 -29.516  1.00  0.00    -0.390 OA
HETATM   33  H14 UNL     1     -10.170  44.583 -29.260  1.00  0.00     0.210 HD
ENDBRANCH  27  32
ENDBRANCH  22  23
ENDBRANCH  19  21
ENDBRANCH   1  18
BRANCH  15  34
HETATM   34  O4  UNL     1      -3.873  51.698 -22.180  1.00  0.00    -0.389 OA
HETATM   35  H44 UNL     1      -4.492  52.417 -21.959  1.00  0.00     0.210 HD
ENDBRANCH  15  34
BRANCH  11  36
HETATM   36  C26 UNL     1       0.011  53.131 -26.320  1.00  0.00     0.265 C 
HETATM   37  O3  UNL     1      -0.807  53.624 -27.088  1.00  0.00    -0.302 OA
ENDBRANCH  11  36
TORSDOF 7
ENDMDL
MODEL 9
REMARK minimizedAffinity -8.58042812
REMARK  7 active torsions:
REMARK  status: ('A' for Active; 'I' for Inactive)
REMARK    1  A    between atoms: C2_2  and  C4_4 
REMARK    2  A    between atoms: C7_7  and  O1_9 
REMARK    3  A    between atoms: C9_10  and  C10_11 
REMARK    4  A    between atoms: C11_12  and  C12_13 
REMARK    5  A    between atoms: C14_15  and  C15_16 
REMARK    6  A    between atoms: C24_26  and  C26_28 
REMARK    7  A    between atoms: C29_32  and  O4_34 
ROOT
HETATM    1  C15 UNL     1      -5.559  48.296 -24.088  1.00  0.00     0.149 C 
HETATM    2  C16 UNL     1      -5.679  47.449 -22.818  1.00  0.00     0.054 C 
HETATM    3  C17 UNL     1      -7.156  47.573 -22.348  1.00  0.00     0.050 C 
HETATM    4  C18 UNL     1      -7.798  48.253 -23.573  1.00  0.00     0.272 C 
HETATM    5  O2  UNL     1      -8.211  47.272 -24.521  1.00  0.00    -0.360 OA
HETATM    6  C19 UNL     1      -9.580  46.895 -24.407  1.00  0.00     0.171 C 
HETATM    7  C20 UNL     1     -10.117  46.760 -22.986  1.00  0.00     0.027 C 
HETATM    8  C21 UNL     1      -9.255  45.945 -22.022  1.00  0.00     0.012 C 
HETATM    9  C22 UNL     1      -7.719  46.130 -22.092  1.00  0.00     0.032 C 
HETATM   10  C23 UNL     1      -7.063  45.489 -20.851  1.00  0.00    -0.066 C 
HETATM   11  C24 UNL     1      -6.418  44.293 -20.895  1.00  0.00    -0.021 C 
HETATM   12  C25 UNL     1      -6.260  43.418 -22.115  1.00  0.00     0.052 C 
HETATM   13  C27 UNL     1      -7.188  46.365 -19.615  1.00  0.00     0.038 C 
HETATM   14  C28 UNL     1      -6.649  47.777 -19.845  1.00  0.00     0.042 C 
HETATM   15  C29 UNL     1      -7.279  48.471 -21.069  1.00  0.00     0.067 C 
HETATM   16  C30 UNL     1      -6.684  49.882 -21.209  1.00  0.00     0.047 C 
HETATM   17  O5  UNL     1      -6.763  49.053 -24.161  1.00  0.00    -0.351 OA
ENDROOT
BRANCH   1  18
HETATM   18  C14 UNL     1      -4.333  49.173 -24.088  1.00  0.00     0.011 C 
HETATM   19  C12 UNL     1      -3.357  49.285 -25.018  1.00  0.00    -0.064 C 
HETATM   20  C13 UNL     1      -3.296  48.442 -26.267  1.00  0.00     0.048 C 
BRANCH  19  21
HETATM   21  C11 UNL     1      -2.286  50.251 -24.778  1.00  0.00     0.003 C 
HETATM   22  C10 UNL     1      -1.236  50.503 -25.580  1.00  0.00    -0.018 C 
BRANCH  22  23
HETATM   23  C9  UNL     1      -0.138  51.511 -25.299  1.00  0.00     0.050 C 
HETATM   24  C4  UNL     1      -0.564  52.641 -24.308  1.00  0.00     0.024 C 
HETATM   25  C5  UNL     1       0.227  53.872 -24.770  1.00  0.00     0.013 C 
HETATM   26  C6  UNL     1       0.201  53.739 -26.288  1.00  0.00     0.039 C 
HETATM   27  C7  UNL     1       0.493  52.253 -26.524  1.00  0.00     0.062 C 
HETATM   28  C8  UNL     1       0.064  51.809 -27.923  1.00  0.00     0.046 C 
BRANCH  24  29
HETATM   29  C2  UNL     1      -0.400  52.285 -22.838  1.00  0.00    -0.088 C 
HETATM   30  C1  UNL     1       0.813  52.299 -22.252  1.00  0.00     0.014 C 
HETATM   31  C3  UNL     1      -1.626  51.927 -22.042  1.00  0.00     0.043 C 
ENDBRANCH  24  29
BRANCH  27  32
HETATM   32  O1  UNL     1       1.921  52.088 -26.459  1.00  0.00    -0.390 OA
HETATM   33  H14 UNL     1       2.117  51.150 -26.627  1.00  0.00     0.210 HD
ENDBRANCH  27  32
ENDBRANCH  22  23
ENDBRANCH  19  21
ENDBRANCH   1  18
BRANCH  15  34
HETATM   34  O4  UNL     1      -8.672  48.655 -20.774  1.00  0.00    -0.389 OA
HETATM   35  H44 UNL     1      -8.752  49.239 -19.998  1.00  0.00     0.210 HD
ENDBRANCH  15  34
BRANCH  11  36
HETATM   36  C26 UNL     1      -5.774  43.686 -19.684  1.00  0.00     0.265 C 
HETATM   37  O3  UNL     1      -5.345  42.538 -19.670  1.00  0.00    -0.302 OA
ENDBRANCH  11  36
TORSDOF 7
ENDMDL
