MODEL 1
REMARK minimizedAffinity -6.15921211
REMARK CNNscore 0.580027759
REMARK CNNaffinity 6.19985771
REMARK  8 active torsions:
REMARK  status: ('A' for Active; 'I' for Inactive)
REMARK    1  A    between atoms: C4_4  and  C5_5 
REMARK    2  A    between atoms: C5_5  and  C6_6 
REMARK    3  A    between atoms: C6_6  and  C7_7 
REMARK    4  A    between atoms: C9_9  and  C10_10 
REMARK    5  A    between atoms: C11_11  and  C12_12 
REMARK    6  A    between atoms: C14_14  and  C15_15 
REMARK    7  A    between atoms: C24_25  and  C26_27 
REMARK    8  A    between atoms: C29_31  and  O3_33 
ROOT
HETATM    1  C15 UNL     1     -15.981   0.727  28.656  1.00  0.00     0.149 C 
HETATM    2  C16 UNL     1     -15.799   0.979  27.164  1.00  0.00     0.054 C 
HETATM    3  C17 UNL     1     -15.336   2.451  27.051  1.00  0.00     0.050 C 
HETATM    4  C18 UNL     1     -14.841   2.714  28.505  1.00  0.00     0.272 C 
HETATM    5  O1  UNL     1     -13.553   3.300  28.591  1.00  0.00    -0.360 OA
HETATM    6  C19 UNL     1     -12.474   2.382  28.624  1.00  0.00     0.171 C 
HETATM    7  C20 UNL     1     -12.459   1.420  27.450  1.00  0.00     0.027 C 
HETATM    8  C21 UNL     1     -12.815   2.093  26.132  1.00  0.00     0.012 C 
HETATM    9  C22 UNL     1     -14.262   2.625  25.910  1.00  0.00     0.032 C 
HETATM   10  C23 UNL     1     -14.199   4.055  25.302  1.00  0.00    -0.066 C 
HETATM   11  C24 UNL     1     -13.768   4.287  24.032  1.00  0.00    -0.021 C 
HETATM   12  C25 UNL     1     -13.340   3.230  23.043  1.00  0.00     0.052 C 
HETATM   13  C27 UNL     1     -14.683   5.122  26.260  1.00  0.00     0.038 C 
HETATM   14  C28 UNL     1     -16.116   4.878  26.744  1.00  0.00     0.042 C 
HETATM   15  C29 UNL     1     -16.557   3.397  26.723  1.00  0.00     0.067 C 
HETATM   16  C30 UNL     1     -17.262   3.090  25.380  1.00  0.00     0.047 C 
HETATM   17  O4  UNL     1     -14.952   1.503  29.259  1.00  0.00    -0.351 OA
ENDROOT
BRANCH   1  18
HETATM   18  C14 UNL     1     -15.870  -0.737  28.996  1.00  0.00     0.011 C 
HETATM   19  C12 UNL     1     -16.663  -1.512  29.769  1.00  0.00    -0.063 C 
HETATM   20  C13 UNL     1     -17.949  -1.033  30.394  1.00  0.00     0.048 C 
BRANCH  19  21
HETATM   21  C11 UNL     1     -16.272  -2.908  29.985  1.00  0.00     0.006 C 
HETATM   22  C10 UNL     1     -15.724  -3.738  29.080  1.00  0.00     0.001 C 
BRANCH  22  23
HETATM   23  C9  UNL     1     -15.381  -5.111  29.393  1.00  0.00     0.002 C 
HETATM   24  C7  UNL     1     -14.152  -5.612  29.637  1.00  0.00    -0.084 C 
HETATM   25  C8  UNL     1     -12.864  -4.831  29.622  1.00  0.00     0.043 C 
BRANCH  24  26
HETATM   26  C6  UNL     1     -13.993  -7.097  29.927  1.00  0.00     0.037 C 
BRANCH  26  27
HETATM   27  C5  UNL     1     -12.584  -7.615  29.619  1.00  0.00     0.031 C 
BRANCH  27  28
HETATM   28  C4  UNL     1     -12.623  -8.992  29.012  1.00  0.00    -0.024 C 
HETATM   29  C2  UNL     1     -13.196  -9.359  27.848  1.00  0.00    -0.091 C 
HETATM   30  C1  UNL     1     -13.871  -8.420  26.887  1.00  0.00     0.042 C 
HETATM   31  C3  UNL     1     -13.188 -10.801  27.408  1.00  0.00     0.042 C 
ENDBRANCH  27  28
ENDBRANCH  26  27
ENDBRANCH  24  26
ENDBRANCH  22  23
ENDBRANCH  19  21
ENDBRANCH   1  18
BRANCH  15  32
HETATM   32  O3  UNL     1     -17.572   3.229  27.725  1.00  0.00    -0.389 OA
HETATM   33  H44 UNL     1     -18.315   3.822  27.513  1.00  0.00     0.210 HD
ENDBRANCH  15  32
BRANCH  11  34
HETATM   34  C26 UNL     1     -13.659   5.669  23.452  1.00  0.00     0.265 C 
HETATM   35  O2  UNL     1     -12.677   6.384  23.625  1.00  0.00    -0.302 OA
ENDBRANCH  11  34
TORSDOF 8
ENDMDL
MODEL 2
REMARK minimizedAffinity -6.08333683
REMARK CNNscore 0.551268637
REMARK CNNaffinity 6.1492157
REMARK  8 active torsions:
REMARK  status: ('A' for Active; 'I' for Inactive)
REMARK    1  A    between atoms: C4_4  and  C5_5 
REMARK    2  A    between atoms: C5_5  and  C6_6 
REMARK    3  A    between atoms: C6_6  and  C7_7 
REMARK    4  A    between atoms: C9_9  and  C10_10 
REMARK    5  A    between atoms: C11_11  and  C12_12 
REMARK    6  A    between atoms: C14_14  and  C15_15 
REMARK    7  A    between atoms: C24_25  and  C26_27 
REMARK    8  A    between atoms: C29_31  and  O3_33 
ROOT
HETATM    1  C15 UNL     1     -11.522  12.114  21.756  1.00  0.00     0.149 C 
HETATM    2  C16 UNL     1     -10.207  11.959  20.999  1.00  0.00     0.054 C 
HETATM    3  C17 UNL     1      -9.614  13.386  20.913  1.00  0.00     0.050 C 
HETATM    4  C18 UNL     1     -10.410  14.102  22.046  1.00  0.00     0.272 C 
HETATM    5  O1  UNL     1      -9.608  14.839  22.953  1.00  0.00    -0.360 OA
HETATM    6  C19 UNL     1      -9.120  14.103  24.062  1.00  0.00     0.171 C 
HETATM    7  C20 UNL     1      -8.342  12.860  23.671  1.00  0.00     0.027 C 
HETATM    8  C21 UNL     1      -7.425  13.090  22.478  1.00  0.00     0.012 C 
HETATM    9  C22 UNL     1      -8.046  13.361  21.076  1.00  0.00     0.032 C 
HETATM   10  C23 UNL     1      -7.314  14.561  20.410  1.00  0.00    -0.066 C 
HETATM   11  C24 UNL     1      -6.026  14.479  19.979  1.00  0.00    -0.021 C 
HETATM   12  C25 UNL     1      -5.155  13.247  20.042  1.00  0.00     0.052 C 
HETATM   13  C27 UNL     1      -8.192  15.787  20.283  1.00  0.00     0.038 C 
HETATM   14  C28 UNL     1      -9.475  15.518  19.490  1.00  0.00     0.042 C 
HETATM   15  C29 UNL     1      -9.952  14.048  19.521  1.00  0.00     0.067 C 
HETATM   16  C30 UNL     1      -9.377  13.297  18.298  1.00  0.00     0.047 C 
HETATM   17  O4  UNL     1     -11.251  13.146  22.698  1.00  0.00    -0.351 OA
ENDROOT
BRANCH   1  18
HETATM   18  C14 UNL     1     -11.944  10.828  22.418  1.00  0.00     0.011 C 
HETATM   19  C12 UNL     1     -12.359   9.664  21.870  1.00  0.00    -0.063 C 
HETATM   20  C13 UNL     1     -12.380   9.398  20.386  1.00  0.00     0.048 C 
BRANCH  19  21
HETATM   21  C11 UNL     1     -12.780   8.585  22.768  1.00  0.00     0.006 C 
HETATM   22  C10 UNL     1     -13.362   7.427  22.414  1.00  0.00     0.001 C 
BRANCH  22  23
HETATM   23  C9  UNL     1     -13.750   6.424  23.385  1.00  0.00     0.002 C 
HETATM   24  C7  UNL     1     -14.148   5.158  23.140  1.00  0.00    -0.084 C 
HETATM   25  C8  UNL     1     -14.283   4.525  21.780  1.00  0.00     0.043 C 
BRANCH  24  26
HETATM   26  C6  UNL     1     -14.539   4.258  24.302  1.00  0.00     0.037 C 
BRANCH  26  27
HETATM   27  C5  UNL     1     -13.772   2.930  24.310  1.00  0.00     0.031 C 
BRANCH  27  28
HETATM   28  C4  UNL     1     -13.304   2.572  25.696  1.00  0.00    -0.024 C 
HETATM   29  C2  UNL     1     -12.255   1.794  26.032  1.00  0.00    -0.091 C 
HETATM   30  C1  UNL     1     -11.296   1.173  25.054  1.00  0.00     0.042 C 
HETATM   31  C3  UNL     1     -11.954   1.493  27.477  1.00  0.00     0.042 C 
ENDBRANCH  27  28
ENDBRANCH  26  27
ENDBRANCH  24  26
ENDBRANCH  22  23
ENDBRANCH  19  21
ENDBRANCH   1  18
BRANCH  15  32
HETATM   32  O3  UNL     1     -11.375  14.047  19.326  1.00  0.00    -0.389 OA
HETATM   33  H44 UNL     1     -11.569  14.464  18.467  1.00  0.00     0.210 HD
ENDBRANCH  15  32
BRANCH  11  34
HETATM   34  C26 UNL     1      -5.295  15.646  19.378  1.00  0.00     0.265 C 
HETATM   35  O2  UNL     1      -5.493  16.033  18.231  1.00  0.00    -0.302 OA
ENDBRANCH  11  34
TORSDOF 8
ENDMDL
MODEL 3
REMARK minimizedAffinity -7.64222622
REMARK CNNscore 0.524082601
REMARK CNNaffinity 6.40742683
REMARK  8 active torsions:
REMARK  status: ('A' for Active; 'I' for Inactive)
REMARK    1  A    between atoms: C4_4  and  C5_5 
REMARK    2  A    between atoms: C5_5  and  C6_6 
REMARK    3  A    between atoms: C6_6  and  C7_7 
REMARK    4  A    between atoms: C9_9  and  C10_10 
REMARK    5  A    between atoms: C11_11  and  C12_12 
REMARK    6  A    between atoms: C14_14  and  C15_15 
REMARK    7  A    between atoms: C24_25  and  C26_27 
REMARK    8  A    between atoms: C29_31  and  O3_33 
ROOT
HETATM    1  C15 UNL     1       2.065   8.494  13.825  1.00  0.00     0.149 C 
HETATM    2  C16 UNL     1       2.059   8.858  12.344  1.00  0.00     0.054 C 
HETATM    3  C17 UNL     1       2.430   7.553  11.600  1.00  0.00     0.050 C 
HETATM    4  C18 UNL     1       2.124   6.493  12.700  1.00  0.00     0.272 C 
HETATM    5  O1  UNL     1       1.327   5.405  12.263  1.00  0.00    -0.360 OA
HETATM    6  C19 UNL     1      -0.073   5.601  12.374  1.00  0.00     0.171 C 
HETATM    7  C20 UNL     1      -0.569   6.846  11.661  1.00  0.00     0.027 C 
HETATM    8  C21 UNL     1       0.101   7.059  10.311  1.00  0.00     0.012 C 
HETATM    9  C22 UNL     1       1.617   7.414  10.256  1.00  0.00     0.032 C 
HETATM   10  C23 UNL     1       2.313   6.541   9.174  1.00  0.00    -0.066 C 
HETATM   11  C24 UNL     1       2.081   6.710   7.844  1.00  0.00    -0.021 C 
HETATM   12  C25 UNL     1       1.179   7.756   7.235  1.00  0.00     0.052 C 
HETATM   13  C27 UNL     1       3.268   5.526   9.764  1.00  0.00     0.038 C 
HETATM   14  C28 UNL     1       4.360   6.169  10.625  1.00  0.00     0.042 C 
HETATM   15  C29 UNL     1       3.968   7.529  11.247  1.00  0.00     0.067 C 
HETATM   16  C30 UNL     1       4.429   8.672  10.312  1.00  0.00     0.047 C 
HETATM   17  O4  UNL     1       1.581   7.156  13.846  1.00  0.00    -0.351 OA
ENDROOT
BRANCH   1  18
HETATM   18  C14 UNL     1       1.206   9.428  14.637  1.00  0.00     0.011 C 
HETATM   19  C12 UNL     1       0.075   9.183  15.336  1.00  0.00    -0.063 C 
HETATM   20  C13 UNL     1      -0.514   7.806  15.518  1.00  0.00     0.048 C 
BRANCH  19  21
HETATM   21  C11 UNL     1      -0.599  10.311  15.984  1.00  0.00     0.006 C 
HETATM   22  C10 UNL     1      -0.752  10.504  17.306  1.00  0.00     0.001 C 
BRANCH  22  23
HETATM   23  C9  UNL     1      -1.447  11.654  17.847  1.00  0.00     0.002 C 
HETATM   24  C7  UNL     1      -2.606  11.659  18.538  1.00  0.00    -0.084 C 
HETATM   25  C8  UNL     1      -3.433  10.447  18.881  1.00  0.00     0.043 C 
BRANCH  24  26
HETATM   26  C6  UNL     1      -3.193  12.982  19.007  1.00  0.00     0.037 C 
BRANCH  26  27
HETATM   27  C5  UNL     1      -4.674  12.875  19.385  1.00  0.00     0.031 C 
BRANCH  27  28
HETATM   28  C4  UNL     1      -5.150  14.109  20.106  1.00  0.00    -0.024 C 
HETATM   29  C2  UNL     1      -5.668  14.184  21.349  1.00  0.00    -0.091 C 
HETATM   30  C1  UNL     1      -5.814  13.022  22.292  1.00  0.00     0.042 C 
HETATM   31  C3  UNL     1      -6.145  15.501  21.904  1.00  0.00     0.042 C 
ENDBRANCH  27  28
ENDBRANCH  26  27
ENDBRANCH  24  26
ENDBRANCH  22  23
ENDBRANCH  19  21
ENDBRANCH   1  18
BRANCH  15  32
HETATM   32  O3  UNL     1       4.736   7.697  12.449  1.00  0.00    -0.389 OA
HETATM   33  H44 UNL     1       5.681   7.673  12.217  1.00  0.00     0.210 HD
ENDBRANCH  15  32
BRANCH  11  34
HETATM   34  C26 UNL     1       2.712   5.840   6.793  1.00  0.00     0.265 C 
HETATM   35  O2  UNL     1       3.046   4.679   7.007  1.00  0.00    -0.302 OA
ENDBRANCH  11  34
TORSDOF 8
ENDMDL
MODEL 4
REMARK minimizedAffinity -8.12915039
REMARK CNNscore 0.474226326
REMARK CNNaffinity 6.39372301
REMARK  8 active torsions:
REMARK  status: ('A' for Active; 'I' for Inactive)
REMARK    1  A    between atoms: C4_4  and  C5_5 
REMARK    2  A    between atoms: C5_5  and  C6_6 
REMARK    3  A    between atoms: C6_6  and  C7_7 
REMARK    4  A    between atoms: C9_9  and  C10_10 
REMARK    5  A    between atoms: C11_11  and  C12_12 
REMARK    6  A    between atoms: C14_14  and  C15_15 
REMARK    7  A    between atoms: C24_25  and  C26_27 
REMARK    8  A    between atoms: C29_31  and  O3_33 
ROOT
HETATM    1  C15 UNL     1      -2.171   9.360  16.314  1.00  0.00     0.149 C 
HETATM    2  C16 UNL     1      -2.352   7.864  16.083  1.00  0.00     0.054 C 
HETATM    3  C17 UNL     1      -3.298   7.750  14.863  1.00  0.00     0.050 C 
HETATM    4  C18 UNL     1      -3.152   9.173  14.247  1.00  0.00     0.272 C 
HETATM    5  O1  UNL     1      -2.889   9.187  12.853  1.00  0.00    -0.360 OA
HETATM    6  C19 UNL     1      -1.518   9.132  12.498  1.00  0.00     0.171 C 
HETATM    7  C20 UNL     1      -0.786   7.941  13.088  1.00  0.00     0.027 C 
HETATM    8  C21 UNL     1      -1.610   6.662  13.048  1.00  0.00     0.012 C 
HETATM    9  C22 UNL     1      -2.886   6.545  13.934  1.00  0.00     0.032 C 
HETATM   10  C23 UNL     1      -4.052   5.962  13.086  1.00  0.00    -0.066 C 
HETATM   11  C24 UNL     1      -4.063   4.672  12.654  1.00  0.00    -0.021 C 
HETATM   12  C25 UNL     1      -3.006   3.636  12.953  1.00  0.00     0.052 C 
HETATM   13  C27 UNL     1      -5.151   6.970  12.828  1.00  0.00     0.038 C 
HETATM   14  C28 UNL     1      -5.746   7.542  14.119  1.00  0.00     0.042 C 
HETATM   15  C29 UNL     1      -4.788   7.521  15.332  1.00  0.00     0.067 C 
HETATM   16  C30 UNL     1      -5.013   6.221  16.140  1.00  0.00     0.047 C 
HETATM   17  O4  UNL     1      -2.184   9.909  15.001  1.00  0.00    -0.351 OA
ENDROOT
BRANCH   1  18
HETATM   18  C14 UNL     1      -0.891   9.664  17.050  1.00  0.00     0.011 C 
HETATM   19  C12 UNL     1      -0.609  10.648  17.932  1.00  0.00    -0.063 C 
HETATM   20  C13 UNL     1      -1.632  11.631  18.445  1.00  0.00     0.048 C 
BRANCH  19  21
HETATM   21  C11 UNL     1       0.759  10.748  18.448  1.00  0.00     0.006 C 
HETATM   22  C10 UNL     1       1.140  10.676  19.735  1.00  0.00     0.001 C 
BRANCH  22  23
HETATM   23  C9  UNL     1       2.525  10.796  20.143  1.00  0.00     0.002 C 
HETATM   24  C7  UNL     1       3.125  10.190  21.188  1.00  0.00    -0.084 C 
HETATM   25  C8  UNL     1       2.460   9.258  22.167  1.00  0.00     0.043 C 
BRANCH  24  26
HETATM   26  C6  UNL     1       4.595  10.463  21.469  1.00  0.00     0.037 C 
BRANCH  26  27
HETATM   27  C5  UNL     1       4.849  10.936  22.905  1.00  0.00     0.031 C 
BRANCH  27  28
HETATM   28  C4  UNL     1       5.262  12.383  22.944  1.00  0.00    -0.024 C 
HETATM   29  C2  UNL     1       6.513  12.877  23.039  1.00  0.00    -0.091 C 
HETATM   30  C1  UNL     1       7.766  12.047  23.065  1.00  0.00     0.042 C 
HETATM   31  C3  UNL     1       6.749  14.364  23.119  1.00  0.00     0.042 C 
ENDBRANCH  27  28
ENDBRANCH  26  27
ENDBRANCH  24  26
ENDBRANCH  22  23
ENDBRANCH  19  21
ENDBRANCH   1  18
BRANCH  15  32
HETATM   32  O3  UNL     1      -5.179   8.583  16.215  1.00  0.00    -0.389 OA
HETATM   33  H44 UNL     1      -6.101   8.432  16.490  1.00  0.00     0.210 HD
ENDBRANCH  15  32
BRANCH  11  34
HETATM   34  C26 UNL     1      -5.161   4.113  11.795  1.00  0.00     0.265 C 
HETATM   35  O2  UNL     1      -5.658   3.008  11.989  1.00  0.00    -0.302 OA
ENDBRANCH  11  34
TORSDOF 8
ENDMDL
MODEL 5
REMARK minimizedAffinity -6.42106199
REMARK CNNscore 0.409642696
REMARK CNNaffinity 6.19047403
REMARK  8 active torsions:
REMARK  status: ('A' for Active; 'I' for Inactive)
REMARK    1  A    between atoms: C4_4  and  C5_5 
REMARK    2  A    between atoms: C5_5  and  C6_6 
REMARK    3  A    between atoms: C6_6  and  C7_7 
REMARK    4  A    between atoms: C9_9  and  C10_10 
REMARK    5  A    between atoms: C11_11  and  C12_12 
REMARK    6  A    between atoms: C14_14  and  C15_15 
REMARK    7  A    between atoms: C24_25  and  C26_27 
REMARK    8  A    between atoms: C29_31  and  O3_33 
ROOT
HETATM    1  C15 UNL     1     -13.472  13.285   0.899  1.00  0.00     0.149 C 
HETATM    2  C16 UNL     1     -12.869  12.299  -0.095  1.00  0.00     0.054 C 
HETATM    3  C17 UNL     1     -13.986  12.029  -1.132  1.00  0.00     0.050 C 
HETATM    4  C18 UNL     1     -14.915  13.255  -0.886  1.00  0.00     0.272 C 
HETATM    5  O1  UNL     1     -15.291  13.954  -2.062  1.00  0.00    -0.360 OA
HETATM    6  C19 UNL     1     -14.403  14.984  -2.460  1.00  0.00     0.171 C 
HETATM    7  C20 UNL     1     -12.972  14.514  -2.647  1.00  0.00     0.027 C 
HETATM    8  C21 UNL     1     -12.882  13.157  -3.331  1.00  0.00     0.012 C 
HETATM    9  C22 UNL     1     -13.392  11.888  -2.585  1.00  0.00     0.032 C 
HETATM   10  C23 UNL     1     -14.260  11.035  -3.553  1.00  0.00    -0.066 C 
HETATM   11  C24 UNL     1     -13.727  10.369  -4.613  1.00  0.00    -0.021 C 
HETATM   12  C25 UNL     1     -12.263  10.325  -4.977  1.00  0.00     0.052 C 
HETATM   13  C27 UNL     1     -15.723  11.018  -3.167  1.00  0.00     0.038 C 
HETATM   14  C28 UNL     1     -15.956  10.500  -1.744  1.00  0.00     0.042 C 
HETATM   15  C29 UNL     1     -14.758  10.696  -0.786  1.00  0.00     0.067 C 
HETATM   16  C30 UNL     1     -13.878   9.424  -0.800  1.00  0.00     0.047 C 
HETATM   17  O4  UNL     1     -14.314  14.104   0.096  1.00  0.00    -0.351 OA
ENDROOT
BRANCH   1  18
HETATM   18  C14 UNL     1     -12.411  14.079   1.616  1.00  0.00     0.011 C 
HETATM   19  C12 UNL     1     -11.279  14.643   1.141  1.00  0.00    -0.063 C 
HETATM   20  C13 UNL     1     -10.900  14.659  -0.318  1.00  0.00     0.048 C 
BRANCH  19  21
HETATM   21  C11 UNL     1     -10.383  15.308   2.092  1.00  0.00     0.006 C 
HETATM   22  C10 UNL     1     -10.745  16.035   3.163  1.00  0.00     0.001 C 
BRANCH  22  23
HETATM   23  C9  UNL     1      -9.776  16.662   4.039  1.00  0.00     0.002 C 
HETATM   24  C7  UNL     1      -9.161  16.112   5.107  1.00  0.00    -0.084 C 
HETATM   25  C8  UNL     1      -9.372  14.711   5.619  1.00  0.00     0.043 C 
BRANCH  24  26
HETATM   26  C6  UNL     1      -8.184  16.947   5.921  1.00  0.00     0.037 C 
BRANCH  26  27
HETATM   27  C5  UNL     1      -8.857  17.687   7.082  1.00  0.00     0.031 C 
BRANCH  27  28
HETATM   28  C4  UNL     1      -7.862  18.062   8.148  1.00  0.00    -0.024 C 
HETATM   29  C2  UNL     1      -6.533  18.234   8.005  1.00  0.00    -0.091 C 
HETATM   30  C1  UNL     1      -5.787  18.137   6.703  1.00  0.00     0.042 C 
HETATM   31  C3  UNL     1      -5.668  18.561   9.195  1.00  0.00     0.042 C 
ENDBRANCH  27  28
ENDBRANCH  26  27
ENDBRANCH  24  26
ENDBRANCH  22  23
ENDBRANCH  19  21
ENDBRANCH   1  18
BRANCH  15  32
HETATM   32  O3  UNL     1     -15.277  10.777   0.550  1.00  0.00    -0.389 OA
HETATM   33  H44 UNL     1     -15.755   9.952   0.747  1.00  0.00     0.210 HD
ENDBRANCH  15  32
BRANCH  11  34
HETATM   34  C26 UNL     1     -14.564   9.582  -5.581  1.00  0.00     0.265 C 
HETATM   35  O2  UNL     1     -14.228   9.390  -6.745  1.00  0.00    -0.302 OA
ENDBRANCH  11  34
TORSDOF 8
ENDMDL
MODEL 6
REMARK minimizedAffinity -6.2389946
REMARK CNNscore 0.401593983
REMARK CNNaffinity 6.21156549
REMARK  8 active torsions:
REMARK  status: ('A' for Active; 'I' for Inactive)
REMARK    1  A    between atoms: C4_4  and  C5_5 
REMARK    2  A    between atoms: C5_5  and  C6_6 
REMARK    3  A    between atoms: C6_6  and  C7_7 
REMARK    4  A    between atoms: C9_9  and  C10_10 
REMARK    5  A    between atoms: C11_11  and  C12_12 
REMARK    6  A    between atoms: C14_14  and  C15_15 
REMARK    7  A    between atoms: C24_25  and  C26_27 
REMARK    8  A    between atoms: C29_31  and  O3_33 
ROOT
HETATM    1  C15 UNL     1     -13.422   8.092  15.157  1.00  0.00     0.149 C 
HETATM    2  C16 UNL     1     -14.332   6.873  15.253  1.00  0.00     0.054 C 
HETATM    3  C17 UNL     1     -15.772   7.427  15.128  1.00  0.00     0.050 C 
HETATM    4  C18 UNL     1     -15.494   8.821  14.490  1.00  0.00     0.272 C 
HETATM    5  O1  UNL     1     -16.289   9.117  13.353  1.00  0.00    -0.360 OA
HETATM    6  C19 UNL     1     -15.751   8.687  12.114  1.00  0.00     0.171 C 
HETATM    7  C20 UNL     1     -15.431   7.204  12.073  1.00  0.00     0.027 C 
HETATM    8  C21 UNL     1     -16.494   6.352  12.750  1.00  0.00     0.012 C 
HETATM    9  C22 UNL     1     -16.687   6.451  14.293  1.00  0.00     0.032 C 
HETATM   10  C23 UNL     1     -18.204   6.560  14.618  1.00  0.00    -0.066 C 
HETATM   11  C24 UNL     1     -19.062   5.520  14.437  1.00  0.00    -0.021 C 
HETATM   12  C25 UNL     1     -18.685   4.143  13.949  1.00  0.00     0.052 C 
HETATM   13  C27 UNL     1     -18.590   7.916  15.167  1.00  0.00     0.038 C 
HETATM   14  C28 UNL     1     -17.809   8.289  16.431  1.00  0.00     0.042 C 
HETATM   15  C29 UNL     1     -16.425   7.612  16.553  1.00  0.00     0.067 C 
HETATM   16  C30 UNL     1     -16.564   6.305  17.368  1.00  0.00     0.047 C 
HETATM   17  O4  UNL     1     -14.092   8.944  14.234  1.00  0.00    -0.351 OA
ENDROOT
BRANCH   1  18
HETATM   18  C14 UNL     1     -12.036   7.723  14.696  1.00  0.00     0.011 C 
HETATM   19  C12 UNL     1     -10.835   8.219  15.069  1.00  0.00    -0.063 C 
HETATM   20  C13 UNL     1     -10.655   9.238  16.166  1.00  0.00     0.048 C 
BRANCH  19  21
HETATM   21  C11 UNL     1      -9.635   7.715  14.395  1.00  0.00     0.006 C 
HETATM   22  C10 UNL     1      -9.235   6.434  14.320  1.00  0.00     0.001 C 
BRANCH  22  23
HETATM   23  C9  UNL     1      -8.021   6.039  13.634  1.00  0.00     0.002 C 
HETATM   24  C7  UNL     1      -6.795   5.872  14.171  1.00  0.00    -0.084 C 
HETATM   25  C8  UNL     1      -6.431   6.080  15.619  1.00  0.00     0.043 C 
BRANCH  24  26
HETATM   26  C6  UNL     1      -5.632   5.472  13.275  1.00  0.00     0.037 C 
BRANCH  26  27
HETATM   27  C5  UNL     1      -5.613   3.973  12.960  1.00  0.00     0.031 C 
BRANCH  27  28
HETATM   28  C4  UNL     1      -4.720   3.667  11.786  1.00  0.00    -0.024 C 
HETATM   29  C2  UNL     1      -3.406   3.938  11.664  1.00  0.00    -0.091 C 
HETATM   30  C1  UNL     1      -2.552   4.561  12.733  1.00  0.00     0.042 C 
HETATM   31  C3  UNL     1      -2.668   3.609  10.391  1.00  0.00     0.042 C 
ENDBRANCH  27  28
ENDBRANCH  26  27
ENDBRANCH  24  26
ENDBRANCH  22  23
ENDBRANCH  19  21
ENDBRANCH   1  18
BRANCH  15  32
HETATM   32  O3  UNL     1     -15.591   8.465  17.353  1.00  0.00    -0.389 OA
HETATM   33  H44 UNL     1     -16.008   8.575  18.225  1.00  0.00     0.210 HD
ENDBRANCH  15  32
BRANCH  11  34
HETATM   34  C26 UNL     1     -20.537   5.630  14.703  1.00  0.00     0.265 C 
HETATM   35  O2  UNL     1     -21.336   6.026  13.859  1.00  0.00    -0.302 OA
ENDBRANCH  11  34
TORSDOF 8
ENDMDL
MODEL 7
REMARK minimizedAffinity -6.56738329
REMARK CNNscore 0.400504798
REMARK CNNaffinity 6.16717148
REMARK  8 active torsions:
REMARK  status: ('A' for Active; 'I' for Inactive)
REMARK    1  A    between atoms: C4_4  and  C5_5 
REMARK    2  A    between atoms: C5_5  and  C6_6 
REMARK    3  A    between atoms: C6_6  and  C7_7 
REMARK    4  A    between atoms: C9_9  and  C10_10 
REMARK    5  A    between atoms: C11_11  and  C12_12 
REMARK    6  A    between atoms: C14_14  and  C15_15 
REMARK    7  A    between atoms: C24_25  and  C26_27 
REMARK    8  A    between atoms: C29_31  and  O3_33 
ROOT
HETATM    1  C15 UNL     1      14.424  -7.132   1.922  1.00  0.00     0.149 C 
HETATM    2  C16 UNL     1      13.323  -7.322   2.959  1.00  0.00     0.054 C 
HETATM    3  C17 UNL     1      13.849  -6.638   4.243  1.00  0.00     0.050 C 
HETATM    4  C18 UNL     1      14.963  -5.723   3.652  1.00  0.00     0.272 C 
HETATM    5  O1  UNL     1      14.907  -4.374   4.085  1.00  0.00    -0.360 OA
HETATM    6  C19 UNL     1      14.095  -3.521   3.297  1.00  0.00     0.171 C 
HETATM    7  C20 UNL     1      12.666  -4.011   3.148  1.00  0.00     0.027 C 
HETATM    8  C21 UNL     1      12.100  -4.581   4.441  1.00  0.00     0.012 C 
HETATM    9  C22 UNL     1      12.685  -5.905   5.015  1.00  0.00     0.032 C 
HETATM   10  C23 UNL     1      12.933  -5.742   6.542  1.00  0.00    -0.066 C 
HETATM   11  C24 UNL     1      11.913  -5.640   7.437  1.00  0.00    -0.021 C 
HETATM   12  C25 UNL     1      10.442  -5.707   7.105  1.00  0.00     0.052 C 
HETATM   13  C27 UNL     1      14.403  -5.734   6.900  1.00  0.00     0.038 C 
HETATM   14  C28 UNL     1      15.133  -6.999   6.437  1.00  0.00     0.042 C 
HETATM   15  C29 UNL     1      14.491  -7.700   5.219  1.00  0.00     0.067 C 
HETATM   16  C30 UNL     1      13.511  -8.791   5.713  1.00  0.00     0.047 C 
HETATM   17  O4  UNL     1      14.960  -5.850   2.227  1.00  0.00    -0.351 OA
ENDROOT
BRANCH   1  18
HETATM   18  C14 UNL     1      13.891  -7.211   0.514  1.00  0.00     0.011 C 
HETATM   19  C12 UNL     1      13.486  -6.227  -0.318  1.00  0.00    -0.063 C 
HETATM   20  C13 UNL     1      13.598  -4.758   0.006  1.00  0.00     0.048 C 
BRANCH  19  21
HETATM   21  C11 UNL     1      12.939  -6.603  -1.625  1.00  0.00     0.006 C 
HETATM   22  C10 UNL     1      12.042  -7.572  -1.871  1.00  0.00     0.001 C 
BRANCH  22  23
HETATM   23  C9  UNL     1      11.570  -7.872  -3.208  1.00  0.00     0.002 C 
HETATM   24  C7  UNL     1      10.467  -7.388  -3.815  1.00  0.00    -0.084 C 
HETATM   25  C8  UNL     1       9.478  -6.427  -3.208  1.00  0.00     0.043 C 
BRANCH  24  26
HETATM   26  C6  UNL     1      10.126  -7.844  -5.225  1.00  0.00     0.037 C 
BRANCH  26  27
HETATM   27  C5  UNL     1      11.050  -7.236  -6.287  1.00  0.00     0.031 C 
BRANCH  27  28
HETATM   28  C4  UNL     1      10.282  -6.826  -7.516  1.00  0.00    -0.024 C 
HETATM   29  C2  UNL     1      10.309  -5.630  -8.138  1.00  0.00    -0.091 C 
HETATM   30  C1  UNL     1      11.182  -4.472  -7.741  1.00  0.00     0.042 C 
HETATM   31  C3  UNL     1       9.434  -5.368  -9.337  1.00  0.00     0.042 C 
ENDBRANCH  27  28
ENDBRANCH  26  27
ENDBRANCH  24  26
ENDBRANCH  22  23
ENDBRANCH  19  21
ENDBRANCH   1  18
BRANCH  15  32
HETATM   32  O3  UNL     1      15.528  -8.415   4.529  1.00  0.00    -0.389 OA
HETATM   33  H44 UNL     1      15.919  -9.061   5.144  1.00  0.00     0.210 HD
ENDBRANCH  15  32
BRANCH  11  34
HETATM   34  C26 UNL     1      12.142  -5.434   8.908  1.00  0.00     0.265 C 
HETATM   35  O2  UNL     1      11.638  -6.154   9.764  1.00  0.00    -0.302 OA
ENDBRANCH  11  34
TORSDOF 8
ENDMDL
MODEL 8
REMARK minimizedAffinity -7.49087286
REMARK CNNscore 0.392302662
REMARK CNNaffinity 5.94739676
REMARK  8 active torsions:
REMARK  status: ('A' for Active; 'I' for Inactive)
REMARK    1  A    between atoms: C4_4  and  C5_5 
REMARK    2  A    between atoms: C5_5  and  C6_6 
REMARK    3  A    between atoms: C6_6  and  C7_7 
REMARK    4  A    between atoms: C9_9  and  C10_10 
REMARK    5  A    between atoms: C11_11  and  C12_12 
REMARK    6  A    between atoms: C14_14  and  C15_15 
REMARK    7  A    between atoms: C24_25  and  C26_27 
REMARK    8  A    between atoms: C29_31  and  O3_33 
ROOT
HETATM    1  C15 UNL     1       0.454   8.678  15.398  1.00  0.00     0.149 C 
HETATM    2  C16 UNL     1       0.585   9.158  13.957  1.00  0.00     0.054 C 
HETATM    3  C17 UNL     1       1.343   8.029  13.218  1.00  0.00     0.050 C 
HETATM    4  C18 UNL     1       1.124   6.839  14.199  1.00  0.00     0.272 C 
HETATM    5  O1  UNL     1       0.663   5.647  13.584  1.00  0.00    -0.360 OA
HETATM    6  C19 UNL     1      -0.746   5.531  13.476  1.00  0.00     0.171 C 
HETATM    7  C20 UNL     1      -1.397   6.697  12.755  1.00  0.00     0.027 C 
HETATM    8  C21 UNL     1      -0.601   7.162  11.545  1.00  0.00     0.012 C 
HETATM    9  C22 UNL     1       0.789   7.835  11.754  1.00  0.00     0.032 C 
HETATM   10  C23 UNL     1       1.814   7.224  10.757  1.00  0.00    -0.066 C 
HETATM   11  C24 UNL     1       1.749   7.452   9.417  1.00  0.00    -0.021 C 
HETATM   12  C25 UNL     1       0.736   8.331   8.723  1.00  0.00     0.052 C 
HETATM   13  C27 UNL     1       2.874   6.390  11.442  1.00  0.00     0.038 C 
HETATM   14  C28 UNL     1       3.656   7.176  12.500  1.00  0.00     0.042 C 
HETATM   15  C29 UNL     1       2.883   8.363  13.118  1.00  0.00     0.067 C 
HETATM   16  C30 UNL     1       3.209   9.653  12.329  1.00  0.00     0.047 C 
HETATM   17  O4  UNL     1       0.283   7.271  15.273  1.00  0.00    -0.351 OA
ENDROOT
BRANCH   1  18
HETATM   18  C14 UNL     1      -0.702   9.336  16.106  1.00  0.00     0.011 C 
HETATM   19  C12 UNL     1      -1.934   8.858  16.387  1.00  0.00    -0.063 C 
HETATM   20  C13 UNL     1      -2.367   7.441  16.106  1.00  0.00     0.048 C 
BRANCH  19  21
HETATM   21  C11 UNL     1      -2.896   9.755  17.035  1.00  0.00     0.006 C 
HETATM   22  C10 UNL     1      -2.663  10.559  18.086  1.00  0.00     0.001 C 
BRANCH  22  23
HETATM   23  C9  UNL     1      -3.690  11.404  18.661  1.00  0.00     0.002 C 
HETATM   24  C7  UNL     1      -4.002  12.668  18.306  1.00  0.00    -0.084 C 
HETATM   25  C8  UNL     1      -3.324  13.474  17.228  1.00  0.00     0.043 C 
BRANCH  24  26
HETATM   26  C6  UNL     1      -5.107  13.404  19.050  1.00  0.00     0.037 C 
BRANCH  26  27
HETATM   27  C5  UNL     1      -4.812  13.563  20.546  1.00  0.00     0.031 C 
BRANCH  27  28
HETATM   28  C4  UNL     1      -5.981  13.123  21.388  1.00  0.00    -0.024 C 
HETATM   29  C2  UNL     1      -6.416  13.674  22.539  1.00  0.00    -0.091 C 
HETATM   30  C1  UNL     1      -5.831  14.901  23.181  1.00  0.00     0.042 C 
HETATM   31  C3  UNL     1      -7.579  13.074  23.287  1.00  0.00     0.042 C 
ENDBRANCH  27  28
ENDBRANCH  26  27
ENDBRANCH  24  26
ENDBRANCH  22  23
ENDBRANCH  19  21
ENDBRANCH   1  18
BRANCH  15  32
HETATM   32  O3  UNL     1       3.409   8.588  14.435  1.00  0.00    -0.389 OA
HETATM   33  H44 UNL     1       4.359   8.786  14.359  1.00  0.00     0.210 HD
ENDBRANCH  15  32
BRANCH  11  34
HETATM   34  C26 UNL     1       2.705   6.829   8.440  1.00  0.00     0.265 C 
HETATM   35  O2  UNL     1       2.639   5.650   8.107  1.00  0.00    -0.302 OA
ENDBRANCH  11  34
TORSDOF 8
ENDMDL
MODEL 9
REMARK minimizedAffinity -8.5050602
REMARK CNNscore 0.386266559
REMARK CNNaffinity 6.57840872
REMARK  8 active torsions:
REMARK  status: ('A' for Active; 'I' for Inactive)
REMARK    1  A    between atoms: C4_4  and  C5_5 
REMARK    2  A    between atoms: C5_5  and  C6_6 
REMARK    3  A    between atoms: C6_6  and  C7_7 
REMARK    4  A    between atoms: C9_9  and  C10_10 
REMARK    5  A    between atoms: C11_11  and  C12_12 
REMARK    6  A    between atoms: C14_14  and  C15_15 
REMARK    7  A    between atoms: C24_25  and  C26_27 
REMARK    8  A    between atoms: C29_31  and  O3_33 
ROOT
HETATM    1  C15 UNL     1      -2.619   6.292  14.160  1.00  0.00     0.149 C 
HETATM    2  C16 UNL     1      -2.027   7.182  13.073  1.00  0.00     0.054 C 
HETATM    3  C17 UNL     1      -0.515   6.853  13.054  1.00  0.00     0.050 C 
HETATM    4  C18 UNL     1      -0.506   5.476  13.783  1.00  0.00     0.272 C 
HETATM    5  O1  UNL     1       0.223   4.461  13.114  1.00  0.00    -0.360 OA
HETATM    6  C19 UNL     1      -0.520   3.708  12.170  1.00  0.00     0.171 C 
HETATM    7  C20 UNL     1      -1.193   4.560  11.109  1.00  0.00     0.027 C 
HETATM    8  C21 UNL     1      -0.308   5.696  10.615  1.00  0.00     0.012 C 
HETATM    9  C22 UNL     1       0.051   6.863  11.582  1.00  0.00     0.032 C 
HETATM   10  C23 UNL     1       1.573   7.166  11.483  1.00  0.00    -0.066 C 
HETATM   11  C24 UNL     1       2.132   7.725  10.376  1.00  0.00    -0.021 C 
HETATM   12  C25 UNL     1       1.386   8.156   9.136  1.00  0.00     0.052 C 
HETATM   13  C27 UNL     1       2.328   6.797  12.741  1.00  0.00     0.038 C 
HETATM   14  C28 UNL     1       1.787   7.504  13.988  1.00  0.00     0.042 C 
HETATM   15  C29 UNL     1       0.298   7.910  13.899  1.00  0.00     0.067 C 
HETATM   16  C30 UNL     1       0.194   9.363  13.377  1.00  0.00     0.047 C 
HETATM   17  O4  UNL     1      -1.855   5.094  14.070  1.00  0.00    -0.351 OA
ENDROOT
BRANCH   1  18
HETATM   18  C14 UNL     1      -4.091   6.050  13.948  1.00  0.00     0.011 C 
HETATM   19  C12 UNL     1      -4.726   5.009  13.364  1.00  0.00    -0.063 C 
HETATM   20  C13 UNL     1      -4.023   3.769  12.874  1.00  0.00     0.048 C 
BRANCH  19  21
HETATM   21  C11 UNL     1      -6.184   5.071  13.231  1.00  0.00     0.006 C 
HETATM   22  C10 UNL     1      -6.983   6.083  13.612  1.00  0.00     0.001 C 
BRANCH  22  23
HETATM   23  C9  UNL     1      -8.422   6.042  13.443  1.00  0.00     0.002 C 
HETATM   24  C7  UNL     1      -9.340   6.816  14.058  1.00  0.00    -0.084 C 
HETATM   25  C8  UNL     1      -9.049   7.892  15.072  1.00  0.00     0.043 C 
BRANCH  24  26
HETATM   26  C6  UNL     1     -10.817   6.603  13.763  1.00  0.00     0.037 C 
BRANCH  26  27
HETATM   27  C5  UNL     1     -11.637   7.894  13.869  1.00  0.00     0.031 C 
BRANCH  27  28
HETATM   28  C4  UNL     1     -12.889   7.823  13.035  1.00  0.00    -0.024 C 
HETATM   29  C2  UNL     1     -13.984   7.070  13.263  1.00  0.00    -0.091 C 
HETATM   30  C1  UNL     1     -14.185   6.183  14.460  1.00  0.00     0.042 C 
HETATM   31  C3  UNL     1     -15.138   7.079  12.293  1.00  0.00     0.042 C 
ENDBRANCH  27  28
ENDBRANCH  26  27
ENDBRANCH  24  26
ENDBRANCH  22  23
ENDBRANCH  19  21
ENDBRANCH   1  18
BRANCH  15  32
HETATM   32  O3  UNL     1      -0.223   7.954  15.236  1.00  0.00    -0.389 OA
HETATM   33  H44 UNL     1       0.291   8.605  15.746  1.00  0.00     0.210 HD
ENDBRANCH  15  32
BRANCH  11  34
HETATM   34  C26 UNL     1       3.608   7.978  10.251  1.00  0.00     0.265 C 
HETATM   35  O2  UNL     1       4.403   7.111   9.901  1.00  0.00    -0.302 OA
ENDBRANCH  11  34
TORSDOF 8
ENDMDL
