MODEL 1
REMARK minimizedAffinity -7.29259348
REMARK CNNscore 0.608163953
REMARK CNNaffinity 6.89235163
REMARK  6 active torsions:
REMARK  status: ('A' for Active; 'I' for Inactive)
REMARK    1  A    between atoms: C11_13  and  C12_14 
REMARK    2  A    between atoms: C12_14  and  O3_15 
REMARK    3  A    between atoms: C13_16  and  O4_17 
REMARK    4  A    between atoms: C22_27  and  O6_28 
REMARK    5  A    between atoms: C23_29  and  O7_30 
REMARK    6  A    between atoms: C29_37  and  C30_38 
ROOT
HETATM    1  C1  UNL     1     -18.004   4.983  12.512  1.00  0.00     0.046 C 
HETATM    2  C2  UNL     1     -17.264   5.786  13.548  1.00  0.00    -0.056 C 
HETATM    3  C3  UNL     1     -15.942   5.600  13.765  1.00  0.00    -0.004 C 
HETATM    4  C4  UNL     1     -15.099   6.448  14.712  1.00  0.00     0.150 C 
HETATM    5  C5  UNL     1     -13.776   6.810  14.032  1.00  0.00     0.270 C 
HETATM    6  O1  UNL     1     -13.661   7.102  12.848  1.00  0.00    -0.264 OA
HETATM    7  O2  UNL     1     -12.760   6.804  14.938  1.00  0.00    -0.315 OA
HETATM    8  C6  UNL     1     -11.472   7.291  14.509  1.00  0.00     0.139 C 
HETATM    9  C7  UNL     1     -11.473   8.817  14.409  1.00  0.00     0.065 C 
HETATM   10  C8  UNL     1     -10.056   9.404  14.391  1.00  0.00     0.131 C 
HETATM   11  C9  UNL     1      -9.694  10.504  15.425  1.00  0.00     0.059 C 
HETATM   12  C10 UNL     1     -10.433  10.558  16.744  1.00  0.00    -0.017 C 
HETATM   13  C11 UNL     1     -11.213  11.568  17.197  1.00  0.00    -0.031 C 
HETATM   14  C13 UNL     1     -11.847  11.624  18.591  1.00  0.00     0.156 C 
HETATM   15  C14 UNL     1     -12.021  10.312  19.417  1.00  0.00     0.037 C 
HETATM   16  C15 UNL     1     -12.707  10.580  20.762  1.00  0.00     0.017 C 
HETATM   17  C16 UNL     1     -12.746   9.243  18.633  1.00  0.00    -0.020 C 
HETATM   18  C17 UNL     1     -13.969   9.367  18.091  1.00  0.00    -0.003 C 
HETATM   19  C18 UNL     1     -14.389   8.454  17.057  1.00  0.00     0.008 C 
HETATM   20  C19 UNL     1     -15.513   8.529  16.331  1.00  0.00    -0.019 C 
HETATM   21  C20 UNL     1     -16.745   9.339  16.631  1.00  0.00     0.206 C 
HETATM   22  O5  UNL     1     -17.850   8.609  16.043  1.00  0.00    -0.375 OA
HETATM   23  C21 UNL     1     -17.293   7.395  15.495  1.00  0.00     0.194 C 
HETATM   24  C22 UNL     1     -18.077   6.833  14.298  1.00  0.00     0.179 C 
HETATM   25  C23 UNL     1     -15.853   7.734  15.105  1.00  0.00     0.128 C 
HETATM   26  O8  UNL     1      -9.024   8.423  14.300  1.00  0.00    -0.349 OA
HETATM   27  C24 UNL     1      -9.057   7.269  15.132  1.00  0.00     0.167 C 
HETATM   28  C25 UNL     1      -8.115   7.434  16.325  1.00  0.00     0.069 C 
HETATM   29  C26 UNL     1      -6.687   7.728  15.874  1.00  0.00     0.012 C 
HETATM   30  C27 UNL     1      -6.371   7.137  14.488  1.00  0.00     0.011 C 
HETATM   31  C28 UNL     1      -4.861   6.948  14.354  1.00  0.00     0.012 C 
HETATM   32  C29 UNL     1      -7.229   5.872  14.250  1.00  0.00     0.132 C 
HETATM   33  O9  UNL     1      -8.635   6.158  14.330  1.00  0.00    -0.349 OA
HETATM   34  C33 UNL     1     -10.470   6.905  15.587  1.00  0.00     0.101 C 
ENDROOT
BRANCH  32  35
HETATM   35  C30 UNL     1      -6.957   5.164  12.886  1.00  0.00     0.007 C 
HETATM   36  C31 UNL     1      -8.187   5.129  11.965  1.00  0.00     0.012 C 
HETATM   37  C32 UNL     1      -6.472   3.721  13.081  1.00  0.00     0.012 C 
ENDBRANCH  32  35
BRANCH  13  38
HETATM   38  C12 UNL     1     -11.552  12.794  16.374  1.00  0.00     0.200 C 
BRANCH  38  39
HETATM   39  O3  UNL     1     -12.495  12.440  15.374  1.00  0.00    -0.397 OA
HETATM   40  H15 UNL     1     -12.170  11.613  14.967  1.00  0.00     0.209 HD
ENDBRANCH  38  39
ENDBRANCH  13  38
BRANCH  14  41
HETATM   41  O4  UNL     1     -11.054  12.562  19.333  1.00  0.00    -0.390 OA
HETATM   42  H17 UNL     1     -10.168  12.163  19.429  1.00  0.00     0.210 HD
ENDBRANCH  14  41
BRANCH  25  43
HETATM   43  O7  UNL     1     -15.841   8.700  14.033  1.00  0.00    -0.381 OA
HETATM   44  H30 UNL     1     -15.728   8.245  13.177  1.00  0.00     0.211 HD
ENDBRANCH  25  43
BRANCH  24  45
HETATM   45  O6  UNL     1     -19.293   6.228  14.746  1.00  0.00    -0.389 OA
HETATM   46  H29 UNL     1     -19.065   5.554  15.406  1.00  0.00     0.210 HD
ENDBRANCH  24  45
TORSDOF 6
ENDMDL
MODEL 2
REMARK minimizedAffinity -8.85406208
REMARK CNNscore 0.45777151
REMARK CNNaffinity 6.59131479
REMARK  6 active torsions:
REMARK  status: ('A' for Active; 'I' for Inactive)
REMARK    1  A    between atoms: C11_13  and  C12_14 
REMARK    2  A    between atoms: C12_14  and  O3_15 
REMARK    3  A    between atoms: C13_16  and  O4_17 
REMARK    4  A    between atoms: C22_27  and  O6_28 
REMARK    5  A    between atoms: C23_29  and  O7_30 
REMARK    6  A    between atoms: C29_37  and  C30_38 
ROOT
HETATM    1  C1  UNL     1       3.398   4.497   9.724  1.00  0.00     0.046 C 
HETATM    2  C2  UNL     1       2.874   5.681  10.493  1.00  0.00    -0.056 C 
HETATM    3  C3  UNL     1       1.550   5.842  10.713  1.00  0.00    -0.004 C 
HETATM    4  C4  UNL     1       0.951   6.948  11.575  1.00  0.00     0.150 C 
HETATM    5  C5  UNL     1      -0.128   6.356  12.487  1.00  0.00     0.270 C 
HETATM    6  O1  UNL     1      -0.049   5.266  13.039  1.00  0.00    -0.264 OA
HETATM    7  O2  UNL     1      -1.162   7.231  12.629  1.00  0.00    -0.315 OA
HETATM    8  C6  UNL     1      -2.187   6.913  13.592  1.00  0.00     0.139 C 
HETATM    9  C7  UNL     1      -1.689   7.154  15.017  1.00  0.00     0.065 C 
HETATM   10  C8  UNL     1      -2.837   7.258  16.029  1.00  0.00     0.131 C 
HETATM   11  C9  UNL     1      -2.908   8.507  16.947  1.00  0.00     0.059 C 
HETATM   12  C10 UNL     1      -2.298   9.811  16.479  1.00  0.00    -0.017 C 
HETATM   13  C11 UNL     1      -1.274  10.482  17.058  1.00  0.00    -0.031 C 
HETATM   14  C13 UNL     1      -0.769  11.858  16.611  1.00  0.00     0.156 C 
HETATM   15  C14 UNL     1      -1.090  12.373  15.174  1.00  0.00     0.037 C 
HETATM   16  C15 UNL     1      -0.463  13.748  14.915  1.00  0.00     0.017 C 
HETATM   17  C16 UNL     1      -0.686  11.376  14.113  1.00  0.00    -0.020 C 
HETATM   18  C17 UNL     1       0.551  10.884  13.936  1.00  0.00    -0.003 C 
HETATM   19  C18 UNL     1       0.737   9.675  13.171  1.00  0.00     0.008 C 
HETATM   20  C19 UNL     1       1.880   8.991  13.020  1.00  0.00    -0.019 C 
HETATM   21  C20 UNL     1       3.278   9.471  13.297  1.00  0.00     0.206 C 
HETATM   22  O5  UNL     1       4.134   8.744  12.382  1.00  0.00    -0.375 OA
HETATM   23  C21 UNL     1       3.263   7.936  11.562  1.00  0.00     0.194 C 
HETATM   24  C22 UNL     1       3.918   6.649  11.033  1.00  0.00     0.179 C 
HETATM   25  C23 UNL     1       2.044   7.622  12.430  1.00  0.00     0.128 C 
HETATM   26  O8  UNL     1      -4.119   6.944  15.485  1.00  0.00    -0.349 OA
HETATM   27  C24 UNL     1      -4.523   7.500  14.239  1.00  0.00     0.167 C 
HETATM   28  C25 UNL     1      -5.453   8.694  14.454  1.00  0.00     0.069 C 
HETATM   29  C26 UNL     1      -6.672   8.309  15.290  1.00  0.00     0.012 C 
HETATM   30  C27 UNL     1      -7.050   6.825  15.138  1.00  0.00     0.011 C 
HETATM   31  C28 UNL     1      -8.525   6.642  15.489  1.00  0.00     0.012 C 
HETATM   32  C29 UNL     1      -6.626   6.317  13.738  1.00  0.00     0.132 C 
HETATM   33  O9  UNL     1      -5.214   6.468  13.522  1.00  0.00    -0.349 OA
HETATM   34  C33 UNL     1      -3.342   7.872  13.343  1.00  0.00     0.101 C 
ENDROOT
BRANCH  32  35
HETATM   35  C30 UNL     1      -7.001   4.829  13.460  1.00  0.00     0.007 C 
HETATM   36  C31 UNL     1      -5.839   4.010  12.876  1.00  0.00     0.012 C 
HETATM   37  C32 UNL     1      -8.191   4.713  12.496  1.00  0.00     0.012 C 
ENDBRANCH  32  35
BRANCH  13  38
HETATM   38  C12 UNL     1      -0.496   9.954  18.245  1.00  0.00     0.200 C 
BRANCH  38  39
HETATM   39  O3  UNL     1       0.879   9.867  17.904  1.00  0.00    -0.397 OA
HETATM   40  H15 UNL     1       0.919   9.443  17.025  1.00  0.00     0.209 HD
ENDBRANCH  38  39
ENDBRANCH  13  38
BRANCH  14  41
HETATM   41  O4  UNL     1      -1.275  12.784  17.583  1.00  0.00    -0.390 OA
HETATM   42  H17 UNL     1      -2.247  12.783  17.487  1.00  0.00     0.210 HD
ENDBRANCH  14  41
BRANCH  25  43
HETATM   43  O7  UNL     1       2.426   6.791  13.546  1.00  0.00    -0.381 OA
HETATM   44  H30 UNL     1       2.242   5.855  13.342  1.00  0.00     0.211 HD
ENDBRANCH  25  43
BRANCH  24  45
HETATM   45  O6  UNL     1       4.837   6.960   9.982  1.00  0.00    -0.389 OA
HETATM   46  H29 UNL     1       4.353   7.452   9.300  1.00  0.00     0.210 HD
ENDBRANCH  24  45
TORSDOF 6
ENDMDL
MODEL 3
REMARK minimizedAffinity -7.86131859
REMARK CNNscore 0.351299524
REMARK CNNaffinity 6.03034925
REMARK  6 active torsions:
REMARK  status: ('A' for Active; 'I' for Inactive)
REMARK    1  A    between atoms: C11_13  and  C12_14 
REMARK    2  A    between atoms: C12_14  and  O3_15 
REMARK    3  A    between atoms: C13_16  and  O4_17 
REMARK    4  A    between atoms: C22_27  and  O6_28 
REMARK    5  A    between atoms: C23_29  and  O7_30 
REMARK    6  A    between atoms: C29_37  and  C30_38 
ROOT
HETATM    1  C1  UNL     1      -3.839  -9.873  10.776  1.00  0.00     0.046 C 
HETATM    2  C2  UNL     1      -5.188  -9.551  10.189  1.00  0.00    -0.056 C 
HETATM    3  C3  UNL     1      -5.352  -9.390   8.858  1.00  0.00    -0.004 C 
HETATM    4  C4  UNL     1      -6.700  -9.175   8.177  1.00  0.00     0.150 C 
HETATM    5  C5  UNL     1      -6.787 -10.058   6.929  1.00  0.00     0.270 C 
HETATM    6  O1  UNL     1      -6.356 -11.202   6.856  1.00  0.00    -0.264 OA
HETATM    7  O2  UNL     1      -7.449  -9.408   5.933  1.00  0.00    -0.315 OA
HETATM    8  C6  UNL     1      -7.777 -10.153   4.743  1.00  0.00     0.139 C 
HETATM    9  C7  UNL     1      -8.947 -11.103   5.001  1.00  0.00     0.065 C 
HETATM   10  C8  UNL     1      -9.611 -11.582   3.704  1.00  0.00     0.131 C 
HETATM   11  C9  UNL     1     -11.143 -11.397   3.540  1.00  0.00     0.059 C 
HETATM   12  C10 UNL     1     -11.843 -10.283   4.288  1.00  0.00    -0.017 C 
HETATM   13  C11 UNL     1     -12.805 -10.417   5.231  1.00  0.00    -0.031 C 
HETATM   14  C13 UNL     1     -13.564  -9.252   5.875  1.00  0.00     0.156 C 
HETATM   15  C14 UNL     1     -12.960  -7.814   5.832  1.00  0.00     0.037 C 
HETATM   16  C15 UNL     1     -13.853  -6.805   6.563  1.00  0.00     0.017 C 
HETATM   17  C16 UNL     1     -11.545  -7.779   6.359  1.00  0.00    -0.020 C 
HETATM   18  C17 UNL     1     -11.158  -8.181   7.582  1.00  0.00    -0.003 C 
HETATM   19  C18 UNL     1      -9.767  -8.467   7.834  1.00  0.00     0.008 C 
HETATM   20  C19 UNL     1      -9.249  -9.001   8.949  1.00  0.00    -0.019 C 
HETATM   21  C20 UNL     1      -9.897  -9.104  10.302  1.00  0.00     0.206 C 
HETATM   22  O5  UNL     1      -8.815  -9.068  11.263  1.00  0.00    -0.375 OA
HETATM   23  C21 UNL     1      -7.601  -8.875  10.505  1.00  0.00     0.194 C 
HETATM   24  C22 UNL     1      -6.347  -9.461  11.173  1.00  0.00     0.179 C 
HETATM   25  C23 UNL     1      -7.854  -9.518   9.140  1.00  0.00     0.128 C 
HETATM   26  O8  UNL     1      -8.916 -11.192   2.520  1.00  0.00    -0.349 OA
HETATM   27  C24 UNL     1      -8.463  -9.853   2.363  1.00  0.00     0.167 C 
HETATM   28  C25 UNL     1      -9.418  -9.058   1.473  1.00  0.00     0.069 C 
HETATM   29  C26 UNL     1      -9.597  -9.724   0.111  1.00  0.00     0.012 C 
HETATM   30  C27 UNL     1      -8.368 -10.549  -0.311  1.00  0.00     0.011 C 
HETATM   31  C28 UNL     1      -8.353 -10.688  -1.832  1.00  0.00     0.012 C 
HETATM   32  C29 UNL     1      -7.090  -9.944   0.319  1.00  0.00     0.132 C 
HETATM   33  O9  UNL     1      -7.167  -9.914   1.754  1.00  0.00    -0.349 OA
HETATM   34  C33 UNL     1      -8.232  -9.144   3.698  1.00  0.00     0.101 C 
ENDROOT
BRANCH  32  35
HETATM   35  C30 UNL     1      -5.774 -10.680  -0.079  1.00  0.00     0.007 C 
HETATM   36  C31 UNL     1      -4.678 -10.587   0.996  1.00  0.00     0.012 C 
HETATM   37  C32 UNL     1      -5.193 -10.137  -1.393  1.00  0.00     0.012 C 
ENDBRANCH  32  35
BRANCH  13  38
HETATM   38  C12 UNL     1     -13.268 -11.756   5.766  1.00  0.00     0.200 C 
BRANCH  38  39
HETATM   39  O3  UNL     1     -12.247 -12.314   6.578  1.00  0.00    -0.397 OA
HETATM   40  H15 UNL     1     -11.411 -12.213   6.081  1.00  0.00     0.209 HD
ENDBRANCH  38  39
ENDBRANCH  13  38
BRANCH  14  41
HETATM   41  O4  UNL     1     -14.859  -9.253   5.258  1.00  0.00    -0.390 OA
HETATM   42  H17 UNL     1     -14.719  -9.027   4.319  1.00  0.00     0.210 HD
ENDBRANCH  14  41
BRANCH  25  43
HETATM   43  O7  UNL     1      -8.014 -10.945   9.283  1.00  0.00    -0.381 OA
HETATM   44  H30 UNL     1      -7.171 -11.395   9.088  1.00  0.00     0.211 HD
ENDBRANCH  25  43
BRANCH  24  45
HETATM   45  O6  UNL     1      -5.946  -8.639  12.274  1.00  0.00    -0.389 OA
HETATM   46  H29 UNL     1      -5.816  -7.737  11.940  1.00  0.00     0.210 HD
ENDBRANCH  24  45
TORSDOF 6
ENDMDL
MODEL 4
REMARK minimizedAffinity -7.1124506
REMARK CNNscore 0.278845042
REMARK CNNaffinity 6.2227807
REMARK  6 active torsions:
REMARK  status: ('A' for Active; 'I' for Inactive)
REMARK    1  A    between atoms: C11_13  and  C12_14 
REMARK    2  A    between atoms: C12_14  and  O3_15 
REMARK    3  A    between atoms: C13_16  and  O4_17 
REMARK    4  A    between atoms: C22_27  and  O6_28 
REMARK    5  A    between atoms: C23_29  and  O7_30 
REMARK    6  A    between atoms: C29_37  and  C30_38 
ROOT
HETATM    1  C1  UNL     1      -8.042 -11.908  24.983  1.00  0.00     0.046 C 
HETATM    2  C2  UNL     1      -8.664 -11.653  23.636  1.00  0.00    -0.056 C 
HETATM    3  C3  UNL     1      -9.826 -12.242  23.278  1.00  0.00    -0.004 C 
HETATM    4  C4  UNL     1     -10.576 -11.950  21.982  1.00  0.00     0.150 C 
HETATM    5  C5  UNL     1     -12.068 -11.789  22.282  1.00  0.00     0.270 C 
HETATM    6  O1  UNL     1     -12.522 -11.226  23.271  1.00  0.00    -0.264 OA
HETATM    7  O2  UNL     1     -12.815 -12.319  21.274  1.00  0.00    -0.315 OA
HETATM    8  C6  UNL     1     -14.240 -12.101  21.305  1.00  0.00     0.139 C 
HETATM    9  C7  UNL     1     -14.581 -10.667  20.902  1.00  0.00     0.065 C 
HETATM   10  C8  UNL     1     -16.051 -10.505  20.496  1.00  0.00     0.131 C 
HETATM   11  C9  UNL     1     -16.376  -9.872  19.117  1.00  0.00     0.059 C 
HETATM   12  C10 UNL     1     -15.371  -9.982  17.991  1.00  0.00    -0.017 C 
HETATM   13  C11 UNL     1     -14.733  -8.963  17.368  1.00  0.00    -0.031 C 
HETATM   14  C13 UNL     1     -13.811  -9.121  16.155  1.00  0.00     0.156 C 
HETATM   15  C14 UNL     1     -13.174 -10.510  15.841  1.00  0.00     0.037 C 
HETATM   16  C15 UNL     1     -12.258 -10.446  14.613  1.00  0.00     0.017 C 
HETATM   17  C16 UNL     1     -12.452 -11.085  17.037  1.00  0.00    -0.020 C 
HETATM   18  C17 UNL     1     -11.447 -10.489  17.701  1.00  0.00    -0.003 C 
HETATM   19  C18 UNL     1     -11.106 -10.934  19.030  1.00  0.00     0.008 C 
HETATM   20  C19 UNL     1     -10.230 -10.360  19.866  1.00  0.00    -0.019 C 
HETATM   21  C20 UNL     1      -9.158  -9.361  19.525  1.00  0.00     0.206 C 
HETATM   22  O5  UNL     1      -8.099  -9.573  20.490  1.00  0.00    -0.375 OA
HETATM   23  C21 UNL     1      -8.505 -10.694  21.305  1.00  0.00     0.194 C 
HETATM   24  C22 UNL     1      -7.931 -10.671  22.730  1.00  0.00     0.179 C 
HETATM   25  C23 UNL     1     -10.035 -10.665  21.322  1.00  0.00     0.128 C 
HETATM   26  O8  UNL     1     -16.848 -11.665  20.731  1.00  0.00    -0.349 OA
HETATM   27  C24 UNL     1     -16.377 -12.949  20.336  1.00  0.00     0.167 C 
HETATM   28  C25 UNL     1     -17.019 -13.379  19.017  1.00  0.00     0.069 C 
HETATM   29  C26 UNL     1     -18.542 -13.373  19.108  1.00  0.00     0.012 C 
HETATM   30  C27 UNL     1     -19.051 -13.624  20.540  1.00  0.00     0.011 C 
HETATM   31  C28 UNL     1     -20.475 -14.172  20.479  1.00  0.00     0.012 C 
HETATM   32  C29 UNL     1     -18.030 -14.493  21.313  1.00  0.00     0.132 C 
HETATM   33  O9  UNL     1     -16.737 -13.868  21.376  1.00  0.00    -0.349 OA
HETATM   34  C33 UNL     1     -14.852 -13.025  20.261  1.00  0.00     0.101 C 
ENDROOT
BRANCH  32  35
HETATM   35  C30 UNL     1     -18.467 -14.845  22.768  1.00  0.00     0.007 C 
HETATM   36  C31 UNL     1     -19.417 -16.052  22.841  1.00  0.00     0.012 C 
HETATM   37  C32 UNL     1     -19.156 -13.659  23.459  1.00  0.00     0.012 C 
ENDBRANCH  32  35
BRANCH  13  38
HETATM   38  C12 UNL     1     -14.864  -7.515  17.792  1.00  0.00     0.200 C 
BRANCH  38  39
HETATM   39  O3  UNL     1     -13.740  -6.786  17.323  1.00  0.00    -0.397 OA
HETATM   40  H15 UNL     1     -12.953  -7.322  17.540  1.00  0.00     0.209 HD
ENDBRANCH  38  39
ENDBRANCH  13  38
BRANCH  14  41
HETATM   41  O4  UNL     1     -14.581  -8.675  15.030  1.00  0.00    -0.390 OA
HETATM   42  H17 UNL     1     -15.314  -9.310  14.925  1.00  0.00     0.210 HD
ENDBRANCH  14  41
BRANCH  25  43
HETATM   43  O7  UNL     1     -10.504  -9.484  22.005  1.00  0.00    -0.381 OA
HETATM   44  H30 UNL     1     -10.721  -9.700  22.931  1.00  0.00     0.211 HD
ENDBRANCH  25  43
BRANCH  24  45
HETATM   45  O6  UNL     1      -6.544 -11.021  22.708  1.00  0.00    -0.389 OA
HETATM   46  H29 UNL     1      -6.462 -11.886  22.276  1.00  0.00     0.210 HD
ENDBRANCH  24  45
TORSDOF 6
ENDMDL
MODEL 5
REMARK minimizedAffinity -6.7804184
REMARK CNNscore 0.253383458
REMARK CNNaffinity 5.43034983
REMARK  6 active torsions:
REMARK  status: ('A' for Active; 'I' for Inactive)
REMARK    1  A    between atoms: C11_13  and  C12_14 
REMARK    2  A    between atoms: C12_14  and  O3_15 
REMARK    3  A    between atoms: C13_16  and  O4_17 
REMARK    4  A    between atoms: C22_27  and  O6_28 
REMARK    5  A    between atoms: C23_29  and  O7_30 
REMARK    6  A    between atoms: C29_37  and  C30_38 
ROOT
HETATM    1  C1  UNL     1     -13.814  -5.376  11.067  1.00  0.00     0.046 C 
HETATM    2  C2  UNL     1     -14.343  -4.234  11.893  1.00  0.00    -0.056 C 
HETATM    3  C3  UNL     1     -15.103  -3.263  11.339  1.00  0.00    -0.004 C 
HETATM    4  C4  UNL     1     -15.769  -2.138  12.126  1.00  0.00     0.150 C 
HETATM    5  C5  UNL     1     -17.211  -1.963  11.643  1.00  0.00     0.270 C 
HETATM    6  O1  UNL     1     -17.959  -2.885  11.340  1.00  0.00    -0.264 OA
HETATM    7  O2  UNL     1     -17.555  -0.646  11.643  1.00  0.00    -0.315 OA
HETATM    8  C6  UNL     1     -18.933  -0.308  11.383  1.00  0.00     0.139 C 
HETATM    9  C7  UNL     1     -19.806  -0.612  12.601  1.00  0.00     0.065 C 
HETATM   10  C8  UNL     1     -21.156   0.114  12.550  1.00  0.00     0.131 C 
HETATM   11  C9  UNL     1     -21.575   0.990  13.761  1.00  0.00     0.059 C 
HETATM   12  C10 UNL     1     -20.508   1.605  14.640  1.00  0.00    -0.017 C 
HETATM   13  C11 UNL     1     -20.302   1.364  15.957  1.00  0.00    -0.031 C 
HETATM   14  C13 UNL     1     -19.280   2.099  16.830  1.00  0.00     0.156 C 
HETATM   15  C14 UNL     1     -18.087   2.849  16.162  1.00  0.00     0.037 C 
HETATM   16  C15 UNL     1     -17.163   3.485  17.208  1.00  0.00     0.017 C 
HETATM   17  C16 UNL     1     -17.316   1.957  15.217  1.00  0.00    -0.020 C 
HETATM   18  C17 UNL     1     -16.732   0.793  15.546  1.00  0.00    -0.003 C 
HETATM   19  C18 UNL     1     -16.373  -0.144  14.510  1.00  0.00     0.008 C 
HETATM   20  C19 UNL     1     -15.913  -1.392  14.684  1.00  0.00    -0.019 C 
HETATM   21  C20 UNL     1     -15.337  -1.989  15.938  1.00  0.00     0.206 C 
HETATM   22  O5  UNL     1     -14.393  -2.996  15.499  1.00  0.00    -0.375 OA
HETATM   23  C21 UNL     1     -14.367  -2.932  14.057  1.00  0.00     0.194 C 
HETATM   24  C22 UNL     1     -14.007  -4.263  13.378  1.00  0.00     0.179 C 
HETATM   25  C23 UNL     1     -15.758  -2.453  13.635  1.00  0.00     0.128 C 
HETATM   26  O8  UNL     1     -21.405   0.787  11.317  1.00  0.00    -0.349 OA
HETATM   27  C24 UNL     1     -20.398   1.601  10.729  1.00  0.00     0.167 C 
HETATM   28  C25 UNL     1     -20.657   3.080  11.020  1.00  0.00     0.069 C 
HETATM   29  C26 UNL     1     -22.041   3.509  10.539  1.00  0.00     0.012 C 
HETATM   30  C27 UNL     1     -22.539   2.673   9.346  1.00  0.00     0.011 C 
HETATM   31  C28 UNL     1     -23.582   3.474   8.570  1.00  0.00     0.012 C 
HETATM   32  C29 UNL     1     -21.331   2.167   8.520  1.00  0.00     0.132 C 
HETATM   33  O9  UNL     1     -20.439   1.369   9.315  1.00  0.00    -0.349 OA
HETATM   34  C33 UNL     1     -18.985   1.194  11.148  1.00  0.00     0.101 C 
ENDROOT
BRANCH  32  35
HETATM   35  C30 UNL     1     -21.724   1.341   7.257  1.00  0.00     0.007 C 
HETATM   36  C31 UNL     1     -21.460   2.085   5.939  1.00  0.00     0.012 C 
HETATM   37  C32 UNL     1     -23.205   0.935   7.281  1.00  0.00     0.012 C 
ENDBRANCH  32  35
BRANCH  13  38
HETATM   38  C12 UNL     1     -21.077   0.329  16.746  1.00  0.00     0.200 C 
BRANCH  38  39
HETATM   39  O3  UNL     1     -20.417   0.089  17.979  1.00  0.00    -0.397 OA
HETATM   40  H15 UNL     1     -19.469  -0.019  17.770  1.00  0.00     0.209 HD
ENDBRANCH  38  39
ENDBRANCH  13  38
BRANCH  14  41
HETATM   41  O4  UNL     1     -20.047   3.017  17.622  1.00  0.00    -0.390 OA
HETATM   42  H17 UNL     1     -20.427   3.669  17.004  1.00  0.00     0.210 HD
ENDBRANCH  14  41
BRANCH  25  43
HETATM   43  O7  UNL     1     -16.751  -3.444  13.974  1.00  0.00    -0.381 OA
HETATM   44  H30 UNL     1     -16.950  -3.995  13.193  1.00  0.00     0.211 HD
ENDBRANCH  25  43
BRANCH  24  45
HETATM   45  O6  UNL     1     -12.608  -4.526  13.522  1.00  0.00    -0.389 OA
HETATM   46  H29 UNL     1     -12.123  -3.767  13.160  1.00  0.00     0.210 HD
ENDBRANCH  24  45
TORSDOF 6
ENDMDL
MODEL 6
REMARK minimizedAffinity -7.07846403
REMARK CNNscore 0.233091012
REMARK CNNaffinity 5.54924917
REMARK  6 active torsions:
REMARK  status: ('A' for Active; 'I' for Inactive)
REMARK    1  A    between atoms: C11_13  and  C12_14 
REMARK    2  A    between atoms: C12_14  and  O3_15 
REMARK    3  A    between atoms: C13_16  and  O4_17 
REMARK    4  A    between atoms: C22_27  and  O6_28 
REMARK    5  A    between atoms: C23_29  and  O7_30 
REMARK    6  A    between atoms: C29_37  and  C30_38 
ROOT
HETATM    1  C1  UNL     1       1.700  19.507  13.882  1.00  0.00     0.046 C 
HETATM    2  C2  UNL     1       1.254  18.074  14.015  1.00  0.00    -0.056 C 
HETATM    3  C3  UNL     1       1.895  17.216  14.839  1.00  0.00    -0.004 C 
HETATM    4  C4  UNL     1       1.439  15.786  15.114  1.00  0.00     0.150 C 
HETATM    5  C5  UNL     1       1.523  15.506  16.617  1.00  0.00     0.270 C 
HETATM    6  O1  UNL     1       1.231  16.311  17.492  1.00  0.00    -0.264 OA
HETATM    7  O2  UNL     1       1.925  14.223  16.838  1.00  0.00    -0.315 OA
HETATM    8  C6  UNL     1       1.892  13.730  18.193  1.00  0.00     0.139 C 
HETATM    9  C7  UNL     1       0.457  13.435  18.630  1.00  0.00     0.065 C 
HETATM   10  C8  UNL     1       0.395  12.520  19.859  1.00  0.00     0.131 C 
HETATM   11  C9  UNL     1      -0.459  11.227  19.781  1.00  0.00     0.059 C 
HETATM   12  C10 UNL     1      -0.701  10.574  18.438  1.00  0.00    -0.017 C 
HETATM   13  C11 UNL     1      -1.895  10.397  17.823  1.00  0.00    -0.031 C 
HETATM   14  C13 UNL     1      -2.098   9.626  16.515  1.00  0.00     0.156 C 
HETATM   15  C14 UNL     1      -0.889   9.389  15.559  1.00  0.00     0.037 C 
HETATM   16  C15 UNL     1      -1.311   8.634  14.292  1.00  0.00     0.017 C 
HETATM   17  C16 UNL     1      -0.176  10.677  15.219  1.00  0.00    -0.020 C 
HETATM   18  C17 UNL     1      -0.742  11.755  14.651  1.00  0.00    -0.003 C 
HETATM   19  C18 UNL     1      -0.081  13.035  14.732  1.00  0.00     0.008 C 
HETATM   20  C19 UNL     1      -0.576  14.217  14.338  1.00  0.00    -0.019 C 
HETATM   21  C20 UNL     1      -1.745  14.462  13.425  1.00  0.00     0.206 C 
HETATM   22  O5  UNL     1      -1.473  15.721  12.762  1.00  0.00    -0.375 OA
HETATM   23  C21 UNL     1      -0.169  16.147  13.215  1.00  0.00     0.194 C 
HETATM   24  C22 UNL     1       0.028  17.672  13.206  1.00  0.00     0.179 C 
HETATM   25  C23 UNL     1      -0.008  15.576  14.625  1.00  0.00     0.128 C 
HETATM   26  O8  UNL     1       1.667  12.261  20.453  1.00  0.00    -0.349 OA
HETATM   27  C24 UNL     1       2.777  11.902  19.640  1.00  0.00     0.167 C 
HETATM   28  C25 UNL     1       3.007  10.391  19.672  1.00  0.00     0.069 C 
HETATM   29  C26 UNL     1       3.203   9.885  21.099  1.00  0.00     0.012 C 
HETATM   30  C27 UNL     1       3.798  10.958  22.030  1.00  0.00     0.011 C 
HETATM   31  C28 UNL     1       4.490  10.274  23.207  1.00  0.00     0.012 C 
HETATM   32  C29 UNL     1       4.675  11.934  21.210  1.00  0.00     0.132 C 
HETATM   33  O9  UNL     1       3.925  12.579  20.169  1.00  0.00    -0.349 OA
HETATM   34  C33 UNL     1       2.652  12.412  18.204  1.00  0.00     0.101 C 
ENDROOT
BRANCH  32  35
HETATM   35  C30 UNL     1       5.366  13.041  22.065  1.00  0.00     0.007 C 
HETATM   36  C31 UNL     1       6.505  12.504  22.947  1.00  0.00     0.012 C 
HETATM   37  C32 UNL     1       4.363  13.764  22.977  1.00  0.00     0.012 C 
ENDBRANCH  32  35
BRANCH  13  38
HETATM   38  C12 UNL     1      -3.201  10.938  18.368  1.00  0.00     0.200 C 
BRANCH  38  39
HETATM   39  O3  UNL     1      -3.783   9.975  19.233  1.00  0.00    -0.397 OA
HETATM   40  H15 UNL     1      -3.729   9.117  18.768  1.00  0.00     0.209 HD
ENDBRANCH  38  39
ENDBRANCH  13  38
BRANCH  14  41
HETATM   41  O4  UNL     1      -2.667   8.367  16.899  1.00  0.00    -0.390 OA
HETATM   42  H17 UNL     1      -1.982   7.897  17.412  1.00  0.00     0.210 HD
ENDBRANCH  14  41
BRANCH  25  43
HETATM   43  O7  UNL     1      -0.962  16.184  15.521  1.00  0.00    -0.381 OA
HETATM   44  H30 UNL     1      -0.538  16.913  16.011  1.00  0.00     0.211 HD
ENDBRANCH  25  43
BRANCH  24  45
HETATM   45  O6  UNL     1       0.196  18.138  11.864  1.00  0.00    -0.389 OA
HETATM   46  H29 UNL     1       0.939  17.653  11.471  1.00  0.00     0.210 HD
ENDBRANCH  24  45
TORSDOF 6
ENDMDL
MODEL 7
REMARK minimizedAffinity -6.54778433
REMARK CNNscore 0.223996192
REMARK CNNaffinity 5.54151106
REMARK  6 active torsions:
REMARK  status: ('A' for Active; 'I' for Inactive)
REMARK    1  A    between atoms: C11_13  and  C12_14 
REMARK    2  A    between atoms: C12_14  and  O3_15 
REMARK    3  A    between atoms: C13_16  and  O4_17 
REMARK    4  A    between atoms: C22_27  and  O6_28 
REMARK    5  A    between atoms: C23_29  and  O7_30 
REMARK    6  A    between atoms: C29_37  and  C30_38 
ROOT
HETATM    1  C1  UNL     1      -0.278  13.714  -6.834  1.00  0.00     0.046 C 
HETATM    2  C2  UNL     1       0.731  14.291  -5.877  1.00  0.00    -0.056 C 
HETATM    3  C3  UNL     1       0.352  14.804  -4.686  1.00  0.00    -0.004 C 
HETATM    4  C4  UNL     1       1.319  15.302  -3.616  1.00  0.00     0.150 C 
HETATM    5  C5  UNL     1       0.876  14.781  -2.246  1.00  0.00     0.270 C 
HETATM    6  O1  UNL     1       0.423  13.662  -2.042  1.00  0.00    -0.264 OA
HETATM    7  O2  UNL     1       1.100  15.721  -1.287  1.00  0.00    -0.315 OA
HETATM    8  C6  UNL     1       0.905  15.339   0.090  1.00  0.00     0.139 C 
HETATM    9  C7  UNL     1       2.055  14.458   0.579  1.00  0.00     0.065 C 
HETATM   10  C8  UNL     1       2.131  14.389   2.109  1.00  0.00     0.131 C 
HETATM   11  C9  UNL     1       3.474  14.741   2.804  1.00  0.00     0.059 C 
HETATM   12  C10 UNL     1       4.443  15.681   2.119  1.00  0.00    -0.017 C 
HETATM   13  C11 UNL     1       5.699  15.391   1.704  1.00  0.00    -0.031 C 
HETATM   14  C13 UNL     1       6.682  16.411   1.120  1.00  0.00     0.156 C 
HETATM   15  C14 UNL     1       6.148  17.754   0.532  1.00  0.00     0.037 C 
HETATM   16  C15 UNL     1       7.285  18.613  -0.034  1.00  0.00     0.017 C 
HETATM   17  C16 UNL     1       5.064  17.530  -0.496  1.00  0.00    -0.020 C 
HETATM   18  C17 UNL     1       5.190  16.795  -1.614  1.00  0.00    -0.003 C 
HETATM   19  C18 UNL     1       4.009  16.335  -2.303  1.00  0.00     0.008 C 
HETATM   20  C19 UNL     1       3.968  15.490  -3.343  1.00  0.00    -0.019 C 
HETATM   21  C20 UNL     1       5.101  15.097  -4.250  1.00  0.00     0.206 C 
HETATM   22  O5  UNL     1       4.495  14.791  -5.530  1.00  0.00    -0.375 OA
HETATM   23  C21 UNL     1       3.085  15.068  -5.392  1.00  0.00     0.194 C 
HETATM   24  C22 UNL     1       2.189  14.224  -6.312  1.00  0.00     0.179 C 
HETATM   25  C23 UNL     1       2.754  14.823  -3.918  1.00  0.00     0.128 C 
HETATM   26  O8  UNL     1       1.031  15.010   2.772  1.00  0.00    -0.349 OA
HETATM   27  C24 UNL     1       0.587  16.300   2.369  1.00  0.00     0.167 C 
HETATM   28  C25 UNL     1       1.125  17.377   3.312  1.00  0.00     0.069 C 
HETATM   29  C26 UNL     1       0.727  17.102   4.760  1.00  0.00     0.012 C 
HETATM   30  C27 UNL     1      -0.589  16.312   4.872  1.00  0.00     0.011 C 
HETATM   31  C28 UNL     1      -1.215  16.568   6.241  1.00  0.00     0.012 C 
HETATM   32  C29 UNL     1      -1.491  16.621   3.653  1.00  0.00     0.132 C 
HETATM   33  O9  UNL     1      -0.846  16.287   2.413  1.00  0.00    -0.349 OA
HETATM   34  C33 UNL     1       0.929  16.618   0.914  1.00  0.00     0.101 C 
ENDROOT
BRANCH  32  35
HETATM   35  C30 UNL     1      -2.875  15.903   3.686  1.00  0.00     0.007 C 
HETATM   36  C31 UNL     1      -2.942  14.674   2.764  1.00  0.00     0.012 C 
HETATM   37  C32 UNL     1      -4.018  16.851   3.293  1.00  0.00     0.012 C 
ENDBRANCH  32  35
BRANCH  13  38
HETATM   38  C12 UNL     1       6.303  14.004   1.778  1.00  0.00     0.200 C 
BRANCH  38  39
HETATM   39  O3  UNL     1       6.094  13.337   0.543  1.00  0.00    -0.397 OA
HETATM   40  H15 UNL     1       5.158  13.485   0.303  1.00  0.00     0.209 HD
ENDBRANCH  38  39
ENDBRANCH  13  38
BRANCH  14  41
HETATM   41  O4  UNL     1       7.620  16.681   2.170  1.00  0.00    -0.390 OA
HETATM   42  H17 UNL     1       7.122  17.128   2.881  1.00  0.00     0.210 HD
ENDBRANCH  14  41
BRANCH  25  43
HETATM   43  O7  UNL     1       2.921  13.426  -3.595  1.00  0.00    -0.381 OA
HETATM   44  H30 UNL     1       2.059  12.971  -3.632  1.00  0.00     0.211 HD
ENDBRANCH  25  43
BRANCH  24  45
HETATM   45  O6  UNL     1       2.284  14.696  -7.659  1.00  0.00    -0.389 OA
HETATM   46  H29 UNL     1       2.054  15.640  -7.661  1.00  0.00     0.210 HD
ENDBRANCH  24  45
TORSDOF 6
ENDMDL
MODEL 8
REMARK minimizedAffinity -6.41670942
REMARK CNNscore 0.220646769
REMARK CNNaffinity 6.05692673
REMARK  6 active torsions:
REMARK  status: ('A' for Active; 'I' for Inactive)
REMARK    1  A    between atoms: C11_13  and  C12_14 
REMARK    2  A    between atoms: C12_14  and  O3_15 
REMARK    3  A    between atoms: C13_16  and  O4_17 
REMARK    4  A    between atoms: C22_27  and  O6_28 
REMARK    5  A    between atoms: C23_29  and  O7_30 
REMARK    6  A    between atoms: C29_37  and  C30_38 
ROOT
HETATM    1  C1  UNL     1      -6.540  17.472   4.463  1.00  0.00     0.046 C 
HETATM    2  C2  UNL     1      -7.893  16.917   4.104  1.00  0.00    -0.056 C 
HETATM    3  C3  UNL     1      -8.462  17.179   2.906  1.00  0.00    -0.004 C 
HETATM    4  C4  UNL     1      -9.773  16.566   2.424  1.00  0.00     0.150 C 
HETATM    5  C5  UNL     1      -9.617  16.110   0.970  1.00  0.00     0.270 C 
HETATM    6  O1  UNL     1      -8.610  15.587   0.510  1.00  0.00    -0.264 OA
HETATM    7  O2  UNL     1     -10.770  16.329   0.279  1.00  0.00    -0.315 OA
HETATM    8  C6  UNL     1     -10.864  15.801  -1.060  1.00  0.00     0.139 C 
HETATM    9  C7  UNL     1     -11.078  14.287  -1.034  1.00  0.00     0.065 C 
HETATM   10  C8  UNL     1     -11.614  13.748  -2.366  1.00  0.00     0.131 C 
HETATM   11  C9  UNL     1     -12.908  12.892  -2.356  1.00  0.00     0.059 C 
HETATM   12  C10 UNL     1     -13.920  13.085  -1.248  1.00  0.00    -0.017 C 
HETATM   13  C11 UNL     1     -14.306  12.166  -0.331  1.00  0.00    -0.031 C 
HETATM   14  C13 UNL     1     -15.420  12.376   0.700  1.00  0.00     0.156 C 
HETATM   15  C14 UNL     1     -15.871  13.823   1.071  1.00  0.00     0.037 C 
HETATM   16  C15 UNL     1     -16.966  13.815   2.145  1.00  0.00     0.017 C 
HETATM   17  C16 UNL     1     -14.704  14.690   1.483  1.00  0.00    -0.020 C 
HETATM   18  C17 UNL     1     -13.850  14.424   2.486  1.00  0.00    -0.003 C 
HETATM   19  C18 UNL     1     -12.576  15.097   2.536  1.00  0.00     0.008 C 
HETATM   20  C19 UNL     1     -11.571  14.844   3.387  1.00  0.00    -0.019 C 
HETATM   21  C20 UNL     1     -11.636  14.079   4.680  1.00  0.00     0.206 C 
HETATM   22  O5  UNL     1     -10.603  14.642   5.526  1.00  0.00    -0.375 OA
HETATM   23  C21 UNL     1     -10.019  15.735   4.785  1.00  0.00     0.194 C 
HETATM   24  C22 UNL     1      -8.552  16.021   5.144  1.00  0.00     0.179 C 
HETATM   25  C23 UNL     1     -10.166  15.365   3.308  1.00  0.00     0.128 C 
HETATM   26  O8  UNL     1     -11.648  14.719  -3.412  1.00  0.00    -0.349 OA
HETATM   27  C24 UNL     1     -12.179  16.016  -3.168  1.00  0.00     0.167 C 
HETATM   28  C25 UNL     1     -13.611  16.123  -3.693  1.00  0.00     0.069 C 
HETATM   29  C26 UNL     1     -13.688  15.784  -5.180  1.00  0.00     0.012 C 
HETATM   30  C27 UNL     1     -12.376  16.090  -5.925  1.00  0.00     0.011 C 
HETATM   31  C28 UNL     1     -12.676  16.291  -7.409  1.00  0.00     0.012 C 
HETATM   32  C29 UNL     1     -11.637  17.257  -5.227  1.00  0.00     0.132 C 
HETATM   33  O9  UNL     1     -11.338  16.953  -3.854  1.00  0.00    -0.349 OA
HETATM   34  C33 UNL     1     -12.097  16.425  -1.698  1.00  0.00     0.101 C 
ENDROOT
BRANCH  32  35
HETATM   35  C30 UNL     1     -10.309  17.680  -5.927  1.00  0.00     0.007 C 
HETATM   36  C31 UNL     1      -9.276  16.544  -6.007  1.00  0.00     0.012 C 
HETATM   37  C32 UNL     1      -9.647  18.872  -5.220  1.00  0.00     0.012 C 
ENDBRANCH  32  35
BRANCH  13  38
HETATM   38  C12 UNL     1     -13.684  10.790  -0.216  1.00  0.00     0.200 C 
BRANCH  38  39
HETATM   39  O3  UNL     1     -14.558   9.939   0.508  1.00  0.00    -0.397 OA
HETATM   40  H15 UNL     1     -14.851  10.445   1.292  1.00  0.00     0.209 HD
ENDBRANCH  38  39
ENDBRANCH  13  38
BRANCH  14  41
HETATM   41  O4  UNL     1     -16.542  11.631   0.206  1.00  0.00    -0.390 OA
HETATM   42  H17 UNL     1     -16.823  12.066  -0.621  1.00  0.00     0.210 HD
ENDBRANCH  14  41
BRANCH  25  43
HETATM   43  O7  UNL     1      -9.367  14.202   3.003  1.00  0.00    -0.381 OA
HETATM   44  H30 UNL     1      -8.514  14.477   2.618  1.00  0.00     0.211 HD
ENDBRANCH  25  43
BRANCH  24  45
HETATM   45  O6  UNL     1      -8.475  16.669   6.417  1.00  0.00    -0.389 OA
HETATM   46  H29 UNL     1      -9.023  17.470   6.377  1.00  0.00     0.210 HD
ENDBRANCH  24  45
TORSDOF 6
ENDMDL
MODEL 9
REMARK minimizedAffinity -7.2695055
REMARK CNNscore 0.218302757
REMARK CNNaffinity 5.78232908
REMARK  6 active torsions:
REMARK  status: ('A' for Active; 'I' for Inactive)
REMARK    1  A    between atoms: C11_13  and  C12_14 
REMARK    2  A    between atoms: C12_14  and  O3_15 
REMARK    3  A    between atoms: C13_16  and  O4_17 
REMARK    4  A    between atoms: C22_27  and  O6_28 
REMARK    5  A    between atoms: C23_29  and  O7_30 
REMARK    6  A    between atoms: C29_37  and  C30_38 
ROOT
HETATM    1  C1  UNL     1     -16.422   1.351  17.017  1.00  0.00     0.046 C 
HETATM    2  C2  UNL     1     -16.174   0.526  15.782  1.00  0.00    -0.056 C 
HETATM    3  C3  UNL     1     -15.312  -0.515  15.797  1.00  0.00    -0.004 C 
HETATM    4  C4  UNL     1     -15.091  -1.466  14.625  1.00  0.00     0.150 C 
HETATM    5  C5  UNL     1     -15.064  -2.908  15.137  1.00  0.00     0.270 C 
HETATM    6  O1  UNL     1     -15.792  -3.347  16.018  1.00  0.00    -0.264 OA
HETATM    7  O2  UNL     1     -14.148  -3.640  14.444  1.00  0.00    -0.315 OA
HETATM    8  C6  UNL     1     -14.109  -5.064  14.673  1.00  0.00     0.139 C 
HETATM    9  C7  UNL     1     -15.289  -5.757  13.993  1.00  0.00     0.065 C 
HETATM   10  C8  UNL     1     -15.068  -7.265  13.829  1.00  0.00     0.131 C 
HETATM   11  C9  UNL     1     -15.220  -7.891  12.417  1.00  0.00     0.059 C 
HETATM   12  C10 UNL     1     -14.977  -7.034  11.193  1.00  0.00    -0.017 C 
HETATM   13  C11 UNL     1     -15.877  -6.717  10.231  1.00  0.00    -0.031 C 
HETATM   14  C13 UNL     1     -15.550  -5.941   8.952  1.00  0.00     0.156 C 
HETATM   15  C14 UNL     1     -14.264  -5.060   8.886  1.00  0.00     0.037 C 
HETATM   16  C15 UNL     1     -14.142  -4.340   7.538  1.00  0.00     0.017 C 
HETATM   17  C16 UNL     1     -14.186  -4.087  10.038  1.00  0.00    -0.020 C 
HETATM   18  C17 UNL     1     -15.112  -3.161  10.342  1.00  0.00    -0.003 C 
HETATM   19  C18 UNL     1     -15.125  -2.569  11.657  1.00  0.00     0.008 C 
HETATM   20  C19 UNL     1     -16.057  -1.742  12.152  1.00  0.00    -0.019 C 
HETATM   21  C20 UNL     1     -17.093  -0.966  11.386  1.00  0.00     0.206 C 
HETATM   22  O5  UNL     1     -17.353   0.226  12.168  1.00  0.00    -0.375 OA
HETATM   23  C21 UNL     1     -16.452   0.180  13.296  1.00  0.00     0.194 C 
HETATM   24  C22 UNL     1     -16.975   0.908  14.544  1.00  0.00     0.179 C 
HETATM   25  C23 UNL     1     -16.213  -1.305  13.578  1.00  0.00     0.128 C 
HETATM   26  O8  UNL     1     -13.898  -7.754  14.485  1.00  0.00    -0.349 OA
HETATM   27  C24 UNL     1     -12.660  -7.067  14.346  1.00  0.00     0.167 C 
HETATM   28  C25 UNL     1     -11.770  -7.758  13.313  1.00  0.00     0.069 C 
HETATM   29  C26 UNL     1     -11.532  -9.223  13.671  1.00  0.00     0.012 C 
HETATM   30  C27 UNL     1     -11.608  -9.481  15.187  1.00  0.00     0.011 C 
HETATM   31  C28 UNL     1     -10.821 -10.748  15.521  1.00  0.00     0.012 C 
HETATM   32  C29 UNL     1     -11.186  -8.207  15.957  1.00  0.00     0.132 C 
HETATM   33  O9  UNL     1     -12.021  -7.085  15.629  1.00  0.00    -0.349 OA
HETATM   34  C33 UNL     1     -12.837  -5.584  14.021  1.00  0.00     0.101 C 
ENDROOT
BRANCH  32  35
HETATM   35  C30 UNL     1     -11.184  -8.372  17.508  1.00  0.00     0.007 C 
HETATM   36  C31 UNL     1      -9.887  -8.993  18.051  1.00  0.00     0.012 C 
HETATM   37  C32 UNL     1     -12.360  -9.235  17.990  1.00  0.00     0.012 C 
ENDBRANCH  32  35
BRANCH  13  38
HETATM   38  C12 UNL     1     -17.339  -7.108  10.297  1.00  0.00     0.200 C 
BRANCH  38  39
HETATM   39  O3  UNL     1     -18.066  -6.363   9.331  1.00  0.00    -0.397 OA
HETATM   40  H15 UNL     1     -17.771  -5.435   9.417  1.00  0.00     0.209 HD
ENDBRANCH  38  39
ENDBRANCH  13  38
BRANCH  14  41
HETATM   41  O4  UNL     1     -15.518  -6.923   7.907  1.00  0.00    -0.390 OA
HETATM   42  H17 UNL     1     -14.760  -7.507   8.097  1.00  0.00     0.210 HD
ENDBRANCH  14  41
BRANCH  25  43
HETATM   43  O7  UNL     1     -17.436  -1.933  14.017  1.00  0.00    -0.381 OA
HETATM   44  H30 UNL     1     -17.454  -1.980  14.991  1.00  0.00     0.211 HD
ENDBRANCH  25  43
BRANCH  24  45
HETATM   45  O6  UNL     1     -16.884   2.324  14.362  1.00  0.00    -0.389 OA
HETATM   46  H29 UNL     1     -15.961   2.538  14.152  1.00  0.00     0.210 HD
ENDBRANCH  24  45
TORSDOF 6
ENDMDL
