MODEL 1
REMARK minimizedAffinity -10.8622694
REMARK CNNscore 0.568043768
REMARK CNNaffinity 7.40088797
REMARK  11 active torsions:
REMARK  status: ('A' for Active; 'I' for Inactive)
REMARK    1  A    between atoms: C3_4  and  O2_5 
REMARK    2  A    between atoms: O2_5  and  C4_6 
REMARK    3  A    between atoms: C7_9  and  C8_10 
REMARK    4  A    between atoms: N1_11  and  C9_13 
REMARK    5  A    between atoms: C9_13  and  C10_14 
REMARK    6  A    between atoms: C10_14  and  C11_15 
REMARK    7  A    between atoms: C22_26  and  C23_27 
REMARK    8  A    between atoms: C29_35  and  O5_36 
REMARK    9  A    between atoms: C33_40  and  O6_41 
REMARK   10  A    between atoms: C36_44  and  O7_45 
REMARK   11  A    between atoms: C37_46  and  O8_47 
ROOT
HETATM    1  C4  UNL     1       2.094  10.451  16.042  1.00  0.00     0.127 C 
HETATM    2  C5  UNL     1       2.066  10.363  14.521  1.00  0.00     0.033 C 
HETATM    3  C6  UNL     1       0.698   9.898  14.033  1.00  0.00     0.021 C 
HETATM    4  C7  UNL     1       0.212   8.540  14.631  1.00  0.00     0.026 C 
HETATM    5  C17 UNL     1      -1.334   8.430  14.295  1.00  0.00     0.009 C 
HETATM    6  C18 UNL     1      -1.677   8.043  12.843  1.00  0.00     0.007 C 
HETATM    7  C19 UNL     1      -2.253   6.637  12.713  1.00  0.00     0.013 C 
HETATM    8  C20 UNL     1      -3.491   6.308  13.614  1.00  0.00    -0.005 C 
HETATM    9  C21 UNL     1      -3.389   4.794  13.919  1.00  0.00     0.019 C 
HETATM   10  C22 UNL     1      -4.834   6.670  12.887  1.00  0.00     0.028 C 
HETATM   11  C27 UNL     1      -5.042   8.154  13.206  1.00  0.00     0.013 C 
HETATM   12  C28 UNL     1      -4.440   8.396  14.587  1.00  0.00     0.040 C 
HETATM   13  C29 UNL     1      -3.517   7.197  14.903  1.00  0.00     0.070 C 
HETATM   14  C30 UNL     1      -2.091   7.598  15.347  1.00  0.00     0.026 C 
HETATM   15  C31 UNL     1      -2.043   8.335  16.706  1.00  0.00     0.011 C 
HETATM   16  C32 UNL     1      -0.727   9.105  16.937  1.00  0.00     0.039 C 
HETATM   17  C33 UNL     1       0.462   8.467  16.189  1.00  0.00     0.073 C 
HETATM   18  C34 UNL     1       1.810   9.070  16.618  1.00  0.00     0.071 C 
ENDROOT
BRANCH   1  19
HETATM   19  O2  UNL     1       3.392  10.834  16.500  1.00  0.00    -0.356 OA
BRANCH  19  20
HETATM   20  C3  UNL     1       4.460  10.300  15.716  1.00  0.00     0.263 C 
HETATM   21  O1  UNL     1       4.499   8.880  15.792  1.00  0.00    -0.354 OA
HETATM   22  C2  UNL     1       5.435   8.288  14.875  1.00  0.00     0.151 C 
HETATM   23  C1  UNL     1       4.700   7.895  13.598  1.00  0.00     0.042 C 
HETATM   24  C37 UNL     1       6.688   9.167  14.634  1.00  0.00     0.175 C 
HETATM   25  C36 UNL     1       6.976  10.008  15.886  1.00  0.00     0.154 C 
HETATM   26  C35 UNL     1       5.768  10.859  16.284  1.00  0.00     0.095 C 
BRANCH  24  27
HETATM   27  O8  UNL     1       6.493  10.046  13.520  1.00  0.00    -0.390 OA
HETATM   28  H51 UNL     1       7.357  10.446  13.314  1.00  0.00     0.210 HD
ENDBRANCH  24  27
BRANCH  25  29
HETATM   29  O7  UNL     1       7.370   9.164  16.969  1.00  0.00    -0.393 OA
HETATM   30  H49 UNL     1       6.563   8.749  17.334  1.00  0.00     0.210 HD
ENDBRANCH  25  29
ENDBRANCH  19  20
ENDBRANCH   1  19
BRANCH  17  31
HETATM   31  O6  UNL     1       0.498   7.094  16.632  1.00  0.00    -0.389 OA
HETATM   32  H43 UNL     1       0.738   7.087  17.577  1.00  0.00     0.210 HD
ENDBRANCH  17  31
BRANCH   4  33
HETATM   33  C8  UNL     1       0.941   7.353  13.986  1.00  0.00     0.068 C 
HETATM   34  N1  UNL     1       1.282   7.348  12.742  1.00  0.00    -0.401 N 
ATOM     35  H1  UNL     1       1.101   8.138  12.123  1.00  0.00     0.158 HD
BRANCH  34  36
HETATM   36  C9  UNL     1       1.949   6.124  12.283  1.00  0.00     0.123 C 
BRANCH  36  37
HETATM   37  C10 UNL     1       1.193   5.570  11.075  1.00  0.00     0.058 C 
BRANCH  37  38
HETATM   38  C11 UNL     1       1.358   6.444   9.857  1.00  0.00    -0.057 A 
HETATM   39  C12 UNL     1       0.448   7.475   9.591  1.00  0.00     0.007 A 
HETATM   40  C13 UNL     1       0.597   8.273   8.455  1.00  0.00     0.001 A 
HETATM   41  C14 UNL     1       1.652   8.044   7.574  1.00  0.00     0.000 A 
HETATM   42  C15 UNL     1       2.558   7.015   7.825  1.00  0.00     0.001 A 
HETATM   43  C16 UNL     1       2.412   6.218   8.961  1.00  0.00     0.007 A 
ENDBRANCH  37  38
ENDBRANCH  36  37
ENDBRANCH  34  36
ENDBRANCH   4  33
BRANCH  13  44
HETATM   44  O5  UNL     1      -4.149   6.494  15.980  1.00  0.00    -0.389 OA
HETATM   45  H37 UNL     1      -3.531   5.820  16.314  1.00  0.00     0.210 HD
ENDBRANCH  13  44
BRANCH  10  46
HETATM   46  C23 UNL     1      -6.042   5.836  13.242  1.00  0.00    -0.045 A 
HETATM   47  C24 UNL     1      -6.367   4.601  12.855  1.00  0.00     0.087 A 
HETATM   48  C25 UNL     1      -7.632   4.262  13.500  1.00  0.00     0.283 A 
HETATM   49  O3  UNL     1      -8.225   3.207  13.367  1.00  0.00    -0.260 OA
HETATM   50  O4  UNL     1      -8.033   5.307  14.272  1.00  0.00    -0.314 OA
HETATM   51  C26 UNL     1      -7.069   6.355  14.177  1.00  0.00     0.213 A 
ENDBRANCH  10  46
TORSDOF 11
ENDMDL
MODEL 2
REMARK minimizedAffinity -10.8248739
REMARK CNNscore 0.462532103
REMARK CNNaffinity 7.10433531
REMARK  11 active torsions:
REMARK  status: ('A' for Active; 'I' for Inactive)
REMARK    1  A    between atoms: C3_4  and  O2_5 
REMARK    2  A    between atoms: O2_5  and  C4_6 
REMARK    3  A    between atoms: C7_9  and  C8_10 
REMARK    4  A    between atoms: N1_11  and  C9_13 
REMARK    5  A    between atoms: C9_13  and  C10_14 
REMARK    6  A    between atoms: C10_14  and  C11_15 
REMARK    7  A    between atoms: C22_26  and  C23_27 
REMARK    8  A    between atoms: C29_35  and  O5_36 
REMARK    9  A    between atoms: C33_40  and  O6_41 
REMARK   10  A    between atoms: C36_44  and  O7_45 
REMARK   11  A    between atoms: C37_46  and  O8_47 
ROOT
HETATM    1  C4  UNL     1       1.743  10.667  16.203  1.00  0.00     0.127 C 
HETATM    2  C5  UNL     1       1.622  10.748  14.686  1.00  0.00     0.033 C 
HETATM    3  C6  UNL     1       0.271  10.213  14.223  1.00  0.00     0.021 C 
HETATM    4  C7  UNL     1      -0.053   8.756  14.684  1.00  0.00     0.026 C 
HETATM    5  C17 UNL     1      -1.603   8.538  14.424  1.00  0.00     0.009 C 
HETATM    6  C18 UNL     1      -2.005   8.285  12.958  1.00  0.00     0.007 C 
HETATM    7  C19 UNL     1      -2.463   6.855  12.696  1.00  0.00     0.013 C 
HETATM    8  C20 UNL     1      -3.605   6.310  13.620  1.00  0.00    -0.005 C 
HETATM    9  C21 UNL     1      -3.350   4.788  13.739  1.00  0.00     0.019 C 
HETATM   10  C22 UNL     1      -5.019   6.622  13.016  1.00  0.00     0.028 C 
HETATM   11  C27 UNL     1      -5.336   8.035  13.519  1.00  0.00     0.013 C 
HETATM   12  C28 UNL     1      -4.667   8.177  14.883  1.00  0.00     0.040 C 
HETATM   13  C29 UNL     1      -3.623   7.044  15.004  1.00  0.00     0.070 C 
HETATM   14  C30 UNL     1      -2.211   7.525  15.412  1.00  0.00     0.026 C 
HETATM   15  C31 UNL     1      -2.138   8.107  16.843  1.00  0.00     0.011 C 
HETATM   16  C32 UNL     1      -0.882   8.968  17.090  1.00  0.00     0.039 C 
HETATM   17  C33 UNL     1       0.305   8.534  16.206  1.00  0.00     0.073 C 
HETATM   18  C34 UNL     1       1.620   9.210  16.627  1.00  0.00     0.071 C 
ENDROOT
BRANCH   1  19
HETATM   19  O2  UNL     1       3.030  11.119  16.630  1.00  0.00    -0.356 OA
BRANCH  19  20
HETATM   20  C3  UNL     1       3.077  11.507  18.004  1.00  0.00     0.263 C 
HETATM   21  O1  UNL     1       4.309  11.130  18.608  1.00  0.00    -0.354 OA
HETATM   22  C2  UNL     1       4.477  11.663  19.933  1.00  0.00     0.151 C 
HETATM   23  C1  UNL     1       5.268  12.964  19.849  1.00  0.00     0.042 C 
HETATM   24  C37 UNL     1       3.144  11.786  20.712  1.00  0.00     0.175 C 
HETATM   25  C36 UNL     1       2.165  10.706  20.233  1.00  0.00     0.154 C 
HETATM   26  C35 UNL     1       1.935  10.783  18.722  1.00  0.00     0.095 C 
BRANCH  24  27
HETATM   27  O8  UNL     1       2.549  13.073  20.512  1.00  0.00    -0.390 OA
HETATM   28  H51 UNL     1       1.815  13.153  21.147  1.00  0.00     0.210 HD
ENDBRANCH  24  27
BRANCH  25  29
HETATM   29  O7  UNL     1       2.641   9.409  20.599  1.00  0.00    -0.393 OA
HETATM   30  H49 UNL     1       3.349   9.162  19.971  1.00  0.00     0.210 HD
ENDBRANCH  25  29
ENDBRANCH  19  20
ENDBRANCH   1  19
BRANCH  17  31
HETATM   31  O6  UNL     1       0.491   7.129  16.482  1.00  0.00    -0.389 OA
HETATM   32  H43 UNL     1       0.793   7.039  17.404  1.00  0.00     0.210 HD
ENDBRANCH  17  31
BRANCH   4  33
HETATM   33  C8  UNL     1       0.733   7.723  13.864  1.00  0.00     0.068 C 
HETATM   34  N1  UNL     1       1.638   8.066  13.012  1.00  0.00    -0.401 N 
ATOM     35  H1  UNL     1       1.893   9.040  12.846  1.00  0.00     0.158 HD
BRANCH  34  36
HETATM   36  C9  UNL     1       2.274   6.954  12.297  1.00  0.00     0.123 C 
BRANCH  36  37
HETATM   37  C10 UNL     1       1.247   6.312  11.364  1.00  0.00     0.058 C 
BRANCH  37  38
HETATM   38  C11 UNL     1       1.463   6.712   9.926  1.00  0.00    -0.057 A 
HETATM   39  C12 UNL     1       0.731   7.765   9.362  1.00  0.00     0.007 A 
HETATM   40  C13 UNL     1       0.924   8.124   8.027  1.00  0.00     0.001 A 
HETATM   41  C14 UNL     1       1.845   7.431   7.243  1.00  0.00     0.000 A 
HETATM   42  C15 UNL     1       2.572   6.377   7.792  1.00  0.00     0.001 A 
HETATM   43  C16 UNL     1       2.382   6.018   9.127  1.00  0.00     0.007 A 
ENDBRANCH  37  38
ENDBRANCH  36  37
ENDBRANCH  34  36
ENDBRANCH   4  33
BRANCH  13  44
HETATM   44  O5  UNL     1      -4.117   6.167  16.025  1.00  0.00    -0.389 OA
HETATM   45  H37 UNL     1      -3.422   5.521  16.241  1.00  0.00     0.210 HD
ENDBRANCH  13  44
BRANCH  10  46
HETATM   46  C23 UNL     1      -6.123   5.643  13.338  1.00  0.00    -0.045 A 
HETATM   47  C24 UNL     1      -6.406   4.466  12.777  1.00  0.00     0.087 A 
HETATM   48  C25 UNL     1      -7.568   3.920  13.474  1.00  0.00     0.283 A 
HETATM   49  O3  UNL     1      -8.100   2.856  13.219  1.00  0.00    -0.260 OA
HETATM   50  O4  UNL     1      -7.950   4.787  14.449  1.00  0.00    -0.314 OA
HETATM   51  C26 UNL     1      -7.073   5.914  14.443  1.00  0.00     0.213 A 
ENDBRANCH  10  46
TORSDOF 11
ENDMDL
MODEL 3
REMARK minimizedAffinity -8.93638229
REMARK CNNscore 0.44359839
REMARK CNNaffinity 7.02832413
REMARK  11 active torsions:
REMARK  status: ('A' for Active; 'I' for Inactive)
REMARK    1  A    between atoms: C3_4  and  O2_5 
REMARK    2  A    between atoms: O2_5  and  C4_6 
REMARK    3  A    between atoms: C7_9  and  C8_10 
REMARK    4  A    between atoms: N1_11  and  C9_13 
REMARK    5  A    between atoms: C9_13  and  C10_14 
REMARK    6  A    between atoms: C10_14  and  C11_15 
REMARK    7  A    between atoms: C22_26  and  C23_27 
REMARK    8  A    between atoms: C29_35  and  O5_36 
REMARK    9  A    between atoms: C33_40  and  O6_41 
REMARK   10  A    between atoms: C36_44  and  O7_45 
REMARK   11  A    between atoms: C37_46  and  O8_47 
ROOT
HETATM    1  C4  UNL     1       0.391   7.393  12.716  1.00  0.00     0.127 C 
HETATM    2  C5  UNL     1      -0.993   7.744  12.182  1.00  0.00     0.033 C 
HETATM    3  C6  UNL     1      -1.593   8.908  12.964  1.00  0.00     0.021 C 
HETATM    4  C7  UNL     1      -1.682   8.688  14.507  1.00  0.00     0.026 C 
HETATM    5  C17 UNL     1      -1.974  10.111  15.146  1.00  0.00     0.009 C 
HETATM    6  C18 UNL     1      -3.426  10.614  15.020  1.00  0.00     0.007 C 
HETATM    7  C19 UNL     1      -4.178  10.629  16.346  1.00  0.00     0.013 C 
HETATM    8  C20 UNL     1      -3.491  11.400  17.525  1.00  0.00    -0.005 C 
HETATM    9  C21 UNL     1      -3.933  10.665  18.813  1.00  0.00     0.019 C 
HETATM   10  C22 UNL     1      -3.916  12.911  17.537  1.00  0.00     0.028 C 
HETATM   11  C27 UNL     1      -2.933  13.583  16.573  1.00  0.00     0.013 C 
HETATM   12  C28 UNL     1      -1.622  12.809  16.671  1.00  0.00     0.040 C 
HETATM   13  C29 UNL     1      -1.936  11.455  17.347  1.00  0.00     0.070 C 
HETATM   14  C30 UNL     1      -1.407  10.225  16.573  1.00  0.00     0.026 C 
HETATM   15  C31 UNL     1       0.136  10.140  16.513  1.00  0.00     0.011 C 
HETATM   16  C32 UNL     1       0.653   9.197  15.407  1.00  0.00     0.039 C 
HETATM   17  C33 UNL     1      -0.349   8.070  15.086  1.00  0.00     0.073 C 
HETATM   18  C34 UNL     1       0.264   6.989  14.179  1.00  0.00     0.071 C 
ENDROOT
BRANCH   1  19
HETATM   19  O2  UNL     1       0.929   6.267  12.018  1.00  0.00    -0.356 OA
BRANCH  19  20
HETATM   20  C3  UNL     1       1.684   6.617  10.857  1.00  0.00     0.263 C 
HETATM   21  O1  UNL     1       0.995   6.262   9.664  1.00  0.00    -0.354 OA
HETATM   22  C2  UNL     1       1.628   6.761   8.473  1.00  0.00     0.151 C 
HETATM   23  C1  UNL     1       0.984   8.088   8.087  1.00  0.00     0.042 C 
HETATM   24  C37 UNL     1       3.172   6.820   8.585  1.00  0.00     0.175 C 
HETATM   25  C36 UNL     1       3.662   5.723   9.541  1.00  0.00     0.154 C 
HETATM   26  C35 UNL     1       3.000   5.837  10.916  1.00  0.00     0.095 C 
BRANCH  24  27
HETATM   27  O8  UNL     1       3.603   8.092   9.079  1.00  0.00    -0.390 OA
HETATM   28  H51 UNL     1       4.571   8.131   8.971  1.00  0.00     0.210 HD
ENDBRANCH  24  27
BRANCH  25  29
HETATM   29  O7  UNL     1       3.422   4.432   8.977  1.00  0.00    -0.393 OA
HETATM   30  H49 UNL     1       2.473   4.226   9.096  1.00  0.00     0.210 HD
ENDBRANCH  25  29
ENDBRANCH  19  20
ENDBRANCH   1  19
BRANCH  17  31
HETATM   31  O6  UNL     1      -0.601   7.413  16.347  1.00  0.00    -0.389 OA
HETATM   32  H43 UNL     1       0.222   6.973  16.628  1.00  0.00     0.210 HD
ENDBRANCH  17  31
BRANCH   4  33
HETATM   33  C8  UNL     1      -2.833   7.740  14.871  1.00  0.00     0.068 C 
HETATM   34  N1  UNL     1      -3.461   7.048  13.982  1.00  0.00    -0.401 N 
ATOM     35  H1  UNL     1      -3.218   7.080  12.992  1.00  0.00     0.158 HD
BRANCH  34  36
HETATM   36  C9  UNL     1      -4.550   6.211  14.499  1.00  0.00     0.123 C 
BRANCH  36  37
HETATM   37  C10 UNL     1      -5.029   6.788  15.832  1.00  0.00     0.058 C 
BRANCH  37  38
HETATM   38  C11 UNL     1      -6.473   7.219  15.774  1.00  0.00    -0.057 A 
HETATM   39  C12 UNL     1      -7.486   6.383  16.261  1.00  0.00     0.007 A 
HETATM   40  C13 UNL     1      -8.823   6.780  16.193  1.00  0.00     0.001 A 
HETATM   41  C14 UNL     1      -9.158   8.011  15.633  1.00  0.00     0.000 A 
HETATM   42  C15 UNL     1      -8.159   8.846  15.137  1.00  0.00     0.001 A 
HETATM   43  C16 UNL     1      -6.822   8.453  15.207  1.00  0.00     0.007 A 
ENDBRANCH  37  38
ENDBRANCH  36  37
ENDBRANCH  34  36
ENDBRANCH   4  33
BRANCH  13  44
HETATM   44  O5  UNL     1      -1.291  11.500  18.626  1.00  0.00    -0.389 OA
HETATM   45  H37 UNL     1      -1.333  10.613  19.026  1.00  0.00     0.210 HD
ENDBRANCH  13  44
BRANCH  10  46
HETATM   46  C23 UNL     1      -3.950  13.593  18.884  1.00  0.00    -0.045 A 
HETATM   47  C24 UNL     1      -4.875  13.537  19.843  1.00  0.00     0.087 A 
HETATM   48  C25 UNL     1      -4.409  14.374  20.946  1.00  0.00     0.283 A 
HETATM   49  O3  UNL     1      -5.010  14.556  21.988  1.00  0.00    -0.260 OA
HETATM   50  O4  UNL     1      -3.201  14.907  20.621  1.00  0.00    -0.314 OA
HETATM   51  C26 UNL     1      -2.823  14.452  19.322  1.00  0.00     0.213 A 
ENDBRANCH  10  46
TORSDOF 11
ENDMDL
MODEL 4
REMARK minimizedAffinity -8.91883087
REMARK CNNscore 0.435258269
REMARK CNNaffinity 7.24429703
REMARK  11 active torsions:
REMARK  status: ('A' for Active; 'I' for Inactive)
REMARK    1  A    between atoms: C3_4  and  O2_5 
REMARK    2  A    between atoms: O2_5  and  C4_6 
REMARK    3  A    between atoms: C7_9  and  C8_10 
REMARK    4  A    between atoms: N1_11  and  C9_13 
REMARK    5  A    between atoms: C9_13  and  C10_14 
REMARK    6  A    between atoms: C10_14  and  C11_15 
REMARK    7  A    between atoms: C22_26  and  C23_27 
REMARK    8  A    between atoms: C29_35  and  O5_36 
REMARK    9  A    between atoms: C33_40  and  O6_41 
REMARK   10  A    between atoms: C36_44  and  O7_45 
REMARK   11  A    between atoms: C37_46  and  O8_47 
ROOT
HETATM    1  C4  UNL     1      -4.087   7.209  13.899  1.00  0.00     0.127 C 
HETATM    2  C5  UNL     1      -3.249   6.299  14.789  1.00  0.00     0.033 C 
HETATM    3  C6  UNL     1      -2.167   7.098  15.510  1.00  0.00     0.021 C 
HETATM    4  C7  UNL     1      -1.218   7.912  14.576  1.00  0.00     0.026 C 
HETATM    5  C17 UNL     1      -0.434   8.928  15.510  1.00  0.00     0.009 C 
HETATM    6  C18 UNL     1       0.715   8.322  16.339  1.00  0.00     0.007 C 
HETATM    7  C19 UNL     1       2.097   8.762  15.868  1.00  0.00     0.013 C 
HETATM    8  C20 UNL     1       2.333  10.307  15.755  1.00  0.00    -0.005 C 
HETATM    9  C21 UNL     1       3.352  10.486  14.604  1.00  0.00     0.019 C 
HETATM   10  C22 UNL     1       2.866  10.898  17.107  1.00  0.00     0.028 C 
HETATM   11  C27 UNL     1       1.596  11.189  17.913  1.00  0.00     0.013 C 
HETATM   12  C28 UNL     1       0.509  11.553  16.906  1.00  0.00     0.040 C 
HETATM   13  C29 UNL     1       0.991  11.078  15.517  1.00  0.00     0.070 C 
HETATM   14  C30 UNL     1      -0.037  10.210  14.754  1.00  0.00     0.026 C 
HETATM   15  C31 UNL     1      -1.319  10.973  14.344  1.00  0.00     0.011 C 
HETATM   16  C32 UNL     1      -2.497  10.043  13.990  1.00  0.00     0.039 C 
HETATM   17  C33 UNL     1      -2.022   8.678  13.453  1.00  0.00     0.073 C 
HETATM   18  C34 UNL     1      -3.176   7.852  12.861  1.00  0.00     0.071 C 
ENDROOT
BRANCH   1  19
HETATM   19  O2  UNL     1      -5.065   6.451  13.183  1.00  0.00    -0.356 OA
BRANCH  19  20
HETATM   20  C3  UNL     1      -6.372   6.512  13.756  1.00  0.00     0.263 C 
HETATM   21  O1  UNL     1      -6.453   5.734  14.944  1.00  0.00    -0.354 OA
HETATM   22  C2  UNL     1      -7.690   5.913  15.656  1.00  0.00     0.151 C 
HETATM   23  C1  UNL     1      -7.497   6.978  16.730  1.00  0.00     0.042 C 
HETATM   24  C37 UNL     1      -8.897   6.175  14.720  1.00  0.00     0.175 C 
HETATM   25  C36 UNL     1      -8.661   5.486  13.369  1.00  0.00     0.154 C 
HETATM   26  C35 UNL     1      -7.349   5.939  12.725  1.00  0.00     0.095 C 
BRANCH  24  27
HETATM   27  O8  UNL     1      -9.079   7.578  14.499  1.00  0.00    -0.390 OA
HETATM   28  H51 UNL     1      -9.937   7.690  14.049  1.00  0.00     0.210 HD
ENDBRANCH  24  27
BRANCH  25  29
HETATM   29  O7  UNL     1      -8.673   4.066  13.530  1.00  0.00    -0.393 OA
HETATM   30  H49 UNL     1      -7.810   3.801  13.908  1.00  0.00     0.210 HD
ENDBRANCH  25  29
ENDBRANCH  19  20
ENDBRANCH   1  19
BRANCH  17  31
HETATM   31  O6  UNL     1      -1.161   8.987  12.336  1.00  0.00    -0.389 OA
HETATM   32  H43 UNL     1      -1.708   9.380  11.631  1.00  0.00     0.210 HD
ENDBRANCH  17  31
BRANCH   4  33
HETATM   33  C8  UNL     1      -0.199   6.998  13.880  1.00  0.00     0.068 C 
HETATM   34  N1  UNL     1       0.685   7.452  13.059  1.00  0.00    -0.401 N 
ATOM     35  H1  UNL     1       0.767   8.444  12.838  1.00  0.00     0.158 HD
BRANCH  34  36
HETATM   36  C9  UNL     1       1.564   6.437  12.466  1.00  0.00     0.123 C 
BRANCH  36  37
HETATM   37  C10 UNL     1       0.863   5.822  11.254  1.00  0.00     0.058 C 
BRANCH  37  38
HETATM   38  C11 UNL     1       1.230   6.527   9.972  1.00  0.00    -0.057 A 
HETATM   39  C12 UNL     1       2.426   6.221   9.308  1.00  0.00     0.007 A 
HETATM   40  C13 UNL     1       2.769   6.885   8.129  1.00  0.00     0.001 A 
HETATM   41  C14 UNL     1       1.924   7.863   7.607  1.00  0.00     0.000 A 
HETATM   42  C15 UNL     1       0.737   8.181   8.265  1.00  0.00     0.001 A 
HETATM   43  C16 UNL     1       0.391   7.517   9.442  1.00  0.00     0.007 A 
ENDBRANCH  37  38
ENDBRANCH  36  37
ENDBRANCH  34  36
ENDBRANCH   4  33
BRANCH  13  44
HETATM   44  O5  UNL     1       1.230  12.271  14.759  1.00  0.00    -0.389 OA
HETATM   45  H37 UNL     1       1.390  12.022  13.832  1.00  0.00     0.210 HD
ENDBRANCH  13  44
BRANCH  10  46
HETATM   46  C23 UNL     1       3.767  12.107  17.008  1.00  0.00    -0.045 A 
HETATM   47  C24 UNL     1       5.064  12.179  16.707  1.00  0.00     0.087 A 
HETATM   48  C25 UNL     1       5.440  13.590  16.738  1.00  0.00     0.283 A 
HETATM   49  O3  UNL     1       6.556  14.022  16.514  1.00  0.00    -0.260 OA
HETATM   50  O4  UNL     1       4.347  14.336  17.049  1.00  0.00    -0.314 OA
HETATM   51  C26 UNL     1       3.226  13.470  17.228  1.00  0.00     0.213 A 
ENDBRANCH  10  46
TORSDOF 11
ENDMDL
MODEL 5
REMARK minimizedAffinity -8.19711208
REMARK CNNscore 0.425500393
REMARK CNNaffinity 6.62855911
REMARK  11 active torsions:
REMARK  status: ('A' for Active; 'I' for Inactive)
REMARK    1  A    between atoms: C3_4  and  O2_5 
REMARK    2  A    between atoms: O2_5  and  C4_6 
REMARK    3  A    between atoms: C7_9  and  C8_10 
REMARK    4  A    between atoms: N1_11  and  C9_13 
REMARK    5  A    between atoms: C9_13  and  C10_14 
REMARK    6  A    between atoms: C10_14  and  C11_15 
REMARK    7  A    between atoms: C22_26  and  C23_27 
REMARK    8  A    between atoms: C29_35  and  O5_36 
REMARK    9  A    between atoms: C33_40  and  O6_41 
REMARK   10  A    between atoms: C36_44  and  O7_45 
REMARK   11  A    between atoms: C37_46  and  O8_47 
ROOT
HETATM    1  C4  UNL     1      -4.038   7.101  14.726  1.00  0.00     0.127 C 
HETATM    2  C5  UNL     1      -2.622   6.539  14.690  1.00  0.00     0.033 C 
HETATM    3  C6  UNL     1      -1.707   7.321  15.626  1.00  0.00     0.021 C 
HETATM    4  C7  UNL     1      -1.652   8.858  15.361  1.00  0.00     0.026 C 
HETATM    5  C17 UNL     1      -0.963   9.508  16.633  1.00  0.00     0.009 C 
HETATM    6  C18 UNL     1       0.568   9.353  16.716  1.00  0.00     0.007 C 
HETATM    7  C19 UNL     1       1.321  10.661  16.497  1.00  0.00     0.013 C 
HETATM    8  C20 UNL     1       0.899  11.866  17.405  1.00  0.00    -0.005 C 
HETATM    9  C21 UNL     1       1.145  13.133  16.551  1.00  0.00     0.019 C 
HETATM   10  C22 UNL     1       1.728  11.888  18.737  1.00  0.00     0.028 C 
HETATM   11  C27 UNL     1       0.951  10.957  19.675  1.00  0.00     0.013 C 
HETATM   12  C28 UNL     1      -0.521  11.077  19.293  1.00  0.00     0.040 C 
HETATM   13  C29 UNL     1      -0.582  11.727  17.893  1.00  0.00     0.070 C 
HETATM   14  C30 UNL     1      -1.447  10.950  16.873  1.00  0.00     0.026 C 
HETATM   15  C31 UNL     1      -2.955  10.927  17.220  1.00  0.00     0.011 C 
HETATM   16  C32 UNL     1      -3.735   9.821  16.480  1.00  0.00     0.039 C 
HETATM   17  C33 UNL     1      -3.093   9.461  15.125  1.00  0.00     0.073 C 
HETATM   18  C34 UNL     1      -3.999   8.555  14.275  1.00  0.00     0.071 C 
ENDROOT
BRANCH   1  19
HETATM   19  O2  UNL     1      -4.881   6.402  13.808  1.00  0.00    -0.356 OA
BRANCH  19  20
HETATM   20  C3  UNL     1      -6.269   6.460  14.143  1.00  0.00     0.263 C 
HETATM   21  O1  UNL     1      -6.535   5.785  15.367  1.00  0.00    -0.354 OA
HETATM   22  C2  UNL     1      -7.880   5.975  15.838  1.00  0.00     0.151 C 
HETATM   23  C1  UNL     1      -7.901   7.136  16.827  1.00  0.00     0.042 C 
HETATM   24  C37 UNL     1      -8.913   6.108  14.691  1.00  0.00     0.175 C 
HETATM   25  C36 UNL     1      -8.431   5.314  13.469  1.00  0.00     0.154 C 
HETATM   26  C35 UNL     1      -7.040   5.762  13.018  1.00  0.00     0.095 C 
BRANCH  24  27
HETATM   27  O8  UNL     1      -9.089   7.478  14.314  1.00  0.00    -0.390 OA
HETATM   28  H51 UNL     1      -9.859   7.516  13.718  1.00  0.00     0.210 HD
ENDBRANCH  24  27
BRANCH  25  29
HETATM   29  O7  UNL     1      -8.436   3.914  13.755  1.00  0.00    -0.393 OA
HETATM   30  H49 UNL     1      -7.646   3.717  14.297  1.00  0.00     0.210 HD
ENDBRANCH  25  29
ENDBRANCH  19  20
ENDBRANCH   1  19
BRANCH  17  31
HETATM   31  O6  UNL     1      -3.008  10.707  14.400  1.00  0.00    -0.389 OA
HETATM   32  H43 UNL     1      -3.915  11.002  14.200  1.00  0.00     0.210 HD
ENDBRANCH  17  31
BRANCH   4  33
HETATM   33  C8  UNL     1      -0.803   9.181  14.123  1.00  0.00     0.068 C 
HETATM   34  N1  UNL     1       0.029   8.335  13.620  1.00  0.00    -0.401 N 
ATOM     35  H1  UNL     1       0.158   7.399  14.006  1.00  0.00     0.158 HD
BRANCH  34  36
HETATM   36  C9  UNL     1       0.777   8.815  12.452  1.00  0.00     0.123 C 
BRANCH  36  37
HETATM   37  C10 UNL     1       0.219   8.143  11.196  1.00  0.00     0.058 C 
BRANCH  37  38
HETATM   38  C11 UNL     1       0.108   6.648  11.358  1.00  0.00    -0.057 A 
HETATM   39  C12 UNL     1       1.248   5.837  11.286  1.00  0.00     0.007 A 
HETATM   40  C13 UNL     1       1.139   4.452  11.423  1.00  0.00     0.001 A 
HETATM   41  C14 UNL     1      -0.109   3.866  11.627  1.00  0.00     0.000 A 
HETATM   42  C15 UNL     1      -1.249   4.663  11.691  1.00  0.00     0.001 A 
HETATM   43  C16 UNL     1      -1.143   6.047  11.557  1.00  0.00     0.007 A 
ENDBRANCH  37  38
ENDBRANCH  36  37
ENDBRANCH  34  36
ENDBRANCH   4  33
BRANCH  13  44
HETATM   44  O5  UNL     1      -1.165  13.022  18.090  1.00  0.00    -0.389 OA
HETATM   45  H37 UNL     1      -1.362  13.409  17.219  1.00  0.00     0.210 HD
ENDBRANCH  13  44
BRANCH  10  46
HETATM   46  C23 UNL     1       1.976  13.242  19.357  1.00  0.00    -0.045 A 
HETATM   47  C24 UNL     1       2.562  14.322  18.837  1.00  0.00     0.087 A 
HETATM   48  C25 UNL     1       2.531  15.367  19.856  1.00  0.00     0.283 A 
HETATM   49  O3  UNL     1       2.984  16.489  19.721  1.00  0.00    -0.260 OA
HETATM   50  O4  UNL     1       1.913  14.888  20.968  1.00  0.00    -0.314 OA
HETATM   51  C26 UNL     1       1.513  13.537  20.735  1.00  0.00     0.213 A 
ENDBRANCH  10  46
TORSDOF 11
ENDMDL
MODEL 6
REMARK minimizedAffinity -11.2385321
REMARK CNNscore 0.410405427
REMARK CNNaffinity 7.2241993
REMARK  11 active torsions:
REMARK  status: ('A' for Active; 'I' for Inactive)
REMARK    1  A    between atoms: C3_4  and  O2_5 
REMARK    2  A    between atoms: O2_5  and  C4_6 
REMARK    3  A    between atoms: C7_9  and  C8_10 
REMARK    4  A    between atoms: N1_11  and  C9_13 
REMARK    5  A    between atoms: C9_13  and  C10_14 
REMARK    6  A    between atoms: C10_14  and  C11_15 
REMARK    7  A    between atoms: C22_26  and  C23_27 
REMARK    8  A    between atoms: C29_35  and  O5_36 
REMARK    9  A    between atoms: C33_40  and  O6_41 
REMARK   10  A    between atoms: C36_44  and  O7_45 
REMARK   11  A    between atoms: C37_46  and  O8_47 
ROOT
HETATM    1  C4  UNL     1       3.160   9.896  14.527  1.00  0.00     0.127 C 
HETATM    2  C5  UNL     1       2.782   9.709  13.062  1.00  0.00     0.033 C 
HETATM    3  C6  UNL     1       1.295   9.401  12.925  1.00  0.00     0.021 C 
HETATM    4  C7  UNL     1       0.800   8.165  13.741  1.00  0.00     0.026 C 
HETATM    5  C17 UNL     1      -0.784   8.243  13.755  1.00  0.00     0.009 C 
HETATM    6  C18 UNL     1      -1.486   7.807  12.454  1.00  0.00     0.007 C 
HETATM    7  C19 UNL     1      -2.237   6.486  12.586  1.00  0.00     0.013 C 
HETATM    8  C20 UNL     1      -3.272   6.390  13.758  1.00  0.00    -0.005 C 
HETATM    9  C21 UNL     1      -3.281   4.900  14.179  1.00  0.00     0.019 C 
HETATM   10  C22 UNL     1      -4.691   6.879  13.303  1.00  0.00     0.028 C 
HETATM   11  C27 UNL     1      -4.648   8.397  13.515  1.00  0.00     0.013 C 
HETATM   12  C28 UNL     1      -3.728   8.648  14.706  1.00  0.00     0.040 C 
HETATM   13  C29 UNL     1      -2.904   7.361  14.931  1.00  0.00     0.070 C 
HETATM   14  C30 UNL     1      -1.378   7.594  15.020  1.00  0.00     0.026 C 
HETATM   15  C31 UNL     1      -0.940   8.409  16.260  1.00  0.00     0.011 C 
HETATM   16  C32 UNL     1       0.475   9.008  16.129  1.00  0.00     0.039 C 
HETATM   17  C33 UNL     1       1.382   8.166  15.209  1.00  0.00     0.073 C 
HETATM   18  C34 UNL     1       2.853   8.609  15.280  1.00  0.00     0.071 C 
ENDROOT
BRANCH   1  19
HETATM   19  O2  UNL     1       4.564  10.131  14.658  1.00  0.00    -0.356 OA
BRANCH  19  20
HETATM   20  C3  UNL     1       5.364   9.341  13.777  1.00  0.00     0.263 C 
HETATM   21  O1  UNL     1       4.595   8.319  13.154  1.00  0.00    -0.354 OA
HETATM   22  C2  UNL     1       5.311   7.620  12.122  1.00  0.00     0.151 C 
HETATM   23  C1  UNL     1       4.993   8.259  10.774  1.00  0.00     0.042 C 
HETATM   24  C37 UNL     1       6.827   7.491  12.414  1.00  0.00     0.175 C 
HETATM   25  C36 UNL     1       7.058   7.457  13.931  1.00  0.00     0.154 C 
HETATM   26  C35 UNL     1       6.461   8.685  14.621  1.00  0.00     0.095 C 
BRANCH  24  27
HETATM   27  O8  UNL     1       7.552   8.594  11.860  1.00  0.00    -0.390 OA
HETATM   28  H51 UNL     1       8.500   8.379  11.927  1.00  0.00     0.210 HD
ENDBRANCH  24  27
BRANCH  25  29
HETATM   29  O7  UNL     1       6.514   6.258  14.487  1.00  0.00    -0.393 OA
HETATM   30  H49 UNL     1       5.545   6.374  14.555  1.00  0.00     0.210 HD
ENDBRANCH  25  29
ENDBRANCH  19  20
ENDBRANCH   1  19
BRANCH  17  31
HETATM   31  O6  UNL     1       1.356   6.833  15.765  1.00  0.00    -0.389 OA
HETATM   32  H43 UNL     1       1.800   6.859  16.632  1.00  0.00     0.210 HD
ENDBRANCH  17  31
BRANCH   4  33
HETATM   33  C8  UNL     1       1.222   6.849  13.072  1.00  0.00     0.068 C 
HETATM   34  N1  UNL     1       1.250   6.707  11.791  1.00  0.00    -0.401 N 
ATOM     35  H1  UNL     1       1.010   7.464  11.151  1.00  0.00     0.158 HD
BRANCH  34  36
HETATM   36  C9  UNL     1       1.654   5.377  11.321  1.00  0.00     0.123 C 
BRANCH  36  37
HETATM   37  C10 UNL     1       2.822   5.529  10.345  1.00  0.00     0.058 C 
BRANCH  37  38
HETATM   38  C11 UNL     1       2.389   6.152   9.041  1.00  0.00    -0.057 A 
HETATM   39  C12 UNL     1       2.833   5.629   7.819  1.00  0.00     0.007 A 
HETATM   40  C13 UNL     1       2.441   6.217   6.615  1.00  0.00     0.001 A 
HETATM   41  C14 UNL     1       1.608   7.334   6.622  1.00  0.00     0.000 A 
HETATM   42  C15 UNL     1       1.168   7.867   7.832  1.00  0.00     0.001 A 
HETATM   43  C16 UNL     1       1.557   7.280   9.036  1.00  0.00     0.007 A 
ENDBRANCH  37  38
ENDBRANCH  36  37
ENDBRANCH  34  36
ENDBRANCH   4  33
BRANCH  13  44
HETATM   44  O5  UNL     1      -3.355   6.824  16.181  1.00  0.00    -0.389 OA
HETATM   45  H37 UNL     1      -2.762   6.097  16.438  1.00  0.00     0.210 HD
ENDBRANCH  13  44
BRANCH  10  46
HETATM   46  C23 UNL     1      -5.878   6.242  13.987  1.00  0.00    -0.045 A 
HETATM   47  C24 UNL     1      -6.531   6.622  15.086  1.00  0.00     0.087 A 
HETATM   48  C25 UNL     1      -7.609   5.662  15.305  1.00  0.00     0.283 A 
HETATM   49  O3  UNL     1      -8.405   5.701  16.225  1.00  0.00    -0.260 OA
HETATM   50  O4  UNL     1      -7.582   4.728  14.317  1.00  0.00    -0.314 OA
HETATM   51  C26 UNL     1      -6.512   5.027  13.420  1.00  0.00     0.213 A 
ENDBRANCH  10  46
TORSDOF 11
ENDMDL
MODEL 7
REMARK minimizedAffinity -9.95260715
REMARK CNNscore 0.362653047
REMARK CNNaffinity 6.95371246
REMARK  11 active torsions:
REMARK  status: ('A' for Active; 'I' for Inactive)
REMARK    1  A    between atoms: C3_4  and  O2_5 
REMARK    2  A    between atoms: O2_5  and  C4_6 
REMARK    3  A    between atoms: C7_9  and  C8_10 
REMARK    4  A    between atoms: N1_11  and  C9_13 
REMARK    5  A    between atoms: C9_13  and  C10_14 
REMARK    6  A    between atoms: C10_14  and  C11_15 
REMARK    7  A    between atoms: C22_26  and  C23_27 
REMARK    8  A    between atoms: C29_35  and  O5_36 
REMARK    9  A    between atoms: C33_40  and  O6_41 
REMARK   10  A    between atoms: C36_44  and  O7_45 
REMARK   11  A    between atoms: C37_46  and  O8_47 
ROOT
HETATM    1  C4  UNL     1       0.074   7.407  12.629  1.00  0.00     0.127 C 
HETATM    2  C5  UNL     1      -1.360   7.724  12.224  1.00  0.00     0.033 C 
HETATM    3  C6  UNL     1      -1.896   8.911  13.019  1.00  0.00     0.021 C 
HETATM    4  C7  UNL     1      -1.829   8.748  14.570  1.00  0.00     0.026 C 
HETATM    5  C17 UNL     1      -2.076  10.190  15.183  1.00  0.00     0.009 C 
HETATM    6  C18 UNL     1      -3.540  10.673  15.183  1.00  0.00     0.007 C 
HETATM    7  C19 UNL     1      -4.157  10.731  16.577  1.00  0.00     0.013 C 
HETATM    8  C20 UNL     1      -3.368  11.552  17.653  1.00  0.00    -0.005 C 
HETATM    9  C21 UNL     1      -3.670  10.860  19.004  1.00  0.00     0.019 C 
HETATM   10  C22 UNL     1      -3.810  13.057  17.653  1.00  0.00     0.028 C 
HETATM   11  C27 UNL     1      -2.936  13.703  16.572  1.00  0.00     0.013 C 
HETATM   12  C28 UNL     1      -1.611  12.947  16.568  1.00  0.00     0.040 C 
HETATM   13  C29 UNL     1      -1.839  11.616  17.319  1.00  0.00     0.070 C 
HETATM   14  C30 UNL     1      -1.372  10.363  16.542  1.00  0.00     0.026 C 
HETATM   15  C31 UNL     1       0.159  10.291  16.332  1.00  0.00     0.011 C 
HETATM   16  C32 UNL     1       0.577   9.313  15.214  1.00  0.00     0.039 C 
HETATM   17  C33 UNL     1      -0.437   8.164  15.035  1.00  0.00     0.073 C 
HETATM   18  C34 UNL     1       0.098   7.057  14.111  1.00  0.00     0.071 C 
ENDROOT
BRANCH   1  19
HETATM   19  O2  UNL     1       0.555   6.262  11.923  1.00  0.00    -0.356 OA
BRANCH  19  20
HETATM   20  C3  UNL     1       1.470   6.577  10.871  1.00  0.00     0.263 C 
HETATM   21  O1  UNL     1       0.911   6.290   9.595  1.00  0.00    -0.354 OA
HETATM   22  C2  UNL     1       1.718   6.764   8.503  1.00  0.00     0.151 C 
HETATM   23  C1  UNL     1       1.218   8.139   8.074  1.00  0.00     0.042 C 
HETATM   24  C37 UNL     1       3.237   6.712   8.804  1.00  0.00     0.175 C 
HETATM   25  C36 UNL     1       3.530   5.568   9.785  1.00  0.00     0.154 C 
HETATM   26  C35 UNL     1       2.713   5.705  11.071  1.00  0.00     0.095 C 
BRANCH  24  27
HETATM   27  O8  UNL     1       3.689   7.943   9.378  1.00  0.00    -0.390 OA
HETATM   28  H51 UNL     1       4.663   7.915   9.390  1.00  0.00     0.210 HD
ENDBRANCH  24  27
BRANCH  25  29
HETATM   29  O7  UNL     1       3.275   4.307   9.164  1.00  0.00    -0.393 OA
HETATM   30  H49 UNL     1       2.307   4.165   9.161  1.00  0.00     0.210 HD
ENDBRANCH  25  29
ENDBRANCH  19  20
ENDBRANCH   1  19
BRANCH  17  31
HETATM   31  O6  UNL     1      -0.554   7.553  16.338  1.00  0.00    -0.389 OA
HETATM   32  H43 UNL     1       0.299   7.131  16.551  1.00  0.00     0.210 HD
ENDBRANCH  17  31
BRANCH   4  33
HETATM   33  C8  UNL     1      -2.925   7.802  15.080  1.00  0.00     0.068 C 
HETATM   34  N1  UNL     1      -4.051   7.662  14.469  1.00  0.00    -0.401 N 
ATOM     35  H1  UNL     1      -4.271   8.158  13.605  1.00  0.00     0.158 HD
BRANCH  34  36
HETATM   36  C9  UNL     1      -4.995   6.735  15.105  1.00  0.00     0.123 C 
BRANCH  36  37
HETATM   37  C10 UNL     1      -6.257   6.645  14.246  1.00  0.00     0.058 C 
BRANCH  37  38
HETATM   38  C11 UNL     1      -6.410   5.286  13.610  1.00  0.00    -0.057 A 
HETATM   39  C12 UNL     1      -7.620   4.586  13.706  1.00  0.00     0.007 A 
HETATM   40  C13 UNL     1      -7.753   3.323  13.128  1.00  0.00     0.001 A 
HETATM   41  C14 UNL     1      -6.679   2.747  12.453  1.00  0.00     0.000 A 
HETATM   42  C15 UNL     1      -5.468   3.431  12.360  1.00  0.00     0.001 A 
HETATM   43  C16 UNL     1      -5.333   4.694  12.935  1.00  0.00     0.007 A 
ENDBRANCH  37  38
ENDBRANCH  36  37
ENDBRANCH  34  36
ENDBRANCH   4  33
BRANCH  13  44
HETATM   44  O5  UNL     1      -1.070  11.714  18.526  1.00  0.00    -0.389 OA
HETATM   45  H37 UNL     1      -1.061  10.843  18.959  1.00  0.00     0.210 HD
ENDBRANCH  13  44
BRANCH  10  46
HETATM   46  C23 UNL     1      -3.719  13.789  18.971  1.00  0.00    -0.045 A 
HETATM   47  C24 UNL     1      -2.697  14.464  19.500  1.00  0.00     0.087 A 
HETATM   48  C25 UNL     1      -3.144  14.988  20.788  1.00  0.00     0.283 A 
HETATM   49  O3  UNL     1      -2.463  15.653  21.547  1.00  0.00    -0.260 OA
HETATM   50  O4  UNL     1      -4.436  14.620  20.996  1.00  0.00    -0.314 OA
HETATM   51  C26 UNL     1      -4.891  13.858  19.877  1.00  0.00     0.213 A 
ENDBRANCH  10  46
TORSDOF 11
ENDMDL
MODEL 8
REMARK minimizedAffinity -9.65023136
REMARK CNNscore 0.359172463
REMARK CNNaffinity 7.16646338
REMARK  11 active torsions:
REMARK  status: ('A' for Active; 'I' for Inactive)
REMARK    1  A    between atoms: C3_4  and  O2_5 
REMARK    2  A    between atoms: O2_5  and  C4_6 
REMARK    3  A    between atoms: C7_9  and  C8_10 
REMARK    4  A    between atoms: N1_11  and  C9_13 
REMARK    5  A    between atoms: C9_13  and  C10_14 
REMARK    6  A    between atoms: C10_14  and  C11_15 
REMARK    7  A    between atoms: C22_26  and  C23_27 
REMARK    8  A    between atoms: C29_35  and  O5_36 
REMARK    9  A    between atoms: C33_40  and  O6_41 
REMARK   10  A    between atoms: C36_44  and  O7_45 
REMARK   11  A    between atoms: C37_46  and  O8_47 
ROOT
HETATM    1  C4  UNL     1      -3.656   6.192  13.901  1.00  0.00     0.127 C 
HETATM    2  C5  UNL     1      -2.502   5.252  14.229  1.00  0.00     0.033 C 
HETATM    3  C6  UNL     1      -1.305   6.034  14.762  1.00  0.00     0.021 C 
HETATM    4  C7  UNL     1      -0.788   7.168  13.821  1.00  0.00     0.026 C 
HETATM    5  C17 UNL     1       0.184   8.067  14.695  1.00  0.00     0.009 C 
HETATM    6  C18 UNL     1       1.587   7.481  14.949  1.00  0.00     0.007 C 
HETATM    7  C19 UNL     1       2.694   8.221  14.205  1.00  0.00     0.013 C 
HETATM    8  C20 UNL     1       2.761   9.771  14.422  1.00  0.00    -0.005 C 
HETATM    9  C21 UNL     1       3.319  10.349  13.099  1.00  0.00     0.019 C 
HETATM   10  C22 UNL     1       3.669  10.132  15.649  1.00  0.00     0.028 C 
HETATM   11  C27 UNL     1       2.724  10.042  16.853  1.00  0.00     0.013 C 
HETATM   12  C28 UNL     1       1.339  10.443  16.354  1.00  0.00     0.040 C 
HETATM   13  C29 UNL     1       1.362  10.358  14.812  1.00  0.00     0.070 C 
HETATM   14  C30 UNL     1       0.207   9.527  14.207  1.00  0.00     0.026 C 
HETATM   15  C31 UNL     1      -1.192  10.153  14.417  1.00  0.00     0.011 C 
HETATM   16  C32 UNL     1      -2.347   9.151  14.217  1.00  0.00     0.039 C 
HETATM   17  C33 UNL     1      -1.977   8.024  13.232  1.00  0.00     0.073 C 
HETATM   18  C34 UNL     1      -3.197   7.177  12.833  1.00  0.00     0.071 C 
ENDROOT
BRANCH   1  19
HETATM   19  O2  UNL     1      -4.757   5.465  13.351  1.00  0.00    -0.356 OA
BRANCH  19  20
HETATM   20  C3  UNL     1      -5.961   5.582  14.111  1.00  0.00     0.263 C 
HETATM   21  O1  UNL     1      -6.823   6.574  13.567  1.00  0.00    -0.354 OA
HETATM   22  C2  UNL     1      -8.122   6.597  14.184  1.00  0.00     0.151 C 
HETATM   23  C1  UNL     1      -9.081   5.746  13.358  1.00  0.00     0.042 C 
HETATM   24  C37 UNL     1      -8.087   6.226  15.688  1.00  0.00     0.175 C 
HETATM   25  C36 UNL     1      -6.734   6.634  16.288  1.00  0.00     0.154 C 
HETATM   26  C35 UNL     1      -5.566   5.999  15.531  1.00  0.00     0.095 C 
BRANCH  24  27
HETATM   27  O8  UNL     1      -8.270   4.818  15.873  1.00  0.00    -0.390 OA
HETATM   28  H51 UNL     1      -8.405   4.668  16.826  1.00  0.00     0.210 HD
ENDBRANCH  24  27
BRANCH  25  29
HETATM   29  O7  UNL     1      -6.607   8.057  16.298  1.00  0.00    -0.393 OA
HETATM   30  H49 UNL     1      -6.383   8.344  15.390  1.00  0.00     0.210 HD
ENDBRANCH  25  29
ENDBRANCH  19  20
ENDBRANCH   1  19
BRANCH  17  31
HETATM   31  O6  UNL     1      -1.566   8.696  12.022  1.00  0.00    -0.389 OA
HETATM   32  H43 UNL     1      -2.346   9.141  11.643  1.00  0.00     0.210 HD
ENDBRANCH  17  31
BRANCH   4  33
HETATM   33  C8  UNL     1       0.005   6.593  12.638  1.00  0.00     0.068 C 
HETATM   34  N1  UNL     1       0.551   5.426  12.678  1.00  0.00    -0.401 N 
ATOM     35  H1  UNL     1       0.474   4.814  13.491  1.00  0.00     0.158 HD
BRANCH  34  36
HETATM   36  C9  UNL     1       1.291   5.043  11.471  1.00  0.00     0.123 C 
BRANCH  36  37
HETATM   37  C10 UNL     1       2.270   6.163  11.112  1.00  0.00     0.058 C 
BRANCH  37  38
HETATM   38  C11 UNL     1       2.106   6.619   9.684  1.00  0.00    -0.057 A 
HETATM   39  C12 UNL     1       1.354   7.762   9.382  1.00  0.00     0.007 A 
HETATM   40  C13 UNL     1       1.194   8.172   8.058  1.00  0.00     0.001 A 
HETATM   41  C14 UNL     1       1.779   7.443   7.025  1.00  0.00     0.000 A 
HETATM   42  C15 UNL     1       2.522   6.300   7.313  1.00  0.00     0.001 A 
HETATM   43  C16 UNL     1       2.685   5.889   8.636  1.00  0.00     0.007 A 
ENDBRANCH  37  38
ENDBRANCH  36  37
ENDBRANCH  34  36
ENDBRANCH   4  33
BRANCH  13  44
HETATM   44  O5  UNL     1       1.243  11.709  14.346  1.00  0.00    -0.389 OA
HETATM   45  H37 UNL     1       1.101  11.693  13.384  1.00  0.00     0.210 HD
ENDBRANCH  13  44
BRANCH  10  46
HETATM   46  C23 UNL     1       4.390  11.458  15.590  1.00  0.00    -0.045 A 
HETATM   47  C24 UNL     1       5.492  11.798  14.918  1.00  0.00     0.087 A 
HETATM   48  C25 UNL     1       5.754  13.207  15.198  1.00  0.00     0.283 A 
HETATM   49  O3  UNL     1       6.687  13.848  14.750  1.00  0.00    -0.260 OA
HETATM   50  O4  UNL     1       4.790  13.683  16.030  1.00  0.00    -0.314 OA
HETATM   51  C26 UNL     1       3.866  12.635  16.324  1.00  0.00     0.213 A 
ENDBRANCH  10  46
TORSDOF 11
ENDMDL
MODEL 9
REMARK minimizedAffinity -8.99827957
REMARK CNNscore 0.353828967
REMARK CNNaffinity 6.99371386
REMARK  11 active torsions:
REMARK  status: ('A' for Active; 'I' for Inactive)
REMARK    1  A    between atoms: C3_4  and  O2_5 
REMARK    2  A    between atoms: O2_5  and  C4_6 
REMARK    3  A    between atoms: C7_9  and  C8_10 
REMARK    4  A    between atoms: N1_11  and  C9_13 
REMARK    5  A    between atoms: C9_13  and  C10_14 
REMARK    6  A    between atoms: C10_14  and  C11_15 
REMARK    7  A    between atoms: C22_26  and  C23_27 
REMARK    8  A    between atoms: C29_35  and  O5_36 
REMARK    9  A    between atoms: C33_40  and  O6_41 
REMARK   10  A    between atoms: C36_44  and  O7_45 
REMARK   11  A    between atoms: C37_46  and  O8_47 
ROOT
HETATM    1  C4  UNL     1      -3.227   6.726  13.663  1.00  0.00     0.127 C 
HETATM    2  C5  UNL     1      -2.028   5.863  14.039  1.00  0.00     0.033 C 
HETATM    3  C6  UNL     1      -1.074   6.633  14.947  1.00  0.00     0.021 C 
HETATM    4  C7  UNL     1      -0.563   7.989  14.366  1.00  0.00     0.026 C 
HETATM    5  C17 UNL     1       0.093   8.776  15.578  1.00  0.00     0.009 C 
HETATM    6  C18 UNL     1       1.496   8.300  16.002  1.00  0.00     0.007 C 
HETATM    7  C19 UNL     1       2.601   9.293  15.658  1.00  0.00     0.013 C 
HETATM    8  C20 UNL     1       2.403  10.759  16.173  1.00  0.00    -0.005 C 
HETATM    9  C21 UNL     1       3.102  11.663  15.130  1.00  0.00     0.019 C 
HETATM   10  C22 UNL     1       3.011  10.941  17.608  1.00  0.00     0.028 C 
HETATM   11  C27 UNL     1       1.886  10.497  18.550  1.00  0.00     0.013 C 
HETATM   12  C28 UNL     1       0.571  10.848  17.860  1.00  0.00     0.040 C 
HETATM   13  C29 UNL     1       0.886  11.100  16.368  1.00  0.00     0.070 C 
HETATM   14  C30 UNL     1      -0.007  10.302  15.390  1.00  0.00     0.026 C 
HETATM   15  C31 UNL     1      -1.497  10.719  15.421  1.00  0.00     0.011 C 
HETATM   16  C32 UNL     1      -2.439   9.668  14.800  1.00  0.00     0.039 C 
HETATM   17  C33 UNL     1      -1.737   8.823  13.716  1.00  0.00     0.073 C 
HETATM   18  C34 UNL     1      -2.729   7.959  12.920  1.00  0.00     0.071 C 
ENDROOT
BRANCH   1  19
HETATM   19  O2  UNL     1      -4.092   6.022  12.769  1.00  0.00    -0.356 OA
BRANCH  19  20
HETATM   20  C3  UNL     1      -3.458   4.939  12.088  1.00  0.00     0.263 C 
HETATM   21  O1  UNL     1      -3.395   3.777  12.907  1.00  0.00    -0.354 OA
HETATM   22  C2  UNL     1      -2.936   2.611  12.203  1.00  0.00     0.151 C 
HETATM   23  C1  UNL     1      -4.143   1.822  11.706  1.00  0.00     0.042 C 
HETATM   24  C37 UNL     1      -1.900   2.936  11.098  1.00  0.00     0.175 C 
HETATM   25  C36 UNL     1      -1.107   4.192  11.489  1.00  0.00     0.154 C 
HETATM   26  C35 UNL     1      -2.031   5.382  11.753  1.00  0.00     0.095 C 
BRANCH  24  27
HETATM   27  O8  UNL     1      -2.545   3.167   9.841  1.00  0.00    -0.390 OA
HETATM   28  H51 UNL     1      -1.847   3.200   9.161  1.00  0.00     0.210 HD
ENDBRANCH  24  27
BRANCH  25  29
HETATM   29  O7  UNL     1      -0.295   3.927  12.634  1.00  0.00    -0.393 OA
HETATM   30  H49 UNL     1      -0.873   3.948  13.422  1.00  0.00     0.210 HD
ENDBRANCH  25  29
ENDBRANCH  19  20
ENDBRANCH   1  19
BRANCH  17  31
HETATM   31  O6  UNL     1      -1.214   9.778  12.768  1.00  0.00    -0.389 OA
HETATM   32  H43 UNL     1      -1.969  10.211  12.328  1.00  0.00     0.210 HD
ENDBRANCH  17  31
BRANCH   4  33
HETATM   33  C8  UNL     1       0.506   7.768  13.287  1.00  0.00     0.068 C 
HETATM   34  N1  UNL     1       1.266   6.727  13.275  1.00  0.00    -0.401 N 
ATOM     35  H1  UNL     1       1.190   5.986  13.972  1.00  0.00     0.158 HD
BRANCH  34  36
HETATM   36  C9  UNL     1       2.249   6.686  12.187  1.00  0.00     0.123 C 
BRANCH  36  37
HETATM   37  C10 UNL     1       1.730   5.761  11.085  1.00  0.00     0.058 C 
BRANCH  37  38
HETATM   38  C11 UNL     1       1.675   6.454   9.746  1.00  0.00    -0.057 A 
HETATM   39  C12 UNL     1       0.791   7.521   9.532  1.00  0.00     0.007 A 
HETATM   40  C13 UNL     1       0.734   8.151   8.288  1.00  0.00     0.001 A 
HETATM   41  C14 UNL     1       1.553   7.718   7.247  1.00  0.00     0.000 A 
HETATM   42  C15 UNL     1       2.428   6.652   7.447  1.00  0.00     0.001 A 
HETATM   43  C16 UNL     1       2.489   6.023   8.690  1.00  0.00     0.007 A 
ENDBRANCH  37  38
ENDBRANCH  36  37
ENDBRANCH  34  36
ENDBRANCH   4  33
BRANCH  13  44
HETATM   44  O5  UNL     1       0.659  12.499  16.154  1.00  0.00    -0.389 OA
HETATM   45  H37 UNL     1       0.699  12.675  15.197  1.00  0.00     0.210 HD
ENDBRANCH  13  44
BRANCH  10  46
HETATM   46  C23 UNL     1       3.531  12.317  17.952  1.00  0.00    -0.045 A 
HETATM   47  C24 UNL     1       2.877  13.382  18.418  1.00  0.00     0.087 A 
HETATM   48  C25 UNL     1       3.856  14.452  18.592  1.00  0.00     0.283 A 
HETATM   49  O3  UNL     1       3.604  15.570  19.000  1.00  0.00    -0.260 OA
HETATM   50  O4  UNL     1       5.085  13.994  18.233  1.00  0.00    -0.314 OA
HETATM   51  C26 UNL     1       4.974  12.632  17.821  1.00  0.00     0.213 A 
ENDBRANCH  10  46
TORSDOF 11
ENDMDL
