MODEL 1
REMARK minimizedAffinity -8.87174416
REMARK CNNscore 0.555703521
REMARK CNNaffinity 8.23910999
REMARK  7 active torsions:
REMARK  status: ('A' for Active; 'I' for Inactive)
REMARK    1  A    between atoms: C3_3  and  C5_5 
REMARK    2  A    between atoms: C24_26  and  O3_27 
REMARK    3  A    between atoms: C30_35  and  O6_36 
REMARK    4  A    between atoms: C31_38  and  O8_39 
REMARK    5  A    between atoms: C32_40  and  O9_41 
REMARK    6  A    between atoms: O9_41  and  C33_42 
REMARK    7  A    between atoms: C33_42  and  C34_44 
ROOT
HETATM    1  C5  UNL     1      -7.133   7.568  14.878  1.00  0.00     0.160 C 
HETATM    2  O1  UNL     1      -8.047   7.841  13.812  1.00  0.00    -0.342 OA
HETATM    3  C6  UNL     1      -9.393   7.428  14.100  1.00  0.00     0.196 C 
HETATM    4  C7  UNL     1     -10.094   7.323  12.721  1.00  0.00     0.104 C 
HETATM    5  C8  UNL     1     -11.535   7.817  12.760  1.00  0.00     0.139 C 
HETATM    6  C9  UNL     1     -11.612   9.253  13.294  1.00  0.00     0.065 C 
HETATM    7  C10 UNL     1     -10.421   9.593  14.199  1.00  0.00     0.131 C 
HETATM    8  C11 UNL     1     -10.736  10.690  15.235  1.00  0.00     0.059 C 
HETATM    9  C12 UNL     1     -11.278  11.970  14.648  1.00  0.00    -0.022 C 
HETATM   10  C13 UNL     1     -12.149  12.829  15.223  1.00  0.00    -0.087 C 
HETATM   11  C14 UNL     1     -12.559  14.074  14.478  1.00  0.00     0.043 C 
HETATM   12  C15 UNL     1     -12.666  12.699  16.648  1.00  0.00     0.041 C 
HETATM   13  C16 UNL     1     -14.139  12.261  16.870  1.00  0.00     0.008 C 
HETATM   14  C17 UNL     1     -15.140  13.375  16.545  1.00  0.00     0.014 C 
HETATM   15  C18 UNL     1     -14.430  10.920  16.228  1.00  0.00    -0.022 C 
HETATM   16  C19 UNL     1     -15.412  10.623  15.362  1.00  0.00    -0.003 C 
HETATM   17  C20 UNL     1     -15.562   9.329  14.738  1.00  0.00     0.008 C 
HETATM   18  C21 UNL     1     -15.646   8.143  15.364  1.00  0.00    -0.019 C 
HETATM   19  C22 UNL     1     -15.705   7.893  16.849  1.00  0.00     0.206 C 
HETATM   20  O2  UNL     1     -15.951   6.475  17.005  1.00  0.00    -0.375 OA
HETATM   21  C23 UNL     1     -16.556   6.063  15.757  1.00  0.00     0.194 C 
HETATM   22  C24 UNL     1     -16.565   4.530  15.583  1.00  0.00     0.179 C 
HETATM   23  C25 UNL     1     -15.353   3.923  14.908  1.00  0.00    -0.056 C 
HETATM   24  C26 UNL     1     -15.342   2.423  14.793  1.00  0.00     0.046 C 
HETATM   25  C27 UNL     1     -14.354   4.672  14.407  1.00  0.00    -0.004 C 
HETATM   26  C28 UNL     1     -14.341   6.171  14.523  1.00  0.00     0.150 C 
HETATM   27  C29 UNL     1     -13.617   6.817  13.354  1.00  0.00     0.270 C 
HETATM   28  O4  UNL     1     -14.161   7.184  12.317  1.00  0.00    -0.264 OA
HETATM   29  O5  UNL     1     -12.291   6.951  13.632  1.00  0.00    -0.315 OA
HETATM   30  C30 UNL     1     -15.757   6.799  14.687  1.00  0.00     0.128 C 
HETATM   31  O7  UNL     1     -10.036   8.420  14.916  1.00  0.00    -0.347 OA
HETATM   32  C31 UNL     1      -9.418   6.048  14.852  1.00  0.00     0.210 C 
HETATM   33  C32 UNL     1      -8.143   5.241  14.548  1.00  0.00     0.172 C 
HETATM   34  C37 UNL     1      -6.864   6.044  14.911  1.00  0.00     0.047 C 
HETATM   35  C38 UNL     1      -6.309   5.597  16.269  1.00  0.00     0.015 C 
ENDROOT
BRANCH  32  36
HETATM   36  O8  UNL     1      -9.501   6.212  16.283  1.00  0.00    -0.387 OA
HETATM   37  H42 UNL     1      -9.783   5.362  16.661  1.00  0.00     0.210 HD
ENDBRANCH  32  36
BRANCH   1  38
HETATM   38  C3  UNL     1      -5.863   8.391  14.645  1.00  0.00    -0.059 C 
HETATM   39  C2  UNL     1      -5.363   9.226  15.583  1.00  0.00    -0.026 C 
HETATM   40  C1  UNL     1      -4.146  10.088  15.476  1.00  0.00     0.036 C 
HETATM   41  C4  UNL     1      -5.174   8.159  13.325  1.00  0.00     0.046 C 
ENDBRANCH   1  38
BRANCH  33  42
HETATM   42  O9  UNL     1      -8.127   4.900  13.143  1.00  0.00    -0.312 OA
BRANCH  42  43
HETATM   43  C33 UNL     1      -7.633   3.665  12.837  1.00  0.00     0.262 C 
HETATM   44  O10 UNL     1      -8.104   2.617  13.256  1.00  0.00    -0.265 OA
BRANCH  43  45
HETATM   45  C34 UNL     1      -6.377   3.769  11.983  1.00  0.00     0.077 C 
HETATM   46  C35 UNL     1      -5.192   4.207  12.844  1.00  0.00     0.020 C 
HETATM   47  C36 UNL     1      -6.039   2.457  11.272  1.00  0.00     0.020 C 
ENDBRANCH  43  45
ENDBRANCH  42  43
ENDBRANCH  33  42
BRANCH  30  48
HETATM   48  O6  UNL     1     -16.538   6.860  13.498  1.00  0.00    -0.381 OA
HETATM   49  H40 UNL     1     -15.948   7.096  12.752  1.00  0.00     0.211 HD
ENDBRANCH  30  48
BRANCH  22  50
HETATM   50  O3  UNL     1     -16.733   3.910  16.858  1.00  0.00    -0.389 OA
HETATM   51  H34 UNL     1     -16.395   4.560  17.507  1.00  0.00     0.210 HD
ENDBRANCH  22  50
TORSDOF 7
ENDMDL
MODEL 2
REMARK minimizedAffinity -6.71639967
REMARK CNNscore 0.46494472
REMARK CNNaffinity 6.65846682
REMARK  7 active torsions:
REMARK  status: ('A' for Active; 'I' for Inactive)
REMARK    1  A    between atoms: C3_3  and  C5_5 
REMARK    2  A    between atoms: C24_26  and  O3_27 
REMARK    3  A    between atoms: C30_35  and  O6_36 
REMARK    4  A    between atoms: C31_38  and  O8_39 
REMARK    5  A    between atoms: C32_40  and  O9_41 
REMARK    6  A    between atoms: O9_41  and  C33_42 
REMARK    7  A    between atoms: C33_42  and  C34_44 
ROOT
HETATM    1  C5  UNL     1     -18.513  -3.481  29.033  1.00  0.00     0.160 C 
HETATM    2  O1  UNL     1     -18.081  -2.279  29.677  1.00  0.00    -0.342 OA
HETATM    3  C6  UNL     1     -17.352  -1.400  28.805  1.00  0.00     0.196 C 
HETATM    4  C7  UNL     1     -16.557  -0.457  29.746  1.00  0.00     0.104 C 
HETATM    5  C8  UNL     1     -16.508   0.976  29.228  1.00  0.00     0.139 C 
HETATM    6  C9  UNL     1     -17.919   1.524  28.984  1.00  0.00     0.065 C 
HETATM    7  C10 UNL     1     -18.930   0.403  28.709  1.00  0.00     0.131 C 
HETATM    8  C11 UNL     1     -20.130   0.861  27.856  1.00  0.00     0.059 C 
HETATM    9  C12 UNL     1     -20.871   2.056  28.404  1.00  0.00    -0.022 C 
HETATM   10  C13 UNL     1     -21.516   3.012  27.701  1.00  0.00    -0.087 C 
HETATM   11  C14 UNL     1     -22.219   4.124  28.437  1.00  0.00     0.043 C 
HETATM   12  C15 UNL     1     -21.700   2.987  26.191  1.00  0.00     0.041 C 
HETATM   13  C16 UNL     1     -20.882   3.982  25.323  1.00  0.00     0.008 C 
HETATM   14  C17 UNL     1     -21.406   5.419  25.422  1.00  0.00     0.014 C 
HETATM   15  C18 UNL     1     -19.391   3.819  25.535  1.00  0.00    -0.022 C 
HETATM   16  C19 UNL     1     -18.503   4.770  25.866  1.00  0.00    -0.003 C 
HETATM   17  C20 UNL     1     -17.107   4.503  26.127  1.00  0.00     0.008 C 
HETATM   18  C21 UNL     1     -16.247   3.871  25.312  1.00  0.00    -0.019 C 
HETATM   19  C22 UNL     1     -16.503   3.387  23.908  1.00  0.00     0.206 C 
HETATM   20  O2  UNL     1     -15.226   2.923  23.407  1.00  0.00    -0.375 OA
HETATM   21  C23 UNL     1     -14.240   3.612  24.211  1.00  0.00     0.194 C 
HETATM   22  C24 UNL     1     -12.833   2.991  24.079  1.00  0.00     0.179 C 
HETATM   23  C25 UNL     1     -12.493   1.885  25.055  1.00  0.00    -0.056 C 
HETATM   24  C26 UNL     1     -11.143   1.245  24.886  1.00  0.00     0.046 C 
HETATM   25  C27 UNL     1     -13.327   1.510  26.043  1.00  0.00    -0.004 C 
HETATM   26  C28 UNL     1     -14.686   2.130  26.221  1.00  0.00     0.150 C 
HETATM   27  C29 UNL     1     -15.111   2.133  27.680  1.00  0.00     0.270 C 
HETATM   28  O4  UNL     1     -14.899   3.055  28.462  1.00  0.00    -0.264 OA
HETATM   29  O5  UNL     1     -15.779   0.986  27.983  1.00  0.00    -0.315 OA
HETATM   30  C30 UNL     1     -14.803   3.564  25.627  1.00  0.00     0.128 C 
HETATM   31  O7  UNL     1     -18.273  -0.648  28.000  1.00  0.00    -0.347 OA
HETATM   32  C31 UNL     1     -16.384  -2.204  27.864  1.00  0.00     0.210 C 
HETATM   33  C32 UNL     1     -16.013  -3.558  28.495  1.00  0.00     0.172 C 
HETATM   34  C37 UNL     1     -17.280  -4.394  28.828  1.00  0.00     0.047 C 
HETATM   35  C38 UNL     1     -17.532  -5.451  27.747  1.00  0.00     0.015 C 
ENDROOT
BRANCH  32  36
HETATM   36  O8  UNL     1     -16.976  -2.470  26.576  1.00  0.00    -0.387 OA
HETATM   37  H42 UNL     1     -16.260  -2.714  25.966  1.00  0.00     0.210 HD
ENDBRANCH  32  36
BRANCH   1  38
HETATM   38  C3  UNL     1     -19.594  -4.130  29.901  1.00  0.00    -0.059 C 
HETATM   39  C2  UNL     1     -19.583  -4.043  31.250  1.00  0.00    -0.026 C 
HETATM   40  C1  UNL     1     -20.566  -4.638  32.206  1.00  0.00     0.036 C 
HETATM   41  C4  UNL     1     -20.706  -4.815  29.148  1.00  0.00     0.046 C 
ENDBRANCH   1  38
BRANCH  33  42
HETATM   42  O9  UNL     1     -15.250  -3.322  29.701  1.00  0.00    -0.312 OA
BRANCH  42  43
HETATM   43  C33 UNL     1     -14.570  -4.396  30.194  1.00  0.00     0.262 C 
HETATM   44  O10 UNL     1     -14.905  -5.020  31.192  1.00  0.00    -0.265 OA
BRANCH  43  45
HETATM   45  C34 UNL     1     -13.301  -4.661  29.396  1.00  0.00     0.077 C 
HETATM   46  C35 UNL     1     -12.121  -4.882  30.344  1.00  0.00     0.020 C 
HETATM   47  C36 UNL     1     -13.436  -5.858  28.455  1.00  0.00     0.020 C 
ENDBRANCH  43  45
ENDBRANCH  42  43
ENDBRANCH  33  42
BRANCH  30  48
HETATM   48  O6  UNL     1     -14.191   4.595  26.395  1.00  0.00    -0.381 OA
HETATM   49  H40 UNL     1     -14.353   4.410  27.344  1.00  0.00     0.211 HD
ENDBRANCH  30  48
BRANCH  22  50
HETATM   50  O3  UNL     1     -12.657   2.496  22.752  1.00  0.00    -0.389 OA
HETATM   51  H34 UNL     1     -13.561   2.311  22.424  1.00  0.00     0.210 HD
ENDBRANCH  22  50
TORSDOF 7
ENDMDL
MODEL 3
REMARK minimizedAffinity -10.1235228
REMARK CNNscore 0.420908362
REMARK CNNaffinity 7.47972488
REMARK  7 active torsions:
REMARK  status: ('A' for Active; 'I' for Inactive)
REMARK    1  A    between atoms: C3_3  and  C5_5 
REMARK    2  A    between atoms: C24_26  and  O3_27 
REMARK    3  A    between atoms: C30_35  and  O6_36 
REMARK    4  A    between atoms: C31_38  and  O8_39 
REMARK    5  A    between atoms: C32_40  and  O9_41 
REMARK    6  A    between atoms: O9_41  and  C33_42 
REMARK    7  A    between atoms: C33_42  and  C34_44 
ROOT
HETATM    1  C5  UNL     1      -5.928   5.067  13.769  1.00  0.00     0.160 C 
HETATM    2  O1  UNL     1      -5.570   6.264  13.072  1.00  0.00    -0.342 OA
HETATM    3  C6  UNL     1      -4.739   7.144  13.846  1.00  0.00     0.196 C 
HETATM    4  C7  UNL     1      -4.879   8.535  13.175  1.00  0.00     0.104 C 
HETATM    5  C8  UNL     1      -3.563   9.303  13.147  1.00  0.00     0.139 C 
HETATM    6  C9  UNL     1      -2.461   8.485  12.463  1.00  0.00     0.065 C 
HETATM    7  C10 UNL     1      -2.728   6.977  12.550  1.00  0.00     0.131 C 
HETATM    8  C11 UNL     1      -1.445   6.126  12.490  1.00  0.00     0.059 C 
HETATM    9  C12 UNL     1      -0.569   6.392  11.290  1.00  0.00    -0.022 C 
HETATM   10  C13 UNL     1       0.777   6.300  11.223  1.00  0.00    -0.087 C 
HETATM   11  C14 UNL     1       1.473   6.590   9.917  1.00  0.00     0.043 C 
HETATM   12  C15 UNL     1       1.658   5.791  12.354  1.00  0.00     0.041 C 
HETATM   13  C16 UNL     1       2.536   6.808  13.131  1.00  0.00     0.008 C 
HETATM   14  C17 UNL     1       3.748   7.281  12.320  1.00  0.00     0.014 C 
HETATM   15  C18 UNL     1       1.703   7.909  13.754  1.00  0.00    -0.022 C 
HETATM   16  C19 UNL     1       1.864   9.236  13.616  1.00  0.00    -0.003 C 
HETATM   17  C20 UNL     1       0.965  10.212  14.187  1.00  0.00     0.008 C 
HETATM   18  C21 UNL     1       0.602  10.310  15.477  1.00  0.00    -0.019 C 
HETATM   19  C22 UNL     1       1.116   9.497  16.636  1.00  0.00     0.206 C 
HETATM   20  O2  UNL     1       0.538  10.089  17.825  1.00  0.00    -0.375 OA
HETATM   21  C23 UNL     1       0.209  11.445  17.442  1.00  0.00     0.194 C 
HETATM   22  C24 UNL     1      -0.739  12.128  18.449  1.00  0.00     0.179 C 
HETATM   23  C25 UNL     1      -2.222  11.961  18.196  1.00  0.00    -0.056 C 
HETATM   24  C26 UNL     1      -3.142  12.581  19.212  1.00  0.00     0.046 C 
HETATM   25  C27 UNL     1      -2.703  11.327  17.111  1.00  0.00    -0.004 C 
HETATM   26  C28 UNL     1      -1.801  10.690  16.090  1.00  0.00     0.150 C 
HETATM   27  C29 UNL     1      -2.426  10.705  14.705  1.00  0.00     0.270 C 
HETATM   28  O4  UNL     1      -2.261  11.598  13.879  1.00  0.00    -0.264 OA
HETATM   29  O5  UNL     1      -3.167   9.580  14.506  1.00  0.00    -0.315 OA
HETATM   30  C30 UNL     1      -0.375  11.313  16.040  1.00  0.00     0.128 C 
HETATM   31  O7  UNL     1      -3.377   6.693  13.790  1.00  0.00    -0.347 OA
HETATM   32  C31 UNL     1      -5.204   7.193  15.347  1.00  0.00     0.210 C 
HETATM   33  C32 UNL     1      -6.693   6.822  15.467  1.00  0.00     0.172 C 
HETATM   34  C37 UNL     1      -6.981   5.427  14.845  1.00  0.00     0.047 C 
HETATM   35  C38 UNL     1      -7.066   4.353  15.935  1.00  0.00     0.015 C 
ENDROOT
BRANCH  32  36
HETATM   36  O8  UNL     1      -4.457   6.278  16.175  1.00  0.00    -0.387 OA
HETATM   37  H42 UNL     1      -4.590   6.543  17.101  1.00  0.00     0.210 HD
ENDBRANCH  32  36
BRANCH   1  38
HETATM   38  C3  UNL     1      -6.446   4.052  12.747  1.00  0.00    -0.059 C 
HETATM   39  C2  UNL     1      -5.615   3.250  12.043  1.00  0.00    -0.026 C 
HETATM   40  C1  UNL     1      -5.991   2.233  11.014  1.00  0.00     0.036 C 
HETATM   41  C4  UNL     1      -7.945   3.961  12.626  1.00  0.00     0.046 C 
ENDBRANCH   1  38
BRANCH  33  42
HETATM   42  O9  UNL     1      -7.484   7.830  14.799  1.00  0.00    -0.312 OA
BRANCH  42  43
HETATM   43  C33 UNL     1      -8.830   7.610  14.772  1.00  0.00     0.262 C 
HETATM   44  O10 UNL     1      -9.372   6.769  14.067  1.00  0.00    -0.265 OA
BRANCH  43  45
HETATM   45  C34 UNL     1      -9.569   8.597  15.663  1.00  0.00     0.077 C 
HETATM   46  C35 UNL     1      -9.052  10.015  15.418  1.00  0.00     0.020 C 
HETATM   47  C36 UNL     1     -11.084   8.559  15.455  1.00  0.00     0.020 C 
ENDBRANCH  43  45
ENDBRANCH  42  43
ENDBRANCH  33  42
BRANCH  30  48
HETATM   48  O6  UNL     1      -0.282  12.575  15.388  1.00  0.00    -0.381 OA
HETATM   49  H40 UNL     1      -0.872  12.563  14.606  1.00  0.00     0.211 HD
ENDBRANCH  30  48
BRANCH  22  50
HETATM   50  O3  UNL     1      -0.448  11.660  19.766  1.00  0.00    -0.389 OA
HETATM   51  H34 UNL     1      -0.042  10.778  19.642  1.00  0.00     0.210 HD
ENDBRANCH  22  50
TORSDOF 7
ENDMDL
MODEL 4
REMARK minimizedAffinity -8.24716091
REMARK CNNscore 0.404867262
REMARK CNNaffinity 6.49693823
REMARK  7 active torsions:
REMARK  status: ('A' for Active; 'I' for Inactive)
REMARK    1  A    between atoms: C3_3  and  C5_5 
REMARK    2  A    between atoms: C24_26  and  O3_27 
REMARK    3  A    between atoms: C30_35  and  O6_36 
REMARK    4  A    between atoms: C31_38  and  O8_39 
REMARK    5  A    between atoms: C32_40  and  O9_41 
REMARK    6  A    between atoms: O9_41  and  C33_42 
REMARK    7  A    between atoms: C33_42  and  C34_44 
ROOT
HETATM    1  C5  UNL     1       1.914  13.407  17.014  1.00  0.00     0.160 C 
HETATM    2  O1  UNL     1       1.973  11.982  17.121  1.00  0.00    -0.342 OA
HETATM    3  C6  UNL     1       2.148  11.325  15.855  1.00  0.00     0.196 C 
HETATM    4  C7  UNL     1       1.687   9.862  16.084  1.00  0.00     0.104 C 
HETATM    5  C8  UNL     1       2.561   8.854  15.349  1.00  0.00     0.139 C 
HETATM    6  C9  UNL     1       4.037   9.018  15.732  1.00  0.00     0.065 C 
HETATM    7  C10 UNL     1       4.350  10.443  16.208  1.00  0.00     0.131 C 
HETATM    8  C11 UNL     1       5.820  10.849  15.987  1.00  0.00     0.059 C 
HETATM    9  C12 UNL     1       6.831   9.906  16.591  1.00  0.00    -0.022 C 
HETATM   10  C13 UNL     1       8.071   9.629  16.129  1.00  0.00    -0.087 C 
HETATM   11  C14 UNL     1       8.944   8.664  16.890  1.00  0.00     0.043 C 
HETATM   12  C15 UNL     1       8.717  10.325  14.941  1.00  0.00     0.041 C 
HETATM   13  C16 UNL     1       8.881   9.538  13.613  1.00  0.00     0.008 C 
HETATM   14  C17 UNL     1       9.998   8.491  13.683  1.00  0.00     0.014 C 
HETATM   15  C18 UNL     1       7.551   9.034  13.090  1.00  0.00    -0.022 C 
HETATM   16  C19 UNL     1       7.229   7.774  12.754  1.00  0.00    -0.003 C 
HETATM   17  C20 UNL     1       5.904   7.374  12.340  1.00  0.00     0.008 C 
HETATM   18  C21 UNL     1       5.180   7.910  11.343  1.00  0.00    -0.019 C 
HETATM   19  C22 UNL     1       5.611   8.974  10.369  1.00  0.00     0.206 C 
HETATM   20  O2  UNL     1       4.539   9.088   9.402  1.00  0.00    -0.375 OA
HETATM   21  C23 UNL     1       3.842   7.822   9.470  1.00  0.00     0.194 C 
HETATM   22  C24 UNL     1       2.461   7.871   8.784  1.00  0.00     0.179 C 
HETATM   23  C25 UNL     1       1.292   8.277   9.655  1.00  0.00    -0.056 C 
HETATM   24  C26 UNL     1      -0.042   8.378   8.968  1.00  0.00     0.046 C 
HETATM   25  C27 UNL     1       1.419   8.503  10.976  1.00  0.00    -0.004 C 
HETATM   26  C28 UNL     1       2.746   8.419  11.678  1.00  0.00     0.150 C 
HETATM   27  C29 UNL     1       2.585   7.988  13.127  1.00  0.00     0.270 C 
HETATM   28  O4  UNL     1       2.625   6.824  13.512  1.00  0.00    -0.264 OA
HETATM   29  O5  UNL     1       2.417   9.074  13.930  1.00  0.00    -0.315 OA
HETATM   30  C30 UNL     1       3.778   7.502  10.959  1.00  0.00     0.128 C 
HETATM   31  O7  UNL     1       3.534  11.362  15.482  1.00  0.00    -0.347 OA
HETATM   32  C31 UNL     1       1.294  12.016  14.731  1.00  0.00     0.210 C 
HETATM   33  C32 UNL     1       0.090  12.756  15.342  1.00  0.00     0.172 C 
HETATM   34  C37 UNL     1       0.544  13.793  16.406  1.00  0.00     0.047 C 
HETATM   35  C38 UNL     1       0.567  15.207  15.812  1.00  0.00     0.015 C 
ENDROOT
BRANCH  32  36
HETATM   36  O8  UNL     1       2.063  12.977  13.979  1.00  0.00    -0.387 OA
HETATM   37  H42 UNL     1       1.581  13.159  13.154  1.00  0.00     0.210 HD
ENDBRANCH  32  36
BRANCH   1  38
HETATM   38  C3  UNL     1       2.136  14.003  18.407  1.00  0.00    -0.059 C 
HETATM   39  C2  UNL     1       1.468  13.558  19.495  1.00  0.00    -0.026 C 
HETATM   40  C1  UNL     1       1.583  14.060  20.898  1.00  0.00     0.036 C 
HETATM   41  C4  UNL     1       3.194  15.072  18.494  1.00  0.00     0.046 C 
ENDBRANCH   1  38
BRANCH  33  42
HETATM   42  O9  UNL     1      -0.800  11.790  15.946  1.00  0.00    -0.312 OA
BRANCH  42  43
HETATM   43  C33 UNL     1      -1.879  11.425  15.196  1.00  0.00     0.262 C 
HETATM   44  O10 UNL     1      -1.827  11.171  14.000  1.00  0.00    -0.265 OA
BRANCH  43  45
HETATM   45  C34 UNL     1      -3.160  11.462  16.017  1.00  0.00     0.077 C 
HETATM   46  C35 UNL     1      -4.045  10.267  15.662  1.00  0.00     0.020 C 
HETATM   47  C36 UNL     1      -2.894  11.475  17.524  1.00  0.00     0.020 C 
ENDBRANCH  43  45
ENDBRANCH  42  43
ENDBRANCH  33  42
BRANCH  30  48
HETATM   48  O6  UNL     1       3.565   6.103  11.115  1.00  0.00    -0.381 OA
HETATM   49  H40 UNL     1       3.273   5.936  12.036  1.00  0.00     0.211 HD
ENDBRANCH  30  48
BRANCH  22  50
HETATM   50  O3  UNL     1       2.520   8.753   7.663  1.00  0.00    -0.389 OA
HETATM   51  H34 UNL     1       3.248   9.376   7.864  1.00  0.00     0.210 HD
ENDBRANCH  22  50
TORSDOF 7
ENDMDL
MODEL 5
REMARK minimizedAffinity -8.89570332
REMARK CNNscore 0.358506918
REMARK CNNaffinity 6.58307076
REMARK  7 active torsions:
REMARK  status: ('A' for Active; 'I' for Inactive)
REMARK    1  A    between atoms: C3_3  and  C5_5 
REMARK    2  A    between atoms: C24_26  and  O3_27 
REMARK    3  A    between atoms: C30_35  and  O6_36 
REMARK    4  A    between atoms: C31_38  and  O8_39 
REMARK    5  A    between atoms: C32_40  and  O9_41 
REMARK    6  A    between atoms: O9_41  and  C33_42 
REMARK    7  A    between atoms: C33_42  and  C34_44 
ROOT
HETATM    1  C5  UNL     1       4.020  14.370  22.111  1.00  0.00     0.160 C 
HETATM    2  O1  UNL     1       5.233  13.760  22.560  1.00  0.00    -0.342 OA
HETATM    3  C6  UNL     1       6.075  13.313  21.484  1.00  0.00     0.196 C 
HETATM    4  C7  UNL     1       7.032  12.271  22.117  1.00  0.00     0.104 C 
HETATM    5  C8  UNL     1       8.448  12.367  21.561  1.00  0.00     0.139 C 
HETATM    6  C9  UNL     1       9.011  13.783  21.725  1.00  0.00     0.065 C 
HETATM    7  C10 UNL     1       7.899  14.838  21.796  1.00  0.00     0.131 C 
HETATM    8  C11 UNL     1       8.351  16.232  21.319  1.00  0.00     0.059 C 
HETATM    9  C12 UNL     1       9.573  16.771  22.021  1.00  0.00    -0.022 C 
HETATM   10  C13 UNL     1      10.519  17.588  21.507  1.00  0.00    -0.087 C 
HETATM   11  C14 UNL     1      11.663  18.035  22.381  1.00  0.00     0.043 C 
HETATM   12  C15 UNL     1      10.452  18.209  20.120  1.00  0.00     0.041 C 
HETATM   13  C16 UNL     1      11.407  17.676  19.018  1.00  0.00     0.008 C 
HETATM   14  C17 UNL     1      12.855  18.138  19.219  1.00  0.00     0.014 C 
HETATM   15  C18 UNL     1      11.227  16.190  18.787  1.00  0.00    -0.022 C 
HETATM   16  C19 UNL     1      12.173  15.237  18.811  1.00  0.00    -0.003 C 
HETATM   17  C20 UNL     1      11.891  13.828  18.658  1.00  0.00     0.008 C 
HETATM   18  C21 UNL     1      11.221  13.250  17.647  1.00  0.00    -0.019 C 
HETATM   19  C22 UNL     1      10.700  13.912  16.398  1.00  0.00     0.206 C 
HETATM   20  O2  UNL     1      10.201  12.842  15.559  1.00  0.00    -0.375 OA
HETATM   21  C23 UNL     1      10.897  11.658  16.014  1.00  0.00     0.194 C 
HETATM   22  C24 UNL     1      10.250  10.357  15.495  1.00  0.00     0.179 C 
HETATM   23  C25 UNL     1       9.168   9.752  16.364  1.00  0.00    -0.056 C 
HETATM   24  C26 UNL     1       8.501   8.516  15.826  1.00  0.00     0.046 C 
HETATM   25  C27 UNL     1       8.836  10.261  17.565  1.00  0.00    -0.004 C 
HETATM   26  C28 UNL     1       9.483  11.503  18.114  1.00  0.00     0.150 C 
HETATM   27  C29 UNL     1       9.536  11.479  19.633  1.00  0.00     0.270 C 
HETATM   28  O4  UNL     1      10.477  11.041  20.287  1.00  0.00    -0.264 OA
HETATM   29  O5  UNL     1       8.410  12.036  20.157  1.00  0.00    -0.315 OA
HETATM   30  C30 UNL     1      10.900  11.780  17.534  1.00  0.00     0.128 C 
HETATM   31  O7  UNL     1       6.818  14.426  20.961  1.00  0.00    -0.347 OA
HETATM   32  C31 UNL     1       5.228  12.670  20.327  1.00  0.00     0.210 C 
HETATM   33  C32 UNL     1       3.887  12.139  20.865  1.00  0.00     0.172 C 
HETATM   34  C37 UNL     1       3.082  13.258  21.583  1.00  0.00     0.047 C 
HETATM   35  C38 UNL     1       1.997  13.824  20.659  1.00  0.00     0.015 C 
ENDROOT
BRANCH  32  36
HETATM   36  O8  UNL     1       4.933  13.618  19.279  1.00  0.00    -0.387 OA
HETATM   37  H42 UNL     1       4.660  13.114  18.494  1.00  0.00     0.210 HD
ENDBRANCH  32  36
BRANCH   1  38
HETATM   38  C3  UNL     1       3.415  15.152  23.280  1.00  0.00    -0.059 C 
HETATM   39  C2  UNL     1       2.584  14.577  24.178  1.00  0.00    -0.026 C 
HETATM   40  C1  UNL     1       1.921  15.228  25.349  1.00  0.00     0.036 C 
HETATM   41  C4  UNL     1       3.859  16.587  23.399  1.00  0.00     0.046 C 
ENDBRANCH   1  38
BRANCH  33  42
HETATM   42  O9  UNL     1       4.147  11.054  21.785  1.00  0.00    -0.312 OA
BRANCH  42  43
HETATM   43  C33 UNL     1       3.467   9.896  21.545  1.00  0.00     0.262 C 
HETATM   44  O10 UNL     1       3.017   9.580  20.451  1.00  0.00    -0.265 OA
BRANCH  43  45
HETATM   45  C34 UNL     1       3.268   9.097  22.825  1.00  0.00     0.077 C 
HETATM   46  C35 UNL     1       3.041  10.043  24.004  1.00  0.00     0.020 C 
HETATM   47  C36 UNL     1       2.105   8.108  22.727  1.00  0.00     0.020 C 
ENDBRANCH  43  45
ENDBRANCH  42  43
ENDBRANCH  33  42
BRANCH  30  48
HETATM   48  O6  UNL     1      11.944  10.962  18.053  1.00  0.00    -0.381 OA
HETATM   49  H40 UNL     1      11.790  10.838  19.013  1.00  0.00     0.211 HD
ENDBRANCH  30  48
BRANCH  22  50
HETATM   50  O3  UNL     1       9.713  10.583  14.192  1.00  0.00    -0.389 OA
HETATM   51  H34 UNL     1       9.533  11.544  14.151  1.00  0.00     0.210 HD
ENDBRANCH  22  50
TORSDOF 7
ENDMDL
MODEL 6
REMARK minimizedAffinity -7.62951231
REMARK CNNscore 0.352106065
REMARK CNNaffinity 6.43775702
REMARK  7 active torsions:
REMARK  status: ('A' for Active; 'I' for Inactive)
REMARK    1  A    between atoms: C3_3  and  C5_5 
REMARK    2  A    between atoms: C24_26  and  O3_27 
REMARK    3  A    between atoms: C30_35  and  O6_36 
REMARK    4  A    between atoms: C31_38  and  O8_39 
REMARK    5  A    between atoms: C32_40  and  O9_41 
REMARK    6  A    between atoms: O9_41  and  C33_42 
REMARK    7  A    between atoms: C33_42  and  C34_44 
ROOT
HETATM    1  C5  UNL     1      15.523  -5.838   5.309  1.00  0.00     0.160 C 
HETATM    2  O1  UNL     1      15.274  -7.160   5.796  1.00  0.00    -0.342 OA
HETATM    3  C6  UNL     1      14.253  -7.853   5.060  1.00  0.00     0.196 C 
HETATM    4  C7  UNL     1      13.775  -8.993   5.995  1.00  0.00     0.104 C 
HETATM    5  C8  UNL     1      13.486 -10.284   5.239  1.00  0.00     0.139 C 
HETATM    6  C9  UNL     1      14.705 -10.732   4.424  1.00  0.00     0.065 C 
HETATM    7  C10 UNL     1      15.618  -9.554   4.063  1.00  0.00     0.131 C 
HETATM    8  C11 UNL     1      16.439  -9.790   2.780  1.00  0.00     0.059 C 
HETATM    9  C12 UNL     1      17.262 -11.054   2.784  1.00  0.00    -0.022 C 
HETATM   10  C13 UNL     1      17.586 -11.823   1.721  1.00  0.00    -0.087 C 
HETATM   11  C14 UNL     1      18.441 -13.048   1.929  1.00  0.00     0.043 C 
HETATM   12  C15 UNL     1      17.254 -11.474   0.278  1.00  0.00     0.041 C 
HETATM   13  C16 UNL     1      16.146 -12.282  -0.449  1.00  0.00     0.008 C 
HETATM   14  C17 UNL     1      16.602 -13.694  -0.834  1.00  0.00     0.014 C 
HETATM   15  C18 UNL     1      14.822 -12.206   0.283  1.00  0.00    -0.022 C 
HETATM   16  C19 UNL     1      14.051 -13.228   0.690  1.00  0.00    -0.003 C 
HETATM   17  C20 UNL     1      12.839 -13.057   1.457  1.00  0.00     0.008 C 
HETATM   18  C21 UNL     1      11.786 -12.289   1.130  1.00  0.00    -0.019 C 
HETATM   19  C22 UNL     1      11.580 -11.512  -0.143  1.00  0.00     0.206 C 
HETATM   20  O2  UNL     1      10.232 -10.985  -0.076  1.00  0.00    -0.375 OA
HETATM   21  C23 UNL     1       9.541 -11.853   0.852  1.00  0.00     0.194 C 
HETATM   22  C24 UNL     1       8.204 -11.254   1.336  1.00  0.00     0.179 C 
HETATM   23  C25 UNL     1       8.265 -10.389   2.577  1.00  0.00    -0.056 C 
HETATM   24  C26 UNL     1       6.968  -9.762   3.011  1.00  0.00     0.046 C 
HETATM   25  C27 UNL     1       9.399 -10.211   3.279  1.00  0.00    -0.004 C 
HETATM   26  C28 UNL     1      10.707 -10.820   2.855  1.00  0.00     0.150 C 
HETATM   27  C29 UNL     1      11.596 -11.122   4.050  1.00  0.00     0.270 C 
HETATM   28  O4  UNL     1      11.615 -12.194   4.648  1.00  0.00    -0.264 OA
HETATM   29  O5  UNL     1      12.382 -10.049   4.341  1.00  0.00    -0.315 OA
HETATM   30  C30 UNL     1      10.549 -12.092   1.972  1.00  0.00     0.128 C 
HETATM   31  O7  UNL     1      14.813  -8.393   3.853  1.00  0.00    -0.347 OA
HETATM   32  C31 UNL     1      13.066  -6.892   4.690  1.00  0.00     0.210 C 
HETATM   33  C32 UNL     1      12.994  -5.712   5.677  1.00  0.00     0.172 C 
HETATM   34  C37 UNL     1      14.338  -4.934   5.728  1.00  0.00     0.047 C 
HETATM   35  C38 UNL     1      14.264  -3.665   4.870  1.00  0.00     0.015 C 
ENDROOT
BRANCH  32  36
HETATM   36  O8  UNL     1      13.204  -6.344   3.363  1.00  0.00    -0.387 OA
HETATM   37  H42 UNL     1      12.337  -5.994   3.096  1.00  0.00     0.210 HD
ENDBRANCH  32  36
BRANCH   1  38
HETATM   38  C3  UNL     1      16.863  -5.361   5.875  1.00  0.00    -0.059 C 
HETATM   39  C2  UNL     1      17.850  -4.883   5.085  1.00  0.00    -0.026 C 
HETATM   40  C1  UNL     1      19.200  -4.401   5.509  1.00  0.00     0.036 C 
HETATM   41  C4  UNL     1      16.983  -5.399   7.377  1.00  0.00     0.046 C 
ENDBRANCH   1  38
BRANCH  33  42
HETATM   42  O9  UNL     1      12.669  -6.218   6.992  1.00  0.00    -0.312 OA
BRANCH  42  43
HETATM   43  C33 UNL     1      11.529  -5.724   7.554  1.00  0.00     0.262 C 
HETATM   44  O10 UNL     1      10.473  -5.585   6.952  1.00  0.00    -0.265 OA
BRANCH  43  45
HETATM   45  C34 UNL     1      11.766  -5.289   8.994  1.00  0.00     0.077 C 
HETATM   46  C35 UNL     1      11.423  -6.432   9.950  1.00  0.00     0.020 C 
HETATM   47  C36 UNL     1      13.203  -4.827   9.240  1.00  0.00     0.020 C 
ENDBRANCH  43  45
ENDBRANCH  42  43
ENDBRANCH  33  42
BRANCH  30  48
HETATM   48  O6  UNL     1      10.180 -13.278   2.669  1.00  0.00    -0.381 OA
HETATM   49  H40 UNL     1      10.660 -13.294   3.524  1.00  0.00     0.211 HD
ENDBRANCH  30  48
BRANCH  22  50
HETATM   50  O3  UNL     1       7.617 -10.493   0.280  1.00  0.00    -0.389 OA
HETATM   51  H34 UNL     1       8.366 -10.220  -0.288  1.00  0.00     0.210 HD
ENDBRANCH  22  50
TORSDOF 7
ENDMDL
MODEL 7
REMARK minimizedAffinity -6.89190388
REMARK CNNscore 0.33344245
REMARK CNNaffinity 6.53312445
REMARK  7 active torsions:
REMARK  status: ('A' for Active; 'I' for Inactive)
REMARK    1  A    between atoms: C3_3  and  C5_5 
REMARK    2  A    between atoms: C24_26  and  O3_27 
REMARK    3  A    between atoms: C30_35  and  O6_36 
REMARK    4  A    between atoms: C31_38  and  O8_39 
REMARK    5  A    between atoms: C32_40  and  O9_41 
REMARK    6  A    between atoms: O9_41  and  C33_42 
REMARK    7  A    between atoms: C33_42  and  C34_44 
ROOT
HETATM    1  C5  UNL     1      14.799  -2.294   3.262  1.00  0.00     0.160 C 
HETATM    2  O1  UNL     1      15.739  -3.366   3.141  1.00  0.00    -0.342 OA
HETATM    3  C6  UNL     1      15.152  -4.582   2.649  1.00  0.00     0.196 C 
HETATM    4  C7  UNL     1      16.136  -5.707   3.059  1.00  0.00     0.104 C 
HETATM    5  C8  UNL     1      16.278  -6.777   1.983  1.00  0.00     0.139 C 
HETATM    6  C9  UNL     1      16.694  -6.161   0.642  1.00  0.00     0.065 C 
HETATM    7  C10 UNL     1      16.269  -4.691   0.530  1.00  0.00     0.131 C 
HETATM    8  C11 UNL     1      16.062  -4.226  -0.924  1.00  0.00     0.059 C 
HETATM    9  C12 UNL     1      17.245  -4.457  -1.832  1.00  0.00    -0.022 C 
HETATM   10  C13 UNL     1      17.221  -4.718  -3.158  1.00  0.00    -0.087 C 
HETATM   11  C14 UNL     1      18.521  -4.902  -3.898  1.00  0.00     0.043 C 
HETATM   12  C15 UNL     1      15.959  -4.719  -4.007  1.00  0.00     0.041 C 
HETATM   13  C16 UNL     1      15.399  -6.077  -4.510  1.00  0.00     0.008 C 
HETATM   14  C17 UNL     1      16.235  -6.676  -5.646  1.00  0.00     0.014 C 
HETATM   15  C18 UNL     1      15.094  -7.019  -3.363  1.00  0.00    -0.022 C 
HETATM   16  C19 UNL     1      15.531  -8.279  -3.201  1.00  0.00    -0.003 C 
HETATM   17  C20 UNL     1      15.252  -9.075  -2.028  1.00  0.00     0.008 C 
HETATM   18  C21 UNL     1      14.041  -9.343  -1.511  1.00  0.00    -0.019 C 
HETATM   19  C22 UNL     1      12.698  -8.965  -2.081  1.00  0.00     0.206 C 
HETATM   20  O2  UNL     1      11.712  -9.618  -1.245  1.00  0.00    -0.375 OA
HETATM   21  C23 UNL     1      12.419 -10.721  -0.630  1.00  0.00     0.194 C 
HETATM   22  C24 UNL     1      11.649 -11.321   0.565  1.00  0.00     0.179 C 
HETATM   23  C25 UNL     1      11.932 -10.710   1.921  1.00  0.00    -0.056 C 
HETATM   24  C26 UNL     1      11.137 -11.261   3.073  1.00  0.00     0.046 C 
HETATM   25  C27 UNL     1      12.860  -9.754   2.104  1.00  0.00    -0.004 C 
HETATM   26  C28 UNL     1      13.656  -9.182   0.963  1.00  0.00     0.150 C 
HETATM   27  C29 UNL     1      15.036  -8.733   1.414  1.00  0.00     0.270 C 
HETATM   28  O4  UNL     1      16.038  -9.440   1.389  1.00  0.00    -0.264 OA
HETATM   29  O5  UNL     1      15.003  -7.434   1.822  1.00  0.00    -0.315 OA
HETATM   30  C30 UNL     1      13.779 -10.141  -0.257  1.00  0.00     0.128 C 
HETATM   31  O7  UNL     1      15.031  -4.514   1.220  1.00  0.00    -0.347 OA
HETATM   32  C31 UNL     1      13.730  -4.821   3.275  1.00  0.00     0.210 C 
HETATM   33  C32 UNL     1      13.602  -4.097   4.626  1.00  0.00     0.172 C 
HETATM   34  C37 UNL     1      13.893  -2.577   4.484  1.00  0.00     0.047 C 
HETATM   35  C38 UNL     1      12.586  -1.778   4.417  1.00  0.00     0.015 C 
ENDROOT
BRANCH  32  36
HETATM   36  O8  UNL     1      12.673  -4.340   2.419  1.00  0.00    -0.387 OA
HETATM   37  H42 UNL     1      11.843  -4.750   2.716  1.00  0.00     0.210 HD
ENDBRANCH  32  36
BRANCH   1  38
HETATM   38  C3  UNL     1      15.580  -0.984   3.392  1.00  0.00    -0.059 C 
HETATM   39  C2  UNL     1      15.754  -0.142   2.348  1.00  0.00    -0.026 C 
HETATM   40  C1  UNL     1      16.500   1.153   2.340  1.00  0.00     0.036 C 
HETATM   41  C4  UNL     1      16.084  -0.663   4.775  1.00  0.00     0.046 C 
ENDBRANCH   1  38
BRANCH  33  42
HETATM   42  O9  UNL     1      14.527  -4.688   5.567  1.00  0.00    -0.312 OA
BRANCH  42  43
HETATM   43  C33 UNL     1      14.044  -4.895   6.826  1.00  0.00     0.262 C 
HETATM   44  O10 UNL     1      14.510  -4.377   7.832  1.00  0.00    -0.265 OA
BRANCH  43  45
HETATM   45  C34 UNL     1      12.915  -5.916   6.824  1.00  0.00     0.077 C 
HETATM   46  C35 UNL     1      13.484  -7.328   6.967  1.00  0.00     0.020 C 
HETATM   47  C36 UNL     1      11.888  -5.661   7.928  1.00  0.00     0.020 C 
ENDBRANCH  43  45
ENDBRANCH  42  43
ENDBRANCH  33  42
BRANCH  30  48
HETATM   48  O6  UNL     1      14.703 -11.213  -0.101  1.00  0.00    -0.381 OA
HETATM   49  H40 UNL     1      15.489 -10.875   0.376  1.00  0.00     0.211 HD
ENDBRANCH  30  48
BRANCH  22  50
HETATM   50  O3  UNL     1      10.246 -11.240   0.313  1.00  0.00    -0.389 OA
HETATM   51  H34 UNL     1      10.139 -10.495  -0.312  1.00  0.00     0.210 HD
ENDBRANCH  22  50
TORSDOF 7
ENDMDL
MODEL 8
REMARK minimizedAffinity -7.13758516
REMARK CNNscore 0.273690075
REMARK CNNaffinity 6.22199774
REMARK  7 active torsions:
REMARK  status: ('A' for Active; 'I' for Inactive)
REMARK    1  A    between atoms: C3_3  and  C5_5 
REMARK    2  A    between atoms: C24_26  and  O3_27 
REMARK    3  A    between atoms: C30_35  and  O6_36 
REMARK    4  A    between atoms: C31_38  and  O8_39 
REMARK    5  A    between atoms: C32_40  and  O9_41 
REMARK    6  A    between atoms: O9_41  and  C33_42 
REMARK    7  A    between atoms: C33_42  and  C34_44 
ROOT
HETATM    1  C5  UNL     1      14.763  -2.367   3.532  1.00  0.00     0.160 C 
HETATM    2  O1  UNL     1      15.443  -3.521   4.034  1.00  0.00    -0.342 OA
HETATM    3  C6  UNL     1      14.834  -4.758   3.631  1.00  0.00     0.196 C 
HETATM    4  C7  UNL     1      15.355  -5.818   4.635  1.00  0.00     0.104 C 
HETATM    5  C8  UNL     1      15.648  -7.157   3.968  1.00  0.00     0.139 C 
HETATM    6  C9  UNL     1      16.630  -6.992   2.803  1.00  0.00     0.065 C 
HETATM    7  C10 UNL     1      16.584  -5.577   2.210  1.00  0.00     0.131 C 
HETATM    8  C11 UNL     1      17.008  -5.523   0.730  1.00  0.00     0.059 C 
HETATM    9  C12 UNL     1      18.363  -6.122   0.442  1.00  0.00    -0.022 C 
HETATM   10  C13 UNL     1      18.758  -6.744  -0.691  1.00  0.00    -0.087 C 
HETATM   11  C14 UNL     1      20.170  -7.263  -0.794  1.00  0.00     0.043 C 
HETATM   12  C15 UNL     1      17.910  -6.853  -1.949  1.00  0.00     0.041 C 
HETATM   13  C16 UNL     1      17.300  -8.232  -2.319  1.00  0.00     0.008 C 
HETATM   14  C17 UNL     1      18.344  -9.210  -2.868  1.00  0.00     0.014 C 
HETATM   15  C18 UNL     1      16.421  -8.774  -1.211  1.00  0.00    -0.022 C 
HETATM   16  C19 UNL     1      16.503  -9.975  -0.615  1.00  0.00    -0.003 C 
HETATM   17  C20 UNL     1      15.668 -10.374   0.495  1.00  0.00     0.008 C 
HETATM   18  C21 UNL     1      14.325 -10.357   0.533  1.00  0.00    -0.019 C 
HETATM   19  C22 UNL     1      13.381 -10.019  -0.591  1.00  0.00     0.206 C 
HETATM   20  O2  UNL     1      12.051 -10.302  -0.093  1.00  0.00    -0.375 OA
HETATM   21  C23 UNL     1      12.251 -11.254   0.978  1.00  0.00     0.194 C 
HETATM   22  C24 UNL     1      11.001 -11.409   1.870  1.00  0.00     0.179 C 
HETATM   23  C25 UNL     1      10.901 -10.473   3.055  1.00  0.00    -0.056 C 
HETATM   24  C26 UNL     1       9.654 -10.590   3.887  1.00  0.00     0.046 C 
HETATM   25  C27 UNL     1      11.879  -9.606   3.376  1.00  0.00    -0.004 C 
HETATM   26  C28 UNL     1      13.127  -9.465   2.549  1.00  0.00     0.150 C 
HETATM   27  C29 UNL     1      14.317  -9.053   3.400  1.00  0.00     0.270 C 
HETATM   28  O4  UNL     1      15.096  -9.839   3.931  1.00  0.00    -0.264 OA
HETATM   29  O5  UNL     1      14.408  -7.696   3.464  1.00  0.00    -0.315 OA
HETATM   30  C30 UNL     1      13.477 -10.737   1.722  1.00  0.00     0.128 C 
HETATM   31  O7  UNL     1      15.246  -5.085   2.294  1.00  0.00    -0.347 OA
HETATM   32  C31 UNL     1      13.266  -4.662   3.676  1.00  0.00     0.210 C 
HETATM   33  C32 UNL     1      12.816  -3.576   4.669  1.00  0.00     0.172 C 
HETATM   34  C37 UNL     1      13.444  -2.197   4.324  1.00  0.00     0.047 C 
HETATM   35  C38 UNL     1      12.440  -1.318   3.568  1.00  0.00     0.015 C 
ENDROOT
BRANCH  32  36
HETATM   36  O8  UNL     1      12.705  -4.335   2.388  1.00  0.00    -0.387 OA
HETATM   37  H42 UNL     1      11.758  -4.555   2.413  1.00  0.00     0.210 HD
ENDBRANCH  32  36
BRANCH   1  38
HETATM   38  C3  UNL     1      15.697  -1.161   3.668  1.00  0.00    -0.059 C 
HETATM   39  C2  UNL     1      15.827  -0.236   2.691  1.00  0.00    -0.026 C 
HETATM   40  C1  UNL     1      16.707   0.972   2.696  1.00  0.00     0.036 C 
HETATM   41  C4  UNL     1      16.411  -1.041   4.990  1.00  0.00     0.046 C 
ENDBRANCH   1  38
BRANCH  33  42
HETATM   42  O9  UNL     1      13.204  -3.970   6.005  1.00  0.00    -0.312 OA
BRANCH  42  43
HETATM   43  C33 UNL     1      12.409  -4.903   6.604  1.00  0.00     0.262 C 
HETATM   44  O10 UNL     1      11.423  -5.402   6.078  1.00  0.00    -0.265 OA
BRANCH  43  45
HETATM   45  C34 UNL     1      12.855  -5.172   8.034  1.00  0.00     0.077 C 
HETATM   46  C35 UNL     1      11.690  -5.730   8.852  1.00  0.00     0.020 C 
HETATM   47  C36 UNL     1      14.043  -6.134   8.109  1.00  0.00     0.020 C 
ENDBRANCH  43  45
ENDBRANCH  42  43
ENDBRANCH  33  42
BRANCH  30  48
HETATM   48  O6  UNL     1      14.045 -11.811   2.465  1.00  0.00    -0.381 OA
HETATM   49  H40 UNL     1      14.661 -11.437   3.128  1.00  0.00     0.211 HD
ENDBRANCH  30  48
BRANCH  22  50
HETATM   50  O3  UNL     1       9.828 -11.257   1.071  1.00  0.00    -0.389 OA
HETATM   51  H34 UNL     1      10.105 -10.712   0.306  1.00  0.00     0.210 HD
ENDBRANCH  22  50
TORSDOF 7
ENDMDL
MODEL 9
REMARK minimizedAffinity -12.6250677
REMARK CNNscore 0.242921352
REMARK CNNaffinity 6.98482084
REMARK  7 active torsions:
REMARK  status: ('A' for Active; 'I' for Inactive)
REMARK    1  A    between atoms: C3_3  and  C5_5 
REMARK    2  A    between atoms: C24_26  and  O3_27 
REMARK    3  A    between atoms: C30_35  and  O6_36 
REMARK    4  A    between atoms: C31_38  and  O8_39 
REMARK    5  A    between atoms: C32_40  and  O9_41 
REMARK    6  A    between atoms: O9_41  and  C33_42 
REMARK    7  A    between atoms: C33_42  and  C34_44 
ROOT
HETATM    1  C5  UNL     1       2.367   6.373   9.002  1.00  0.00     0.160 C 
HETATM    2  O1  UNL     1       2.293   5.843  10.329  1.00  0.00    -0.342 OA
HETATM    3  C6  UNL     1       1.360   6.543  11.168  1.00  0.00     0.196 C 
HETATM    4  C7  UNL     1       1.773   6.195  12.621  1.00  0.00     0.104 C 
HETATM    5  C8  UNL     1       0.571   5.993  13.536  1.00  0.00     0.139 C 
HETATM    6  C9  UNL     1      -0.375   4.924  12.976  1.00  0.00     0.065 C 
HETATM    7  C10 UNL     1      -0.254   4.793  11.452  1.00  0.00     0.131 C 
HETATM    8  C11 UNL     1      -1.540   4.269  10.782  1.00  0.00     0.059 C 
HETATM    9  C12 UNL     1      -2.052   2.964  11.339  1.00  0.00    -0.022 C 
HETATM   10  C13 UNL     1      -3.339   2.558  11.421  1.00  0.00    -0.087 C 
HETATM   11  C14 UNL     1      -3.650   1.200  11.998  1.00  0.00     0.043 C 
HETATM   12  C15 UNL     1      -4.518   3.329  10.847  1.00  0.00     0.041 C 
HETATM   13  C16 UNL     1      -5.487   4.046  11.826  1.00  0.00     0.008 C 
HETATM   14  C17 UNL     1      -6.409   3.069  12.564  1.00  0.00     0.014 C 
HETATM   15  C18 UNL     1      -4.762   5.044  12.705  1.00  0.00    -0.022 C 
HETATM   16  C19 UNL     1      -4.782   5.119  14.046  1.00  0.00    -0.003 C 
HETATM   17  C20 UNL     1      -3.990   6.060  14.804  1.00  0.00     0.008 C 
HETATM   18  C21 UNL     1      -3.966   7.394  14.650  1.00  0.00    -0.019 C 
HETATM   19  C22 UNL     1      -4.822   8.225  13.730  1.00  0.00     0.206 C 
HETATM   20  O2  UNL     1      -4.528   9.607  14.050  1.00  0.00    -0.375 OA
HETATM   21  C23 UNL     1      -4.009   9.572  15.401  1.00  0.00     0.194 C 
HETATM   22  C24 UNL     1      -3.304  10.886  15.796  1.00  0.00     0.179 C 
HETATM   23  C25 UNL     1      -1.823  10.971  15.495  1.00  0.00    -0.056 C 
HETATM   24  C26 UNL     1      -1.153  12.276  15.830  1.00  0.00     0.046 C 
HETATM   25  C27 UNL     1      -1.127   9.937  14.989  1.00  0.00    -0.004 C 
HETATM   26  C28 UNL     1      -1.781   8.629  14.636  1.00  0.00     0.150 C 
HETATM   27  C29 UNL     1      -0.820   7.462  14.797  1.00  0.00     0.270 C 
HETATM   28  O4  UNL     1      -0.698   6.801  15.823  1.00  0.00    -0.264 OA
HETATM   29  O5  UNL     1      -0.141   7.244  13.638  1.00  0.00    -0.315 OA
HETATM   30  C30 UNL     1      -3.095   8.352  15.425  1.00  0.00     0.128 C 
HETATM   31  O7  UNL     1       0.028   6.078  10.898  1.00  0.00    -0.347 OA
HETATM   32  C31 UNL     1       1.423   8.094  10.920  1.00  0.00     0.210 C 
HETATM   33  C32 UNL     1       2.798   8.499  10.358  1.00  0.00     0.172 C 
HETATM   34  C37 UNL     1       3.130   7.718   9.057  1.00  0.00     0.047 C 
HETATM   35  C38 UNL     1       2.849   8.579   7.820  1.00  0.00     0.015 C 
ENDROOT
BRANCH  32  36
HETATM   36  O8  UNL     1       0.420   8.535   9.981  1.00  0.00    -0.387 OA
HETATM   37  H42 UNL     1       0.329   9.498  10.076  1.00  0.00     0.210 HD
ENDBRANCH  32  36
BRANCH   1  38
HETATM   38  C3  UNL     1       3.053   5.336   8.108  1.00  0.00    -0.059 C 
HETATM   39  C2  UNL     1       3.842   4.361   8.611  1.00  0.00    -0.026 C 
HETATM   40  C1  UNL     1       4.575   3.303   7.851  1.00  0.00     0.036 C 
HETATM   41  C4  UNL     1       2.737   5.437   6.638  1.00  0.00     0.046 C 
ENDBRANCH   1  38
BRANCH  33  42
HETATM   42  O9  UNL     1       3.809   8.240  11.358  1.00  0.00    -0.312 OA
BRANCH  42  43
HETATM   43  C33 UNL     1       5.071   8.656  11.050  1.00  0.00     0.262 C 
HETATM   44  O10 UNL     1       5.320   9.653  10.386  1.00  0.00    -0.265 OA
BRANCH  43  45
HETATM   45  C34 UNL     1       6.116   7.676  11.563  1.00  0.00     0.077 C 
HETATM   46  C35 UNL     1       6.149   7.695  13.091  1.00  0.00     0.020 C 
HETATM   47  C36 UNL     1       5.876   6.247  11.071  1.00  0.00     0.020 C 
ENDBRANCH  43  45
ENDBRANCH  42  43
ENDBRANCH  33  42
BRANCH  30  48
HETATM   48  O6  UNL     1      -2.919   7.942  16.778  1.00  0.00    -0.381 OA
HETATM   49  H40 UNL     1      -2.150   7.337  16.819  1.00  0.00     0.211 HD
ENDBRANCH  30  48
BRANCH  22  50
HETATM   50  O3  UNL     1      -3.961  11.984  15.162  1.00  0.00    -0.389 OA
HETATM   51  H34 UNL     1      -4.386  11.605  14.366  1.00  0.00     0.210 HD
ENDBRANCH  22  50
TORSDOF 7
ENDMDL
