MODEL 1
REMARK minimizedAffinity -9.20395851
REMARK CNNscore 0.573886514
REMARK CNNaffinity 6.95109892
REMARK  11 active torsions:
REMARK  status: ('A' for Active; 'I' for Inactive)
REMARK    1  A    between atoms: C2_2  and  C3_3 
REMARK    2  A    between atoms: C3_3  and  N1_4 
REMARK       I    between atoms: N1_4  and  C4_5 
REMARK    3  A    between atoms: C4_5  and  C5_7 
REMARK       I    between atoms: N2_8  and  C6_9 
REMARK    4  A    between atoms: C6_9  and  C7_11 
REMARK    5  A    between atoms: C7_11  and  O3_12 
REMARK    6  A    between atoms: C7_11  and  C8_13 
REMARK    7  A    between atoms: C8_13  and  C9_14 
REMARK    8  A    between atoms: C8_13  and  N3_21 
REMARK    9  A    between atoms: C9_14  and  C10_15 
REMARK       I    between atoms: N3_21  and  C16_22 
REMARK   10  A    between atoms: C16_22  and  C17_24 
REMARK   11  A    between atoms: C21_28  and  O5_29 
ROOT
HETATM    1  C8  UNL     1      -3.472  50.408 -22.836  1.00  0.00     0.127 C 
ENDROOT
BRANCH   1   2
HETATM    2  C7  UNL     1      -4.539  49.979 -21.789  1.00  0.00     0.233 C 
BRANCH   2   3
HETATM    3  C6  UNL     1      -3.931  49.569 -20.430  1.00  0.00     0.252 C 
HETATM    4  N2  UNL     1      -4.763  49.397 -19.328  1.00  0.00    -0.326 N 
HETATM    5  C5  UNL     1      -4.168  49.026 -18.028  1.00  0.00     0.198 C 
HETATM    6  C24 UNL     1      -6.052  48.753 -19.482  1.00  0.00     0.201 C 
HETATM    7  C25 UNL     1      -4.230  47.486 -17.912  1.00  0.00     0.032 C 
HETATM    8  S1  UNL     1      -5.843  47.094 -18.754  1.00  0.00    -0.137 SA
HETATM    9  C26 UNL     1      -4.373  46.992 -16.467  1.00  0.00     0.029 C 
HETATM   10  C27 UNL     1      -3.136  46.715 -18.652  1.00  0.00     0.029 C 
HETATM   11  O2  UNL     1      -2.714  49.364 -20.371  1.00  0.00    -0.270 OA
BRANCH   5  12
HETATM   12  C4  UNL     1      -2.907  49.858 -17.651  1.00  0.00     0.242 C 
HETATM   13  N1  UNL     1      -1.697  49.214 -17.577  1.00  0.00    -0.356 N 
HETATM   14  H6  UNL     1      -1.639  48.209 -17.597  1.00  0.00     0.162 HD
HETATM   15  O1  UNL     1      -3.004  51.052 -17.351  1.00  0.00    -0.271 OA
BRANCH  13  16
HETATM   16  C3  UNL     1      -0.520  49.930 -17.150  1.00  0.00     0.149 C 
BRANCH  16  17
HETATM   17  C2  UNL     1       0.312  49.078 -16.239  1.00  0.00    -0.018 C 
HETATM   18  C1  UNL     1       0.841  49.436 -15.060  1.00  0.00     0.008 C 
ENDBRANCH  16  17
ENDBRANCH  13  16
ENDBRANCH   5  12
ENDBRANCH   2   3
BRANCH   2  19
HETATM   19  O3  UNL     1      -5.580  50.932 -21.579  1.00  0.00    -0.384 OA
HETATM   20  H9  UNL     1      -6.222  50.510 -20.978  1.00  0.00     0.210 HD
ENDBRANCH   2  19
ENDBRANCH   1   2
BRANCH   1  21
HETATM   21  C9  UNL     1      -2.797  49.203 -23.541  1.00  0.00     0.066 C 
BRANCH  21  22
HETATM   22  C10 UNL     1      -3.435  48.850 -24.867  1.00  0.00    -0.056 A 
HETATM   23  C11 UNL     1      -4.795  48.513 -24.925  1.00  0.00     0.007 A 
HETATM   24  C12 UNL     1      -5.389  48.171 -26.140  1.00  0.00     0.001 A 
HETATM   25  C13 UNL     1      -4.632  48.162 -27.309  1.00  0.00     0.000 A 
HETATM   26  C14 UNL     1      -3.280  48.500 -27.264  1.00  0.00     0.001 A 
HETATM   27  C15 UNL     1      -2.685  48.845 -26.050  1.00  0.00     0.007 A 
ENDBRANCH  21  22
ENDBRANCH   1  21
BRANCH   1  28
HETATM   28  N3  UNL     1      -2.450  51.264 -22.210  1.00  0.00    -0.349 N 
HETATM   29  C16 UNL     1      -1.202  51.428 -22.774  1.00  0.00     0.252 C 
HETATM   30  O4  UNL     1      -0.844  50.903 -23.821  1.00  0.00    -0.268 OA
HETATM   31  H18 UNL     1      -2.592  51.603 -21.264  1.00  0.00     0.163 HD
BRANCH  29  32
HETATM   32  C17 UNL     1      -0.252  52.244 -21.980  1.00  0.00     0.040 A 
HETATM   33  C18 UNL     1      -0.183  51.961 -20.607  1.00  0.00     0.018 A 
HETATM   34  C19 UNL     1       0.648  52.714 -19.781  1.00  0.00     0.004 A 
HETATM   35  C20 UNL     1       1.411  53.747 -20.320  1.00  0.00     0.037 A 
HETATM   36  C21 UNL     1       1.355  54.010 -21.690  1.00  0.00     0.072 A 
HETATM   37  C22 UNL     1       0.546  53.255 -22.551  1.00  0.00    -0.013 A 
HETATM   38  C23 UNL     1       0.546  53.526 -24.030  1.00  0.00     0.052 C 
BRANCH  36  39
HETATM   39  O5  UNL     1       2.109  55.024 -22.214  1.00  0.00    -0.360 OA
HETATM   40  H22 UNL     1       2.717  55.351 -21.531  1.00  0.00     0.217 HD
ENDBRANCH  36  39
ENDBRANCH  29  32
ENDBRANCH   1  28
TORSDOF 11
ENDMDL
MODEL 2
REMARK minimizedAffinity -8.68437672
REMARK CNNscore 0.34777692
REMARK CNNaffinity 6.41526175
REMARK  11 active torsions:
REMARK  status: ('A' for Active; 'I' for Inactive)
REMARK    1  A    between atoms: C2_2  and  C3_3 
REMARK    2  A    between atoms: C3_3  and  N1_4 
REMARK       I    between atoms: N1_4  and  C4_5 
REMARK    3  A    between atoms: C4_5  and  C5_7 
REMARK       I    between atoms: N2_8  and  C6_9 
REMARK    4  A    between atoms: C6_9  and  C7_11 
REMARK    5  A    between atoms: C7_11  and  O3_12 
REMARK    6  A    between atoms: C7_11  and  C8_13 
REMARK    7  A    between atoms: C8_13  and  C9_14 
REMARK    8  A    between atoms: C8_13  and  N3_21 
REMARK    9  A    between atoms: C9_14  and  C10_15 
REMARK       I    between atoms: N3_21  and  C16_22 
REMARK   10  A    between atoms: C16_22  and  C17_24 
REMARK   11  A    between atoms: C21_28  and  O5_29 
ROOT
HETATM    1  C8  UNL     1      -3.621  50.681 -22.777  1.00  0.00     0.127 C 
ENDROOT
BRANCH   1   2
HETATM    2  C7  UNL     1      -4.720  50.423 -21.707  1.00  0.00     0.233 C 
BRANCH   2   3
HETATM    3  C6  UNL     1      -4.367  49.281 -20.730  1.00  0.00     0.252 C 
HETATM    4  N2  UNL     1      -5.376  48.464 -20.233  1.00  0.00    -0.326 N 
HETATM    5  C5  UNL     1      -5.029  47.388 -19.282  1.00  0.00     0.198 C 
HETATM    6  C24 UNL     1      -6.454  48.028 -21.098  1.00  0.00     0.201 C 
HETATM    7  C25 UNL     1      -4.825  46.094 -20.100  1.00  0.00     0.032 C 
HETATM    8  S1  UNL     1      -6.105  46.270 -21.440  1.00  0.00    -0.137 SA
HETATM    9  C26 UNL     1      -5.193  44.822 -19.326  1.00  0.00     0.029 C 
HETATM   10  C27 UNL     1      -3.468  45.945 -20.790  1.00  0.00     0.029 C 
HETATM   11  O2  UNL     1      -3.177  49.099 -20.448  1.00  0.00    -0.270 OA
BRANCH   5  12
HETATM   12  C4  UNL     1      -4.064  47.838 -18.146  1.00  0.00     0.242 C 
HETATM   13  N1  UNL     1      -4.268  49.065 -17.564  1.00  0.00    -0.356 N 
HETATM   14  H6  UNL     1      -4.908  49.732 -17.963  1.00  0.00     0.162 HD
HETATM   15  O1  UNL     1      -3.095  47.144 -17.827  1.00  0.00    -0.271 OA
BRANCH  13  16
HETATM   16  C3  UNL     1      -3.348  49.556 -16.567  1.00  0.00     0.149 C 
BRANCH  16  17
HETATM   17  C2  UNL     1      -2.354  50.494 -17.185  1.00  0.00    -0.018 C 
HETATM   18  C1  UNL     1      -1.050  50.595 -16.893  1.00  0.00     0.008 C 
ENDBRANCH  16  17
ENDBRANCH  13  16
ENDBRANCH   5  12
ENDBRANCH   2   3
BRANCH   2  19
HETATM   19  O3  UNL     1      -5.111  51.580 -20.968  1.00  0.00    -0.384 OA
HETATM   20  H9  UNL     1      -5.858  51.306 -20.404  1.00  0.00     0.210 HD
ENDBRANCH   2  19
ENDBRANCH   1   2
BRANCH   1  21
HETATM   21  C9  UNL     1      -3.000  49.374 -23.333  1.00  0.00     0.066 C 
BRANCH  21  22
HETATM   22  C10 UNL     1      -3.554  48.974 -24.685  1.00  0.00    -0.056 A 
HETATM   23  C11 UNL     1      -4.890  48.564 -24.803  1.00  0.00     0.007 A 
HETATM   24  C12 UNL     1      -5.406  48.180 -26.040  1.00  0.00     0.001 A 
HETATM   25  C13 UNL     1      -4.594  48.200 -27.172  1.00  0.00     0.000 A 
HETATM   26  C14 UNL     1      -3.266  48.611 -27.067  1.00  0.00     0.001 A 
HETATM   27  C15 UNL     1      -2.749  48.999 -25.830  1.00  0.00     0.007 A 
ENDBRANCH  21  22
ENDBRANCH   1  21
BRANCH   1  28
HETATM   28  N3  UNL     1      -2.564  51.550 -22.231  1.00  0.00    -0.349 N 
HETATM   29  C16 UNL     1      -1.243  51.152 -22.209  1.00  0.00     0.252 C 
HETATM   30  O4  UNL     1      -0.839  50.078 -22.637  1.00  0.00    -0.268 OA
HETATM   31  H18 UNL     1      -2.819  52.379 -21.706  1.00  0.00     0.163 HD
BRANCH  29  32
HETATM   32  C17 UNL     1      -0.311  52.095 -21.545  1.00  0.00     0.040 A 
HETATM   33  C18 UNL     1      -0.225  52.007 -20.147  1.00  0.00     0.018 A 
HETATM   34  C19 UNL     1       0.590  52.888 -19.442  1.00  0.00     0.004 A 
HETATM   35  C20 UNL     1       1.321  53.856 -20.126  1.00  0.00     0.037 A 
HETATM   36  C21 UNL     1       1.249  53.925 -21.519  1.00  0.00     0.072 A 
HETATM   37  C22 UNL     1       0.455  53.037 -22.259  1.00  0.00    -0.013 A 
HETATM   38  C23 UNL     1       0.438  53.100 -23.762  1.00  0.00     0.052 C 
BRANCH  36  39
HETATM   39  O5  UNL     1       1.972  54.876 -22.186  1.00  0.00    -0.360 OA
HETATM   40  H22 UNL     1       2.575  55.310 -21.561  1.00  0.00     0.217 HD
ENDBRANCH  36  39
ENDBRANCH  29  32
ENDBRANCH   1  28
TORSDOF 11
ENDMDL
MODEL 3
REMARK minimizedAffinity -8.80799484
REMARK CNNscore 0.270357996
REMARK CNNaffinity 6.49923372
REMARK  11 active torsions:
REMARK  status: ('A' for Active; 'I' for Inactive)
REMARK    1  A    between atoms: C2_2  and  C3_3 
REMARK    2  A    between atoms: C3_3  and  N1_4 
REMARK       I    between atoms: N1_4  and  C4_5 
REMARK    3  A    between atoms: C4_5  and  C5_7 
REMARK       I    between atoms: N2_8  and  C6_9 
REMARK    4  A    between atoms: C6_9  and  C7_11 
REMARK    5  A    between atoms: C7_11  and  O3_12 
REMARK    6  A    between atoms: C7_11  and  C8_13 
REMARK    7  A    between atoms: C8_13  and  C9_14 
REMARK    8  A    between atoms: C8_13  and  N3_21 
REMARK    9  A    between atoms: C9_14  and  C10_15 
REMARK       I    between atoms: N3_21  and  C16_22 
REMARK   10  A    between atoms: C16_22  and  C17_24 
REMARK   11  A    between atoms: C21_28  and  O5_29 
ROOT
HETATM    1  C8  UNL     1      -3.266  51.473 -24.304  1.00  0.00     0.127 C 
ENDROOT
BRANCH   1   2
HETATM    2  C7  UNL     1      -3.138  49.935 -24.111  1.00  0.00     0.233 C 
BRANCH   2   3
HETATM    3  C6  UNL     1      -3.840  49.418 -22.836  1.00  0.00     0.252 C 
HETATM    4  N2  UNL     1      -4.982  50.061 -22.371  1.00  0.00    -0.326 N 
HETATM    5  C5  UNL     1      -5.632  49.570 -21.138  1.00  0.00     0.198 C 
HETATM    6  C24 UNL     1      -5.987  50.528 -23.304  1.00  0.00     0.201 C 
HETATM    7  C25 UNL     1      -6.746  48.586 -21.560  1.00  0.00     0.032 C 
HETATM    8  S1  UNL     1      -7.375  49.357 -23.134  1.00  0.00    -0.137 SA
HETATM    9  C26 UNL     1      -7.936  48.564 -20.593  1.00  0.00     0.029 C 
HETATM   10  C27 UNL     1      -6.290  47.167 -21.904  1.00  0.00     0.029 C 
HETATM   11  O2  UNL     1      -3.382  48.412 -22.283  1.00  0.00    -0.270 OA
BRANCH   5  12
HETATM   12  C4  UNL     1      -4.640  49.284 -19.973  1.00  0.00     0.242 C 
HETATM   13  N1  UNL     1      -3.569  50.126 -19.806  1.00  0.00    -0.356 N 
HETATM   14  H6  UNL     1      -3.327  50.808 -20.505  1.00  0.00     0.162 HD
HETATM   15  O1  UNL     1      -4.768  48.281 -19.264  1.00  0.00    -0.271 OA
BRANCH  13  16
HETATM   16  C3  UNL     1      -2.581  49.849 -18.792  1.00  0.00     0.149 C 
BRANCH  16  17
HETATM   17  C2  UNL     1      -2.620  50.896 -17.719  1.00  0.00    -0.018 C 
HETATM   18  C1  UNL     1      -2.921  50.715 -16.425  1.00  0.00     0.008 C 
ENDBRANCH  16  17
ENDBRANCH  13  16
ENDBRANCH   5  12
ENDBRANCH   2   3
BRANCH   2  19
HETATM   19  O3  UNL     1      -3.556  49.160 -25.234  1.00  0.00    -0.384 OA
HETATM   20  H9  UNL     1      -3.343  48.232 -25.021  1.00  0.00     0.210 HD
ENDBRANCH   2  19
ENDBRANCH   1   2
BRANCH   1  21
HETATM   21  C9  UNL     1      -3.135  51.909 -25.786  1.00  0.00     0.066 C 
BRANCH  21  22
HETATM   22  C10 UNL     1      -1.711  51.877 -26.298  1.00  0.00    -0.056 A 
HETATM   23  C11 UNL     1      -0.943  50.711 -26.165  1.00  0.00     0.007 A 
HETATM   24  C12 UNL     1       0.375  50.675 -26.620  1.00  0.00     0.001 A 
HETATM   25  C13 UNL     1       0.940  51.803 -27.212  1.00  0.00     0.000 A 
HETATM   26  C14 UNL     1       0.184  52.966 -27.353  1.00  0.00     0.001 A 
HETATM   27  C15 UNL     1      -1.136  53.002 -26.901  1.00  0.00     0.007 A 
ENDBRANCH  21  22
ENDBRANCH   1  21
BRANCH   1  28
HETATM   28  N3  UNL     1      -2.271  52.180 -23.480  1.00  0.00    -0.349 N 
HETATM   29  C16 UNL     1      -1.208  51.516 -22.902  1.00  0.00     0.252 C 
HETATM   30  O4  UNL     1      -0.995  50.316 -23.026  1.00  0.00    -0.268 OA
HETATM   31  H18 UNL     1      -2.453  53.133 -23.183  1.00  0.00     0.163 HD
BRANCH  29  32
HETATM   32  C17 UNL     1      -0.346  52.346 -22.026  1.00  0.00     0.040 A 
HETATM   33  C18 UNL     1      -0.488  52.149 -20.644  1.00  0.00     0.018 A 
HETATM   34  C19 UNL     1       0.249  52.921 -19.750  1.00  0.00     0.004 A 
HETATM   35  C20 UNL     1       1.128  53.889 -20.230  1.00  0.00     0.037 A 
HETATM   36  C21 UNL     1       1.281  54.066 -21.607  1.00  0.00     0.072 A 
HETATM   37  C22 UNL     1       0.570  53.288 -22.532  1.00  0.00    -0.013 A 
HETATM   38  C23 UNL     1       0.795  53.464 -24.008  1.00  0.00     0.052 C 
BRANCH  36  39
HETATM   39  O5  UNL     1       2.148  55.016 -22.073  1.00  0.00    -0.360 OA
HETATM   40  H22 UNL     1       2.666  55.363 -21.328  1.00  0.00     0.217 HD
ENDBRANCH  36  39
ENDBRANCH  29  32
ENDBRANCH   1  28
TORSDOF 11
ENDMDL
MODEL 4
REMARK minimizedAffinity -8.73989391
REMARK CNNscore 0.269322813
REMARK CNNaffinity 6.50412512
REMARK  11 active torsions:
REMARK  status: ('A' for Active; 'I' for Inactive)
REMARK    1  A    between atoms: C2_2  and  C3_3 
REMARK    2  A    between atoms: C3_3  and  N1_4 
REMARK       I    between atoms: N1_4  and  C4_5 
REMARK    3  A    between atoms: C4_5  and  C5_7 
REMARK       I    between atoms: N2_8  and  C6_9 
REMARK    4  A    between atoms: C6_9  and  C7_11 
REMARK    5  A    between atoms: C7_11  and  O3_12 
REMARK    6  A    between atoms: C7_11  and  C8_13 
REMARK    7  A    between atoms: C8_13  and  C9_14 
REMARK    8  A    between atoms: C8_13  and  N3_21 
REMARK    9  A    between atoms: C9_14  and  C10_15 
REMARK       I    between atoms: N3_21  and  C16_22 
REMARK   10  A    between atoms: C16_22  and  C17_24 
REMARK   11  A    between atoms: C21_28  and  O5_29 
ROOT
HETATM    1  C8  UNL     1      -3.252  51.584 -24.426  1.00  0.00     0.127 C 
ENDROOT
BRANCH   1   2
HETATM    2  C7  UNL     1      -3.248  50.051 -24.167  1.00  0.00     0.233 C 
BRANCH   2   3
HETATM    3  C6  UNL     1      -4.533  49.544 -23.477  1.00  0.00     0.252 C 
HETATM    4  N2  UNL     1      -4.465  48.462 -22.606  1.00  0.00    -0.326 N 
HETATM    5  C5  UNL     1      -5.705  47.972 -21.968  1.00  0.00     0.198 C 
HETATM    6  C24 UNL     1      -3.355  48.339 -21.683  1.00  0.00     0.201 C 
HETATM    7  C25 UNL     1      -5.823  48.664 -20.592  1.00  0.00     0.032 C 
HETATM    8  S1  UNL     1      -4.045  48.767 -20.050  1.00  0.00    -0.137 SA
HETATM    9  C26 UNL     1      -6.539  47.806 -19.541  1.00  0.00     0.029 C 
HETATM   10  C27 UNL     1      -6.374  50.091 -20.605  1.00  0.00     0.029 C 
HETATM   11  O2  UNL     1      -5.590  50.148 -23.692  1.00  0.00    -0.270 OA
BRANCH   5  12
HETATM   12  C4  UNL     1      -6.902  47.822 -22.952  1.00  0.00     0.242 C 
HETATM   13  N1  UNL     1      -6.689  47.180 -24.147  1.00  0.00    -0.356 N 
HETATM   14  H6  UNL     1      -5.759  46.960 -24.462  1.00  0.00     0.162 HD
HETATM   15  O1  UNL     1      -7.997  48.333 -22.699  1.00  0.00    -0.271 OA
BRANCH  13  16
HETATM   16  C3  UNL     1      -7.749  47.093 -25.121  1.00  0.00     0.149 C 
BRANCH  16  17
HETATM   17  C2  UNL     1      -7.248  47.482 -26.479  1.00  0.00    -0.018 C 
HETATM   18  C1  UNL     1      -7.637  46.976 -27.658  1.00  0.00     0.008 C 
ENDBRANCH  16  17
ENDBRANCH  13  16
ENDBRANCH   5  12
ENDBRANCH   2   3
BRANCH   2  19
HETATM   19  O3  UNL     1      -2.979  49.255 -25.322  1.00  0.00    -0.384 OA
HETATM   20  H9  UNL     1      -2.916  48.333 -25.011  1.00  0.00     0.210 HD
ENDBRANCH   2  19
ENDBRANCH   1   2
BRANCH   1  21
HETATM   21  C9  UNL     1      -3.031  51.946 -25.918  1.00  0.00     0.066 C 
BRANCH  21  22
HETATM   22  C10 UNL     1      -1.576  51.909 -26.335  1.00  0.00    -0.056 A 
HETATM   23  C11 UNL     1      -0.814  50.750 -26.125  1.00  0.00     0.007 A 
HETATM   24  C12 UNL     1       0.531  50.710 -26.492  1.00  0.00     0.001 A 
HETATM   25  C13 UNL     1       1.130  51.826 -27.072  1.00  0.00     0.000 A 
HETATM   26  C14 UNL     1       0.381  52.982 -27.290  1.00  0.00     0.001 A 
HETATM   27  C15 UNL     1      -0.966  53.022 -26.926  1.00  0.00     0.007 A 
ENDBRANCH  21  22
ENDBRANCH   1  21
BRANCH   1  28
HETATM   28  N3  UNL     1      -2.240  52.251 -23.589  1.00  0.00    -0.349 N 
HETATM   29  C16 UNL     1      -1.269  51.534 -22.921  1.00  0.00     0.252 C 
HETATM   30  O4  UNL     1      -1.157  50.315 -22.969  1.00  0.00    -0.268 OA
HETATM   31  H18 UNL     1      -2.352  53.231 -23.355  1.00  0.00     0.163 HD
BRANCH  29  32
HETATM   32  C17 UNL     1      -0.381  52.336 -22.046  1.00  0.00     0.040 A 
HETATM   33  C18 UNL     1      -0.496  52.111 -20.665  1.00  0.00     0.018 A 
HETATM   34  C19 UNL     1       0.267  52.857 -19.770  1.00  0.00     0.004 A 
HETATM   35  C20 UNL     1       1.145  53.827 -20.249  1.00  0.00     0.037 A 
HETATM   36  C21 UNL     1       1.271  54.032 -21.625  1.00  0.00     0.072 A 
HETATM   37  C22 UNL     1       0.534  53.281 -22.550  1.00  0.00    -0.013 A 
HETATM   38  C23 UNL     1       0.730  53.486 -24.027  1.00  0.00     0.052 C 
BRANCH  36  39
HETATM   39  O5  UNL     1       2.138  54.984 -22.088  1.00  0.00    -0.360 OA
HETATM   40  H22 UNL     1       2.674  55.310 -21.347  1.00  0.00     0.217 HD
ENDBRANCH  36  39
ENDBRANCH  29  32
ENDBRANCH   1  28
TORSDOF 11
ENDMDL
MODEL 5
REMARK minimizedAffinity -7.7377286
REMARK CNNscore 0.228693619
REMARK CNNaffinity 5.1393609
REMARK  11 active torsions:
REMARK  status: ('A' for Active; 'I' for Inactive)
REMARK    1  A    between atoms: C2_2  and  C3_3 
REMARK    2  A    between atoms: C3_3  and  N1_4 
REMARK       I    between atoms: N1_4  and  C4_5 
REMARK    3  A    between atoms: C4_5  and  C5_7 
REMARK       I    between atoms: N2_8  and  C6_9 
REMARK    4  A    between atoms: C6_9  and  C7_11 
REMARK    5  A    between atoms: C7_11  and  O3_12 
REMARK    6  A    between atoms: C7_11  and  C8_13 
REMARK    7  A    between atoms: C8_13  and  C9_14 
REMARK    8  A    between atoms: C8_13  and  N3_21 
REMARK    9  A    between atoms: C9_14  and  C10_15 
REMARK       I    between atoms: N3_21  and  C16_22 
REMARK   10  A    between atoms: C16_22  and  C17_24 
REMARK   11  A    between atoms: C21_28  and  O5_29 
ROOT
HETATM    1  C8  UNL     1      -0.766  50.312 -15.453  1.00  0.00     0.127 C 
ENDROOT
BRANCH   1   2
HETATM    2  C7  UNL     1      -1.471  49.218 -16.303  1.00  0.00     0.233 C 
BRANCH   2   3
HETATM    3  C6  UNL     1      -1.674  49.626 -17.778  1.00  0.00     0.252 C 
HETATM    4  N2  UNL     1      -1.987  48.655 -18.724  1.00  0.00    -0.326 N 
HETATM    5  C5  UNL     1      -2.157  49.054 -20.137  1.00  0.00     0.198 C 
HETATM    6  C24 UNL     1      -2.916  47.592 -18.397  1.00  0.00     0.201 C 
HETATM    7  C25 UNL     1      -3.663  49.309 -20.369  1.00  0.00     0.032 C 
HETATM    8  S1  UNL     1      -4.452  48.014 -19.287  1.00  0.00    -0.137 SA
HETATM    9  C26 UNL     1      -4.117  49.000 -21.801  1.00  0.00     0.029 C 
HETATM   10  C27 UNL     1      -4.192  50.667 -19.904  1.00  0.00     0.029 C 
HETATM   11  O2  UNL     1      -1.591  50.824 -18.071  1.00  0.00    -0.270 OA
BRANCH   5  12
HETATM   12  C4  UNL     1      -1.042  50.005 -20.661  1.00  0.00     0.242 C 
HETATM   13  N1  UNL     1      -1.375  51.306 -20.948  1.00  0.00    -0.356 N 
HETATM   14  H6  UNL     1      -2.336  51.603 -20.984  1.00  0.00     0.162 HD
HETATM   15  O1  UNL     1       0.096  49.583 -20.887  1.00  0.00    -0.271 OA
BRANCH  13  16
HETATM   16  C3  UNL     1      -0.392  52.197 -21.515  1.00  0.00     0.149 C 
BRANCH  16  17
HETATM   17  C2  UNL     1       0.164  53.106 -20.459  1.00  0.00    -0.018 C 
HETATM   18  C1  UNL     1       1.170  53.981 -20.596  1.00  0.00     0.008 C 
ENDBRANCH  16  17
ENDBRANCH  13  16
ENDBRANCH   5  12
ENDBRANCH   2   3
BRANCH   2  19
HETATM   19  O3  UNL     1      -0.856  47.932 -16.243  1.00  0.00    -0.384 OA
HETATM   20  H9  UNL     1      -1.438  47.325 -16.738  1.00  0.00     0.210 HD
ENDBRANCH   2  19
ENDBRANCH   1   2
BRANCH   1  21
HETATM   21  C9  UNL     1       0.709  49.965 -15.124  1.00  0.00     0.066 C 
BRANCH  21  22
HETATM   22  C10 UNL     1       1.689  51.032 -15.562  1.00  0.00    -0.056 A 
HETATM   23  C11 UNL     1       1.403  51.831 -16.680  1.00  0.00     0.007 A 
HETATM   24  C12 UNL     1       2.306  52.807 -17.102  1.00  0.00     0.001 A 
HETATM   25  C13 UNL     1       3.502  52.997 -16.413  1.00  0.00     0.000 A 
HETATM   26  C14 UNL     1       3.793  52.212 -15.297  1.00  0.00     0.001 A 
HETATM   27  C15 UNL     1       2.890  51.237 -14.873  1.00  0.00     0.007 A 
ENDBRANCH  21  22
ENDBRANCH   1  21
BRANCH   1  28
HETATM   28  N3  UNL     1      -1.515  50.562 -14.210  1.00  0.00    -0.349 N 
HETATM   29  C16 UNL     1      -2.766  51.145 -14.225  1.00  0.00     0.252 C 
HETATM   30  O4  UNL     1      -3.354  51.487 -15.243  1.00  0.00    -0.268 OA
HETATM   31  H18 UNL     1      -1.046  50.469 -13.315  1.00  0.00     0.163 HD
BRANCH  29  32
HETATM   32  C17 UNL     1      -3.352  51.417 -12.891  1.00  0.00     0.040 A 
HETATM   33  C18 UNL     1      -3.471  52.766 -12.525  1.00  0.00     0.018 A 
HETATM   34  C19 UNL     1      -3.967  53.107 -11.269  1.00  0.00     0.004 A 
HETATM   35  C20 UNL     1      -4.346  52.106 -10.377  1.00  0.00     0.037 A 
HETATM   36  C21 UNL     1      -4.246  50.765 -10.755  1.00  0.00     0.072 A 
HETATM   37  C22 UNL     1      -3.772  50.392 -12.020  1.00  0.00    -0.013 A 
HETATM   38  C23 UNL     1      -3.726  48.942 -12.419  1.00  0.00     0.052 C 
BRANCH  36  39
HETATM   39  O5  UNL     1      -4.623  49.787  -9.876  1.00  0.00    -0.360 OA
HETATM   40  H22 UNL     1      -5.060  50.199  -9.113  1.00  0.00     0.217 HD
ENDBRANCH  36  39
ENDBRANCH  29  32
ENDBRANCH   1  28
TORSDOF 11
ENDMDL
MODEL 6
REMARK minimizedAffinity -7.56313801
REMARK CNNscore 0.217157513
REMARK CNNaffinity 6.19624376
REMARK  11 active torsions:
REMARK  status: ('A' for Active; 'I' for Inactive)
REMARK    1  A    between atoms: C2_2  and  C3_3 
REMARK    2  A    between atoms: C3_3  and  N1_4 
REMARK       I    between atoms: N1_4  and  C4_5 
REMARK    3  A    between atoms: C4_5  and  C5_7 
REMARK       I    between atoms: N2_8  and  C6_9 
REMARK    4  A    between atoms: C6_9  and  C7_11 
REMARK    5  A    between atoms: C7_11  and  O3_12 
REMARK    6  A    between atoms: C7_11  and  C8_13 
REMARK    7  A    between atoms: C8_13  and  C9_14 
REMARK    8  A    between atoms: C8_13  and  N3_21 
REMARK    9  A    between atoms: C9_14  and  C10_15 
REMARK       I    between atoms: N3_21  and  C16_22 
REMARK   10  A    between atoms: C16_22  and  C17_24 
REMARK   11  A    between atoms: C21_28  and  O5_29 
ROOT
HETATM    1  C8  UNL     1      -0.401  51.562 -18.326  1.00  0.00     0.127 C 
ENDROOT
BRANCH   1   2
HETATM    2  C7  UNL     1      -1.780  51.179 -17.720  1.00  0.00     0.233 C 
BRANCH   2   3
HETATM    3  C6  UNL     1      -2.541  50.121 -18.550  1.00  0.00     0.252 C 
HETATM    4  N2  UNL     1      -2.283  48.770 -18.344  1.00  0.00    -0.326 N 
HETATM    5  C5  UNL     1      -3.000  47.768 -19.159  1.00  0.00     0.198 C 
HETATM    6  C24 UNL     1      -2.084  48.261 -17.002  1.00  0.00     0.201 C 
HETATM    7  C25 UNL     1      -4.245  47.323 -18.359  1.00  0.00     0.032 C 
HETATM    8  S1  UNL     1      -3.616  47.354 -16.606  1.00  0.00    -0.137 SA
HETATM    9  C26 UNL     1      -4.660  45.873 -18.636  1.00  0.00     0.029 C 
HETATM   10  C27 UNL     1      -5.451  48.263 -18.421  1.00  0.00     0.029 C 
HETATM   11  O2  UNL     1      -3.395  50.511 -19.353  1.00  0.00    -0.270 OA
BRANCH   5  12
HETATM   12  C4  UNL     1      -3.041  48.103 -20.679  1.00  0.00     0.242 C 
HETATM   13  N1  UNL     1      -4.213  48.581 -21.211  1.00  0.00    -0.356 N 
HETATM   14  H6  UNL     1      -5.071  48.560 -20.686  1.00  0.00     0.162 HD
HETATM   15  O1  UNL     1      -2.068  47.874 -21.403  1.00  0.00    -0.271 OA
BRANCH  13  16
HETATM   16  C3  UNL     1      -4.317  48.826 -22.629  1.00  0.00     0.149 C 
BRANCH  16  17
HETATM   17  C2  UNL     1      -5.394  47.973 -23.231  1.00  0.00    -0.018 C 
HETATM   18  C1  UNL     1      -6.172  47.087 -22.594  1.00  0.00     0.008 C 
ENDBRANCH  16  17
ENDBRANCH  13  16
ENDBRANCH   5  12
ENDBRANCH   2   3
BRANCH   2  19
HETATM   19  O3  UNL     1      -1.735  50.771 -16.353  1.00  0.00    -0.384 OA
HETATM   20  H9  UNL     1      -2.661  50.648 -16.072  1.00  0.00     0.210 HD
ENDBRANCH   2  19
ENDBRANCH   1   2
BRANCH   1  21
HETATM   21  C9  UNL     1       0.289  52.727 -17.570  1.00  0.00     0.066 C 
BRANCH  21  22
HETATM   22  C10 UNL     1       1.458  52.280 -16.718  1.00  0.00    -0.056 A 
HETATM   23  C11 UNL     1       1.256  51.366 -15.673  1.00  0.00     0.007 A 
HETATM   24  C12 UNL     1       2.323  50.959 -14.871  1.00  0.00     0.001 A 
HETATM   25  C13 UNL     1       3.602  51.460 -15.106  1.00  0.00     0.000 A 
HETATM   26  C14 UNL     1       3.815  52.364 -16.145  1.00  0.00     0.001 A 
HETATM   27  C15 UNL     1       2.749  52.770 -16.949  1.00  0.00     0.007 A 
ENDBRANCH  21  22
ENDBRANCH   1  21
BRANCH   1  28
HETATM   28  N3  UNL     1      -0.540  51.898 -19.753  1.00  0.00    -0.349 N 
HETATM   29  C16 UNL     1      -0.149  51.020 -20.743  1.00  0.00     0.252 C 
HETATM   30  O4  UNL     1       0.324  49.910 -20.533  1.00  0.00    -0.268 OA
HETATM   31  H18 UNL     1      -0.762  52.850 -20.023  1.00  0.00     0.163 HD
BRANCH  29  32
HETATM   32  C17 UNL     1      -0.265  51.538 -22.128  1.00  0.00     0.040 A 
HETATM   33  C18 UNL     1      -1.139  50.847 -22.981  1.00  0.00     0.018 A 
HETATM   34  C19 UNL     1      -1.270  51.238 -24.311  1.00  0.00     0.004 A 
HETATM   35  C20 UNL     1      -0.531  52.316 -24.793  1.00  0.00     0.037 A 
HETATM   36  C21 UNL     1       0.322  53.013 -23.934  1.00  0.00     0.072 A 
HETATM   37  C22 UNL     1       0.457  52.658 -22.585  1.00  0.00    -0.013 A 
HETATM   38  C23 UNL     1       1.342  53.460 -21.671  1.00  0.00     0.052 C 
BRANCH  36  39
HETATM   39  O5  UNL     1       1.042  54.073 -24.413  1.00  0.00    -0.360 OA
HETATM   40  H22 UNL     1       0.736  54.284 -25.310  1.00  0.00     0.217 HD
ENDBRANCH  36  39
ENDBRANCH  29  32
ENDBRANCH   1  28
TORSDOF 11
ENDMDL
MODEL 7
REMARK minimizedAffinity -8.16177273
REMARK CNNscore 0.199768052
REMARK CNNaffinity 6.04845762
REMARK  11 active torsions:
REMARK  status: ('A' for Active; 'I' for Inactive)
REMARK    1  A    between atoms: C2_2  and  C3_3 
REMARK    2  A    between atoms: C3_3  and  N1_4 
REMARK       I    between atoms: N1_4  and  C4_5 
REMARK    3  A    between atoms: C4_5  and  C5_7 
REMARK       I    between atoms: N2_8  and  C6_9 
REMARK    4  A    between atoms: C6_9  and  C7_11 
REMARK    5  A    between atoms: C7_11  and  O3_12 
REMARK    6  A    between atoms: C7_11  and  C8_13 
REMARK    7  A    between atoms: C8_13  and  C9_14 
REMARK    8  A    between atoms: C8_13  and  N3_21 
REMARK    9  A    between atoms: C9_14  and  C10_15 
REMARK       I    between atoms: N3_21  and  C16_22 
REMARK   10  A    between atoms: C16_22  and  C17_24 
REMARK   11  A    between atoms: C21_28  and  O5_29 
ROOT
HETATM    1  C8  UNL     1      -0.068  50.969 -17.663  1.00  0.00     0.127 C 
ENDROOT
BRANCH   1   2
HETATM    2  C7  UNL     1      -1.518  50.658 -17.195  1.00  0.00     0.233 C 
BRANCH   2   3
HETATM    3  C6  UNL     1      -1.670  50.620 -15.659  1.00  0.00     0.252 C 
HETATM    4  N2  UNL     1      -2.644  49.812 -15.083  1.00  0.00    -0.326 N 
HETATM    5  C5  UNL     1      -2.794  49.800 -13.613  1.00  0.00     0.198 C 
HETATM    6  C24 UNL     1      -2.901  48.489 -15.614  1.00  0.00     0.201 C 
HETATM    7  C25 UNL     1      -1.954  48.623 -13.070  1.00  0.00     0.032 C 
HETATM    8  S1  UNL     1      -2.170  47.340 -14.401  1.00  0.00    -0.137 SA
HETATM    9  C26 UNL     1      -2.529  48.007 -11.788  1.00  0.00     0.029 C 
HETATM   10  C27 UNL     1      -0.452  48.881 -12.932  1.00  0.00     0.029 C 
HETATM   11  O2  UNL     1      -0.883  51.286 -14.976  1.00  0.00    -0.270 OA
BRANCH   5  12
HETATM   12  C4  UNL     1      -2.792  51.218 -12.968  1.00  0.00     0.242 C 
HETATM   13  N1  UNL     1      -1.939  51.456 -11.918  1.00  0.00    -0.356 N 
HETATM   14  H6  UNL     1      -1.451  50.704 -11.462  1.00  0.00     0.162 HD
HETATM   15  O1  UNL     1      -3.589  52.084 -13.340  1.00  0.00    -0.271 OA
BRANCH  13  16
HETATM   16  C3  UNL     1      -1.965  52.728 -11.239  1.00  0.00     0.149 C 
BRANCH  16  17
HETATM   17  C2  UNL     1      -3.203  52.853 -10.403  1.00  0.00    -0.018 C 
HETATM   18  C1  UNL     1      -3.997  53.927 -10.291  1.00  0.00     0.008 C 
ENDBRANCH  16  17
ENDBRANCH  13  16
ENDBRANCH   5  12
ENDBRANCH   2   3
BRANCH   2  19
HETATM   19  O3  UNL     1      -2.517  51.511 -17.753  1.00  0.00    -0.384 OA
HETATM   20  H9  UNL     1      -3.377  51.158 -17.455  1.00  0.00     0.210 HD
ENDBRANCH   2  19
ENDBRANCH   1   2
BRANCH   1  21
HETATM   21  C9  UNL     1       0.510  52.258 -17.026  1.00  0.00     0.066 C 
BRANCH  21  22
HETATM   22  C10 UNL     1       1.860  52.052 -16.372  1.00  0.00    -0.056 A 
HETATM   23  C11 UNL     1       1.977  51.216 -15.251  1.00  0.00     0.007 A 
HETATM   24  C12 UNL     1       3.213  51.031 -14.632  1.00  0.00     0.001 A 
HETATM   25  C13 UNL     1       4.344  51.676 -15.125  1.00  0.00     0.000 A 
HETATM   26  C14 UNL     1       4.241  52.504 -16.242  1.00  0.00     0.001 A 
HETATM   27  C15 UNL     1       3.005  52.689 -16.864  1.00  0.00     0.007 A 
ENDBRANCH  21  22
ENDBRANCH   1  21
BRANCH   1  28
HETATM   28  N3  UNL     1      -0.009  51.061 -19.132  1.00  0.00    -0.349 N 
HETATM   29  C16 UNL     1      -0.249  52.250 -19.790  1.00  0.00     0.252 C 
HETATM   30  O4  UNL     1      -0.514  53.307 -19.231  1.00  0.00    -0.268 OA
HETATM   31  H18 UNL     1       0.036  50.213 -19.686  1.00  0.00     0.163 HD
BRANCH  29  32
HETATM   32  C17 UNL     1      -0.245  52.164 -21.271  1.00  0.00     0.040 A 
HETATM   33  C18 UNL     1      -1.087  51.198 -21.842  1.00  0.00     0.018 A 
HETATM   34  C19 UNL     1      -1.108  51.018 -23.223  1.00  0.00     0.004 A 
HETATM   35  C20 UNL     1      -0.291  51.801 -24.036  1.00  0.00     0.037 A 
HETATM   36  C21 UNL     1       0.530  52.775 -23.463  1.00  0.00     0.072 A 
HETATM   37  C22 UNL     1       0.555  52.995 -22.079  1.00  0.00    -0.013 A 
HETATM   38  C23 UNL     1       1.408  54.088 -21.496  1.00  0.00     0.052 C 
BRANCH  36  39
HETATM   39  O5  UNL     1       1.327  53.542 -24.268  1.00  0.00    -0.360 OA
HETATM   40  H22 UNL     1       1.093  53.377 -25.195  1.00  0.00     0.217 HD
ENDBRANCH  36  39
ENDBRANCH  29  32
ENDBRANCH   1  28
TORSDOF 11
ENDMDL
MODEL 8
REMARK minimizedAffinity -9.06930923
REMARK CNNscore 0.183253616
REMARK CNNaffinity 5.90262365
REMARK  11 active torsions:
REMARK  status: ('A' for Active; 'I' for Inactive)
REMARK    1  A    between atoms: C2_2  and  C3_3 
REMARK    2  A    between atoms: C3_3  and  N1_4 
REMARK       I    between atoms: N1_4  and  C4_5 
REMARK    3  A    between atoms: C4_5  and  C5_7 
REMARK       I    between atoms: N2_8  and  C6_9 
REMARK    4  A    between atoms: C6_9  and  C7_11 
REMARK    5  A    between atoms: C7_11  and  O3_12 
REMARK    6  A    between atoms: C7_11  and  C8_13 
REMARK    7  A    between atoms: C8_13  and  C9_14 
REMARK    8  A    between atoms: C8_13  and  N3_21 
REMARK    9  A    between atoms: C9_14  and  C10_15 
REMARK       I    between atoms: N3_21  and  C16_22 
REMARK   10  A    between atoms: C16_22  and  C17_24 
REMARK   11  A    between atoms: C21_28  and  O5_29 
ROOT
HETATM    1  C8  UNL     1      -2.522  51.088 -25.249  1.00  0.00     0.127 C 
ENDROOT
BRANCH   1   2
HETATM    2  C7  UNL     1      -2.755  51.869 -23.925  1.00  0.00     0.233 C 
BRANCH   2   3
HETATM    3  C6  UNL     1      -2.208  51.138 -22.680  1.00  0.00     0.252 C 
HETATM    4  N2  UNL     1      -3.071  50.810 -21.640  1.00  0.00    -0.326 N 
HETATM    5  C5  UNL     1      -2.532  50.130 -20.444  1.00  0.00     0.198 C 
HETATM    6  C24 UNL     1      -4.404  50.320 -21.926  1.00  0.00     0.201 C 
HETATM    7  C25 UNL     1      -2.719  48.611 -20.650  1.00  0.00     0.032 C 
HETATM    8  S1  UNL     1      -4.342  48.534 -21.559  1.00  0.00    -0.137 SA
HETATM    9  C26 UNL     1      -2.928  47.841 -19.340  1.00  0.00     0.029 C 
HETATM   10  C27 UNL     1      -1.676  47.922 -21.533  1.00  0.00     0.029 C 
HETATM   11  O2  UNL     1      -1.012  50.826 -22.663  1.00  0.00    -0.270 OA
BRANCH   5  12
HETATM   12  C4  UNL     1      -1.216  50.760 -19.900  1.00  0.00     0.242 C 
HETATM   13  N1  UNL     1      -1.188  52.113 -19.666  1.00  0.00    -0.356 N 
HETATM   14  H6  UNL     1      -1.927  52.714 -19.990  1.00  0.00     0.162 HD
HETATM   15  O1  UNL     1      -0.200  50.075 -19.754  1.00  0.00    -0.271 OA
BRANCH  13  16
HETATM   16  C3  UNL     1       0.035  52.749 -19.242  1.00  0.00     0.149 C 
BRANCH  16  17
HETATM   17  C2  UNL     1       0.525  53.700 -20.293  1.00  0.00    -0.018 C 
HETATM   18  C1  UNL     1       1.225  53.394 -21.394  1.00  0.00     0.008 C 
ENDBRANCH  16  17
ENDBRANCH  13  16
ENDBRANCH   5  12
ENDBRANCH   2   3
BRANCH   2  19
HETATM   19  O3  UNL     1      -2.277  53.214 -23.938  1.00  0.00    -0.384 OA
HETATM   20  H9  UNL     1      -2.562  53.614 -23.095  1.00  0.00     0.210 HD
ENDBRANCH   2  19
ENDBRANCH   1   2
BRANCH   1  21
HETATM   21  C9  UNL     1      -2.063  52.001 -26.417  1.00  0.00     0.066 C 
BRANCH  21  22
HETATM   22  C10 UNL     1      -0.583  51.896 -26.714  1.00  0.00    -0.056 A 
HETATM   23  C11 UNL     1      -0.130  51.921 -28.042  1.00  0.00     0.007 A 
HETATM   24  C12 UNL     1       1.231  51.809 -28.328  1.00  0.00     0.001 A 
HETATM   25  C13 UNL     1       2.153  51.672 -27.293  1.00  0.00     0.000 A 
HETATM   26  C14 UNL     1       1.715  51.652 -25.970  1.00  0.00     0.001 A 
HETATM   27  C15 UNL     1       0.354  51.766 -25.681  1.00  0.00     0.007 A 
ENDBRANCH  21  22
ENDBRANCH   1  21
BRANCH   1  28
HETATM   28  N3  UNL     1      -3.736  50.349 -25.633  1.00  0.00    -0.349 N 
HETATM   29  C16 UNL     1      -3.861  48.995 -25.402  1.00  0.00     0.252 C 
HETATM   30  O4  UNL     1      -3.004  48.306 -24.862  1.00  0.00    -0.268 OA
HETATM   31  H18 UNL     1      -4.425  50.794 -26.231  1.00  0.00     0.163 HD
BRANCH  29  32
HETATM   32  C17 UNL     1      -5.101  48.375 -25.928  1.00  0.00     0.040 A 
HETATM   33  C18 UNL     1      -6.116  48.122 -24.993  1.00  0.00     0.018 A 
HETATM   34  C19 UNL     1      -7.295  47.497 -25.395  1.00  0.00     0.004 A 
HETATM   35  C20 UNL     1      -7.463  47.126 -26.727  1.00  0.00     0.037 A 
HETATM   36  C21 UNL     1      -6.458  47.400 -27.657  1.00  0.00     0.072 A 
HETATM   37  C22 UNL     1      -5.272  48.048 -27.287  1.00  0.00    -0.013 A 
HETATM   38  C23 UNL     1      -4.229  48.379 -28.320  1.00  0.00     0.052 C 
BRANCH  36  39
HETATM   39  O5  UNL     1      -6.632  47.036 -28.964  1.00  0.00    -0.360 OA
HETATM   40  H22 UNL     1      -7.547  46.738 -29.091  1.00  0.00     0.217 HD
ENDBRANCH  36  39
ENDBRANCH  29  32
ENDBRANCH   1  28
TORSDOF 11
ENDMDL
MODEL 9
REMARK minimizedAffinity -7.81488276
REMARK CNNscore 0.177636385
REMARK CNNaffinity 6.15670252
REMARK  11 active torsions:
REMARK  status: ('A' for Active; 'I' for Inactive)
REMARK    1  A    between atoms: C2_2  and  C3_3 
REMARK    2  A    between atoms: C3_3  and  N1_4 
REMARK       I    between atoms: N1_4  and  C4_5 
REMARK    3  A    between atoms: C4_5  and  C5_7 
REMARK       I    between atoms: N2_8  and  C6_9 
REMARK    4  A    between atoms: C6_9  and  C7_11 
REMARK    5  A    between atoms: C7_11  and  O3_12 
REMARK    6  A    between atoms: C7_11  and  C8_13 
REMARK    7  A    between atoms: C8_13  and  C9_14 
REMARK    8  A    between atoms: C8_13  and  N3_21 
REMARK    9  A    between atoms: C9_14  and  C10_15 
REMARK       I    between atoms: N3_21  and  C16_22 
REMARK   10  A    between atoms: C16_22  and  C17_24 
REMARK   11  A    between atoms: C21_28  and  O5_29 
ROOT
HETATM    1  C8  UNL     1      -1.151  51.217 -18.910  1.00  0.00     0.127 C 
ENDROOT
BRANCH   1   2
HETATM    2  C7  UNL     1      -2.671  51.161 -18.586  1.00  0.00     0.233 C 
BRANCH   2   3
HETATM    3  C6  UNL     1      -3.378  49.925 -19.184  1.00  0.00     0.252 C 
HETATM    4  N2  UNL     1      -4.494  50.096 -19.996  1.00  0.00    -0.326 N 
HETATM    5  C5  UNL     1      -5.175  48.905 -20.544  1.00  0.00     0.198 C 
HETATM    6  C24 UNL     1      -4.533  51.174 -20.963  1.00  0.00     0.201 C 
HETATM    7  C25 UNL     1      -4.591  48.642 -21.950  1.00  0.00     0.032 C 
HETATM    8  S1  UNL     1      -4.297  50.369 -22.582  1.00  0.00    -0.137 SA
HETATM    9  C26 UNL     1      -5.596  48.001 -22.916  1.00  0.00     0.029 C 
HETATM   10  C27 UNL     1      -3.246  47.913 -21.990  1.00  0.00     0.029 C 
HETATM   11  O2  UNL     1      -2.900  48.808 -18.953  1.00  0.00    -0.270 OA
BRANCH   5  12
HETATM   12  C4  UNL     1      -5.414  47.778 -19.497  1.00  0.00     0.242 C 
HETATM   13  N1  UNL     1      -4.799  46.566 -19.691  1.00  0.00    -0.356 N 
HETATM   14  H6  UNL     1      -4.344  46.344 -20.561  1.00  0.00     0.162 HD
HETATM   15  O1  UNL     1      -6.197  47.943 -18.557  1.00  0.00    -0.271 OA
BRANCH  13  16
HETATM   16  C3  UNL     1      -5.060  45.469 -18.790  1.00  0.00     0.149 C 
BRANCH  16  17
HETATM   17  C2  UNL     1      -3.827  45.127 -18.008  1.00  0.00    -0.018 C 
HETATM   18  C1  UNL     1      -3.293  45.826 -16.997  1.00  0.00     0.008 C 
ENDBRANCH  16  17
ENDBRANCH  13  16
ENDBRANCH   5  12
ENDBRANCH   2   3
BRANCH   2  19
HETATM   19  O3  UNL     1      -2.986  51.267 -17.198  1.00  0.00    -0.384 OA
HETATM   20  H9  UNL     1      -3.959  51.309 -17.140  1.00  0.00     0.210 HD
ENDBRANCH   2  19
ENDBRANCH   1   2
BRANCH   1  21
HETATM   21  C9  UNL     1      -0.324  51.931 -17.809  1.00  0.00     0.066 C 
BRANCH  21  22
HETATM   22  C10 UNL     1       0.248  50.983 -16.778  1.00  0.00    -0.056 A 
HETATM   23  C11 UNL     1       1.074  51.473 -15.755  1.00  0.00     0.007 A 
HETATM   24  C12 UNL     1       1.619  50.605 -14.808  1.00  0.00     0.001 A 
HETATM   25  C13 UNL     1       1.346  49.240 -14.873  1.00  0.00     0.000 A 
HETATM   26  C14 UNL     1       0.522  48.744 -15.882  1.00  0.00     0.001 A 
HETATM   27  C15 UNL     1      -0.026  49.610 -16.828  1.00  0.00     0.007 A 
ENDBRANCH  21  22
ENDBRANCH   1  21
BRANCH   1  28
HETATM   28  N3  UNL     1      -0.925  51.866 -20.212  1.00  0.00    -0.349 N 
HETATM   29  C16 UNL     1      -0.370  51.180 -21.273  1.00  0.00     0.252 C 
HETATM   30  O4  UNL     1      -0.036  50.002 -21.234  1.00  0.00    -0.268 OA
HETATM   31  H18 UNL     1      -1.012  52.873 -20.292  1.00  0.00     0.163 HD
BRANCH  29  32
HETATM   32  C17 UNL     1      -0.119  51.992 -22.488  1.00  0.00     0.040 A 
HETATM   33  C18 UNL     1      -0.723  51.546 -23.673  1.00  0.00     0.018 A 
HETATM   34  C19 UNL     1      -0.499  52.223 -24.869  1.00  0.00     0.004 A 
HETATM   35  C20 UNL     1       0.326  53.345 -24.886  1.00  0.00     0.037 A 
HETATM   36  C21 UNL     1       0.908  53.798 -23.700  1.00  0.00     0.072 A 
HETATM   37  C22 UNL     1       0.682  53.151 -22.477  1.00  0.00    -0.013 A 
HETATM   38  C23 UNL     1       1.279  53.692 -21.207  1.00  0.00     0.052 C 
BRANCH  36  39
HETATM   39  O5  UNL     1       1.715  54.902 -23.723  1.00  0.00    -0.360 OA
HETATM   40  H22 UNL     1       1.656  55.319 -24.598  1.00  0.00     0.217 HD
ENDBRANCH  36  39
ENDBRANCH  29  32
ENDBRANCH   1  28
TORSDOF 11
ENDMDL
