MODEL 1
REMARK minimizedAffinity -9.48936176
REMARK CNNscore 0.344620585
REMARK CNNaffinity 6.78010511
REMARK  12 active torsions:
REMARK  status: ('A' for Active; 'I' for Inactive)
REMARK    1  A    between atoms: C3_3  and  O1_4 
REMARK    2  A    between atoms: N1_14  and  O2_16 
REMARK    3  A    between atoms: O2_16  and  C13_17 
REMARK    4  A    between atoms: C13_17  and  C14_18 
REMARK       I    between atoms: C14_18  and  N2_20 
REMARK    5  A    between atoms: N2_20  and  C15_21 
REMARK    6  A    between atoms: C15_21  and  C16_22 
REMARK    7  A    between atoms: C15_21  and  C26_36 
REMARK       I    between atoms: C16_22  and  N3_24 
REMARK    8  A    between atoms: N3_24  and  C17_25 
REMARK    9  A    between atoms: C17_25  and  C18_26 
REMARK   10  A    between atoms: C17_25  and  C25_33 
REMARK   11  A    between atoms: C18_26  and  C19_27 
REMARK   12  A    between atoms: C25_33  and  O6_35 
ROOT
HETATM    1  C1  UNL     1       2.967   5.279   7.861  1.00  0.00     0.015 C 
HETATM    2  C2  UNL     1       2.804   6.292   8.491  1.00  0.00    -0.078 C 
HETATM    3  C3  UNL     1       2.634   7.558   9.240  1.00  0.00     0.128 C 
HETATM    4  C4  UNL     1       1.561   8.414   8.572  1.00  0.00     0.052 C 
HETATM    5  C5  UNL     1       0.263   7.830   9.108  1.00  0.00     0.010 C 
HETATM    6  C6  UNL     1       0.529   7.550  10.607  1.00  0.00     0.002 C 
HETATM    7  C7  UNL     1      -0.052   8.693  11.486  1.00  0.00    -0.004 C 
HETATM    8  C8  UNL     1      -1.592   8.797  11.456  1.00  0.00     0.010 C 
HETATM    9  C9  UNL     1      -2.295   7.876  12.434  1.00  0.00     0.035 C 
HETATM   10  C10 UNL     1      -1.806   8.125  13.834  1.00  0.00    -0.069 C 
HETATM   11  C11 UNL     1      -2.668   8.478  14.804  1.00  0.00     0.030 C 
HETATM   12  C12 UNL     1      -2.230   8.648  16.214  1.00  0.00     0.032 C 
HETATM   13  N1  UNL     1      -3.074   9.184  17.049  1.00  0.00    -0.271 N 
ATOM     14  H1  UNL     1      -4.009   9.503  16.792  1.00  0.00     0.194 HD
HETATM   15  C29 UNL     1      -0.842   8.155  16.566  1.00  0.00     0.060 C 
HETATM   16  C30 UNL     1       0.121   8.509  15.439  1.00  0.00     0.020 C 
HETATM   17  C31 UNL     1      -0.305   7.945  14.047  1.00  0.00    -0.016 C 
HETATM   18  C32 UNL     1      -0.024   6.426  14.026  1.00  0.00     0.020 C 
HETATM   19  C33 UNL     1       0.492   8.752  12.942  1.00  0.00     0.002 C 
HETATM   20  C34 UNL     1       2.022   8.551  13.011  1.00  0.00     0.007 C 
HETATM   21  C35 UNL     1       2.694   8.489  11.641  1.00  0.00     0.014 C 
HETATM   22  C36 UNL     1       2.094   7.393  10.714  1.00  0.00     0.003 C 
HETATM   23  C37 UNL     1       2.463   6.008  11.289  1.00  0.00     0.020 C 
ENDROOT
BRANCH   3  24
HETATM   24  O1  UNL     1       3.876   8.249   9.206  1.00  0.00    -0.377 OA
HETATM   25  H2  UNL     1       4.205   8.197   8.290  1.00  0.00     0.211 HD
ENDBRANCH   3  24
BRANCH  13  26
HETATM   26  O2  UNL     1      -2.544   9.271  18.344  1.00  0.00    -0.271 OA
BRANCH  26  27
HETATM   27  C13 UNL     1      -2.517  10.636  18.755  1.00  0.00     0.303 C 
BRANCH  27  28
HETATM   28  C14 UNL     1      -1.179  11.289  18.441  1.00  0.00     0.244 C 
HETATM   29  O3  UNL     1      -0.931  11.781  17.342  1.00  0.00    -0.271 OA
HETATM   30  N2  UNL     1      -0.306  11.347  19.509  1.00  0.00    -0.346 N 
HETATM   31  H16 UNL     1      -0.461  10.630  20.217  1.00  0.00     0.163 HD
BRANCH  30  32
HETATM   32  C15 UNL     1       1.072  11.797  19.319  1.00  0.00     0.180 C 
BRANCH  32  33
HETATM   33  C16 UNL     1       2.006  10.648  19.757  1.00  0.00     0.241 C 
HETATM   34  O4  UNL     1       2.540   9.878  18.955  1.00  0.00    -0.271 OA
HETATM   35  N3  UNL     1       2.201  10.554  21.116  1.00  0.00    -0.345 N 
HETATM   36  H18 UNL     1       1.558  11.036  21.735  1.00  0.00     0.163 HD
BRANCH  35  37
HETATM   37  C17 UNL     1       3.006   9.487  21.715  1.00  0.00     0.186 C 
BRANCH  37  38
HETATM   38  C18 UNL     1       4.313  10.030  22.320  1.00  0.00     0.074 C 
BRANCH  38  39
HETATM   39  C19 UNL     1       4.317  11.522  22.571  1.00  0.00    -0.056 A 
HETATM   40  C20 UNL     1       3.211  12.137  23.181  1.00  0.00     0.007 A 
HETATM   41  C21 UNL     1       3.214  13.511  23.432  1.00  0.00     0.001 A 
HETATM   42  C22 UNL     1       4.321  14.283  23.080  1.00  0.00     0.000 A 
HETATM   43  C23 UNL     1       5.423  13.682  22.472  1.00  0.00     0.001 A 
HETATM   44  C24 UNL     1       5.422  12.308  22.217  1.00  0.00     0.007 A 
ENDBRANCH  38  39
ENDBRANCH  37  38
BRANCH  37  45
HETATM   45  C25 UNL     1       2.230   8.666  22.749  1.00  0.00     0.163 C 
HETATM   46  O5  UNL     1       1.365   7.839  22.505  1.00  0.00    -0.648 OA
BRANCH  45  47
HETATM   47  O6  UNL     1       2.581   8.902  24.031  1.00  0.00    -0.775 OA
HETATM   48  H27 UNL     1       1.985   8.320  24.545  1.00  0.00     0.167 HD
ENDBRANCH  45  47
ENDBRANCH  37  45
ENDBRANCH  35  37
ENDBRANCH  32  33
BRANCH  32  49
HETATM   49  C26 UNL     1       1.325  13.128  20.066  1.00  0.00     0.009 C 
HETATM   50  C27 UNL     1       2.663  13.790  19.723  1.00  0.00     0.012 C 
HETATM   51  C28 UNL     1       0.180  14.123  19.857  1.00  0.00     0.012 C 
ENDBRANCH  32  49
ENDBRANCH  30  32
ENDBRANCH  27  28
ENDBRANCH  26  27
ENDBRANCH  13  26
TORSDOF 12
ENDMDL
MODEL 2
REMARK minimizedAffinity -8.79964542
REMARK CNNscore 0.319517374
REMARK CNNaffinity 6.45145559
REMARK  12 active torsions:
REMARK  status: ('A' for Active; 'I' for Inactive)
REMARK    1  A    between atoms: C3_3  and  O1_4 
REMARK    2  A    between atoms: N1_14  and  O2_16 
REMARK    3  A    between atoms: O2_16  and  C13_17 
REMARK    4  A    between atoms: C13_17  and  C14_18 
REMARK       I    between atoms: C14_18  and  N2_20 
REMARK    5  A    between atoms: N2_20  and  C15_21 
REMARK    6  A    between atoms: C15_21  and  C16_22 
REMARK    7  A    between atoms: C15_21  and  C26_36 
REMARK       I    between atoms: C16_22  and  N3_24 
REMARK    8  A    between atoms: N3_24  and  C17_25 
REMARK    9  A    between atoms: C17_25  and  C18_26 
REMARK   10  A    between atoms: C17_25  and  C25_33 
REMARK   11  A    between atoms: C18_26  and  C19_27 
REMARK   12  A    between atoms: C25_33  and  O6_35 
ROOT
HETATM    1  C1  UNL     1       1.944   7.317   7.201  1.00  0.00     0.015 C 
HETATM    2  C2  UNL     1       2.272   6.903   8.283  1.00  0.00    -0.078 C 
HETATM    3  C3  UNL     1       2.687   6.355   9.595  1.00  0.00     0.128 C 
HETATM    4  C4  UNL     1       4.180   6.586   9.804  1.00  0.00     0.052 C 
HETATM    5  C5  UNL     1       4.248   8.024  10.294  1.00  0.00     0.010 C 
HETATM    6  C6  UNL     1       3.065   8.175  11.281  1.00  0.00     0.002 C 
HETATM    7  C7  UNL     1       3.560   8.039  12.748  1.00  0.00    -0.004 C 
HETATM    8  C8  UNL     1       4.499   9.174  13.210  1.00  0.00     0.010 C 
HETATM    9  C9  UNL     1       3.778  10.409  13.714  1.00  0.00     0.035 C 
HETATM   10  C10 UNL     1       2.843  10.050  14.835  1.00  0.00    -0.069 C 
HETATM   11  C11 UNL     1       2.972  10.629  16.042  1.00  0.00     0.030 C 
HETATM   12  C12 UNL     1       2.013  10.359  17.144  1.00  0.00     0.032 C 
HETATM   13  N1  UNL     1       2.319  10.795  18.333  1.00  0.00    -0.271 N 
ATOM     14  H1  UNL     1       3.179  11.297  18.554  1.00  0.00     0.194 HD
HETATM   15  C29 UNL     1       0.741   9.621  16.782  1.00  0.00     0.060 C 
HETATM   16  C30 UNL     1       1.066   8.511  15.789  1.00  0.00     0.020 C 
HETATM   17  C31 UNL     1       1.775   9.015  14.493  1.00  0.00    -0.016 C 
HETATM   18  C32 UNL     1       0.726   9.722  13.604  1.00  0.00     0.020 C 
HETATM   19  C33 UNL     1       2.448   7.760  13.800  1.00  0.00     0.002 C 
HETATM   20  C34 UNL     1       1.435   6.697  13.323  1.00  0.00     0.007 C 
HETATM   21  C35 UNL     1       1.816   6.038  11.999  1.00  0.00     0.014 C 
HETATM   22  C36 UNL     1       2.036   7.062  10.847  1.00  0.00     0.003 C 
HETATM   23  C37 UNL     1       0.674   7.693  10.485  1.00  0.00     0.020 C 
ENDROOT
BRANCH   3  24
HETATM   24  O1  UNL     1       2.423   4.957   9.580  1.00  0.00    -0.377 OA
HETATM   25  H2  UNL     1       2.738   4.618   8.723  1.00  0.00     0.211 HD
ENDBRANCH   3  24
BRANCH  13  26
HETATM   26  O2  UNL     1       1.325  10.489  19.274  1.00  0.00    -0.271 OA
BRANCH  26  27
HETATM   27  C13 UNL     1       0.909  11.685  19.930  1.00  0.00     0.303 C 
BRANCH  27  28
HETATM   28  C14 UNL     1       1.832  12.038  21.088  1.00  0.00     0.244 C 
HETATM   29  O3  UNL     1       1.900  13.176  21.549  1.00  0.00    -0.271 OA
HETATM   30  N2  UNL     1       2.521  10.966  21.616  1.00  0.00    -0.346 N 
HETATM   31  H16 UNL     1       2.661  10.194  20.966  1.00  0.00     0.163 HD
BRANCH  30  32
HETATM   32  C15 UNL     1       3.562  11.174  22.622  1.00  0.00     0.180 C 
BRANCH  32  33
HETATM   33  C16 UNL     1       4.877  11.494  21.877  1.00  0.00     0.241 C 
HETATM   34  O4  UNL     1       5.063  11.202  20.694  1.00  0.00    -0.271 OA
HETATM   35  N3  UNL     1       5.825  12.137  22.639  1.00  0.00    -0.345 N 
HETATM   36  H18 UNL     1       5.727  12.130  23.649  1.00  0.00     0.163 HD
BRANCH  35  37
HETATM   37  C17 UNL     1       7.154  12.463  22.117  1.00  0.00     0.186 C 
BRANCH  37  38
HETATM   38  C18 UNL     1       7.222  13.907  21.589  1.00  0.00     0.074 C 
BRANCH  38  39
HETATM   39  C19 UNL     1       7.001  14.972  22.641  1.00  0.00    -0.056 A 
HETATM   40  C20 UNL     1       8.088  15.714  23.130  1.00  0.00     0.007 A 
HETATM   41  C21 UNL     1       7.890  16.711  24.089  1.00  0.00     0.001 A 
HETATM   42  C22 UNL     1       6.607  16.977  24.566  1.00  0.00     0.000 A 
HETATM   43  C23 UNL     1       5.521  16.243  24.087  1.00  0.00     0.001 A 
HETATM   44  C24 UNL     1       5.716  15.244  23.130  1.00  0.00     0.007 A 
ENDBRANCH  38  39
ENDBRANCH  37  38
BRANCH  37  45
HETATM   45  C25 UNL     1       8.272  12.204  23.131  1.00  0.00     0.163 C 
HETATM   46  O5  UNL     1       8.963  13.056  23.669  1.00  0.00    -0.648 OA
BRANCH  45  47
HETATM   47  O6  UNL     1       8.462  10.904  23.438  1.00  0.00    -0.775 OA
HETATM   48  H27 UNL     1       9.209  10.921  24.069  1.00  0.00     0.167 HD
ENDBRANCH  45  47
ENDBRANCH  37  45
ENDBRANCH  35  37
ENDBRANCH  32  33
BRANCH  32  49
HETATM   49  C26 UNL     1       3.662   9.959  23.573  1.00  0.00     0.009 C 
HETATM   50  C27 UNL     1       2.647   9.982  24.722  1.00  0.00     0.012 C 
HETATM   51  C28 UNL     1       3.561   8.633  22.813  1.00  0.00     0.012 C 
ENDBRANCH  32  49
ENDBRANCH  30  32
ENDBRANCH  27  28
ENDBRANCH  26  27
ENDBRANCH  13  26
TORSDOF 12
ENDMDL
MODEL 3
REMARK minimizedAffinity -9.672616
REMARK CNNscore 0.315911353
REMARK CNNaffinity 7.2540493
REMARK  12 active torsions:
REMARK  status: ('A' for Active; 'I' for Inactive)
REMARK    1  A    between atoms: C3_3  and  O1_4 
REMARK    2  A    between atoms: N1_14  and  O2_16 
REMARK    3  A    between atoms: O2_16  and  C13_17 
REMARK    4  A    between atoms: C13_17  and  C14_18 
REMARK       I    between atoms: C14_18  and  N2_20 
REMARK    5  A    between atoms: N2_20  and  C15_21 
REMARK    6  A    between atoms: C15_21  and  C16_22 
REMARK    7  A    between atoms: C15_21  and  C26_36 
REMARK       I    between atoms: C16_22  and  N3_24 
REMARK    8  A    between atoms: N3_24  and  C17_25 
REMARK    9  A    between atoms: C17_25  and  C18_26 
REMARK   10  A    between atoms: C17_25  and  C25_33 
REMARK   11  A    between atoms: C18_26  and  C19_27 
REMARK   12  A    between atoms: C25_33  and  O6_35 
ROOT
HETATM    1  C1  UNL     1       3.309   7.714  15.347  1.00  0.00     0.015 C 
HETATM    2  C2  UNL     1       2.414   7.972  14.584  1.00  0.00    -0.078 C 
HETATM    3  C3  UNL     1       1.337   8.324  13.630  1.00  0.00     0.128 C 
HETATM    4  C4  UNL     1       1.593   7.644  12.288  1.00  0.00     0.052 C 
HETATM    5  C5  UNL     1       1.055   6.237  12.499  1.00  0.00     0.010 C 
HETATM    6  C6  UNL     1      -0.261   6.418  13.294  1.00  0.00     0.002 C 
HETATM    7  C7  UNL     1      -1.487   6.348  12.340  1.00  0.00    -0.004 C 
HETATM    8  C8  UNL     1      -1.705   4.966  11.686  1.00  0.00     0.010 C 
HETATM    9  C9  UNL     1      -2.489   3.992  12.542  1.00  0.00     0.035 C 
HETATM   10  C10 UNL     1      -3.822   4.579  12.920  1.00  0.00    -0.069 C 
HETATM   11  C11 UNL     1      -4.962   3.948  12.591  1.00  0.00     0.030 C 
HETATM   12  C12 UNL     1      -6.289   4.458  13.023  1.00  0.00     0.032 C 
HETATM   13  N1  UNL     1      -7.348   3.910  12.498  1.00  0.00    -0.271 N 
ATOM     14  H1  UNL     1      -7.321   3.163  11.803  1.00  0.00     0.194 HD
HETATM   15  C29 UNL     1      -6.296   5.558  14.063  1.00  0.00     0.060 C 
HETATM   16  C30 UNL     1      -5.181   6.550  13.756  1.00  0.00     0.020 C 
HETATM   17  C31 UNL     1      -3.764   5.900  13.682  1.00  0.00    -0.016 C 
HETATM   18  C32 UNL     1      -3.297   5.574  15.119  1.00  0.00     0.020 C 
HETATM   19  C33 UNL     1      -2.814   6.914  12.923  1.00  0.00     0.002 C 
HETATM   20  C34 UNL     1      -2.609   8.250  13.670  1.00  0.00     0.007 C 
HETATM   21  C35 UNL     1      -1.192   8.807  13.553  1.00  0.00     0.014 C 
HETATM   22  C36 UNL     1      -0.099   7.805  14.026  1.00  0.00     0.003 C 
HETATM   23  C37 UNL     1      -0.225   7.629  15.555  1.00  0.00     0.020 C 
ENDROOT
BRANCH   3  24
HETATM   24  O1  UNL     1       1.361   9.735  13.455  1.00  0.00    -0.377 OA
HETATM   25  H2  UNL     1       2.294   9.992  13.343  1.00  0.00     0.211 HD
ENDBRANCH   3  24
BRANCH  13  26
HETATM   26  O2  UNL     1      -8.531   4.470  13.002  1.00  0.00    -0.271 OA
BRANCH  26  27
HETATM   27  C13 UNL     1      -8.905   5.588  12.201  1.00  0.00     0.303 C 
BRANCH  27  28
HETATM   28  C14 UNL     1      -9.796   6.554  12.971  1.00  0.00     0.244 C 
HETATM   29  O3  UNL     1     -10.544   7.349  12.405  1.00  0.00    -0.271 OA
HETATM   30  N2  UNL     1      -9.745   6.408  14.342  1.00  0.00    -0.346 N 
HETATM   31  H16 UNL     1      -8.877   6.002  14.690  1.00  0.00     0.163 HD
BRANCH  30  32
HETATM   32  C15 UNL     1     -10.418   7.368  15.217  1.00  0.00     0.180 C 
BRANCH  32  33
HETATM   33  C16 UNL     1     -11.893   7.460  14.765  1.00  0.00     0.241 C 
HETATM   34  O4  UNL     1     -12.555   8.496  14.854  1.00  0.00    -0.271 OA
HETATM   35  N3  UNL     1     -12.408   6.294  14.248  1.00  0.00    -0.345 N 
HETATM   36  H18 UNL     1     -11.917   5.423  14.424  1.00  0.00     0.163 HD
BRANCH  35  37
HETATM   37  C17 UNL     1     -13.806   6.179  13.827  1.00  0.00     0.186 C 
BRANCH  37  38
HETATM   38  C18 UNL     1     -14.692   5.596  14.943  1.00  0.00     0.074 C 
BRANCH  38  39
HETATM   39  C19 UNL     1     -15.617   4.486  14.495  1.00  0.00    -0.056 A 
HETATM   40  C20 UNL     1     -15.368   3.161  14.884  1.00  0.00     0.007 A 
HETATM   41  C21 UNL     1     -16.228   2.133  14.489  1.00  0.00     0.001 A 
HETATM   42  C22 UNL     1     -17.346   2.420  13.706  1.00  0.00     0.000 A 
HETATM   43  C23 UNL     1     -17.601   3.734  13.313  1.00  0.00     0.001 A 
HETATM   44  C24 UNL     1     -16.741   4.763  13.704  1.00  0.00     0.007 A 
ENDBRANCH  38  39
ENDBRANCH  37  38
BRANCH  37  45
HETATM   45  C25 UNL     1     -14.383   7.501  13.312  1.00  0.00     0.163 C 
HETATM   46  O5  UNL     1     -14.135   8.020  12.235  1.00  0.00    -0.648 OA
BRANCH  45  47
HETATM   47  O6  UNL     1     -15.251   8.100  14.154  1.00  0.00    -0.775 OA
HETATM   48  H27 UNL     1     -15.500   8.922  13.685  1.00  0.00     0.167 HD
ENDBRANCH  45  47
ENDBRANCH  37  45
ENDBRANCH  35  37
ENDBRANCH  32  33
BRANCH  32  49
HETATM   49  C26 UNL     1      -9.678   8.726  15.219  1.00  0.00     0.009 C 
HETATM   50  C27 UNL     1     -10.078   9.651  16.373  1.00  0.00     0.012 C 
HETATM   51  C28 UNL     1      -8.158   8.544  15.196  1.00  0.00     0.012 C 
ENDBRANCH  32  49
ENDBRANCH  30  32
ENDBRANCH  27  28
ENDBRANCH  26  27
ENDBRANCH  13  26
TORSDOF 12
ENDMDL
MODEL 4
REMARK minimizedAffinity -8.09144115
REMARK CNNscore 0.28564176
REMARK CNNaffinity 7.15112829
REMARK  12 active torsions:
REMARK  status: ('A' for Active; 'I' for Inactive)
REMARK    1  A    between atoms: C3_3  and  O1_4 
REMARK    2  A    between atoms: N1_14  and  O2_16 
REMARK    3  A    between atoms: O2_16  and  C13_17 
REMARK    4  A    between atoms: C13_17  and  C14_18 
REMARK       I    between atoms: C14_18  and  N2_20 
REMARK    5  A    between atoms: N2_20  and  C15_21 
REMARK    6  A    between atoms: C15_21  and  C16_22 
REMARK    7  A    between atoms: C15_21  and  C26_36 
REMARK       I    between atoms: C16_22  and  N3_24 
REMARK    8  A    between atoms: N3_24  and  C17_25 
REMARK    9  A    between atoms: C17_25  and  C18_26 
REMARK   10  A    between atoms: C17_25  and  C25_33 
REMARK   11  A    between atoms: C18_26  and  C19_27 
REMARK   12  A    between atoms: C25_33  and  O6_35 
ROOT
HETATM    1  C1  UNL     1       3.218   7.979  15.372  1.00  0.00     0.015 C 
HETATM    2  C2  UNL     1       2.339   8.188  14.576  1.00  0.00    -0.078 C 
HETATM    3  C3  UNL     1       1.283   8.479  13.579  1.00  0.00     0.128 C 
HETATM    4  C4  UNL     1       1.560   7.710  12.291  1.00  0.00     0.052 C 
HETATM    5  C5  UNL     1       1.012   6.322  12.586  1.00  0.00     0.010 C 
HETATM    6  C6  UNL     1      -0.318   6.560  13.341  1.00  0.00     0.002 C 
HETATM    7  C7  UNL     1      -1.526   6.430  12.370  1.00  0.00    -0.004 C 
HETATM    8  C8  UNL     1      -1.737   5.008  11.807  1.00  0.00     0.010 C 
HETATM    9  C9  UNL     1      -2.543   4.096  12.711  1.00  0.00     0.035 C 
HETATM   10  C10 UNL     1      -3.879   4.712  13.022  1.00  0.00    -0.069 C 
HETATM   11  C11 UNL     1      -5.016   4.063  12.714  1.00  0.00     0.030 C 
HETATM   12  C12 UNL     1      -6.349   4.606  13.085  1.00  0.00     0.032 C 
HETATM   13  N1  UNL     1      -7.400   4.027  12.577  1.00  0.00    -0.271 N 
ATOM     14  H1  UNL     1      -7.362   3.235  11.935  1.00  0.00     0.194 HD
HETATM   15  C29 UNL     1      -6.371   5.774  14.048  1.00  0.00     0.060 C 
HETATM   16  C30 UNL     1      -5.245   6.739  13.698  1.00  0.00     0.020 C 
HETATM   17  C31 UNL     1      -3.830   6.081  13.695  1.00  0.00    -0.016 C 
HETATM   18  C32 UNL     1      -3.392   5.851  15.159  1.00  0.00     0.020 C 
HETATM   19  C33 UNL     1      -2.861   7.039  12.888  1.00  0.00     0.002 C 
HETATM   20  C34 UNL     1      -2.664   8.421  13.548  1.00  0.00     0.007 C 
HETATM   21  C35 UNL     1      -1.243   8.964  13.421  1.00  0.00     0.014 C 
HETATM   22  C36 UNL     1      -0.164   7.992  13.982  1.00  0.00     0.003 C 
HETATM   23  C37 UNL     1      -0.320   7.920  15.517  1.00  0.00     0.020 C 
ENDROOT
BRANCH   3  24
HETATM   24  O1  UNL     1       1.315   9.875  13.311  1.00  0.00    -0.377 OA
HETATM   25  H2  UNL     1       2.252  10.121  13.201  1.00  0.00     0.211 HD
ENDBRANCH   3  24
BRANCH  13  26
HETATM   26  O2  UNL     1      -8.590   4.624  13.020  1.00  0.00    -0.271 OA
BRANCH  26  27
HETATM   27  C13 UNL     1      -9.064   5.530  12.026  1.00  0.00     0.303 C 
BRANCH  27  28
HETATM   28  C14 UNL     1      -9.992   6.578  12.623  1.00  0.00     0.244 C 
HETATM   29  O3  UNL     1     -10.464   7.495  11.953  1.00  0.00    -0.271 OA
HETATM   30  N2  UNL     1     -10.314   6.368  13.949  1.00  0.00    -0.346 N 
HETATM   31  H16 UNL     1      -9.623   5.828  14.468  1.00  0.00     0.163 HD
BRANCH  30  32
HETATM   32  C15 UNL     1     -11.062   7.375  14.700  1.00  0.00     0.180 C 
BRANCH  32  33
HETATM   33  C16 UNL     1     -12.558   7.203  14.355  1.00  0.00     0.241 C 
HETATM   34  O4  UNL     1     -12.983   7.224  13.198  1.00  0.00    -0.271 OA
HETATM   35  N3  UNL     1     -13.379   7.019  15.443  1.00  0.00    -0.345 N 
HETATM   36  H18 UNL     1     -13.029   7.256  16.365  1.00  0.00     0.163 HD
BRANCH  35  37
HETATM   37  C17 UNL     1     -14.833   6.901  15.310  1.00  0.00     0.186 C 
BRANCH  37  38
HETATM   38  C18 UNL     1     -15.480   8.241  14.915  1.00  0.00     0.074 C 
BRANCH  38  39
HETATM   39  C19 UNL     1     -16.951   8.351  15.252  1.00  0.00    -0.056 A 
HETATM   40  C20 UNL     1     -17.361   8.467  16.590  1.00  0.00     0.007 A 
HETATM   41  C21 UNL     1     -18.715   8.588  16.908  1.00  0.00     0.001 A 
HETATM   42  C22 UNL     1     -19.673   8.596  15.894  1.00  0.00     0.000 A 
HETATM   43  C23 UNL     1     -19.276   8.480  14.562  1.00  0.00     0.001 A 
HETATM   44  C24 UNL     1     -17.922   8.357  14.241  1.00  0.00     0.007 A 
ENDBRANCH  38  39
ENDBRANCH  37  38
BRANCH  37  45
HETATM   45  C25 UNL     1     -15.254   5.791  14.343  1.00  0.00     0.163 C 
HETATM   46  O5  UNL     1     -15.732   5.952  13.230  1.00  0.00    -0.648 OA
BRANCH  45  47
HETATM   47  O6  UNL     1     -15.044   4.539  14.800  1.00  0.00    -0.775 OA
HETATM   48  H27 UNL     1     -15.381   3.969  14.079  1.00  0.00     0.167 HD
ENDBRANCH  45  47
ENDBRANCH  37  45
ENDBRANCH  35  37
ENDBRANCH  32  33
BRANCH  32  49
HETATM   49  C26 UNL     1     -10.514   8.794  14.418  1.00  0.00     0.009 C 
HETATM   50  C27 UNL     1     -11.532   9.914  14.655  1.00  0.00     0.012 C 
HETATM   51  C28 UNL     1      -9.233   9.075  15.209  1.00  0.00     0.012 C 
ENDBRANCH  32  49
ENDBRANCH  30  32
ENDBRANCH  27  28
ENDBRANCH  26  27
ENDBRANCH  13  26
TORSDOF 12
ENDMDL
MODEL 5
REMARK minimizedAffinity -8.98064232
REMARK CNNscore 0.247488096
REMARK CNNaffinity 7.32006073
REMARK  12 active torsions:
REMARK  status: ('A' for Active; 'I' for Inactive)
REMARK    1  A    between atoms: C3_3  and  O1_4 
REMARK    2  A    between atoms: N1_14  and  O2_16 
REMARK    3  A    between atoms: O2_16  and  C13_17 
REMARK    4  A    between atoms: C13_17  and  C14_18 
REMARK       I    between atoms: C14_18  and  N2_20 
REMARK    5  A    between atoms: N2_20  and  C15_21 
REMARK    6  A    between atoms: C15_21  and  C16_22 
REMARK    7  A    between atoms: C15_21  and  C26_36 
REMARK       I    between atoms: C16_22  and  N3_24 
REMARK    8  A    between atoms: N3_24  and  C17_25 
REMARK    9  A    between atoms: C17_25  and  C18_26 
REMARK   10  A    between atoms: C17_25  and  C25_33 
REMARK   11  A    between atoms: C18_26  and  C19_27 
REMARK   12  A    between atoms: C25_33  and  O6_35 
ROOT
HETATM    1  C1  UNL     1       3.628   7.796  15.165  1.00  0.00     0.015 C 
HETATM    2  C2  UNL     1       2.711   8.069  14.435  1.00  0.00    -0.078 C 
HETATM    3  C3  UNL     1       1.606   8.440  13.521  1.00  0.00     0.128 C 
HETATM    4  C4  UNL     1       1.825   7.798  12.155  1.00  0.00     0.052 C 
HETATM    5  C5  UNL     1       1.300   6.383  12.344  1.00  0.00     0.010 C 
HETATM    6  C6  UNL     1       0.007   6.536  13.181  1.00  0.00     0.002 C 
HETATM    7  C7  UNL     1      -1.245   6.484  12.261  1.00  0.00    -0.004 C 
HETATM    8  C8  UNL     1      -1.475   5.119  11.577  1.00  0.00     0.010 C 
HETATM    9  C9  UNL     1      -2.230   4.118  12.429  1.00  0.00     0.035 C 
HETATM   10  C10 UNL     1      -3.554   4.688  12.860  1.00  0.00    -0.069 C 
HETATM   11  C11 UNL     1      -4.700   4.059  12.547  1.00  0.00     0.030 C 
HETATM   12  C12 UNL     1      -6.017   4.550  13.030  1.00  0.00     0.032 C 
HETATM   13  N1  UNL     1      -7.088   4.010  12.521  1.00  0.00    -0.271 N 
ATOM     14  H1  UNL     1      -7.077   3.282  11.806  1.00  0.00     0.194 HD
HETATM   15  C29 UNL     1      -6.000   5.623  14.099  1.00  0.00     0.060 C 
HETATM   16  C30 UNL     1      -4.898   6.629  13.787  1.00  0.00     0.020 C 
HETATM   17  C31 UNL     1      -3.481   5.989  13.655  1.00  0.00    -0.016 C 
HETATM   18  C32 UNL     1      -2.971   5.628  15.069  1.00  0.00     0.020 C 
HETATM   19  C33 UNL     1      -2.558   7.028  12.896  1.00  0.00     0.002 C 
HETATM   20  C34 UNL     1      -2.338   8.345  13.673  1.00  0.00     0.007 C 
HETATM   21  C35 UNL     1      -0.927   8.912  13.529  1.00  0.00     0.014 C 
HETATM   22  C36 UNL     1       0.183   7.903  13.945  1.00  0.00     0.003 C 
HETATM   23  C37 UNL     1       0.102   7.687  15.472  1.00  0.00     0.020 C 
ENDROOT
BRANCH   3  24
HETATM   24  O1  UNL     1       1.617   9.856  13.384  1.00  0.00    -0.377 OA
HETATM   25  H2  UNL     1       2.545  10.121  13.252  1.00  0.00     0.211 HD
ENDBRANCH   3  24
BRANCH  13  26
HETATM   26  O2  UNL     1      -8.259   4.550  13.073  1.00  0.00    -0.271 OA
BRANCH  26  27
HETATM   27  C13 UNL     1      -8.828   5.483  12.158  1.00  0.00     0.303 C 
BRANCH  27  28
HETATM   28  C14 UNL     1      -9.773   6.449  12.860  1.00  0.00     0.244 C 
HETATM   29  O3  UNL     1     -10.522   7.201  12.239  1.00  0.00    -0.271 OA
HETATM   30  N2  UNL     1      -9.769   6.353  14.237  1.00  0.00    -0.346 N 
HETATM   31  H16 UNL     1      -8.904   5.985  14.630  1.00  0.00     0.163 HD
BRANCH  30  32
HETATM   32  C15 UNL     1     -10.501   7.323  15.051  1.00  0.00     0.180 C 
BRANCH  32  33
HETATM   33  C16 UNL     1     -11.977   7.301  14.594  1.00  0.00     0.241 C 
HETATM   34  O4  UNL     1     -12.608   8.325  14.323  1.00  0.00    -0.271 OA
HETATM   35  N3  UNL     1     -12.531   6.044  14.507  1.00  0.00    -0.345 N 
HETATM   36  H18 UNL     1     -12.064   5.272  14.971  1.00  0.00     0.163 HD
BRANCH  35  37
HETATM   37  C17 UNL     1     -13.936   5.836  14.151  1.00  0.00     0.186 C 
BRANCH  37  38
HETATM   38  C18 UNL     1     -14.851   5.876  15.389  1.00  0.00     0.074 C 
BRANCH  38  39
HETATM   39  C19 UNL     1     -15.028   7.252  15.994  1.00  0.00    -0.056 A 
HETATM   40  C20 UNL     1     -15.392   8.337  15.181  1.00  0.00     0.007 A 
HETATM   41  C21 UNL     1     -15.575   9.606  15.734  1.00  0.00     0.001 A 
HETATM   42  C22 UNL     1     -15.401   9.803  17.104  1.00  0.00     0.000 A 
HETATM   43  C23 UNL     1     -15.038   8.731  17.920  1.00  0.00     0.001 A 
HETATM   44  C24 UNL     1     -14.851   7.461  17.369  1.00  0.00     0.007 A 
ENDBRANCH  38  39
ENDBRANCH  37  38
BRANCH  37  45
HETATM   45  C25 UNL     1     -14.430   6.813  13.081  1.00  0.00     0.163 C 
HETATM   46  O5  UNL     1     -13.746   7.638  12.492  1.00  0.00    -0.648 OA
BRANCH  45  47
HETATM   47  O6  UNL     1     -15.741   6.705  12.783  1.00  0.00    -0.775 OA
HETATM   48  H27 UNL     1     -15.885   7.401  12.111  1.00  0.00     0.167 HD
ENDBRANCH  45  47
ENDBRANCH  37  45
ENDBRANCH  35  37
ENDBRANCH  32  33
BRANCH  32  49
HETATM   49  C26 UNL     1      -9.842   8.720  14.970  1.00  0.00     0.009 C 
HETATM   50  C27 UNL     1     -10.403   9.732  15.974  1.00  0.00     0.012 C 
HETATM   51  C28 UNL     1      -8.319   8.638  15.105  1.00  0.00     0.012 C 
ENDBRANCH  32  49
ENDBRANCH  30  32
ENDBRANCH  27  28
ENDBRANCH  26  27
ENDBRANCH  13  26
TORSDOF 12
ENDMDL
MODEL 6
REMARK minimizedAffinity -8.50496769
REMARK CNNscore 0.22670579
REMARK CNNaffinity 6.83805466
REMARK  12 active torsions:
REMARK  status: ('A' for Active; 'I' for Inactive)
REMARK    1  A    between atoms: C3_3  and  O1_4 
REMARK    2  A    between atoms: N1_14  and  O2_16 
REMARK    3  A    between atoms: O2_16  and  C13_17 
REMARK    4  A    between atoms: C13_17  and  C14_18 
REMARK       I    between atoms: C14_18  and  N2_20 
REMARK    5  A    between atoms: N2_20  and  C15_21 
REMARK    6  A    between atoms: C15_21  and  C16_22 
REMARK    7  A    between atoms: C15_21  and  C26_36 
REMARK       I    between atoms: C16_22  and  N3_24 
REMARK    8  A    between atoms: N3_24  and  C17_25 
REMARK    9  A    between atoms: C17_25  and  C18_26 
REMARK   10  A    between atoms: C17_25  and  C25_33 
REMARK   11  A    between atoms: C18_26  and  C19_27 
REMARK   12  A    between atoms: C25_33  and  O6_35 
ROOT
HETATM    1  C1  UNL     1     -16.027   0.961  29.299  1.00  0.00     0.015 C 
HETATM    2  C2  UNL     1     -15.248   1.779  28.880  1.00  0.00    -0.078 C 
HETATM    3  C3  UNL     1     -14.268   2.782  28.405  1.00  0.00     0.128 C 
HETATM    4  C4  UNL     1     -13.051   2.078  27.811  1.00  0.00     0.052 C 
HETATM    5  C5  UNL     1     -13.501   1.732  26.400  1.00  0.00     0.010 C 
HETATM    6  C6  UNL     1     -14.279   2.975  25.903  1.00  0.00     0.002 C 
HETATM    7  C7  UNL     1     -13.371   3.859  25.002  1.00  0.00    -0.004 C 
HETATM    8  C8  UNL     1     -12.957   3.196  23.671  1.00  0.00     0.010 C 
HETATM    9  C9  UNL     1     -13.976   3.350  22.558  1.00  0.00     0.035 C 
HETATM   10  C10 UNL     1     -14.275   4.804  22.318  1.00  0.00    -0.069 C 
HETATM   11  C11 UNL     1     -14.075   5.349  21.106  1.00  0.00     0.030 C 
HETATM   12  C12 UNL     1     -14.440   6.760  20.814  1.00  0.00     0.032 C 
HETATM   13  N1  UNL     1     -14.031   7.271  19.687  1.00  0.00    -0.271 N 
ATOM     14  H1  UNL     1     -13.469   6.766  19.002  1.00  0.00     0.194 HD
HETATM   15  C29 UNL     1     -15.285   7.478  21.846  1.00  0.00     0.060 C 
HETATM   16  C30 UNL     1     -14.800   7.107  23.242  1.00  0.00     0.020 C 
HETATM   17  C31 UNL     1     -14.808   5.573  23.525  1.00  0.00    -0.016 C 
HETATM   18  C32 UNL     1     -16.271   5.121  23.739  1.00  0.00     0.020 C 
HETATM   19  C33 UNL     1     -13.876   5.314  24.778  1.00  0.00     0.002 C 
HETATM   20  C34 UNL     1     -14.390   5.969  26.079  1.00  0.00     0.007 C 
HETATM   21  C35 UNL     1     -14.157   5.119  27.326  1.00  0.00     0.014 C 
HETATM   22  C36 UNL     1     -14.769   3.692  27.217  1.00  0.00     0.003 C 
HETATM   23  C37 UNL     1     -16.309   3.818  27.225  1.00  0.00     0.020 C 
ENDROOT
BRANCH   3  24
HETATM   24  O1  UNL     1     -13.863   3.555  29.529  1.00  0.00    -0.377 OA
HETATM   25  H2  UNL     1     -13.694   2.930  30.257  1.00  0.00     0.211 HD
ENDBRANCH   3  24
BRANCH  13  26
HETATM   26  O2  UNL     1     -14.457   8.597  19.529  1.00  0.00    -0.271 OA
BRANCH  26  27
HETATM   27  C13 UNL     1     -13.668   9.233  18.526  1.00  0.00     0.303 C 
BRANCH  27  28
HETATM   28  C14 UNL     1     -13.770   8.508  17.191  1.00  0.00     0.244 C 
HETATM   29  O3  UNL     1     -14.715   7.770  16.916  1.00  0.00    -0.271 OA
HETATM   30  N2  UNL     1     -12.760   8.807  16.300  1.00  0.00    -0.346 N 
HETATM   31  H16 UNL     1     -11.893   9.120  16.737  1.00  0.00     0.163 HD
BRANCH  30  32
HETATM   32  C15 UNL     1     -12.634   8.069  15.044  1.00  0.00     0.180 C 
BRANCH  32  33
HETATM   33  C16 UNL     1     -11.128   7.930  14.730  1.00  0.00     0.241 C 
HETATM   34  O4  UNL     1     -10.515   8.736  14.026  1.00  0.00    -0.271 OA
HETATM   35  N3  UNL     1     -10.522   6.836  15.303  1.00  0.00    -0.345 N 
HETATM   36  H18 UNL     1     -11.105   6.083  15.655  1.00  0.00     0.163 HD
BRANCH  35  37
HETATM   37  C17 UNL     1      -9.114   6.511  15.063  1.00  0.00     0.186 C 
BRANCH  37  38
HETATM   38  C18 UNL     1      -8.815   6.341  13.562  1.00  0.00     0.074 C 
BRANCH  38  39
HETATM   39  C19 UNL     1      -7.806   5.261  13.241  1.00  0.00    -0.056 A 
HETATM   40  C20 UNL     1      -8.241   3.965  12.920  1.00  0.00     0.007 A 
HETATM   41  C21 UNL     1      -7.316   2.966  12.604  1.00  0.00     0.001 A 
HETATM   42  C22 UNL     1      -5.951   3.252  12.604  1.00  0.00     0.000 A 
HETATM   43  C23 UNL     1      -5.510   4.537  12.923  1.00  0.00     0.001 A 
HETATM   44  C24 UNL     1      -6.432   5.537  13.242  1.00  0.00     0.007 A 
ENDBRANCH  38  39
ENDBRANCH  37  38
BRANCH  37  45
HETATM   45  C25 UNL     1      -8.154   7.523  15.695  1.00  0.00     0.163 C 
HETATM   46  O5  UNL     1      -7.658   8.488  15.134  1.00  0.00    -0.648 OA
BRANCH  45  47
HETATM   47  O6  UNL     1      -7.873   7.293  16.995  1.00  0.00    -0.775 OA
HETATM   48  H27 UNL     1      -7.244   8.007  17.226  1.00  0.00     0.167 HD
ENDBRANCH  45  47
ENDBRANCH  37  45
ENDBRANCH  35  37
ENDBRANCH  32  33
BRANCH  32  49
HETATM   49  C26 UNL     1     -13.448   8.752  13.920  1.00  0.00     0.009 C 
HETATM   50  C27 UNL     1     -12.626   9.081  12.669  1.00  0.00     0.012 C 
HETATM   51  C28 UNL     1     -14.682   7.932  13.534  1.00  0.00     0.012 C 
ENDBRANCH  32  49
ENDBRANCH  30  32
ENDBRANCH  27  28
ENDBRANCH  26  27
ENDBRANCH  13  26
TORSDOF 12
ENDMDL
MODEL 7
REMARK minimizedAffinity -9.64074326
REMARK CNNscore 0.203102618
REMARK CNNaffinity 6.7139802
REMARK  12 active torsions:
REMARK  status: ('A' for Active; 'I' for Inactive)
REMARK    1  A    between atoms: C3_3  and  O1_4 
REMARK    2  A    between atoms: N1_14  and  O2_16 
REMARK    3  A    between atoms: O2_16  and  C13_17 
REMARK    4  A    between atoms: C13_17  and  C14_18 
REMARK       I    between atoms: C14_18  and  N2_20 
REMARK    5  A    between atoms: N2_20  and  C15_21 
REMARK    6  A    between atoms: C15_21  and  C16_22 
REMARK    7  A    between atoms: C15_21  and  C26_36 
REMARK       I    between atoms: C16_22  and  N3_24 
REMARK    8  A    between atoms: N3_24  and  C17_25 
REMARK    9  A    between atoms: C17_25  and  C18_26 
REMARK   10  A    between atoms: C17_25  and  C25_33 
REMARK   11  A    between atoms: C18_26  and  C19_27 
REMARK   12  A    between atoms: C25_33  and  O6_35 
ROOT
HETATM    1  C1  UNL     1      -8.929   5.892  11.403  1.00  0.00     0.015 C 
HETATM    2  C2  UNL     1      -8.216   5.463  12.273  1.00  0.00    -0.078 C 
HETATM    3  C3  UNL     1      -7.373   4.909  13.358  1.00  0.00     0.128 C 
HETATM    4  C4  UNL     1      -6.699   3.625  12.885  1.00  0.00     0.052 C 
HETATM    5  C5  UNL     1      -5.497   4.128  12.100  1.00  0.00     0.010 C 
HETATM    6  C6  UNL     1      -4.932   5.307  12.929  1.00  0.00     0.002 C 
HETATM    7  C7  UNL     1      -3.718   4.841  13.780  1.00  0.00    -0.004 C 
HETATM    8  C8  UNL     1      -2.484   4.423  12.951  1.00  0.00     0.010 C 
HETATM    9  C9  UNL     1      -1.585   5.577  12.551  1.00  0.00     0.035 C 
HETATM   10  C10 UNL     1      -1.133   6.336  13.768  1.00  0.00    -0.069 C 
HETATM   11  C11 UNL     1       0.177   6.474  14.037  1.00  0.00     0.030 C 
HETATM   12  C12 UNL     1       0.657   7.290  15.183  1.00  0.00     0.032 C 
HETATM   13  N1  UNL     1       1.919   7.209  15.496  1.00  0.00    -0.271 N 
ATOM     14  H1  UNL     1       2.592   6.614  15.011  1.00  0.00     0.194 HD
HETATM   15  C29 UNL     1      -0.363   8.170  15.874  1.00  0.00     0.060 C 
HETATM   16  C30 UNL     1      -1.681   7.415  15.997  1.00  0.00     0.020 C 
HETATM   17  C31 UNL     1      -2.250   6.916  14.633  1.00  0.00    -0.016 C 
HETATM   18  C32 UNL     1      -2.831   8.128  13.869  1.00  0.00     0.020 C 
HETATM   19  C33 UNL     1      -3.321   5.793  14.946  1.00  0.00     0.002 C 
HETATM   20  C34 UNL     1      -4.547   6.307  15.733  1.00  0.00     0.007 C 
HETATM   21  C35 UNL     1      -5.864   5.663  15.305  1.00  0.00     0.014 C 
HETATM   22  C36 UNL     1      -6.155   5.817  13.784  1.00  0.00     0.003 C 
HETATM   23  C37 UNL     1      -6.440   7.306  13.488  1.00  0.00     0.020 C 
ENDROOT
BRANCH   3  24
HETATM   24  O1  UNL     1      -8.225   4.617  14.459  1.00  0.00    -0.377 OA
HETATM   25  H2  UNL     1      -9.012   4.170  14.098  1.00  0.00     0.211 HD
ENDBRANCH   3  24
BRANCH  13  26
HETATM   26  O2  UNL     1       2.243   8.038  16.580  1.00  0.00    -0.271 OA
BRANCH  26  27
HETATM   27  C13 UNL     1       3.015   9.144  16.117  1.00  0.00     0.303 C 
BRANCH  27  28
HETATM   28  C14 UNL     1       2.291  10.464  16.343  1.00  0.00     0.244 C 
HETATM   29  O3  UNL     1       1.868  11.147  15.413  1.00  0.00    -0.271 OA
HETATM   30  N2  UNL     1       2.088  10.784  17.670  1.00  0.00    -0.346 N 
HETATM   31  H16 UNL     1       2.758  10.362  18.312  1.00  0.00     0.163 HD
BRANCH  30  32
HETATM   32  C15 UNL     1       1.553  12.093  18.045  1.00  0.00     0.180 C 
BRANCH  32  33
HETATM   33  C16 UNL     1       2.618  12.806  18.908  1.00  0.00     0.241 C 
HETATM   34  O4  UNL     1       2.583  14.014  19.150  1.00  0.00    -0.271 OA
HETATM   35  N3  UNL     1       3.609  11.982  19.391  1.00  0.00    -0.345 N 
HETATM   36  H18 UNL     1       3.734  11.068  18.967  1.00  0.00     0.163 HD
BRANCH  35  37
HETATM   37  C17 UNL     1       4.735  12.495  20.175  1.00  0.00     0.186 C 
BRANCH  37  38
HETATM   38  C18 UNL     1       4.446  12.449  21.686  1.00  0.00     0.074 C 
BRANCH  38  39
HETATM   39  C19 UNL     1       3.818  11.158  22.166  1.00  0.00    -0.056 A 
HETATM   40  C20 UNL     1       3.466  11.006  23.516  1.00  0.00     0.007 A 
HETATM   41  C21 UNL     1       2.869   9.825  23.964  1.00  0.00     0.001 A 
HETATM   42  C22 UNL     1       2.617   8.787  23.067  1.00  0.00     0.000 A 
HETATM   43  C23 UNL     1       2.965   8.928  21.724  1.00  0.00     0.001 A 
HETATM   44  C24 UNL     1       3.564  10.107  21.274  1.00  0.00     0.007 A 
ENDBRANCH  38  39
ENDBRANCH  37  38
BRANCH  37  45
HETATM   45  C25 UNL     1       6.055  11.789  19.853  1.00  0.00     0.163 C 
HETATM   46  O5  UNL     1       7.126  11.985  20.407  1.00  0.00    -0.648 OA
BRANCH  45  47
HETATM   47  O6  UNL     1       5.973  10.864  18.874  1.00  0.00    -0.775 OA
HETATM   48  H27 UNL     1       6.890  10.534  18.789  1.00  0.00     0.167 HD
ENDBRANCH  45  47
ENDBRANCH  37  45
ENDBRANCH  35  37
ENDBRANCH  32  33
BRANCH  32  49
HETATM   49  C26 UNL     1       0.179  11.948  18.740  1.00  0.00     0.009 C 
HETATM   50  C27 UNL     1      -0.924  11.398  17.830  1.00  0.00     0.012 C 
HETATM   51  C28 UNL     1       0.274  11.107  20.016  1.00  0.00     0.012 C 
ENDBRANCH  32  49
ENDBRANCH  30  32
ENDBRANCH  27  28
ENDBRANCH  26  27
ENDBRANCH  13  26
TORSDOF 12
ENDMDL
MODEL 8
REMARK minimizedAffinity -9.92533398
REMARK CNNscore 0.202457234
REMARK CNNaffinity 6.87319756
REMARK  12 active torsions:
REMARK  status: ('A' for Active; 'I' for Inactive)
REMARK    1  A    between atoms: C3_3  and  O1_4 
REMARK    2  A    between atoms: N1_14  and  O2_16 
REMARK    3  A    between atoms: O2_16  and  C13_17 
REMARK    4  A    between atoms: C13_17  and  C14_18 
REMARK       I    between atoms: C14_18  and  N2_20 
REMARK    5  A    between atoms: N2_20  and  C15_21 
REMARK    6  A    between atoms: C15_21  and  C16_22 
REMARK    7  A    between atoms: C15_21  and  C26_36 
REMARK       I    between atoms: C16_22  and  N3_24 
REMARK    8  A    between atoms: N3_24  and  C17_25 
REMARK    9  A    between atoms: C17_25  and  C18_26 
REMARK   10  A    between atoms: C17_25  and  C25_33 
REMARK   11  A    between atoms: C18_26  and  C19_27 
REMARK   12  A    between atoms: C25_33  and  O6_35 
ROOT
HETATM    1  C1  UNL     1      -8.990   5.853  11.869  1.00  0.00     0.015 C 
HETATM    2  C2  UNL     1      -8.177   5.458  12.665  1.00  0.00    -0.078 C 
HETATM    3  C3  UNL     1      -7.210   4.949  13.665  1.00  0.00     0.128 C 
HETATM    4  C4  UNL     1      -6.698   3.576  13.239  1.00  0.00     0.052 C 
HETATM    5  C5  UNL     1      -5.606   3.905  12.233  1.00  0.00     0.010 C 
HETATM    6  C6  UNL     1      -4.847   5.113  12.835  1.00  0.00     0.002 C 
HETATM    7  C7  UNL     1      -3.545   4.640  13.540  1.00  0.00    -0.004 C 
HETATM    8  C8  UNL     1      -2.485   4.048  12.586  1.00  0.00     0.010 C 
HETATM    9  C9  UNL     1      -1.591   5.084  11.934  1.00  0.00     0.035 C 
HETATM   10  C10 UNL     1      -0.907   5.922  12.979  1.00  0.00    -0.069 C 
HETATM   11  C11 UNL     1       0.435   5.984  13.032  1.00  0.00     0.030 C 
HETATM   12  C12 UNL     1       1.138   6.868  13.998  1.00  0.00     0.032 C 
HETATM   13  N1  UNL     1       2.426   6.721  14.126  1.00  0.00    -0.271 N 
ATOM     14  H1  UNL     1       2.976   6.031  13.613  1.00  0.00     0.194 HD
HETATM   15  C29 UNL     1       0.295   7.888  14.734  1.00  0.00     0.060 C 
HETATM   16  C30 UNL     1      -1.032   7.254  15.134  1.00  0.00     0.020 C 
HETATM   17  C31 UNL     1      -1.837   6.668  13.933  1.00  0.00    -0.016 C 
HETATM   18  C32 UNL     1      -2.455   7.841  13.138  1.00  0.00     0.020 C 
HETATM   19  C33 UNL     1      -2.913   5.668  14.523  1.00  0.00     0.002 C 
HETATM   20  C34 UNL     1      -3.966   6.350  15.424  1.00  0.00     0.007 C 
HETATM   21  C35 UNL     1      -5.371   5.771  15.271  1.00  0.00     0.014 C 
HETATM   22  C36 UNL     1      -5.886   5.798  13.802  1.00  0.00     0.003 C 
HETATM   23  C37 UNL     1      -6.123   7.268  13.392  1.00  0.00     0.020 C 
ENDROOT
BRANCH   3  24
HETATM   24  O1  UNL     1      -7.895   4.833  14.906  1.00  0.00    -0.377 OA
HETATM   25  H2  UNL     1      -8.755   4.415  14.718  1.00  0.00     0.211 HD
ENDBRANCH   3  24
BRANCH  13  26
HETATM   26  O2  UNL     1       2.966   7.624  15.052  1.00  0.00    -0.271 OA
BRANCH  26  27
HETATM   27  C13 UNL     1       3.319   8.834  14.385  1.00  0.00     0.303 C 
BRANCH  27  28
HETATM   28  C14 UNL     1       4.661   8.712  13.677  1.00  0.00     0.244 C 
HETATM   29  O3  UNL     1       5.378   9.686  13.457  1.00  0.00    -0.271 OA
HETATM   30  N2  UNL     1       5.031   7.417  13.375  1.00  0.00    -0.346 N 
HETATM   31  H16 UNL     1       4.251   6.769  13.275  1.00  0.00     0.163 HD
BRANCH  30  32
HETATM   32  C15 UNL     1       6.212   7.155  12.554  1.00  0.00     0.180 C 
BRANCH  32  33
HETATM   33  C16 UNL     1       7.314   8.148  12.985  1.00  0.00     0.241 C 
HETATM   34  O4  UNL     1       7.759   9.020  12.235  1.00  0.00    -0.271 OA
HETATM   35  N3  UNL     1       7.757   7.987  14.278  1.00  0.00    -0.345 N 
HETATM   36  H18 UNL     1       7.548   7.118  14.760  1.00  0.00     0.163 HD
BRANCH  35  37
HETATM   37  C17 UNL     1       8.840   8.798  14.837  1.00  0.00     0.186 C 
BRANCH  37  38
HETATM   38  C18 UNL     1       9.016   8.553  16.347  1.00  0.00     0.074 C 
BRANCH  38  39
HETATM   39  C19 UNL     1       8.913   9.797  17.201  1.00  0.00    -0.056 A 
HETATM   40  C20 UNL     1      10.073  10.499  17.565  1.00  0.00     0.007 A 
HETATM   41  C21 UNL     1       9.986  11.659  18.339  1.00  0.00     0.001 A 
HETATM   42  C22 UNL     1       8.740  12.130  18.753  1.00  0.00     0.000 A 
HETATM   43  C23 UNL     1       7.582  11.438  18.398  1.00  0.00     0.001 A 
HETATM   44  C24 UNL     1       7.666  10.277  17.626  1.00  0.00     0.007 A 
ENDBRANCH  38  39
ENDBRANCH  37  38
BRANCH  37  45
HETATM   45  C25 UNL     1      10.168   8.607  14.099  1.00  0.00     0.163 C 
HETATM   46  O5  UNL     1      11.112   9.383  14.109  1.00  0.00    -0.648 OA
BRANCH  45  47
HETATM   47  O6  UNL     1      10.262   7.456  13.401  1.00  0.00    -0.775 OA
HETATM   48  H27 UNL     1      11.147   7.507  12.986  1.00  0.00     0.167 HD
ENDBRANCH  45  47
ENDBRANCH  37  45
ENDBRANCH  35  37
ENDBRANCH  32  33
BRANCH  32  49
HETATM   49  C26 UNL     1       5.863   7.222  11.048  1.00  0.00     0.009 C 
HETATM   50  C27 UNL     1       4.742   6.267  10.625  1.00  0.00     0.012 C 
HETATM   51  C28 UNL     1       5.530   8.650  10.606  1.00  0.00     0.012 C 
ENDBRANCH  32  49
ENDBRANCH  30  32
ENDBRANCH  27  28
ENDBRANCH  26  27
ENDBRANCH  13  26
TORSDOF 12
ENDMDL
MODEL 9
REMARK minimizedAffinity -10.5640583
REMARK CNNscore 0.20222038
REMARK CNNaffinity 7.26324272
REMARK  12 active torsions:
REMARK  status: ('A' for Active; 'I' for Inactive)
REMARK    1  A    between atoms: C3_3  and  O1_4 
REMARK    2  A    between atoms: N1_14  and  O2_16 
REMARK    3  A    between atoms: O2_16  and  C13_17 
REMARK    4  A    between atoms: C13_17  and  C14_18 
REMARK       I    between atoms: C14_18  and  N2_20 
REMARK    5  A    between atoms: N2_20  and  C15_21 
REMARK    6  A    between atoms: C15_21  and  C16_22 
REMARK    7  A    between atoms: C15_21  and  C26_36 
REMARK       I    between atoms: C16_22  and  N3_24 
REMARK    8  A    between atoms: N3_24  and  C17_25 
REMARK    9  A    between atoms: C17_25  and  C18_26 
REMARK   10  A    between atoms: C17_25  and  C25_33 
REMARK   11  A    between atoms: C18_26  and  C19_27 
REMARK   12  A    between atoms: C25_33  and  O6_35 
ROOT
HETATM    1  C1  UNL     1      -8.908   5.839  11.371  1.00  0.00     0.015 C 
HETATM    2  C2  UNL     1      -8.197   5.435  12.255  1.00  0.00    -0.078 C 
HETATM    3  C3  UNL     1      -7.356   4.914  13.357  1.00  0.00     0.128 C 
HETATM    4  C4  UNL     1      -6.695   3.606  12.930  1.00  0.00     0.052 C 
HETATM    5  C5  UNL     1      -5.491   4.068  12.125  1.00  0.00     0.010 C 
HETATM    6  C6  UNL     1      -4.913   5.273  12.908  1.00  0.00     0.002 C 
HETATM    7  C7  UNL     1      -3.701   4.827  13.774  1.00  0.00    -0.004 C 
HETATM    8  C8  UNL     1      -2.473   4.366  12.957  1.00  0.00     0.010 C 
HETATM    9  C9  UNL     1      -1.564   5.496  12.513  1.00  0.00     0.035 C 
HETATM   10  C10 UNL     1      -1.102   6.296  13.701  1.00  0.00    -0.069 C 
HETATM   11  C11 UNL     1       0.210   6.431  13.961  1.00  0.00     0.030 C 
HETATM   12  C12 UNL     1       0.701   7.283  15.075  1.00  0.00     0.032 C 
HETATM   13  N1  UNL     1       1.963   7.202  15.388  1.00  0.00    -0.271 N 
ATOM     14  H1  UNL     1       2.628   6.583  14.924  1.00  0.00     0.194 HD
HETATM   15  C29 UNL     1      -0.309   8.198  15.736  1.00  0.00     0.060 C 
HETATM   16  C30 UNL     1      -1.634   7.461  15.889  1.00  0.00     0.020 C 
HETATM   17  C31 UNL     1      -2.211   6.917  14.546  1.00  0.00    -0.016 C 
HETATM   18  C32 UNL     1      -2.783   8.106  13.740  1.00  0.00     0.020 C 
HETATM   19  C33 UNL     1      -3.292   5.817  14.902  1.00  0.00     0.002 C 
HETATM   20  C34 UNL     1      -4.511   6.371  15.673  1.00  0.00     0.007 C 
HETATM   21  C35 UNL     1      -5.835   5.724  15.272  1.00  0.00     0.014 C 
HETATM   22  C36 UNL     1      -6.128   5.825  13.746  1.00  0.00     0.003 C 
HETATM   23  C37 UNL     1      -6.400   7.305  13.396  1.00  0.00     0.020 C 
ENDROOT
BRANCH   3  24
HETATM   24  O1  UNL     1      -8.208   4.670  14.470  1.00  0.00    -0.377 OA
HETATM   25  H2  UNL     1      -9.000   4.218  14.128  1.00  0.00     0.211 HD
ENDBRANCH   3  24
BRANCH  13  26
HETATM   26  O2  UNL     1       2.297   8.067  16.440  1.00  0.00    -0.271 OA
BRANCH  26  27
HETATM   27  C13 UNL     1       3.054   9.163  15.931  1.00  0.00     0.303 C 
BRANCH  27  28
HETATM   28  C14 UNL     1       4.400   8.708  15.385  1.00  0.00     0.244 C 
HETATM   29  O3  UNL     1       4.824   7.566  15.554  1.00  0.00    -0.271 OA
HETATM   30  N2  UNL     1       5.059   9.656  14.629  1.00  0.00    -0.346 N 
HETATM   31  H16 UNL     1       4.807  10.619  14.849  1.00  0.00     0.163 HD
BRANCH  30  32
HETATM   32  C15 UNL     1       6.430   9.422  14.176  1.00  0.00     0.180 C 
BRANCH  32  33
HETATM   33  C16 UNL     1       6.357   8.766  12.779  1.00  0.00     0.241 C 
HETATM   34  O4  UNL     1       7.016   9.166  11.817  1.00  0.00    -0.271 OA
HETATM   35  N3  UNL     1       5.499   7.693  12.695  1.00  0.00    -0.345 N 
HETATM   36  H18 UNL     1       4.807   7.563  13.425  1.00  0.00     0.163 HD
BRANCH  35  37
HETATM   37  C17 UNL     1       5.257   6.988  11.434  1.00  0.00     0.186 C 
BRANCH  37  38
HETATM   38  C18 UNL     1       4.910   7.962  10.293  1.00  0.00     0.074 C 
BRANCH  38  39
HETATM   39  C19 UNL     1       3.457   7.944   9.872  1.00  0.00    -0.056 A 
HETATM   40  C20 UNL     1       2.445   7.820  10.837  1.00  0.00     0.007 A 
HETATM   41  C21 UNL     1       1.101   7.820  10.458  1.00  0.00     0.001 A 
HETATM   42  C22 UNL     1       0.754   7.948   9.113  1.00  0.00     0.000 A 
HETATM   43  C23 UNL     1       1.753   8.069   8.146  1.00  0.00     0.001 A 
HETATM   44  C24 UNL     1       3.098   8.067   8.522  1.00  0.00     0.007 A 
ENDBRANCH  38  39
ENDBRANCH  37  38
BRANCH  37  45
HETATM   45  C25 UNL     1       6.416   6.073  11.032  1.00  0.00     0.163 C 
HETATM   46  O5  UNL     1       6.322   5.037  10.390  1.00  0.00    -0.648 OA
BRANCH  45  47
HETATM   47  O6  UNL     1       7.633   6.499  11.430  1.00  0.00    -0.775 OA
HETATM   48  H27 UNL     1       8.239   5.800  11.112  1.00  0.00     0.167 HD
ENDBRANCH  45  47
ENDBRANCH  37  45
ENDBRANCH  35  37
ENDBRANCH  32  33
BRANCH  32  49
HETATM   49  C26 UNL     1       7.221   8.595  15.216  1.00  0.00     0.009 C 
HETATM   50  C27 UNL     1       8.346   7.747  14.612  1.00  0.00     0.012 C 
HETATM   51  C28 UNL     1       7.775   9.475  16.339  1.00  0.00     0.012 C 
ENDBRANCH  32  49
ENDBRANCH  30  32
ENDBRANCH  27  28
ENDBRANCH  26  27
ENDBRANCH  13  26
TORSDOF 12
ENDMDL
