MODEL 1
REMARK minimizedAffinity -9.10856915
REMARK  7 active torsions:
REMARK  status: ('A' for Active; 'I' for Inactive)
REMARK       I    between atoms: C1_2  and  N1_3 
REMARK    1  A    between atoms: C1_2  and  C8_12 
REMARK    2  A    between atoms: N1_3  and  C2_4 
REMARK    3  A    between atoms: C2_4  and  C3_5 
REMARK    4  A    between atoms: C14_19  and  C15_20 
REMARK    5  A    between atoms: C15_20  and  N4_21 
REMARK    6  A    between atoms: C17_23  and  C18_24 
REMARK    7  A    between atoms: C18_24  and  C19_25 
ROOT
HETATM    1  C8  UNL     1      -4.018  51.413 -24.862  1.00  0.00     0.110 C 
HETATM    2  C9  UNL     1      -4.443  49.966 -24.556  1.00  0.00     0.287 C 
HETATM    3  N3  UNL     1      -4.286  49.663 -23.104  1.00  0.00     0.095 N 
HETATM    4  C10 UNL     1      -2.840  49.668 -22.794  1.00  0.00     0.273 C 
HETATM    5  C11 UNL     1      -2.184  51.009 -23.149  1.00  0.00     0.036 C 
HETATM    6  C12 UNL     1      -3.259  51.990 -23.644  1.00  0.00     0.004 C 
HETATM    7  C13 UNL     1      -4.281  52.090 -22.490  1.00  0.00     0.043 C 
HETATM    8  C14 UNL     1      -5.005  50.727 -22.329  1.00  0.00     0.242 C 
ENDROOT
BRANCH   8   9
HETATM    9  C15 UNL     1      -5.222  50.384 -20.843  1.00  0.00     0.181 C 
BRANCH   9  10
HETATM   10  N4  UNL     1      -3.986  50.349 -20.093  1.00  0.00    -0.283 N 
HETATM   11  C16 UNL     1      -3.247  51.397 -19.635  1.00  0.00     0.134 A 
HETATM   12  C17 UNL     1      -2.203  50.797 -18.965  1.00  0.00     0.041 A 
HETATM   13  N5  UNL     1      -2.350  49.436 -19.032  1.00  0.00    -0.287 N 
HETATM   14  N6  UNL     1      -3.453  49.172 -19.719  1.00  0.00    -0.020 NA
ATOM     15  H5  UNL     1      -1.720  48.745 -18.623  1.00  0.00     0.184 HD
BRANCH  12  16
HETATM   16  C18 UNL     1      -1.051  51.412 -18.257  1.00  0.00     0.064 C 
BRANCH  16  17
HETATM   17  C19 UNL     1       0.029  51.960 -19.208  1.00  0.00    -0.009 C 
HETATM   18  C20 UNL     1      -0.173  53.471 -19.413  1.00  0.00     0.005 C 
HETATM   19  C21 UNL     1       0.853  54.057 -20.381  1.00  0.00     0.000 C 
HETATM   20  C22 UNL     1       0.845  53.323 -21.717  1.00  0.00     0.000 C 
HETATM   21  C23 UNL     1       1.048  51.823 -21.531  1.00  0.00     0.000 C 
HETATM   22  C24 UNL     1       0.025  51.231 -20.563  1.00  0.00     0.005 C 
ENDBRANCH  16  17
ENDBRANCH  12  16
ENDBRANCH   9  10
ENDBRANCH   8   9
BRANCH   1  23
HETATM   23  C1  UNL     1      -3.286  51.583 -26.188  1.00  0.00     0.224 C 
HETATM   24  O1  UNL     1      -3.401  50.749 -27.083  1.00  0.00    -0.273 OA
HETATM   25  N1  UNL     1      -2.538  52.725 -26.343  1.00  0.00    -0.356 N 
HETATM   26  H1  UNL     1      -2.321  53.290 -25.535  1.00  0.00     0.162 HD
BRANCH  25  27
HETATM   27  C2  UNL     1      -1.723  52.938 -27.520  1.00  0.00     0.162 C 
BRANCH  27  28
HETATM   28  C3  UNL     1      -0.309  52.506 -27.273  1.00  0.00    -0.025 A 
HETATM   29  C4  UNL     1       0.463  51.906 -28.273  1.00  0.00     0.011 A 
HETATM   30  C5  UNL     1       1.779  51.544 -28.004  1.00  0.00     0.018 A 
HETATM   31  C6  UNL     1       2.287  51.801 -26.742  1.00  0.00     0.087 A 
HETATM   32  N2  UNL     1       1.576  52.388 -25.755  1.00  0.00    -0.375 N 
HETATM   33  C7  UNL     1       0.299  52.729 -26.042  1.00  0.00     0.096 A 
ATOM     34  H2  UNL     1       1.983  52.565 -24.836  1.00  0.00     0.164 HD
ENDBRANCH  27  28
ENDBRANCH  25  27
ENDBRANCH   1  23
TORSDOF 7
ENDMDL
MODEL 2
REMARK minimizedAffinity -9.08803368
REMARK  7 active torsions:
REMARK  status: ('A' for Active; 'I' for Inactive)
REMARK       I    between atoms: C1_2  and  N1_3 
REMARK    1  A    between atoms: C1_2  and  C8_12 
REMARK    2  A    between atoms: N1_3  and  C2_4 
REMARK    3  A    between atoms: C2_4  and  C3_5 
REMARK    4  A    between atoms: C14_19  and  C15_20 
REMARK    5  A    between atoms: C15_20  and  N4_21 
REMARK    6  A    between atoms: C17_23  and  C18_24 
REMARK    7  A    between atoms: C18_24  and  C19_25 
ROOT
HETATM    1  C8  UNL     1      -2.942  49.231 -25.791  1.00  0.00     0.110 C 
HETATM    2  C9  UNL     1      -2.886  49.634 -27.275  1.00  0.00     0.287 C 
HETATM    3  N3  UNL     1      -2.126  50.905 -27.451  1.00  0.00     0.095 N 
HETATM    4  C10 UNL     1      -2.911  51.993 -26.830  1.00  0.00     0.273 C 
HETATM    5  C11 UNL     1      -3.190  51.722 -25.345  1.00  0.00     0.036 C 
HETATM    6  C12 UNL     1      -2.482  50.424 -24.921  1.00  0.00     0.004 C 
HETATM    7  C13 UNL     1      -0.987  50.655 -25.235  1.00  0.00     0.043 C 
HETATM    8  C14 UNL     1      -0.797  50.747 -26.773  1.00  0.00     0.242 C 
ENDROOT
BRANCH   8   9
HETATM    9  C15 UNL     1       0.230  51.834 -27.143  1.00  0.00     0.181 C 
BRANCH   9  10
HETATM   10  N4  UNL     1       0.378  52.836 -26.111  1.00  0.00    -0.283 N 
HETATM   11  C16 UNL     1       0.910  52.693 -24.865  1.00  0.00     0.134 A 
HETATM   12  C17 UNL     1       0.832  53.958 -24.325  1.00  0.00     0.041 A 
HETATM   13  N5  UNL     1       0.277  54.806 -25.248  1.00  0.00    -0.287 N 
HETATM   14  N6  UNL     1       0.009  54.108 -26.343  1.00  0.00    -0.020 NA
ATOM     15  H5  UNL     1       0.100  55.802 -25.114  1.00  0.00     0.184 HD
BRANCH  12  16
HETATM   16  C18 UNL     1       1.242  54.444 -22.983  1.00  0.00     0.064 C 
BRANCH  16  17
HETATM   17  C19 UNL     1       1.074  53.389 -21.874  1.00  0.00    -0.009 C 
HETATM   18  C20 UNL     1      -0.296  52.701 -22.008  1.00  0.00     0.005 C 
HETATM   19  C21 UNL     1      -0.526  51.670 -20.906  1.00  0.00     0.000 C 
HETATM   20  C22 UNL     1      -0.364  52.285 -19.521  1.00  0.00     0.000 C 
HETATM   21  C23 UNL     1       0.991  52.969 -19.369  1.00  0.00     0.000 C 
HETATM   22  C24 UNL     1       1.228  54.002 -20.470  1.00  0.00     0.005 C 
ENDBRANCH  16  17
ENDBRANCH  12  16
ENDBRANCH   9  10
ENDBRANCH   8   9
BRANCH   1  23
HETATM   23  C1  UNL     1      -4.269  48.621 -25.357  1.00  0.00     0.224 C 
HETATM   24  O1  UNL     1      -4.481  48.350 -24.177  1.00  0.00    -0.273 OA
HETATM   25  N1  UNL     1      -5.216  48.434 -26.334  1.00  0.00    -0.356 N 
HETATM   26  H1  UNL     1      -4.947  48.495 -27.304  1.00  0.00     0.162 HD
BRANCH  25  27
HETATM   27  C2  UNL     1      -6.471  47.769 -26.050  1.00  0.00     0.162 C 
BRANCH  27  28
HETATM   28  C3  UNL     1      -7.048  47.168 -27.295  1.00  0.00    -0.025 A 
HETATM   29  C4  UNL     1      -7.936  46.088 -27.248  1.00  0.00     0.011 A 
HETATM   30  C5  UNL     1      -8.465  45.579 -28.430  1.00  0.00     0.018 A 
HETATM   31  C6  UNL     1      -8.095  46.172 -29.625  1.00  0.00     0.087 A 
HETATM   32  N2  UNL     1      -7.250  47.222 -29.709  1.00  0.00    -0.375 N 
HETATM   33  C7  UNL     1      -6.749  47.698 -28.546  1.00  0.00     0.096 A 
ATOM     34  H2  UNL     1      -7.002  47.638 -30.608  1.00  0.00     0.164 HD
ENDBRANCH  27  28
ENDBRANCH  25  27
ENDBRANCH   1  23
TORSDOF 7
ENDMDL
MODEL 3
REMARK minimizedAffinity -9.07040787
REMARK  7 active torsions:
REMARK  status: ('A' for Active; 'I' for Inactive)
REMARK       I    between atoms: C1_2  and  N1_3 
REMARK    1  A    between atoms: C1_2  and  C8_12 
REMARK    2  A    between atoms: N1_3  and  C2_4 
REMARK    3  A    between atoms: C2_4  and  C3_5 
REMARK    4  A    between atoms: C14_19  and  C15_20 
REMARK    5  A    between atoms: C15_20  and  N4_21 
REMARK    6  A    between atoms: C17_23  and  C18_24 
REMARK    7  A    between atoms: C18_24  and  C19_25 
ROOT
HETATM    1  C8  UNL     1      -2.795  49.305 -25.945  1.00  0.00     0.110 C 
HETATM    2  C9  UNL     1      -2.779  49.828 -27.392  1.00  0.00     0.287 C 
HETATM    3  N3  UNL     1      -2.042  51.121 -27.481  1.00  0.00     0.095 N 
HETATM    4  C10 UNL     1      -2.828  52.142 -26.757  1.00  0.00     0.273 C 
HETATM    5  C11 UNL     1      -3.068  51.747 -25.293  1.00  0.00     0.036 C 
HETATM    6  C12 UNL     1      -2.333  50.431 -24.991  1.00  0.00     0.004 C 
HETATM    7  C13 UNL     1      -0.849  50.711 -25.318  1.00  0.00     0.043 C 
HETATM    8  C14 UNL     1      -0.696  50.930 -26.847  1.00  0.00     0.242 C 
ENDROOT
BRANCH   8   9
HETATM    9  C15 UNL     1       0.307  52.060 -27.149  1.00  0.00     0.181 C 
BRANCH   9  10
HETATM   10  N4  UNL     1       0.438  52.997 -26.056  1.00  0.00    -0.283 N 
HETATM   11  C16 UNL     1       1.008  52.796 -24.836  1.00  0.00     0.134 A 
HETATM   12  C17 UNL     1       0.889  54.018 -24.211  1.00  0.00     0.041 A 
HETATM   13  N5  UNL     1       0.273  54.899 -25.060  1.00  0.00    -0.287 N 
HETATM   14  N6  UNL     1       0.007  54.264 -26.194  1.00  0.00    -0.020 NA
ATOM     15  H5  UNL     1       0.055  55.875 -24.856  1.00  0.00     0.184 HD
BRANCH  12  16
HETATM   16  C18 UNL     1       1.312  54.433 -22.848  1.00  0.00     0.064 C 
BRANCH  16  17
HETATM   17  C19 UNL     1       1.064  53.355 -21.777  1.00  0.00    -0.009 C 
HETATM   18  C20 UNL     1      -0.220  52.574 -22.107  1.00  0.00     0.005 C 
HETATM   19  C21 UNL     1      -0.531  51.515 -21.052  1.00  0.00     0.000 C 
HETATM   20  C22 UNL     1      -0.611  52.123 -19.656  1.00  0.00     0.000 C 
HETATM   21  C23 UNL     1       0.656  52.898 -19.311  1.00  0.00     0.000 C 
HETATM   22  C24 UNL     1       0.973  53.959 -20.364  1.00  0.00     0.005 C 
ENDBRANCH  16  17
ENDBRANCH  12  16
ENDBRANCH   9  10
ENDBRANCH   8   9
BRANCH   1  23
HETATM   23  C1  UNL     1      -4.103  48.640 -25.533  1.00  0.00     0.224 C 
HETATM   24  O1  UNL     1      -4.892  48.224 -26.379  1.00  0.00    -0.273 OA
HETATM   25  N1  UNL     1      -4.328  48.492 -24.186  1.00  0.00    -0.356 N 
HETATM   26  H1  UNL     1      -3.755  49.000 -23.529  1.00  0.00     0.162 HD
BRANCH  25  27
HETATM   27  C2  UNL     1      -5.581  47.967 -23.685  1.00  0.00     0.162 C 
BRANCH  27  28
HETATM   28  C3  UNL     1      -6.029  48.727 -22.473  1.00  0.00    -0.025 A 
HETATM   29  C4  UNL     1      -7.083  48.279 -21.672  1.00  0.00     0.011 A 
HETATM   30  C5  UNL     1      -7.448  49.006 -20.542  1.00  0.00     0.018 A 
HETATM   31  C6  UNL     1      -6.740  50.158 -20.246  1.00  0.00     0.087 A 
HETATM   32  N2  UNL     1      -5.710  50.616 -20.989  1.00  0.00    -0.375 N 
HETATM   33  C7  UNL     1      -5.376  49.892 -22.081  1.00  0.00     0.096 A 
ATOM     34  H2  UNL     1      -5.208  51.468 -20.739  1.00  0.00     0.164 HD
ENDBRANCH  27  28
ENDBRANCH  25  27
ENDBRANCH   1  23
TORSDOF 7
ENDMDL
MODEL 4
REMARK minimizedAffinity -9.0333252
REMARK  7 active torsions:
REMARK  status: ('A' for Active; 'I' for Inactive)
REMARK       I    between atoms: C1_2  and  N1_3 
REMARK    1  A    between atoms: C1_2  and  C8_12 
REMARK    2  A    between atoms: N1_3  and  C2_4 
REMARK    3  A    between atoms: C2_4  and  C3_5 
REMARK    4  A    between atoms: C14_19  and  C15_20 
REMARK    5  A    between atoms: C15_20  and  N4_21 
REMARK    6  A    between atoms: C17_23  and  C18_24 
REMARK    7  A    between atoms: C18_24  and  C19_25 
ROOT
HETATM    1  C8  UNL     1      -2.622  49.348 -25.971  1.00  0.00     0.110 C 
HETATM    2  C9  UNL     1      -3.029  50.053 -27.277  1.00  0.00     0.287 C 
HETATM    3  N3  UNL     1      -2.386  51.394 -27.378  1.00  0.00     0.095 N 
HETATM    4  C10 UNL     1      -2.968  52.257 -26.327  1.00  0.00     0.273 C 
HETATM    5  C11 UNL     1      -2.775  51.660 -24.926  1.00  0.00     0.036 C 
HETATM    6  C12 UNL     1      -1.944  50.371 -25.029  1.00  0.00     0.004 C 
HETATM    7  C13 UNL     1      -0.621  50.792 -25.707  1.00  0.00     0.043 C 
HETATM    8  C14 UNL     1      -0.911  51.218 -27.171  1.00  0.00     0.242 C 
ENDROOT
BRANCH   8   9
HETATM    9  C15 UNL     1      -0.068  52.444 -27.572  1.00  0.00     0.181 C 
BRANCH   9  10
HETATM   10  N4  UNL     1       0.185  53.333 -26.461  1.00  0.00    -0.283 N 
HETATM   11  C16 UNL     1       0.741  53.038 -25.253  1.00  0.00     0.134 A 
HETATM   12  C17 UNL     1       0.775  54.251 -24.600  1.00  0.00     0.041 A 
HETATM   13  N5  UNL     1       0.259  55.217 -25.422  1.00  0.00    -0.287 N 
HETATM   14  N6  UNL     1      -0.093  54.645 -26.565  1.00  0.00    -0.020 NA
ATOM     15  H5  UNL     1       0.162  56.207 -25.194  1.00  0.00     0.184 HD
BRANCH  12  16
HETATM   16  C18 UNL     1       1.259  54.581 -23.235  1.00  0.00     0.064 C 
BRANCH  16  17
HETATM   17  C19 UNL     1       1.031  53.449 -22.215  1.00  0.00    -0.009 C 
HETATM   18  C20 UNL     1      -0.365  52.833 -22.421  1.00  0.00     0.005 C 
HETATM   19  C21 UNL     1      -0.655  51.729 -21.407  1.00  0.00     0.000 C 
HETATM   20  C22 UNL     1      -0.489  52.225 -19.975  1.00  0.00     0.000 C 
HETATM   21  C23 UNL     1       0.891  52.836 -19.754  1.00  0.00     0.000 C 
HETATM   22  C24 UNL     1       1.188  53.942 -20.766  1.00  0.00     0.005 C 
ENDBRANCH  16  17
ENDBRANCH  12  16
ENDBRANCH   9  10
ENDBRANCH   8   9
BRANCH   1  23
HETATM   23  C1  UNL     1      -3.740  48.547 -25.317  1.00  0.00     0.224 C 
HETATM   24  O1  UNL     1      -4.545  47.916 -25.998  1.00  0.00    -0.273 OA
HETATM   25  N1  UNL     1      -3.772  48.531 -23.943  1.00  0.00    -0.356 N 
HETATM   26  H1  UNL     1      -3.217  49.196 -23.426  1.00  0.00     0.162 HD
BRANCH  25  27
HETATM   27  C2  UNL     1      -4.849  47.886 -23.222  1.00  0.00     0.162 C 
BRANCH  27  28
HETATM   28  C3  UNL     1      -6.178  48.257 -23.807  1.00  0.00    -0.025 A 
HETATM   29  C4  UNL     1      -6.998  47.311 -24.429  1.00  0.00     0.011 A 
HETATM   30  C5  UNL     1      -8.235  47.697 -24.937  1.00  0.00     0.018 A 
HETATM   31  C6  UNL     1      -8.617  49.021 -24.798  1.00  0.00     0.087 A 
HETATM   32  N2  UNL     1      -7.858  49.960 -24.195  1.00  0.00    -0.375 N 
HETATM   33  C7  UNL     1      -6.660  49.558 -23.711  1.00  0.00     0.096 A 
ATOM     34  H2  UNL     1      -8.172  50.927 -24.107  1.00  0.00     0.164 HD
ENDBRANCH  27  28
ENDBRANCH  25  27
ENDBRANCH   1  23
TORSDOF 7
ENDMDL
MODEL 5
REMARK minimizedAffinity -8.58794785
REMARK  7 active torsions:
REMARK  status: ('A' for Active; 'I' for Inactive)
REMARK       I    between atoms: C1_2  and  N1_3 
REMARK    1  A    between atoms: C1_2  and  C8_12 
REMARK    2  A    between atoms: N1_3  and  C2_4 
REMARK    3  A    between atoms: C2_4  and  C3_5 
REMARK    4  A    between atoms: C14_19  and  C15_20 
REMARK    5  A    between atoms: C15_20  and  N4_21 
REMARK    6  A    between atoms: C17_23  and  C18_24 
REMARK    7  A    between atoms: C18_24  and  C19_25 
ROOT
HETATM    1  C8  UNL     1      -3.156  48.949 -21.921  1.00  0.00     0.110 C 
HETATM    2  C9  UNL     1      -4.369  48.090 -22.318  1.00  0.00     0.287 C 
HETATM    3  N3  UNL     1      -4.905  48.510 -23.644  1.00  0.00     0.095 N 
HETATM    4  C10 UNL     1      -5.480  49.865 -23.493  1.00  0.00     0.273 C 
HETATM    5  C11 UNL     1      -4.442  50.871 -22.976  1.00  0.00     0.036 C 
HETATM    6  C12 UNL     1      -3.074  50.179 -22.854  1.00  0.00     0.004 C 
HETATM    7  C13 UNL     1      -2.762  49.645 -24.270  1.00  0.00     0.043 C 
HETATM    8  C14 UNL     1      -3.767  48.517 -24.623  1.00  0.00     0.242 C 
ENDROOT
BRANCH   8   9
HETATM    9  C15 UNL     1      -4.207  48.603 -26.097  1.00  0.00     0.181 C 
BRANCH   9  10
HETATM   10  N4  UNL     1      -3.616  49.727 -26.789  1.00  0.00    -0.283 N 
HETATM   11  C16 UNL     1      -3.059  50.849 -26.255  1.00  0.00     0.134 A 
HETATM   12  C17 UNL     1      -2.628  51.559 -27.354  1.00  0.00     0.041 A 
HETATM   13  N5  UNL     1      -2.924  50.851 -28.490  1.00  0.00    -0.287 N 
HETATM   14  N6  UNL     1      -3.523  49.723 -28.130  1.00  0.00    -0.020 NA
ATOM     15  H5  UNL     1      -2.718  51.141 -29.446  1.00  0.00     0.184 HD
BRANCH  12  16
HETATM   16  C18 UNL     1      -1.951  52.879 -27.426  1.00  0.00     0.064 C 
BRANCH  16  17
HETATM   17  C19 UNL     1      -0.445  52.811 -27.109  1.00  0.00    -0.009 C 
HETATM   18  C20 UNL     1       0.266  51.914 -28.137  1.00  0.00     0.005 C 
HETATM   19  C21 UNL     1       1.758  51.783 -27.843  1.00  0.00     0.000 C 
HETATM   20  C22 UNL     1       2.009  51.285 -26.425  1.00  0.00     0.000 C 
HETATM   21  C23 UNL     1       1.313  52.166 -25.393  1.00  0.00     0.000 C 
HETATM   22  C24 UNL     1      -0.182  52.301 -25.682  1.00  0.00     0.005 C 
ENDBRANCH  16  17
ENDBRANCH  12  16
ENDBRANCH   9  10
ENDBRANCH   8   9
BRANCH   1  23
HETATM   23  C1  UNL     1      -3.089  49.290 -20.437  1.00  0.00     0.224 C 
HETATM   24  O1  UNL     1      -3.390  48.456 -19.585  1.00  0.00    -0.273 OA
HETATM   25  N1  UNL     1      -2.636  50.544 -20.107  1.00  0.00    -0.356 N 
HETATM   26  H1  UNL     1      -2.573  51.253 -20.822  1.00  0.00     0.162 HD
BRANCH  25  27
HETATM   27  C2  UNL     1      -2.629  51.006 -18.734  1.00  0.00     0.162 C 
BRANCH  27  28
HETATM   28  C3  UNL     1      -1.273  51.514 -18.350  1.00  0.00    -0.025 A 
HETATM   29  C4  UNL     1      -0.531  50.927 -17.320  1.00  0.00     0.011 A 
HETATM   30  C5  UNL     1       0.735  51.418 -17.015  1.00  0.00     0.018 A 
HETATM   31  C6  UNL     1       1.224  52.479 -17.758  1.00  0.00     0.087 A 
HETATM   32  N2  UNL     1       0.543  53.064 -18.766  1.00  0.00    -0.375 N 
HETATM   33  C7  UNL     1      -0.685  52.569 -19.042  1.00  0.00     0.096 A 
ATOM     34  H2  UNL     1       0.936  53.843 -19.296  1.00  0.00     0.164 HD
ENDBRANCH  27  28
ENDBRANCH  25  27
ENDBRANCH   1  23
TORSDOF 7
ENDMDL
MODEL 6
REMARK minimizedAffinity -8.5359726
REMARK  7 active torsions:
REMARK  status: ('A' for Active; 'I' for Inactive)
REMARK       I    between atoms: C1_2  and  N1_3 
REMARK    1  A    between atoms: C1_2  and  C8_12 
REMARK    2  A    between atoms: N1_3  and  C2_4 
REMARK    3  A    between atoms: C2_4  and  C3_5 
REMARK    4  A    between atoms: C14_19  and  C15_20 
REMARK    5  A    between atoms: C15_20  and  N4_21 
REMARK    6  A    between atoms: C17_23  and  C18_24 
REMARK    7  A    between atoms: C18_24  and  C19_25 
ROOT
HETATM    1  C8  UNL     1      -2.324  50.691 -20.491  1.00  0.00     0.110 C 
HETATM    2  C9  UNL     1      -3.861  50.656 -20.427  1.00  0.00     0.287 C 
HETATM    3  N3  UNL     1      -4.448  50.598 -21.796  1.00  0.00     0.095 N 
HETATM    4  C10 UNL     1      -4.162  51.884 -22.468  1.00  0.00     0.273 C 
HETATM    5  C11 UNL     1      -2.656  52.176 -22.527  1.00  0.00     0.036 C 
HETATM    6  C12 UNL     1      -1.881  50.983 -21.943  1.00  0.00     0.004 C 
HETATM    7  C13 UNL     1      -2.307  49.765 -22.793  1.00  0.00     0.043 C 
HETATM    8  C14 UNL     1      -3.804  49.457 -22.528  1.00  0.00     0.242 C 
ENDROOT
BRANCH   8   9
HETATM    9  C15 UNL     1      -4.529  49.054 -23.826  1.00  0.00     0.181 C 
BRANCH   9  10
HETATM   10  N4  UNL     1      -3.746  49.331 -25.009  1.00  0.00    -0.283 N 
HETATM   11  C16 UNL     1      -3.501  50.535 -25.597  1.00  0.00     0.134 A 
HETATM   12  C17 UNL     1      -2.680  50.224 -26.659  1.00  0.00     0.041 A 
HETATM   13  N5  UNL     1      -2.454  48.872 -26.670  1.00  0.00    -0.287 N 
HETATM   14  N6  UNL     1      -3.107  48.335 -25.648  1.00  0.00    -0.020 NA
ATOM     15  H5  UNL     1      -1.883  48.367 -27.347  1.00  0.00     0.184 HD
BRANCH  12  16
HETATM   16  C18 UNL     1      -2.082  51.111 -27.688  1.00  0.00     0.064 C 
BRANCH  16  17
HETATM   17  C19 UNL     1      -0.750  51.746 -27.249  1.00  0.00    -0.009 C 
HETATM   18  C20 UNL     1       0.334  51.472 -28.306  1.00  0.00     0.005 C 
HETATM   19  C21 UNL     1       1.687  52.049 -27.898  1.00  0.00     0.000 C 
HETATM   20  C22 UNL     1       2.125  51.539 -26.529  1.00  0.00     0.000 C 
HETATM   21  C23 UNL     1       1.062  51.805 -25.469  1.00  0.00     0.000 C 
HETATM   22  C24 UNL     1      -0.295  51.230 -25.872  1.00  0.00     0.005 C 
ENDBRANCH  16  17
ENDBRANCH  12  16
ENDBRANCH   9  10
ENDBRANCH   8   9
BRANCH   1  23
HETATM   23  C1  UNL     1      -1.674  51.593 -19.449  1.00  0.00     0.224 C 
HETATM   24  O1  UNL     1      -2.358  52.218 -18.642  1.00  0.00    -0.273 OA
HETATM   25  N1  UNL     1      -0.301  51.634 -19.433  1.00  0.00    -0.356 N 
HETATM   26  H1  UNL     1       0.217  51.258 -20.213  1.00  0.00     0.162 HD
BRANCH  25  27
HETATM   27  C2  UNL     1       0.416  52.534 -18.553  1.00  0.00     0.162 C 
BRANCH  27  28
HETATM   28  C3  UNL     1       0.741  51.862 -17.254  1.00  0.00    -0.025 A 
HETATM   29  C4  UNL     1       0.417  50.522 -17.017  1.00  0.00     0.011 A 
HETATM   30  C5  UNL     1       0.761  49.934 -15.803  1.00  0.00     0.018 A 
HETATM   31  C6  UNL     1       1.426  50.705 -14.865  1.00  0.00     0.087 A 
HETATM   32  N2  UNL     1       1.764  51.997 -15.061  1.00  0.00    -0.375 N 
HETATM   33  C7  UNL     1       1.418  52.545 -16.249  1.00  0.00     0.096 A 
ATOM     34  H2  UNL     1       2.258  52.535 -14.348  1.00  0.00     0.164 HD
ENDBRANCH  27  28
ENDBRANCH  25  27
ENDBRANCH   1  23
TORSDOF 7
ENDMDL
MODEL 7
REMARK minimizedAffinity -8.40042782
REMARK  7 active torsions:
REMARK  status: ('A' for Active; 'I' for Inactive)
REMARK       I    between atoms: C1_2  and  N1_3 
REMARK    1  A    between atoms: C1_2  and  C8_12 
REMARK    2  A    between atoms: N1_3  and  C2_4 
REMARK    3  A    between atoms: C2_4  and  C3_5 
REMARK    4  A    between atoms: C14_19  and  C15_20 
REMARK    5  A    between atoms: C15_20  and  N4_21 
REMARK    6  A    between atoms: C17_23  and  C18_24 
REMARK    7  A    between atoms: C18_24  and  C19_25 
ROOT
HETATM    1  C8  UNL     1      -2.045  51.062 -21.531  1.00  0.00     0.110 C 
HETATM    2  C9  UNL     1      -3.010  50.534 -20.455  1.00  0.00     0.287 C 
HETATM    3  N3  UNL     1      -2.257  49.945 -19.311  1.00  0.00     0.095 N 
HETATM    4  C10 UNL     1      -1.580  48.722 -19.794  1.00  0.00     0.273 C 
HETATM    5  C11 UNL     1      -0.644  49.015 -20.974  1.00  0.00     0.036 C 
HETATM    6  C12 UNL     1      -0.622  50.528 -21.247  1.00  0.00     0.004 C 
HETATM    7  C13 UNL     1      -0.162  51.173 -19.920  1.00  0.00     0.043 C 
HETATM    8  C14 UNL     1      -1.258  50.962 -18.842  1.00  0.00     0.242 C 
ENDROOT
BRANCH   8   9
HETATM    9  C15 UNL     1      -0.635  50.644 -17.469  1.00  0.00     0.181 C 
BRANCH   9  10
HETATM   10  N4  UNL     1      -1.586  50.762 -16.387  1.00  0.00    -0.283 N 
HETATM   11  C16 UNL     1      -1.360  50.647 -15.048  1.00  0.00     0.134 A 
HETATM   12  C17 UNL     1      -2.594  50.882 -14.483  1.00  0.00     0.041 A 
HETATM   13  N5  UNL     1      -3.502  51.135 -15.478  1.00  0.00    -0.287 N 
HETATM   14  N6  UNL     1      -2.870  51.067 -16.642  1.00  0.00    -0.020 NA
ATOM     15  H5  UNL     1      -4.493  51.340 -15.346  1.00  0.00     0.184 HD
BRANCH  12  16
HETATM   16  C18 UNL     1      -3.000  50.883 -13.054  1.00  0.00     0.064 C 
BRANCH  16  17
HETATM   17  C19 UNL     1      -2.818  52.250 -12.369  1.00  0.00    -0.009 C 
HETATM   18  C20 UNL     1      -1.473  52.285 -11.621  1.00  0.00     0.005 C 
HETATM   19  C21 UNL     1      -1.262  53.609 -10.890  1.00  0.00     0.000 C 
HETATM   20  C22 UNL     1      -2.416  53.917  -9.943  1.00  0.00     0.000 C 
HETATM   21  C23 UNL     1      -3.757  53.889 -10.670  1.00  0.00     0.000 C 
HETATM   22  C24 UNL     1      -3.974  52.566 -11.404  1.00  0.00     0.005 C 
ENDBRANCH  16  17
ENDBRANCH  12  16
ENDBRANCH   9  10
ENDBRANCH   8   9
BRANCH   1  23
HETATM   23  C1  UNL     1      -2.518  50.836 -22.962  1.00  0.00     0.224 C 
HETATM   24  O1  UNL     1      -3.717  50.825 -23.235  1.00  0.00    -0.273 OA
HETATM   25  N1  UNL     1      -1.547  50.692 -23.923  1.00  0.00    -0.356 N 
HETATM   26  H1  UNL     1      -0.592  50.526 -23.642  1.00  0.00     0.162 HD
BRANCH  25  27
HETATM   27  C2  UNL     1      -1.885  50.372 -25.294  1.00  0.00     0.162 C 
BRANCH  27  28
HETATM   28  C3  UNL     1      -0.884  50.964 -26.241  1.00  0.00    -0.025 A 
HETATM   29  C4  UNL     1       0.476  51.039 -25.922  1.00  0.00     0.011 A 
HETATM   30  C5  UNL     1       1.371  51.574 -26.843  1.00  0.00     0.018 A 
HETATM   31  C6  UNL     1       0.878  52.013 -28.060  1.00  0.00     0.087 A 
HETATM   32  N2  UNL     1      -0.425  51.947 -28.408  1.00  0.00    -0.375 N 
HETATM   33  C7  UNL     1      -1.274  51.423 -27.495  1.00  0.00     0.096 A 
ATOM     34  H2  UNL     1      -0.754  52.276 -29.316  1.00  0.00     0.164 HD
ENDBRANCH  27  28
ENDBRANCH  25  27
ENDBRANCH   1  23
TORSDOF 7
ENDMDL
MODEL 8
REMARK minimizedAffinity -8.37818813
REMARK  7 active torsions:
REMARK  status: ('A' for Active; 'I' for Inactive)
REMARK       I    between atoms: C1_2  and  N1_3 
REMARK    1  A    between atoms: C1_2  and  C8_12 
REMARK    2  A    between atoms: N1_3  and  C2_4 
REMARK    3  A    between atoms: C2_4  and  C3_5 
REMARK    4  A    between atoms: C14_19  and  C15_20 
REMARK    5  A    between atoms: C15_20  and  N4_21 
REMARK    6  A    between atoms: C17_23  and  C18_24 
REMARK    7  A    between atoms: C18_24  and  C19_25 
ROOT
HETATM    1  C8  UNL     1      -3.763  51.402 -24.641  1.00  0.00     0.110 C 
HETATM    2  C9  UNL     1      -4.287  49.976 -24.396  1.00  0.00     0.287 C 
HETATM    3  N3  UNL     1      -4.005  49.541 -22.999  1.00  0.00     0.095 N 
HETATM    4  C10 UNL     1      -2.541  49.397 -22.854  1.00  0.00     0.273 C 
HETATM    5  C11 UNL     1      -1.803  50.703 -23.181  1.00  0.00     0.036 C 
HETATM    6  C12 UNL     1      -2.829  51.809 -23.478  1.00  0.00     0.004 C 
HETATM    7  C13 UNL     1      -3.709  51.899 -22.211  1.00  0.00     0.043 C 
HETATM    8  C14 UNL     1      -4.535  50.594 -22.070  1.00  0.00     0.242 C 
ENDROOT
BRANCH   8   9
HETATM    9  C15 UNL     1      -4.624  50.147 -20.598  1.00  0.00     0.181 C 
BRANCH   9  10
HETATM   10  N4  UNL     1      -3.437  50.478 -19.843  1.00  0.00    -0.283 N 
HETATM   11  C16 UNL     1      -2.288  49.758 -19.718  1.00  0.00     0.134 A 
HETATM   12  C17 UNL     1      -1.487  50.548 -18.923  1.00  0.00     0.041 A 
HETATM   13  N5  UNL     1      -2.162  51.699 -18.610  1.00  0.00    -0.287 N 
HETATM   14  N6  UNL     1      -3.355  51.649 -19.187  1.00  0.00    -0.020 NA
ATOM     15  H5  UNL     1      -1.808  52.462 -18.033  1.00  0.00     0.184 HD
BRANCH  12  16
HETATM   16  C18 UNL     1      -0.112  50.303 -18.419  1.00  0.00     0.064 C 
BRANCH  16  17
HETATM   17  C19 UNL     1       0.018  50.465 -16.893  1.00  0.00    -0.009 C 
HETATM   18  C20 UNL     1       1.164  51.438 -16.565  1.00  0.00     0.005 C 
HETATM   19  C21 UNL     1       1.358  51.603 -15.060  1.00  0.00     0.000 C 
HETATM   20  C22 UNL     1       1.575  50.261 -14.372  1.00  0.00     0.000 C 
HETATM   21  C23 UNL     1       0.445  49.285 -14.684  1.00  0.00     0.000 C 
HETATM   22  C24 UNL     1       0.245  49.115 -16.189  1.00  0.00     0.005 C 
ENDBRANCH  16  17
ENDBRANCH  12  16
ENDBRANCH   9  10
ENDBRANCH   8   9
BRANCH   1  23
HETATM   23  C1  UNL     1      -3.164  51.620 -26.025  1.00  0.00     0.224 C 
HETATM   24  O1  UNL     1      -3.463  50.886 -26.965  1.00  0.00    -0.273 OA
HETATM   25  N1  UNL     1      -2.318  52.693 -26.174  1.00  0.00    -0.356 N 
HETATM   26  H1  UNL     1      -1.956  53.157 -25.355  1.00  0.00     0.162 HD
BRANCH  25  27
HETATM   27  C2  UNL     1      -1.615  52.931 -27.418  1.00  0.00     0.162 C 
BRANCH  27  28
HETATM   28  C3  UNL     1      -0.185  52.495 -27.313  1.00  0.00    -0.025 A 
HETATM   29  C4  UNL     1       0.512  51.985 -28.413  1.00  0.00     0.011 A 
HETATM   30  C5  UNL     1       1.846  51.616 -28.272  1.00  0.00     0.018 A 
HETATM   31  C6  UNL     1       2.446  51.776 -27.035  1.00  0.00     0.087 A 
HETATM   32  N2  UNL     1       1.809  52.274 -25.953  1.00  0.00    -0.375 N 
HETATM   33  C7  UNL     1       0.512  52.624 -26.116  1.00  0.00     0.096 A 
ATOM     34  H2  UNL     1       2.283  52.381 -25.056  1.00  0.00     0.164 HD
ENDBRANCH  27  28
ENDBRANCH  25  27
ENDBRANCH   1  23
TORSDOF 7
ENDMDL
MODEL 9
REMARK minimizedAffinity -8.27637863
REMARK  7 active torsions:
REMARK  status: ('A' for Active; 'I' for Inactive)
REMARK       I    between atoms: C1_2  and  N1_3 
REMARK    1  A    between atoms: C1_2  and  C8_12 
REMARK    2  A    between atoms: N1_3  and  C2_4 
REMARK    3  A    between atoms: C2_4  and  C3_5 
REMARK    4  A    between atoms: C14_19  and  C15_20 
REMARK    5  A    between atoms: C15_20  and  N4_21 
REMARK    6  A    between atoms: C17_23  and  C18_24 
REMARK    7  A    between atoms: C18_24  and  C19_25 
ROOT
HETATM    1  C8  UNL     1      -1.591  50.949 -25.870  1.00  0.00     0.110 C 
HETATM    2  C9  UNL     1      -0.070  50.716 -25.849  1.00  0.00     0.287 C 
HETATM    3  N3  UNL     1       0.652  51.965 -25.474  1.00  0.00     0.095 N 
HETATM    4  C10 UNL     1       0.470  52.941 -26.571  1.00  0.00     0.273 C 
HETATM    5  C11 UNL     1      -1.014  53.225 -26.842  1.00  0.00     0.036 C 
HETATM    6  C12 UNL     1      -1.875  52.468 -25.819  1.00  0.00     0.004 C 
HETATM    7  C13 UNL     1      -1.396  52.965 -24.437  1.00  0.00     0.043 C 
HETATM    8  C14 UNL     1       0.058  52.478 -24.196  1.00  0.00     0.242 C 
ENDROOT
BRANCH   8   9
HETATM    9  C15 UNL     1       0.901  53.565 -23.502  1.00  0.00     0.181 C 
BRANCH   9  10
HETATM   10  N4  UNL     1       0.860  53.466 -22.061  1.00  0.00    -0.283 N 
HETATM   11  C16 UNL     1       0.159  52.585 -21.294  1.00  0.00     0.134 A 
HETATM   12  C17 UNL     1       0.512  52.915 -20.004  1.00  0.00     0.041 A 
HETATM   13  N5  UNL     1       1.403  53.956 -20.035  1.00  0.00    -0.287 N 
HETATM   14  N6  UNL     1       1.616  54.280 -21.303  1.00  0.00    -0.020 NA
ATOM     15  H5  UNL     1       1.829  54.403 -19.223  1.00  0.00     0.184 HD
BRANCH  12  16
HETATM   16  C18 UNL     1       0.067  52.323 -18.717  1.00  0.00     0.064 C 
BRANCH  16  17
HETATM   17  C19 UNL     1      -0.870  51.113 -18.892  1.00  0.00    -0.009 C 
HETATM   18  C20 UNL     1      -0.300  50.160 -19.958  1.00  0.00     0.005 C 
HETATM   19  C21 UNL     1      -1.214  48.961 -20.197  1.00  0.00     0.000 C 
HETATM   20  C22 UNL     1      -2.628  49.397 -20.563  1.00  0.00     0.000 C 
HETATM   21  C23 UNL     1      -3.209  50.341 -19.515  1.00  0.00     0.000 C 
HETATM   22  C24 UNL     1      -2.299  51.544 -19.271  1.00  0.00     0.005 C 
ENDBRANCH  16  17
ENDBRANCH  12  16
ENDBRANCH   9  10
ENDBRANCH   8   9
BRANCH   1  23
HETATM   23  C1  UNL     1      -2.321  50.218 -26.990  1.00  0.00     0.224 C 
HETATM   24  O1  UNL     1      -2.279  50.632 -28.146  1.00  0.00    -0.273 OA
HETATM   25  N1  UNL     1      -2.983  49.062 -26.650  1.00  0.00    -0.356 N 
HETATM   26  H1  UNL     1      -3.148  48.853 -25.677  1.00  0.00     0.162 HD
BRANCH  25  27
HETATM   27  C2  UNL     1      -3.792  48.346 -27.614  1.00  0.00     0.162 C 
BRANCH  27  28
HETATM   28  C3  UNL     1      -5.149  48.048 -27.053  1.00  0.00    -0.025 A 
HETATM   29  C4  UNL     1      -6.190  47.570 -27.856  1.00  0.00     0.011 A 
HETATM   30  C5  UNL     1      -7.426  47.285 -27.285  1.00  0.00     0.018 A 
HETATM   31  C6  UNL     1      -7.582  47.480 -25.923  1.00  0.00     0.087 A 
HETATM   32  N2  UNL     1      -6.599  47.930 -25.114  1.00  0.00    -0.375 N 
HETATM   33  C7  UNL     1      -5.407  48.200 -25.694  1.00  0.00     0.096 A 
ATOM     34  H2  UNL     1      -6.747  48.059 -24.113  1.00  0.00     0.164 HD
ENDBRANCH  27  28
ENDBRANCH  25  27
ENDBRANCH   1  23
TORSDOF 7
ENDMDL
