MODEL 1
REMARK minimizedAffinity -8.29974174
REMARK CNNscore 0.630818963
REMARK CNNaffinity 6.73444796
REMARK  13 active torsions:
REMARK  status: ('A' for Active; 'I' for Inactive)
REMARK    1  A    between atoms: C12_13  and  O2_14 
REMARK    2  A    between atoms: C19_21  and  O3_22 
REMARK    3  A    between atoms: C19_21  and  C20_23 
REMARK    4  A    between atoms: C20_23  and  C21_25 
REMARK    5  A    between atoms: C21_25  and  O5_26 
REMARK    6  A    between atoms: O5_26  and  C22_27 
REMARK    7  A    between atoms: C22_27  and  C23_29 
REMARK    8  A    between atoms: C23_29  and  C24_30 
REMARK    9  A    between atoms: C24_30  and  C25_31 
REMARK       I    between atoms: C25_31  and  N1_33 
REMARK   10  A    between atoms: N1_33  and  C26_34 
REMARK   11  A    between atoms: C26_34  and  C27_35 
REMARK   12  A    between atoms: C30_38  and  C31_39 
REMARK   13  A    between atoms: C31_39  and  O9_41 
ROOT
HETATM    1  C1  UNL     1       3.687  57.724  -8.178  1.00  0.00     0.020 C 
HETATM    2  C2  UNL     1       4.019  56.384  -7.476  1.00  0.00    -0.014 C 
HETATM    3  C3  UNL     1       3.647  56.493  -5.975  1.00  0.00     0.022 C 
HETATM    4  C4  UNL     1       4.469  57.537  -5.223  1.00  0.00     0.084 C 
HETATM    5  C5  UNL     1       5.950  57.400  -5.485  1.00  0.00     0.149 C 
HETATM    6  O1  UNL     1       6.791  57.929  -4.759  1.00  0.00    -0.293 OA
HETATM    7  C6  UNL     1       6.401  56.620  -6.660  1.00  0.00     0.053 C 
HETATM    8  C7  UNL     1       5.532  56.141  -7.569  1.00  0.00    -0.068 C 
HETATM    9  C8  UNL     1       6.036  55.246  -8.680  1.00  0.00     0.035 C 
HETATM   10  C9  UNL     1       5.164  55.260  -9.932  1.00  0.00     0.010 C 
HETATM   11  C10 UNL     1       3.658  55.049  -9.659  1.00  0.00    -0.002 C 
HETATM   12  C11 UNL     1       3.308  55.150  -8.137  1.00  0.00     0.031 C 
HETATM   13  C12 UNL     1       1.786  54.993  -7.880  1.00  0.00     0.124 C 
HETATM   14  C13 UNL     1       1.197  53.736  -8.565  1.00  0.00     0.045 C 
HETATM   15  C14 UNL     1       1.564  53.609 -10.062  1.00  0.00     0.001 C 
HETATM   16  C15 UNL     1       0.813  54.697 -10.881  1.00  0.00     0.019 C 
HETATM   17  C16 UNL     1       3.111  53.711 -10.178  1.00  0.00     0.002 C 
HETATM   18  C17 UNL     1       3.380  53.310 -11.623  1.00  0.00     0.009 C 
HETATM   19  C18 UNL     1       2.334  52.218 -11.921  1.00  0.00     0.047 C 
HETATM   20  C19 UNL     1       1.338  52.205 -10.723  1.00  0.00     0.128 C 
ENDROOT
BRANCH  20  21
HETATM   21  O3  UNL     1       1.808  51.165  -9.857  1.00  0.00    -0.381 OA
HETATM   22  H27 UNL     1       1.215  51.113  -9.086  1.00  0.00     0.211 HD
ENDBRANCH  20  21
BRANCH  20  23
HETATM   23  C20 UNL     1      -0.118  51.958 -11.218  1.00  0.00     0.185 C 
HETATM   24  O4  UNL     1      -1.034  51.667 -10.442  1.00  0.00    -0.292 OA
BRANCH  23  25
HETATM   25  C21 UNL     1      -0.367  51.920 -12.726  1.00  0.00     0.260 C 
BRANCH  25  26
HETATM   26  O5  UNL     1      -0.113  50.679 -13.380  1.00  0.00    -0.314 OA
BRANCH  26  27
HETATM   27  C22 UNL     1      -1.190  50.172 -14.050  1.00  0.00     0.259 C 
HETATM   28  O6  UNL     1      -1.916  49.287 -13.625  1.00  0.00    -0.265 OA
BRANCH  27  29
HETATM   29  C23 UNL     1      -1.358  50.882 -15.371  1.00  0.00     0.120 C 
BRANCH  29  30
HETATM   30  C24 UNL     1      -0.122  50.681 -16.238  1.00  0.00     0.112 C 
BRANCH  30  31
HETATM   31  C25 UNL     1      -0.456  49.925 -17.508  1.00  0.00     0.218 C 
HETATM   32  O7  UNL     1      -0.860  48.768 -17.500  1.00  0.00    -0.274 OA
HETATM   33  N1  UNL     1      -0.214  50.647 -18.651  1.00  0.00    -0.357 N 
HETATM   34  H34 UNL     1       0.026  51.627 -18.576  1.00  0.00     0.162 HD
BRANCH  33  35
HETATM   35  C26 UNL     1      -0.615  50.170 -19.955  1.00  0.00     0.161 C 
BRANCH  35  36
HETATM   36  C27 UNL     1      -0.213  51.163 -21.018  1.00  0.00    -0.040 A 
HETATM   37  C28 UNL     1      -0.654  50.994 -22.339  1.00  0.00     0.010 A 
HETATM   38  C29 UNL     1      -0.300  51.914 -23.330  1.00  0.00     0.019 A 
HETATM   39  C30 UNL     1       0.493  53.021 -23.009  1.00  0.00     0.037 A 
HETATM   40  C32 UNL     1       0.927  53.201 -21.690  1.00  0.00     0.019 A 
HETATM   41  C33 UNL     1       0.575  52.277 -20.701  1.00  0.00     0.010 A 
BRANCH  39  42
HETATM   42  C31 UNL     1       0.852  53.969 -24.092  1.00  0.00     0.176 C 
HETATM   43  O8  UNL     1       0.567  53.854 -25.270  1.00  0.00    -0.646 OA
BRANCH  42  44
HETATM   44  O9  UNL     1       1.558  55.025 -23.649  1.00  0.00    -0.773 OA
HETATM   45  H39 UNL     1       1.718  55.548 -24.462  1.00  0.00     0.167 HD
ENDBRANCH  42  44
ENDBRANCH  39  42
ENDBRANCH  35  36
ENDBRANCH  33  35
ENDBRANCH  30  31
ENDBRANCH  29  30
ENDBRANCH  27  29
ENDBRANCH  26  27
ENDBRANCH  25  26
ENDBRANCH  23  25
ENDBRANCH  20  23
BRANCH  13  46
HETATM   46  O2  UNL     1       1.077  56.151  -8.283  1.00  0.00    -0.395 OA
HETATM   47  H16 UNL     1       0.153  56.059  -7.993  1.00  0.00     0.210 HD
ENDBRANCH  13  46
TORSDOF 13
ENDMDL
MODEL 2
REMARK minimizedAffinity -8.5810833
REMARK CNNscore 0.605451167
REMARK CNNaffinity 6.01320982
REMARK  13 active torsions:
REMARK  status: ('A' for Active; 'I' for Inactive)
REMARK    1  A    between atoms: C12_13  and  O2_14 
REMARK    2  A    between atoms: C19_21  and  O3_22 
REMARK    3  A    between atoms: C19_21  and  C20_23 
REMARK    4  A    between atoms: C20_23  and  C21_25 
REMARK    5  A    between atoms: C21_25  and  O5_26 
REMARK    6  A    between atoms: O5_26  and  C22_27 
REMARK    7  A    between atoms: C22_27  and  C23_29 
REMARK    8  A    between atoms: C23_29  and  C24_30 
REMARK    9  A    between atoms: C24_30  and  C25_31 
REMARK       I    between atoms: C25_31  and  N1_33 
REMARK   10  A    between atoms: N1_33  and  C26_34 
REMARK   11  A    between atoms: C26_34  and  C27_35 
REMARK   12  A    between atoms: C30_38  and  C31_39 
REMARK   13  A    between atoms: C31_39  and  O9_41 
ROOT
HETATM    1  C1  UNL     1      -1.547  50.299 -24.886  1.00  0.00     0.020 C 
HETATM    2  C2  UNL     1      -1.905  51.248 -23.716  1.00  0.00    -0.014 C 
HETATM    3  C3  UNL     1      -2.292  52.636 -24.291  1.00  0.00     0.022 C 
HETATM    4  C4  UNL     1      -1.140  53.332 -25.014  1.00  0.00     0.084 C 
HETATM    5  C5  UNL     1       0.133  53.330 -24.202  1.00  0.00     0.149 C 
HETATM    6  O1  UNL     1       1.070  54.086 -24.460  1.00  0.00    -0.293 OA
HETATM    7  C6  UNL     1       0.263  52.380 -23.075  1.00  0.00     0.053 C 
HETATM    8  C7  UNL     1      -0.663  51.434 -22.833  1.00  0.00    -0.068 C 
HETATM    9  C8  UNL     1      -0.543  50.573 -21.596  1.00  0.00     0.035 C 
HETATM   10  C9  UNL     1      -1.225  49.214 -21.716  1.00  0.00     0.010 C 
HETATM   11  C10 UNL     1      -2.678  49.277 -22.236  1.00  0.00    -0.002 C 
HETATM   12  C11 UNL     1      -3.049  50.689 -22.798  1.00  0.00     0.031 C 
HETATM   13  C12 UNL     1      -4.492  50.726 -23.368  1.00  0.00     0.124 C 
HETATM   14  C13 UNL     1      -5.536  50.165 -22.372  1.00  0.00     0.045 C 
HETATM   15  C14 UNL     1      -5.163  48.784 -21.785  1.00  0.00     0.001 C 
HETATM   16  C15 UNL     1      -5.283  47.695 -22.889  1.00  0.00     0.019 C 
HETATM   17  C16 UNL     1      -3.733  48.897 -21.186  1.00  0.00     0.002 C 
HETATM   18  C17 UNL     1      -3.575  47.595 -20.411  1.00  0.00     0.009 C 
HETATM   19  C18 UNL     1      -4.979  47.314 -19.839  1.00  0.00     0.047 C 
HETATM   20  C19 UNL     1      -5.953  48.328 -20.509  1.00  0.00     0.128 C 
ENDROOT
BRANCH  20  21
HETATM   21  O3  UNL     1      -6.065  49.412 -19.579  1.00  0.00    -0.381 OA
HETATM   22  H27 UNL     1      -6.669  50.078 -19.952  1.00  0.00     0.211 HD
ENDBRANCH  20  21
BRANCH  20  23
HETATM   23  C20 UNL     1      -7.325  47.657 -20.813  1.00  0.00     0.185 C 
HETATM   24  O4  UNL     1      -7.407  46.536 -21.326  1.00  0.00    -0.292 OA
BRANCH  23  25
HETATM   25  C21 UNL     1      -8.592  48.490 -20.614  1.00  0.00     0.260 C 
BRANCH  25  26
HETATM   26  O5  UNL     1      -9.462  48.079 -19.563  1.00  0.00    -0.314 OA
BRANCH  26  27
HETATM   27  C22 UNL     1     -10.616  47.488 -19.994  1.00  0.00     0.259 C 
HETATM   28  O6  UNL     1     -10.696  46.751 -20.965  1.00  0.00    -0.265 OA
BRANCH  27  29
HETATM   29  C23 UNL     1     -11.760  47.861 -19.085  1.00  0.00     0.120 C 
BRANCH  29  30
HETATM   30  C24 UNL     1     -12.858  48.558 -19.878  1.00  0.00     0.112 C 
BRANCH  30  31
HETATM   31  C25 UNL     1     -14.230  48.242 -19.315  1.00  0.00     0.218 C 
HETATM   32  O7  UNL     1     -14.725  48.875 -18.390  1.00  0.00    -0.274 OA
HETATM   33  N1  UNL     1     -14.826  47.158 -19.911  1.00  0.00    -0.357 N 
HETATM   34  H34 UNL     1     -14.400  46.747 -20.731  1.00  0.00     0.162 HD
BRANCH  33  35
HETATM   35  C26 UNL     1     -16.196  46.792 -19.633  1.00  0.00     0.161 C 
BRANCH  35  36
HETATM   36  C27 UNL     1     -16.953  46.595 -20.924  1.00  0.00    -0.040 A 
HETATM   37  C28 UNL     1     -16.265  46.584 -22.146  1.00  0.00     0.010 A 
HETATM   38  C29 UNL     1     -16.953  46.389 -23.348  1.00  0.00     0.019 A 
HETATM   39  C30 UNL     1     -18.339  46.195 -23.340  1.00  0.00     0.037 A 
HETATM   40  C32 UNL     1     -19.030  46.195 -22.122  1.00  0.00     0.019 A 
HETATM   41  C33 UNL     1     -18.340  46.394 -20.921  1.00  0.00     0.010 A 
BRANCH  39  42
HETATM   42  C31 UNL     1     -19.031  46.000 -24.637  1.00  0.00     0.176 C 
HETATM   43  O8  UNL     1     -19.789  46.790 -25.172  1.00  0.00    -0.646 OA
BRANCH  42  44
HETATM   44  O9  UNL     1     -18.743  44.818 -25.210  1.00  0.00    -0.773 OA
HETATM   45  H39 UNL     1     -19.265  44.835 -26.040  1.00  0.00     0.167 HD
ENDBRANCH  42  44
ENDBRANCH  39  42
ENDBRANCH  35  36
ENDBRANCH  33  35
ENDBRANCH  30  31
ENDBRANCH  29  30
ENDBRANCH  27  29
ENDBRANCH  26  27
ENDBRANCH  25  26
ENDBRANCH  23  25
ENDBRANCH  20  23
BRANCH  13  46
HETATM   46  O2  UNL     1      -4.571  50.037 -24.604  1.00  0.00    -0.395 OA
HETATM   47  H16 UNL     1      -5.454  50.189 -24.981  1.00  0.00     0.210 HD
ENDBRANCH  13  46
TORSDOF 13
ENDMDL
MODEL 3
REMARK minimizedAffinity -8.67385674
REMARK CNNscore 0.536067486
REMARK CNNaffinity 6.1556592
REMARK  13 active torsions:
REMARK  status: ('A' for Active; 'I' for Inactive)
REMARK    1  A    between atoms: C12_13  and  O2_14 
REMARK    2  A    between atoms: C19_21  and  O3_22 
REMARK    3  A    between atoms: C19_21  and  C20_23 
REMARK    4  A    between atoms: C20_23  and  C21_25 
REMARK    5  A    between atoms: C21_25  and  O5_26 
REMARK    6  A    between atoms: O5_26  and  C22_27 
REMARK    7  A    between atoms: C22_27  and  C23_29 
REMARK    8  A    between atoms: C23_29  and  C24_30 
REMARK    9  A    between atoms: C24_30  and  C25_31 
REMARK       I    between atoms: C25_31  and  N1_33 
REMARK   10  A    between atoms: N1_33  and  C26_34 
REMARK   11  A    between atoms: C26_34  and  C27_35 
REMARK   12  A    between atoms: C30_38  and  C31_39 
REMARK   13  A    between atoms: C31_39  and  O9_41 
ROOT
HETATM    1  C1  UNL     1      -0.029  50.290 -21.398  1.00  0.00     0.020 C 
HETATM    2  C2  UNL     1      -0.962  51.514 -21.231  1.00  0.00    -0.014 C 
HETATM    3  C3  UNL     1      -0.745  52.481 -22.425  1.00  0.00     0.022 C 
HETATM    4  C4  UNL     1       0.662  53.072 -22.475  1.00  0.00     0.084 C 
HETATM    5  C5  UNL     1       1.100  53.627 -21.141  1.00  0.00     0.149 C 
HETATM    6  O1  UNL     1       2.050  54.403 -21.039  1.00  0.00    -0.293 OA
HETATM    7  C6  UNL     1       0.375  53.212 -19.919  1.00  0.00     0.053 C 
HETATM    8  C7  UNL     1      -0.575  52.260 -19.946  1.00  0.00    -0.068 C 
HETATM    9  C8  UNL     1      -1.370  51.964 -18.694  1.00  0.00     0.035 C 
HETATM   10  C9  UNL     1      -1.943  50.551 -18.641  1.00  0.00     0.010 C 
HETATM   11  C10 UNL     1      -2.700  50.125 -19.918  1.00  0.00    -0.002 C 
HETATM   12  C11 UNL     1      -2.477  51.121 -21.103  1.00  0.00     0.031 C 
HETATM   13  C12 UNL     1      -3.195  50.655 -22.397  1.00  0.00     0.124 C 
HETATM   14  C13 UNL     1      -4.685  50.310 -22.154  1.00  0.00     0.045 C 
HETATM   15  C14 UNL     1      -4.920  49.351 -20.963  1.00  0.00     0.001 C 
HETATM   16  C15 UNL     1      -4.405  47.928 -21.325  1.00  0.00     0.019 C 
HETATM   17  C16 UNL     1      -4.214  49.962 -19.720  1.00  0.00     0.002 C 
HETATM   18  C17 UNL     1      -4.725  49.102 -18.571  1.00  0.00     0.009 C 
HETATM   19  C18 UNL     1      -6.184  48.781 -18.949  1.00  0.00     0.047 C 
HETATM   20  C19 UNL     1      -6.387  49.256 -20.419  1.00  0.00     0.128 C 
ENDROOT
BRANCH  20  21
HETATM   21  O3  UNL     1      -6.966  50.562 -20.314  1.00  0.00    -0.381 OA
HETATM   22  H27 UNL     1      -7.116  50.906 -21.212  1.00  0.00     0.211 HD
ENDBRANCH  20  21
BRANCH  20  23
HETATM   23  C20 UNL     1      -7.295  48.260 -21.200  1.00  0.00     0.185 C 
HETATM   24  O4  UNL     1      -7.479  48.357 -22.417  1.00  0.00    -0.292 OA
BRANCH  23  25
HETATM   25  C21 UNL     1      -8.101  47.239 -20.394  1.00  0.00     0.260 C 
BRANCH  25  26
HETATM   26  O5  UNL     1      -8.974  46.392 -21.138  1.00  0.00    -0.314 OA
BRANCH  26  27
HETATM   27  C22 UNL     1     -10.300  46.670 -20.965  1.00  0.00     0.259 C 
HETATM   28  O6  UNL     1     -11.159  46.503 -21.816  1.00  0.00    -0.265 OA
BRANCH  27  29
HETATM   29  C23 UNL     1     -10.543  47.187 -19.569  1.00  0.00     0.120 C 
BRANCH  29  30
HETATM   30  C24 UNL     1     -11.727  48.146 -19.561  1.00  0.00     0.112 C 
BRANCH  30  31
HETATM   31  C25 UNL     1     -12.941  47.518 -18.905  1.00  0.00     0.218 C 
HETATM   32  O7  UNL     1     -12.885  46.458 -18.292  1.00  0.00    -0.274 OA
HETATM   33  N1  UNL     1     -14.099  48.226 -19.112  1.00  0.00    -0.357 N 
HETATM   34  H34 UNL     1     -14.050  49.140 -19.544  1.00  0.00     0.162 HD
BRANCH  33  35
HETATM   35  C26 UNL     1     -15.333  47.886 -18.441  1.00  0.00     0.161 C 
BRANCH  35  36
HETATM   36  C27 UNL     1     -16.310  47.286 -19.421  1.00  0.00    -0.040 A 
HETATM   37  C28 UNL     1     -17.689  47.376 -19.181  1.00  0.00     0.010 A 
HETATM   38  C29 UNL     1     -18.605  46.836 -20.089  1.00  0.00     0.019 A 
HETATM   39  C30 UNL     1     -18.152  46.206 -21.254  1.00  0.00     0.037 A 
HETATM   40  C32 UNL     1     -16.777  46.124 -21.504  1.00  0.00     0.019 A 
HETATM   41  C33 UNL     1     -15.862  46.661 -20.592  1.00  0.00     0.010 A 
BRANCH  39  42
HETATM   42  C31 UNL     1     -19.157  45.640 -22.186  1.00  0.00     0.176 C 
HETATM   43  O8  UNL     1     -19.301  45.943 -23.356  1.00  0.00    -0.646 OA
BRANCH  42  44
HETATM   44  O9  UNL     1     -19.943  44.715 -21.607  1.00  0.00    -0.773 OA
HETATM   45  H39 UNL     1     -20.544  44.441 -22.332  1.00  0.00     0.167 HD
ENDBRANCH  42  44
ENDBRANCH  39  42
ENDBRANCH  35  36
ENDBRANCH  33  35
ENDBRANCH  30  31
ENDBRANCH  29  30
ENDBRANCH  27  29
ENDBRANCH  26  27
ENDBRANCH  25  26
ENDBRANCH  23  25
ENDBRANCH  20  23
BRANCH  13  46
HETATM   46  O2  UNL     1      -2.525  49.554 -22.986  1.00  0.00    -0.395 OA
HETATM   47  H16 UNL     1      -2.934  49.375 -23.850  1.00  0.00     0.210 HD
ENDBRANCH  13  46
TORSDOF 13
ENDMDL
MODEL 4
REMARK minimizedAffinity -8.49876118
REMARK CNNscore 0.453970194
REMARK CNNaffinity 6.53415728
REMARK  13 active torsions:
REMARK  status: ('A' for Active; 'I' for Inactive)
REMARK    1  A    between atoms: C12_13  and  O2_14 
REMARK    2  A    between atoms: C19_21  and  O3_22 
REMARK    3  A    between atoms: C19_21  and  C20_23 
REMARK    4  A    between atoms: C20_23  and  C21_25 
REMARK    5  A    between atoms: C21_25  and  O5_26 
REMARK    6  A    between atoms: O5_26  and  C22_27 
REMARK    7  A    between atoms: C22_27  and  C23_29 
REMARK    8  A    between atoms: C23_29  and  C24_30 
REMARK    9  A    between atoms: C24_30  and  C25_31 
REMARK       I    between atoms: C25_31  and  N1_33 
REMARK   10  A    between atoms: N1_33  and  C26_34 
REMARK   11  A    between atoms: C26_34  and  C27_35 
REMARK   12  A    between atoms: C30_38  and  C31_39 
REMARK   13  A    between atoms: C31_39  and  O9_41 
ROOT
HETATM    1  C1  UNL     1      -1.545  52.952 -24.116  1.00  0.00     0.020 C 
HETATM    2  C2  UNL     1      -0.830  51.579 -24.113  1.00  0.00    -0.014 C 
HETATM    3  C3  UNL     1       0.658  51.783 -24.503  1.00  0.00     0.022 C 
HETATM    4  C4  UNL     1       0.842  52.311 -25.923  1.00  0.00     0.084 C 
HETATM    5  C5  UNL     1       0.038  51.531 -26.936  1.00  0.00     0.149 C 
HETATM    6  O1  UNL     1       0.274  51.593 -28.142  1.00  0.00    -0.293 OA
HETATM    7  C6  UNL     1      -1.078  50.681 -26.463  1.00  0.00     0.053 C 
HETATM    8  C7  UNL     1      -1.477  50.682 -25.178  1.00  0.00    -0.068 C 
HETATM    9  C8  UNL     1      -2.537  49.703 -24.726  1.00  0.00     0.035 C 
HETATM   10  C9  UNL     1      -3.323  50.161 -23.501  1.00  0.00     0.010 C 
HETATM   11  C10 UNL     1      -2.444  50.641 -22.326  1.00  0.00    -0.002 C 
HETATM   12  C11 UNL     1      -0.946  50.827 -22.739  1.00  0.00     0.031 C 
HETATM   13  C12 UNL     1      -0.082  51.363 -21.567  1.00  0.00     0.124 C 
HETATM   14  C13 UNL     1      -0.266  50.536 -20.271  1.00  0.00     0.045 C 
HETATM   15  C14 UNL     1      -1.744  50.319 -19.871  1.00  0.00     0.001 C 
HETATM   16  C15 UNL     1      -2.359  51.662 -19.383  1.00  0.00     0.019 C 
HETATM   17  C16 UNL     1      -2.481  49.717 -21.100  1.00  0.00     0.002 C 
HETATM   18  C17 UNL     1      -3.829  49.297 -20.527  1.00  0.00     0.009 C 
HETATM   19  C18 UNL     1      -3.507  48.808 -19.101  1.00  0.00     0.047 C 
HETATM   20  C19 UNL     1      -2.026  49.196 -18.813  1.00  0.00     0.128 C 
ENDROOT
BRANCH  20  21
HETATM   21  O3  UNL     1      -1.264  48.022 -19.117  1.00  0.00    -0.381 OA
HETATM   22  H27 UNL     1      -0.324  48.212 -18.951  1.00  0.00     0.211 HD
ENDBRANCH  20  21
BRANCH  20  23
HETATM   23  C20 UNL     1      -1.854  49.654 -17.334  1.00  0.00     0.185 C 
HETATM   24  O4  UNL     1      -2.787  50.135 -16.684  1.00  0.00    -0.292 OA
BRANCH  23  25
HETATM   25  C21 UNL     1      -0.444  49.653 -16.741  1.00  0.00     0.260 C 
BRANCH  25  26
HETATM   26  O5  UNL     1       0.120  50.927 -16.444  1.00  0.00    -0.314 OA
BRANCH  26  27
HETATM   27  C22 UNL     1       0.885  50.948 -15.312  1.00  0.00     0.259 C 
HETATM   28  O6  UNL     1       1.642  50.052 -14.972  1.00  0.00    -0.265 OA
BRANCH  27  29
HETATM   29  C23 UNL     1       0.673  52.242 -14.567  1.00  0.00     0.120 C 
BRANCH  29  30
HETATM   30  C24 UNL     1       0.329  51.961 -13.110  1.00  0.00     0.112 C 
BRANCH  30  31
HETATM   31  C25 UNL     1       1.552  52.080 -12.222  1.00  0.00     0.218 C 
HETATM   32  O7  UNL     1       2.178  51.103 -11.828  1.00  0.00    -0.274 OA
HETATM   33  N1  UNL     1       1.848  53.375 -11.873  1.00  0.00    -0.357 N 
HETATM   34  H34 UNL     1       1.345  54.134 -12.315  1.00  0.00     0.162 HD
BRANCH  33  35
HETATM   35  C26 UNL     1       3.062  53.718 -11.168  1.00  0.00     0.161 C 
BRANCH  35  36
HETATM   36  C27 UNL     1       2.762  54.704 -10.066  1.00  0.00    -0.040 A 
HETATM   37  C28 UNL     1       1.525  54.662  -9.403  1.00  0.00     0.010 A 
HETATM   38  C29 UNL     1       1.241  55.561  -8.371  1.00  0.00     0.019 A 
HETATM   39  C30 UNL     1       2.194  56.509  -7.983  1.00  0.00     0.037 A 
HETATM   40  C32 UNL     1       3.433  56.549  -8.634  1.00  0.00     0.019 A 
HETATM   41  C33 UNL     1       3.714  55.651  -9.668  1.00  0.00     0.010 A 
BRANCH  39  42
HETATM   42  C31 UNL     1       1.848  57.449  -6.890  1.00  0.00     0.176 C 
HETATM   43  O8  UNL     1       0.980  57.286  -6.051  1.00  0.00    -0.646 OA
BRANCH  42  44
HETATM   44  O9  UNL     1       2.609  58.558  -6.895  1.00  0.00    -0.773 OA
HETATM   45  H39 UNL     1       2.268  59.071  -6.132  1.00  0.00     0.167 HD
ENDBRANCH  42  44
ENDBRANCH  39  42
ENDBRANCH  35  36
ENDBRANCH  33  35
ENDBRANCH  30  31
ENDBRANCH  29  30
ENDBRANCH  27  29
ENDBRANCH  26  27
ENDBRANCH  25  26
ENDBRANCH  23  25
ENDBRANCH  20  23
BRANCH  13  46
HETATM   46  O2  UNL     1      -0.350  52.732 -21.320  1.00  0.00    -0.395 OA
HETATM   47  H16 UNL     1       0.295  53.055 -20.667  1.00  0.00     0.210 HD
ENDBRANCH  13  46
TORSDOF 13
ENDMDL
MODEL 5
REMARK minimizedAffinity -8.3044281
REMARK CNNscore 0.451395452
REMARK CNNaffinity 5.7006011
REMARK  13 active torsions:
REMARK  status: ('A' for Active; 'I' for Inactive)
REMARK    1  A    between atoms: C12_13  and  O2_14 
REMARK    2  A    between atoms: C19_21  and  O3_22 
REMARK    3  A    between atoms: C19_21  and  C20_23 
REMARK    4  A    between atoms: C20_23  and  C21_25 
REMARK    5  A    between atoms: C21_25  and  O5_26 
REMARK    6  A    between atoms: O5_26  and  C22_27 
REMARK    7  A    between atoms: C22_27  and  C23_29 
REMARK    8  A    between atoms: C23_29  and  C24_30 
REMARK    9  A    between atoms: C24_30  and  C25_31 
REMARK       I    between atoms: C25_31  and  N1_33 
REMARK   10  A    between atoms: N1_33  and  C26_34 
REMARK   11  A    between atoms: C26_34  and  C27_35 
REMARK   12  A    between atoms: C30_38  and  C31_39 
REMARK   13  A    between atoms: C31_39  and  O9_41 
ROOT
HETATM    1  C1  UNL     1      -9.895  46.467 -30.478  1.00  0.00     0.020 C 
HETATM    2  C2  UNL     1      -9.226  46.937 -29.163  1.00  0.00    -0.014 C 
HETATM    3  C3  UNL     1      -8.603  48.340 -29.386  1.00  0.00     0.022 C 
HETATM    4  C4  UNL     1      -7.475  48.343 -30.415  1.00  0.00     0.084 C 
HETATM    5  C5  UNL     1      -6.465  47.249 -30.163  1.00  0.00     0.149 C 
HETATM    6  O1  UNL     1      -5.346  47.266 -30.677  1.00  0.00    -0.293 OA
HETATM    7  C6  UNL     1      -6.838  46.116 -29.286  1.00  0.00     0.053 C 
HETATM    8  C7  UNL     1      -8.088  45.967 -28.813  1.00  0.00    -0.068 C 
HETATM    9  C8  UNL     1      -8.383  44.863 -27.822  1.00  0.00     0.035 C 
HETATM   10  C9  UNL     1      -9.837  44.402 -27.820  1.00  0.00     0.010 C 
HETATM   11  C10 UNL     1     -10.867  45.550 -27.728  1.00  0.00    -0.002 C 
HETATM   12  C11 UNL     1     -10.213  46.955 -27.942  1.00  0.00     0.031 C 
HETATM   13  C12 UNL     1     -11.264  48.096 -27.903  1.00  0.00     0.124 C 
HETATM   14  C13 UNL     1     -12.171  48.023 -26.650  1.00  0.00     0.045 C 
HETATM   15  C14 UNL     1     -12.796  46.629 -26.410  1.00  0.00     0.001 C 
HETATM   16  C15 UNL     1     -13.872  46.342 -27.495  1.00  0.00     0.019 C 
HETATM   17  C16 UNL     1     -11.640  45.589 -26.401  1.00  0.00     0.002 C 
HETATM   18  C17 UNL     1     -12.315  44.320 -25.897  1.00  0.00     0.009 C 
HETATM   19  C18 UNL     1     -13.345  44.816 -24.862  1.00  0.00     0.047 C 
HETATM   20  C19 UNL     1     -13.401  46.368 -24.987  1.00  0.00     0.128 C 
ENDROOT
BRANCH  20  21
HETATM   21  O3  UNL     1     -12.519  46.858 -23.971  1.00  0.00    -0.381 OA
HETATM   22  H27 UNL     1     -12.519  47.831 -24.006  1.00  0.00     0.211 HD
ENDBRANCH  20  21
BRANCH  20  23
HETATM   23  C20 UNL     1     -14.861  46.882 -24.810  1.00  0.00     0.185 C 
HETATM   24  O4  UNL     1     -15.110  48.032 -24.434  1.00  0.00    -0.292 OA
BRANCH  23  25
HETATM   25  C21 UNL     1     -16.001  45.872 -24.953  1.00  0.00     0.260 C 
BRANCH  25  26
HETATM   26  O5  UNL     1     -17.226  46.371 -25.484  1.00  0.00    -0.314 OA
BRANCH  26  27
HETATM   27  C22 UNL     1     -18.159  46.679 -24.535  1.00  0.00     0.259 C 
HETATM   28  O6  UNL     1     -19.106  47.430 -24.713  1.00  0.00    -0.265 OA
BRANCH  27  29
HETATM   29  C23 UNL     1     -17.860  45.939 -23.255  1.00  0.00     0.120 C 
BRANCH  29  30
HETATM   30  C24 UNL     1     -19.144  45.379 -22.658  1.00  0.00     0.112 C 
BRANCH  30  31
HETATM   31  C25 UNL     1     -19.233  45.667 -21.173  1.00  0.00     0.218 C 
HETATM   32  O7  UNL     1     -19.699  44.864 -20.372  1.00  0.00    -0.274 OA
HETATM   33  N1  UNL     1     -18.790  46.922 -20.834  1.00  0.00    -0.357 N 
HETATM   34  H34 UNL     1     -18.331  47.490 -21.533  1.00  0.00     0.162 HD
BRANCH  33  35
HETATM   35  C26 UNL     1     -18.641  47.333 -19.456  1.00  0.00     0.161 C 
BRANCH  35  36
HETATM   36  C27 UNL     1     -17.186  47.296 -19.058  1.00  0.00    -0.040 A 
HETATM   37  C28 UNL     1     -16.558  48.458 -18.584  1.00  0.00     0.010 A 
HETATM   38  C29 UNL     1     -15.215  48.433 -18.199  1.00  0.00     0.019 A 
HETATM   39  C30 UNL     1     -14.484  47.242 -18.274  1.00  0.00     0.037 A 
HETATM   40  C32 UNL     1     -15.109  46.077 -18.736  1.00  0.00     0.019 A 
HETATM   41  C33 UNL     1     -16.452  46.105 -19.125  1.00  0.00     0.010 A 
BRANCH  39  42
HETATM   42  C31 UNL     1     -13.060  47.261 -17.863  1.00  0.00     0.176 C 
HETATM   43  O8  UNL     1     -12.107  46.968 -18.563  1.00  0.00    -0.646 OA
BRANCH  42  44
HETATM   44  O9  UNL     1     -12.890  47.648 -16.586  1.00  0.00    -0.773 OA
HETATM   45  H39 UNL     1     -11.918  47.609 -16.464  1.00  0.00     0.167 HD
ENDBRANCH  42  44
ENDBRANCH  39  42
ENDBRANCH  35  36
ENDBRANCH  33  35
ENDBRANCH  30  31
ENDBRANCH  29  30
ENDBRANCH  27  29
ENDBRANCH  26  27
ENDBRANCH  25  26
ENDBRANCH  23  25
ENDBRANCH  20  23
BRANCH  13  46
HETATM   46  O2  UNL     1     -12.053  48.106 -29.080  1.00  0.00    -0.395 OA
HETATM   47  H16 UNL     1     -12.609  48.903 -29.068  1.00  0.00     0.210 HD
ENDBRANCH  13  46
TORSDOF 13
ENDMDL
MODEL 6
REMARK minimizedAffinity -9.52293015
REMARK CNNscore 0.427223563
REMARK CNNaffinity 6.74655104
REMARK  13 active torsions:
REMARK  status: ('A' for Active; 'I' for Inactive)
REMARK    1  A    between atoms: C12_13  and  O2_14 
REMARK    2  A    between atoms: C19_21  and  O3_22 
REMARK    3  A    between atoms: C19_21  and  C20_23 
REMARK    4  A    between atoms: C20_23  and  C21_25 
REMARK    5  A    between atoms: C21_25  and  O5_26 
REMARK    6  A    between atoms: O5_26  and  C22_27 
REMARK    7  A    between atoms: C22_27  and  C23_29 
REMARK    8  A    between atoms: C23_29  and  C24_30 
REMARK    9  A    between atoms: C24_30  and  C25_31 
REMARK       I    between atoms: C25_31  and  N1_33 
REMARK   10  A    between atoms: N1_33  and  C26_34 
REMARK   11  A    between atoms: C26_34  and  C27_35 
REMARK   12  A    between atoms: C30_38  and  C31_39 
REMARK   13  A    between atoms: C31_39  and  O9_41 
ROOT
HETATM    1  C1  UNL     1      -8.073  48.861 -24.393  1.00  0.00     0.020 C 
HETATM    2  C2  UNL     1      -7.132  47.708 -24.821  1.00  0.00    -0.014 C 
HETATM    3  C3  UNL     1      -6.914  47.777 -26.355  1.00  0.00     0.022 C 
HETATM    4  C4  UNL     1      -8.192  47.548 -27.157  1.00  0.00     0.084 C 
HETATM    5  C5  UNL     1      -8.952  46.329 -26.693  1.00  0.00     0.149 C 
HETATM    6  O1  UNL     1      -9.824  45.804 -27.384  1.00  0.00    -0.293 OA
HETATM    7  C6  UNL     1      -8.649  45.760 -25.360  1.00  0.00     0.053 C 
HETATM    8  C7  UNL     1      -7.813  46.370 -24.501  1.00  0.00    -0.068 C 
HETATM    9  C8  UNL     1      -7.442  45.682 -23.206  1.00  0.00     0.035 C 
HETATM   10  C9  UNL     1      -7.027  46.637 -22.092  1.00  0.00     0.010 C 
HETATM   11  C10 UNL     1      -5.969  47.681 -22.513  1.00  0.00    -0.002 C 
HETATM   12  C11 UNL     1      -5.757  47.723 -24.062  1.00  0.00     0.031 C 
HETATM   13  C12 UNL     1      -4.734  48.813 -24.480  1.00  0.00     0.124 C 
HETATM   14  C13 UNL     1      -3.412  48.721 -23.678  1.00  0.00     0.045 C 
HETATM   15  C14 UNL     1      -3.612  48.646 -22.146  1.00  0.00     0.001 C 
HETATM   16  C15 UNL     1      -4.114  50.019 -21.615  1.00  0.00     0.019 C 
HETATM   17  C16 UNL     1      -4.596  47.479 -21.856  1.00  0.00     0.002 C 
HETATM   18  C17 UNL     1      -4.512  47.320 -20.344  1.00  0.00     0.009 C 
HETATM   19  C18 UNL     1      -3.037  47.613 -20.006  1.00  0.00     0.047 C 
HETATM   20  C19 UNL     1      -2.378  48.174 -21.301  1.00  0.00     0.128 C 
ENDROOT
BRANCH  20  21
HETATM   21  O3  UNL     1      -1.750  47.047 -21.922  1.00  0.00    -0.381 OA
HETATM   22  H27 UNL     1      -1.319  47.346 -22.742  1.00  0.00     0.211 HD
ENDBRANCH  20  21
BRANCH  20  23
HETATM   23  C20 UNL     1      -1.367  49.308 -20.959  1.00  0.00     0.185 C 
HETATM   24  O4  UNL     1      -0.805  49.972 -21.835  1.00  0.00    -0.292 OA
BRANCH  23  25
HETATM   25  C21 UNL     1      -0.949  49.481 -19.497  1.00  0.00     0.260 C 
BRANCH  25  26
HETATM   26  O5  UNL     1      -0.327  50.717 -19.158  1.00  0.00    -0.314 OA
BRANCH  26  27
HETATM   27  C22 UNL     1      -1.203  51.749 -18.973  1.00  0.00     0.259 C 
HETATM   28  O6  UNL     1      -2.198  51.693 -18.267  1.00  0.00    -0.265 OA
BRANCH  27  29
HETATM   29  C23 UNL     1      -0.746  52.961 -19.745  1.00  0.00     0.120 C 
BRANCH  29  30
HETATM   30  C24 UNL     1       0.746  52.869 -20.036  1.00  0.00     0.112 C 
BRANCH  30  31
HETATM   31  C25 UNL     1       1.084  53.482 -21.381  1.00  0.00     0.218 C 
HETATM   32  O7  UNL     1       1.863  54.420 -21.501  1.00  0.00    -0.274 OA
HETATM   33  N1  UNL     1       0.396  52.915 -22.427  1.00  0.00    -0.357 N 
HETATM   34  H34 UNL     1      -0.155  52.082 -22.263  1.00  0.00     0.162 HD
BRANCH  33  35
HETATM   35  C26 UNL     1       0.692  53.243 -23.802  1.00  0.00     0.161 C 
BRANCH  35  36
HETATM   36  C27 UNL     1      -0.153  52.404 -24.729  1.00  0.00    -0.040 A 
HETATM   37  C28 UNL     1      -1.550  52.534 -24.717  1.00  0.00     0.010 A 
HETATM   38  C29 UNL     1      -2.342  51.772 -25.580  1.00  0.00     0.019 A 
HETATM   39  C30 UNL     1      -1.746  50.877 -26.475  1.00  0.00     0.037 A 
HETATM   40  C32 UNL     1      -0.352  50.751 -26.499  1.00  0.00     0.019 A 
HETATM   41  C33 UNL     1       0.439  51.511 -25.632  1.00  0.00     0.010 A 
BRANCH  39  42
HETATM   42  C31 UNL     1      -2.624  50.083 -27.368  1.00  0.00     0.176 C 
HETATM   43  O8  UNL     1      -2.979  48.932 -27.187  1.00  0.00    -0.646 OA
BRANCH  42  44
HETATM   44  O9  UNL     1      -3.020  50.768 -28.455  1.00  0.00    -0.773 OA
HETATM   45  H39 UNL     1      -3.580  50.124 -28.938  1.00  0.00     0.167 HD
ENDBRANCH  42  44
ENDBRANCH  39  42
ENDBRANCH  35  36
ENDBRANCH  33  35
ENDBRANCH  30  31
ENDBRANCH  29  30
ENDBRANCH  27  29
ENDBRANCH  26  27
ENDBRANCH  25  26
ENDBRANCH  23  25
ENDBRANCH  20  23
BRANCH  13  46
HETATM   46  O2  UNL     1      -5.292  50.110 -24.360  1.00  0.00    -0.395 OA
HETATM   47  H16 UNL     1      -4.666  50.747 -24.745  1.00  0.00     0.210 HD
ENDBRANCH  13  46
TORSDOF 13
ENDMDL
MODEL 7
REMARK minimizedAffinity -9.12722206
REMARK CNNscore 0.35515368
REMARK CNNaffinity 6.03085518
REMARK  13 active torsions:
REMARK  status: ('A' for Active; 'I' for Inactive)
REMARK    1  A    between atoms: C12_13  and  O2_14 
REMARK    2  A    between atoms: C19_21  and  O3_22 
REMARK    3  A    between atoms: C19_21  and  C20_23 
REMARK    4  A    between atoms: C20_23  and  C21_25 
REMARK    5  A    between atoms: C21_25  and  O5_26 
REMARK    6  A    between atoms: O5_26  and  C22_27 
REMARK    7  A    between atoms: C22_27  and  C23_29 
REMARK    8  A    between atoms: C23_29  and  C24_30 
REMARK    9  A    between atoms: C24_30  and  C25_31 
REMARK       I    between atoms: C25_31  and  N1_33 
REMARK   10  A    between atoms: N1_33  and  C26_34 
REMARK   11  A    between atoms: C26_34  and  C27_35 
REMARK   12  A    between atoms: C30_38  and  C31_39 
REMARK   13  A    between atoms: C31_39  and  O9_41 
ROOT
HETATM    1  C1  UNL     1      -1.741  49.872 -25.838  1.00  0.00     0.020 C 
HETATM    2  C2  UNL     1      -2.141  51.185 -25.121  1.00  0.00    -0.014 C 
HETATM    3  C3  UNL     1      -2.606  52.218 -26.180  1.00  0.00     0.022 C 
HETATM    4  C4  UNL     1      -1.499  52.629 -27.148  1.00  0.00     0.084 C 
HETATM    5  C5  UNL     1      -0.222  53.004 -26.435  1.00  0.00     0.149 C 
HETATM    6  O1  UNL     1       0.671  53.642 -26.993  1.00  0.00    -0.293 OA
HETATM    7  C6  UNL     1      -0.033  52.577 -25.031  1.00  0.00     0.053 C 
HETATM    8  C7  UNL     1      -0.904  51.758 -24.414  1.00  0.00    -0.068 C 
HETATM    9  C8  UNL     1      -0.729  51.455 -22.943  1.00  0.00     0.035 C 
HETATM   10  C9  UNL     1      -1.338  50.126 -22.506  1.00  0.00     0.010 C 
HETATM   11  C10 UNL     1      -2.796  49.914 -22.968  1.00  0.00    -0.002 C 
HETATM   12  C11 UNL     1      -3.247  50.975 -24.025  1.00  0.00     0.031 C 
HETATM   13  C12 UNL     1      -4.693  50.719 -24.525  1.00  0.00     0.124 C 
HETATM   14  C13 UNL     1      -5.699  50.544 -23.361  1.00  0.00     0.045 C 
HETATM   15  C14 UNL     1      -5.247  49.520 -22.292  1.00  0.00     0.001 C 
HETATM   16  C15 UNL     1      -5.316  48.082 -22.881  1.00  0.00     0.019 C 
HETATM   17  C16 UNL     1      -3.821  49.925 -21.825  1.00  0.00     0.002 C 
HETATM   18  C17 UNL     1      -3.588  49.038 -20.609  1.00  0.00     0.009 C 
HETATM   19  C18 UNL     1      -4.970  48.938 -19.933  1.00  0.00     0.047 C 
HETATM   20  C19 UNL     1      -6.002  49.563 -20.918  1.00  0.00     0.128 C 
ENDROOT
BRANCH  20  21
HETATM   21  O3  UNL     1      -6.166  50.917 -20.481  1.00  0.00    -0.381 OA
HETATM   22  H27 UNL     1      -6.807  51.355 -21.067  1.00  0.00     0.211 HD
ENDBRANCH  20  21
BRANCH  20  23
HETATM   23  C20 UNL     1      -7.338  48.762 -20.898  1.00  0.00     0.185 C 
HETATM   24  O4  UNL     1      -8.053  48.655 -21.900  1.00  0.00    -0.292 OA
BRANCH  23  25
HETATM   25  C21 UNL     1      -7.843  48.240 -19.552  1.00  0.00     0.260 C 
BRANCH  25  26
HETATM   26  O5  UNL     1      -9.238  47.964 -19.462  1.00  0.00    -0.314 OA
BRANCH  26  27
HETATM   27  C22 UNL     1      -9.672  47.699 -18.195  1.00  0.00     0.259 C 
HETATM   28  O6  UNL     1      -9.090  48.041 -17.177  1.00  0.00    -0.265 OA
BRANCH  27  29
HETATM   29  C23 UNL     1     -10.979  46.947 -18.242  1.00  0.00     0.120 C 
BRANCH  29  30
HETATM   30  C24 UNL     1     -12.049  47.794 -18.919  1.00  0.00     0.112 C 
BRANCH  30  31
HETATM   31  C25 UNL     1     -13.345  47.777 -18.132  1.00  0.00     0.218 C 
HETATM   32  O7  UNL     1     -13.376  47.635 -16.915  1.00  0.00    -0.274 OA
HETATM   33  N1  UNL     1     -14.464  47.888 -18.922  1.00  0.00    -0.357 N 
HETATM   34  H34 UNL     1     -14.356  48.100 -19.905  1.00  0.00     0.162 HD
BRANCH  33  35
HETATM   35  C26 UNL     1     -15.784  48.054 -18.358  1.00  0.00     0.161 C 
BRANCH  35  36
HETATM   36  C27 UNL     1     -16.783  47.220 -19.121  1.00  0.00    -0.040 A 
HETATM   37  C28 UNL     1     -16.399  45.983 -19.661  1.00  0.00     0.010 A 
HETATM   38  C29 UNL     1     -17.320  45.195 -20.358  1.00  0.00     0.019 A 
HETATM   39  C30 UNL     1     -18.640  45.631 -20.517  1.00  0.00     0.037 A 
HETATM   40  C32 UNL     1     -19.032  46.860 -19.971  1.00  0.00     0.019 A 
HETATM   41  C33 UNL     1     -18.108  47.649 -19.277  1.00  0.00     0.010 A 
BRANCH  39  42
HETATM   42  C31 UNL     1     -19.582  44.769 -21.270  1.00  0.00     0.176 C 
HETATM   43  O8  UNL     1     -19.726  44.748 -22.479  1.00  0.00    -0.646 OA
BRANCH  42  44
HETATM   44  O9  UNL     1     -20.307  43.966 -20.470  1.00  0.00    -0.773 OA
HETATM   45  H39 UNL     1     -20.872  43.469 -21.100  1.00  0.00     0.167 HD
ENDBRANCH  42  44
ENDBRANCH  39  42
ENDBRANCH  35  36
ENDBRANCH  33  35
ENDBRANCH  30  31
ENDBRANCH  29  30
ENDBRANCH  27  29
ENDBRANCH  26  27
ENDBRANCH  25  26
ENDBRANCH  23  25
ENDBRANCH  20  23
BRANCH  13  46
HETATM   46  O2  UNL     1      -4.744  49.599 -25.392  1.00  0.00    -0.395 OA
HETATM   47  H16 UNL     1      -5.637  49.551 -25.774  1.00  0.00     0.210 HD
ENDBRANCH  13  46
TORSDOF 13
ENDMDL
MODEL 8
REMARK minimizedAffinity -9.5122242
REMARK CNNscore 0.301739156
REMARK CNNaffinity 6.40814734
REMARK  13 active torsions:
REMARK  status: ('A' for Active; 'I' for Inactive)
REMARK    1  A    between atoms: C12_13  and  O2_14 
REMARK    2  A    between atoms: C19_21  and  O3_22 
REMARK    3  A    between atoms: C19_21  and  C20_23 
REMARK    4  A    between atoms: C20_23  and  C21_25 
REMARK    5  A    between atoms: C21_25  and  O5_26 
REMARK    6  A    between atoms: O5_26  and  C22_27 
REMARK    7  A    between atoms: C22_27  and  C23_29 
REMARK    8  A    between atoms: C23_29  and  C24_30 
REMARK    9  A    between atoms: C24_30  and  C25_31 
REMARK       I    between atoms: C25_31  and  N1_33 
REMARK   10  A    between atoms: N1_33  and  C26_34 
REMARK   11  A    between atoms: C26_34  and  C27_35 
REMARK   12  A    between atoms: C30_38  and  C31_39 
REMARK   13  A    between atoms: C31_39  and  O9_41 
ROOT
HETATM    1  C1  UNL     1      -6.402  47.421 -19.438  1.00  0.00     0.020 C 
HETATM    2  C2  UNL     1      -7.262  48.513 -20.119  1.00  0.00    -0.014 C 
HETATM    3  C3  UNL     1      -7.804  49.480 -19.034  1.00  0.00     0.022 C 
HETATM    4  C4  UNL     1      -8.751  48.805 -18.044  1.00  0.00     0.084 C 
HETATM    5  C5  UNL     1      -9.816  47.987 -18.734  1.00  0.00     0.149 C 
HETATM    6  O1  UNL     1     -10.836  47.622 -18.149  1.00  0.00    -0.293 OA
HETATM    7  C6  UNL     1      -9.619  47.599 -20.149  1.00  0.00     0.053 C 
HETATM    8  C7  UNL     1      -8.466  47.843 -20.797  1.00  0.00    -0.068 C 
HETATM    9  C8  UNL     1      -8.364  47.539 -22.275  1.00  0.00     0.035 C 
HETATM   10  C9  UNL     1      -6.941  47.272 -22.757  1.00  0.00     0.010 C 
HETATM   11  C10 UNL     1      -5.911  48.334 -22.315  1.00  0.00    -0.002 C 
HETATM   12  C11 UNL     1      -6.485  49.305 -21.230  1.00  0.00     0.031 C 
HETATM   13  C12 UNL     1      -5.425  50.332 -20.752  1.00  0.00     0.124 C 
HETATM   14  C13 UNL     1      -4.735  51.063 -21.930  1.00  0.00     0.045 C 
HETATM   15  C14 UNL     1      -4.193  50.113 -23.024  1.00  0.00     0.001 C 
HETATM   16  C15 UNL     1      -2.963  49.332 -22.480  1.00  0.00     0.019 C 
HETATM   17  C16 UNL     1      -5.361  49.188 -23.466  1.00  0.00     0.002 C 
HETATM   18  C17 UNL     1      -4.809  48.496 -24.706  1.00  0.00     0.009 C 
HETATM   19  C18 UNL     1      -3.948  49.573 -25.397  1.00  0.00     0.047 C 
HETATM   20  C19 UNL     1      -3.832  50.767 -24.403  1.00  0.00     0.128 C 
ENDROOT
BRANCH  20  21
HETATM   21  O3  UNL     1      -4.854  51.687 -24.802  1.00  0.00    -0.381 OA
HETATM   22  H27 UNL     1      -4.823  52.459 -24.209  1.00  0.00     0.211 HD
ENDBRANCH  20  21
BRANCH  20  23
HETATM   23  C20 UNL     1      -2.407  51.394 -24.459  1.00  0.00     0.185 C 
HETATM   24  O4  UNL     1      -2.167  52.517 -24.006  1.00  0.00    -0.292 OA
BRANCH  23  25
HETATM   25  C21 UNL     1      -1.326  50.652 -25.246  1.00  0.00     0.260 C 
BRANCH  25  26
HETATM   26  O5  UNL     1      -0.931  51.235 -26.485  1.00  0.00    -0.314 OA
BRANCH  26  27
HETATM   27  C22 UNL     1       0.420  51.251 -26.688  1.00  0.00     0.259 C 
HETATM   28  O6  UNL     1       1.148  50.277 -26.581  1.00  0.00    -0.265 OA
BRANCH  27  29
HETATM   29  C23 UNL     1       0.867  52.637 -27.082  1.00  0.00     0.120 C 
BRANCH  29  30
HETATM   30  C24 UNL     1      -0.164  53.668 -26.643  1.00  0.00     0.112 C 
BRANCH  30  31
HETATM   31  C25 UNL     1       0.359  54.521 -25.504  1.00  0.00     0.218 C 
HETATM   32  O7  UNL     1       0.321  55.746 -25.526  1.00  0.00    -0.274 OA
HETATM   33  N1  UNL     1       0.915  53.787 -24.484  1.00  0.00    -0.357 N 
HETATM   34  H34 UNL     1       0.821  52.780 -24.492  1.00  0.00     0.162 HD
BRANCH  33  35
HETATM   35  C26 UNL     1       1.323  54.396 -23.239  1.00  0.00     0.161 C 
BRANCH  35  36
HETATM   36  C27 UNL     1       0.925  53.521 -22.077  1.00  0.00    -0.040 A 
HETATM   37  C28 UNL     1       0.936  54.037 -20.772  1.00  0.00     0.010 A 
HETATM   38  C29 UNL     1       0.556  53.240 -19.689  1.00  0.00     0.019 A 
HETATM   39  C30 UNL     1       0.151  51.917 -19.898  1.00  0.00     0.037 A 
HETATM   40  C32 UNL     1       0.128  51.399 -21.199  1.00  0.00     0.019 A 
HETATM   41  C33 UNL     1       0.512  52.197 -22.281  1.00  0.00     0.010 A 
BRANCH  39  42
HETATM   42  C31 UNL     1      -0.236  51.104 -18.720  1.00  0.00     0.176 C 
HETATM   43  O8  UNL     1      -0.098  51.421 -17.552  1.00  0.00    -0.646 OA
BRANCH  42  44
HETATM   44  O9  UNL     1      -0.782  49.922 -19.058  1.00  0.00    -0.773 OA
HETATM   45  H39 UNL     1      -0.980  49.507 -18.192  1.00  0.00     0.167 HD
ENDBRANCH  42  44
ENDBRANCH  39  42
ENDBRANCH  35  36
ENDBRANCH  33  35
ENDBRANCH  30  31
ENDBRANCH  29  30
ENDBRANCH  27  29
ENDBRANCH  26  27
ENDBRANCH  25  26
ENDBRANCH  23  25
ENDBRANCH  20  23
BRANCH  13  46
HETATM   46  O2  UNL     1      -4.457  49.718 -19.919  1.00  0.00    -0.395 OA
HETATM   47  H16 UNL     1      -3.889  50.415 -19.547  1.00  0.00     0.210 HD
ENDBRANCH  13  46
TORSDOF 13
ENDMDL
MODEL 9
REMARK minimizedAffinity -9.29769421
REMARK CNNscore 0.295960933
REMARK CNNaffinity 6.07941866
REMARK  13 active torsions:
REMARK  status: ('A' for Active; 'I' for Inactive)
REMARK    1  A    between atoms: C12_13  and  O2_14 
REMARK    2  A    between atoms: C19_21  and  O3_22 
REMARK    3  A    between atoms: C19_21  and  C20_23 
REMARK    4  A    between atoms: C20_23  and  C21_25 
REMARK    5  A    between atoms: C21_25  and  O5_26 
REMARK    6  A    between atoms: O5_26  and  C22_27 
REMARK    7  A    between atoms: C22_27  and  C23_29 
REMARK    8  A    between atoms: C23_29  and  C24_30 
REMARK    9  A    between atoms: C24_30  and  C25_31 
REMARK       I    between atoms: C25_31  and  N1_33 
REMARK   10  A    between atoms: N1_33  and  C26_34 
REMARK   11  A    between atoms: C26_34  and  C27_35 
REMARK   12  A    between atoms: C30_38  and  C31_39 
REMARK   13  A    between atoms: C31_39  and  O9_41 
ROOT
HETATM    1  C1  UNL     1      -0.065  50.874 -25.189  1.00  0.00     0.020 C 
HETATM    2  C2  UNL     1      -0.942  52.051 -24.696  1.00  0.00    -0.014 C 
HETATM    3  C3  UNL     1      -2.189  52.170 -25.611  1.00  0.00     0.022 C 
HETATM    4  C4  UNL     1      -1.845  52.524 -27.056  1.00  0.00     0.084 C 
HETATM    5  C5  UNL     1      -0.893  53.692 -27.151  1.00  0.00     0.149 C 
HETATM    6  O1  UNL     1      -0.733  54.318 -28.199  1.00  0.00    -0.293 OA
HETATM    7  C6  UNL     1      -0.116  54.083 -25.953  1.00  0.00     0.053 C 
HETATM    8  C7  UNL     1      -0.138  53.353 -24.823  1.00  0.00    -0.068 C 
HETATM    9  C8  UNL     1       0.573  53.865 -23.591  1.00  0.00     0.035 C 
HETATM   10  C9  UNL     1       1.001  52.769 -22.620  1.00  0.00     0.010 C 
HETATM   11  C10 UNL     1      -0.117  51.765 -22.264  1.00  0.00    -0.002 C 
HETATM   12  C11 UNL     1      -1.368  51.913 -23.191  1.00  0.00     0.031 C 
HETATM   13  C12 UNL     1      -2.462  50.863 -22.862  1.00  0.00     0.124 C 
HETATM   14  C13 UNL     1      -2.813  50.826 -21.355  1.00  0.00     0.045 C 
HETATM   15  C14 UNL     1      -1.580  50.712 -20.427  1.00  0.00     0.001 C 
HETATM   16  C15 UNL     1      -0.954  49.295 -20.558  1.00  0.00     0.019 C 
HETATM   17  C16 UNL     1      -0.598  51.855 -20.808  1.00  0.00     0.002 C 
HETATM   18  C17 UNL     1       0.429  51.821 -19.684  1.00  0.00     0.009 C 
HETATM   19  C18 UNL     1      -0.386  51.457 -18.427  1.00  0.00     0.047 C 
HETATM   20  C19 UNL     1      -1.809  51.049 -18.913  1.00  0.00     0.128 C 
ENDROOT
BRANCH  20  21
HETATM   21  O3  UNL     1      -2.605  52.232 -18.780  1.00  0.00    -0.381 OA
HETATM   22  H27 UNL     1      -3.511  52.029 -19.071  1.00  0.00     0.211 HD
ENDBRANCH  20  21
BRANCH  20  23
HETATM   23  C20 UNL     1      -2.359  49.860 -18.071  1.00  0.00     0.185 C 
HETATM   24  O4  UNL     1      -2.376  48.703 -18.502  1.00  0.00    -0.292 OA
BRANCH  23  25
HETATM   25  C21 UNL     1      -3.042  50.178 -16.739  1.00  0.00     0.260 C 
BRANCH  25  26
HETATM   26  O5  UNL     1      -2.200  50.652 -15.692  1.00  0.00    -0.314 OA
BRANCH  26  27
HETATM   27  C22 UNL     1      -2.839  51.440 -14.778  1.00  0.00     0.259 C 
HETATM   28  O6  UNL     1      -3.891  52.026 -14.983  1.00  0.00    -0.265 OA
BRANCH  27  29
HETATM   29  C23 UNL     1      -2.069  51.457 -13.481  1.00  0.00     0.120 C 
BRANCH  29  30
HETATM   30  C24 UNL     1      -3.028  51.425 -12.298  1.00  0.00     0.112 C 
BRANCH  30  31
HETATM   31  C25 UNL     1      -3.215  52.806 -11.702  1.00  0.00     0.218 C 
HETATM   32  O7  UNL     1      -4.300  53.376 -11.685  1.00  0.00    -0.274 OA
HETATM   33  N1  UNL     1      -2.048  53.362 -11.238  1.00  0.00    -0.357 N 
HETATM   34  H34 UNL     1      -1.212  52.794 -11.198  1.00  0.00     0.162 HD
BRANCH  33  35
HETATM   35  C26 UNL     1      -2.035  54.599 -10.491  1.00  0.00     0.161 C 
BRANCH  35  36
HETATM   36  C27 UNL     1      -0.628  54.929 -10.057  1.00  0.00    -0.040 A 
HETATM   37  C28 UNL     1      -0.405  55.576  -8.832  1.00  0.00     0.010 A 
HETATM   38  C29 UNL     1       0.895  55.875  -8.412  1.00  0.00     0.019 A 
HETATM   39  C30 UNL     1       1.989  55.524  -9.211  1.00  0.00     0.037 A 
HETATM   40  C32 UNL     1       1.773  54.869 -10.430  1.00  0.00     0.019 A 
HETATM   41  C33 UNL     1       0.472  54.574 -10.849  1.00  0.00     0.010 A 
BRANCH  39  42
HETATM   42  C31 UNL     1       3.349  55.867  -8.732  1.00  0.00     0.176 C 
HETATM   43  O8  UNL     1       4.187  55.081  -8.327  1.00  0.00    -0.646 OA
BRANCH  42  44
HETATM   44  O9  UNL     1       3.603  57.187  -8.782  1.00  0.00    -0.773 OA
HETATM   45  H39 UNL     1       4.519  57.255  -8.440  1.00  0.00     0.167 HD
ENDBRANCH  42  44
ENDBRANCH  39  42
ENDBRANCH  35  36
ENDBRANCH  33  35
ENDBRANCH  30  31
ENDBRANCH  29  30
ENDBRANCH  27  29
ENDBRANCH  26  27
ENDBRANCH  25  26
ENDBRANCH  23  25
ENDBRANCH  20  23
BRANCH  13  46
HETATM   46  O2  UNL     1      -2.084  49.573 -23.311  1.00  0.00    -0.395 OA
HETATM   47  H16 UNL     1      -2.843  48.976 -23.196  1.00  0.00     0.210 HD
ENDBRANCH  13  46
TORSDOF 13
ENDMDL
