MODEL 1
REMARK minimizedAffinity -9.37378693
REMARK  4 active torsions:
REMARK  status: ('A' for Active; 'I' for Inactive)
REMARK    1  A    between atoms: C4_4  and  C5_5 
REMARK    2  A    between atoms: C5_5  and  C6_6 
REMARK    3  A    between atoms: C6_6  and  C7_7 
REMARK    4  A    between atoms: C7_7  and  C9_9 
ROOT
HETATM    1  C9  UNL     1      -8.726   6.590  13.803  1.00  0.00    -0.002 C 
HETATM    2  C10 UNL     1      -9.107   5.483  12.818  1.00  0.00     0.007 C 
HETATM    3  C11 UNL     1      -7.769   5.036  12.266  1.00  0.00     0.015 C 
HETATM    4  C12 UNL     1      -6.856   4.886  13.510  1.00  0.00    -0.013 C 
HETATM    5  C13 UNL     1      -7.061   3.451  14.066  1.00  0.00     0.021 C 
HETATM    6  C14 UNL     1      -5.358   4.990  13.143  1.00  0.00    -0.070 C 
HETATM    7  C15 UNL     1      -4.887   4.499  11.977  1.00  0.00    -0.022 C 
HETATM    8  C16 UNL     1      -3.445   4.433  11.580  1.00  0.00     0.034 C 
HETATM    9  C17 UNL     1      -2.474   4.697  12.747  1.00  0.00     0.013 C 
HETATM   10  C18 UNL     1      -0.967   4.712  12.303  1.00  0.00     0.018 C 
HETATM   11  C19 UNL     1      -0.700   5.371  10.936  1.00  0.00     0.023 C 
HETATM   12  C20 UNL     1      -0.445   3.260  12.217  1.00  0.00     0.023 C 
HETATM   13  C21 UNL     1      -0.126   5.410  13.373  1.00  0.00     0.135 C 
HETATM   14  O1  UNL     1       0.977   5.900  13.140  1.00  0.00    -0.297 OA
HETATM   15  C22 UNL     1      -0.686   5.401  14.770  1.00  0.00     0.080 C 
HETATM   16  C23 UNL     1      -1.989   6.180  14.812  1.00  0.00     0.017 C 
HETATM   17  C24 UNL     1      -2.955   5.922  13.609  1.00  0.00    -0.031 C 
HETATM   18  C25 UNL     1      -3.009   7.216  12.753  1.00  0.00     0.016 C 
HETATM   19  C26 UNL     1      -4.397   5.564  14.182  1.00  0.00     0.024 C 
HETATM   20  C27 UNL     1      -4.998   6.712  15.026  1.00  0.00     0.010 C 
HETATM   21  C28 UNL     1      -6.359   7.184  14.537  1.00  0.00     0.011 C 
HETATM   22  C29 UNL     1      -7.398   6.037  14.483  1.00  0.00    -0.029 C 
HETATM   23  C30 UNL     1      -7.654   5.512  15.916  1.00  0.00     0.016 C 
ENDROOT
BRANCH   1  24
HETATM   24  C7  UNL     1      -9.916   7.055  14.707  1.00  0.00    -0.014 C 
HETATM   25  C8  UNL     1      -9.789   8.539  15.071  1.00  0.00     0.010 C 
BRANCH  24  26
HETATM   26  C6  UNL     1     -11.287   6.773  14.028  1.00  0.00     0.008 C 
BRANCH  26  27
HETATM   27  C5  UNL     1     -11.837   7.891  13.125  1.00  0.00     0.028 C 
BRANCH  27  28
HETATM   28  C4  UNL     1     -13.310   7.767  12.840  1.00  0.00    -0.025 C 
HETATM   29  C2  UNL     1     -14.181   6.858  13.323  1.00  0.00    -0.091 C 
HETATM   30  C1  UNL     1     -15.629   6.890  12.904  1.00  0.00     0.042 C 
HETATM   31  C3  UNL     1     -13.846   5.752  14.284  1.00  0.00     0.042 C 
ENDBRANCH  27  28
ENDBRANCH  26  27
ENDBRANCH  24  26
ENDBRANCH   1  24
TORSDOF 4
ENDMDL
MODEL 2
REMARK minimizedAffinity -9.15647888
REMARK  4 active torsions:
REMARK  status: ('A' for Active; 'I' for Inactive)
REMARK    1  A    between atoms: C4_4  and  C5_5 
REMARK    2  A    between atoms: C5_5  and  C6_6 
REMARK    3  A    between atoms: C6_6  and  C7_7 
REMARK    4  A    between atoms: C7_7  and  C9_9 
ROOT
HETATM    1  C9  UNL     1      -4.411   7.127  13.787  1.00  0.00    -0.002 C 
HETATM    2  C10 UNL     1      -4.533   5.621  13.546  1.00  0.00     0.007 C 
HETATM    3  C11 UNL     1      -3.313   5.307  12.705  1.00  0.00     0.015 C 
HETATM    4  C12 UNL     1      -2.142   6.032  13.416  1.00  0.00    -0.013 C 
HETATM    5  C13 UNL     1      -1.591   5.071  14.503  1.00  0.00     0.021 C 
HETATM    6  C14 UNL     1      -0.964   6.307  12.454  1.00  0.00    -0.070 C 
HETATM    7  C15 UNL     1      -0.638   5.433  11.479  1.00  0.00    -0.022 C 
HETATM    8  C16 UNL     1       0.555   5.538  10.579  1.00  0.00     0.034 C 
HETATM    9  C17 UNL     1       1.586   6.583  11.046  1.00  0.00     0.013 C 
HETATM   10  C18 UNL     1       2.790   6.746  10.050  1.00  0.00     0.018 C 
HETATM   11  C19 UNL     1       2.413   6.674   8.558  1.00  0.00     0.023 C 
HETATM   12  C20 UNL     1       3.826   5.630  10.312  1.00  0.00     0.023 C 
HETATM   13  C21 UNL     1       3.505   8.071  10.327  1.00  0.00     0.135 C 
HETATM   14  O1  UNL     1       4.212   8.634   9.493  1.00  0.00    -0.297 OA
HETATM   15  C22 UNL     1       3.366   8.624  11.719  1.00  0.00     0.080 C 
HETATM   16  C23 UNL     1       1.912   8.967  11.998  1.00  0.00     0.017 C 
HETATM   17  C24 UNL     1       0.873   7.910  11.497  1.00  0.00    -0.031 C 
HETATM   18  C25 UNL     1       0.079   8.540  10.321  1.00  0.00     0.016 C 
HETATM   19  C26 UNL     1      -0.101   7.542  12.702  1.00  0.00     0.024 C 
HETATM   20  C27 UNL     1      -0.891   8.767  13.216  1.00  0.00     0.010 C 
HETATM   21  C28 UNL     1      -2.400   8.576  13.194  1.00  0.00     0.011 C 
HETATM   22  C29 UNL     1      -2.850   7.340  14.011  1.00  0.00    -0.029 C 
HETATM   23  C30 UNL     1      -2.502   7.559  15.503  1.00  0.00     0.016 C 
ENDROOT
BRANCH   1  24
HETATM   24  C7  UNL     1      -5.422   7.670  14.852  1.00  0.00    -0.014 C 
HETATM   25  C8  UNL     1      -5.234   9.175  15.078  1.00  0.00     0.010 C 
BRANCH  24  26
HETATM   26  C6  UNL     1      -6.892   7.356  14.451  1.00  0.00     0.008 C 
BRANCH  26  27
HETATM   27  C5  UNL     1      -7.618   6.308  15.311  1.00  0.00     0.028 C 
BRANCH  27  28
HETATM   28  C4  UNL     1      -7.448   4.896  14.815  1.00  0.00    -0.025 C 
HETATM   29  C2  UNL     1      -7.821   4.377  13.629  1.00  0.00    -0.091 C 
HETATM   30  C1  UNL     1      -7.573   2.922  13.320  1.00  0.00     0.042 C 
HETATM   31  C3  UNL     1      -8.499   5.131  12.520  1.00  0.00     0.042 C 
ENDBRANCH  27  28
ENDBRANCH  26  27
ENDBRANCH  24  26
ENDBRANCH   1  24
TORSDOF 4
ENDMDL
MODEL 3
REMARK minimizedAffinity -9.09320831
REMARK  4 active torsions:
REMARK  status: ('A' for Active; 'I' for Inactive)
REMARK    1  A    between atoms: C4_4  and  C5_5 
REMARK    2  A    between atoms: C5_5  and  C6_6 
REMARK    3  A    between atoms: C6_6  and  C7_7 
REMARK    4  A    between atoms: C7_7  and  C9_9 
ROOT
HETATM    1  C9  UNL     1      -5.694   6.657  13.516  1.00  0.00    -0.002 C 
HETATM    2  C10 UNL     1      -5.185   7.738  14.472  1.00  0.00     0.007 C 
HETATM    3  C11 UNL     1      -6.444   8.497  14.837  1.00  0.00     0.015 C 
HETATM    4  C12 UNL     1      -7.489   7.400  15.163  1.00  0.00    -0.013 C 
HETATM    5  C13 UNL     1      -7.325   7.031  16.662  1.00  0.00     0.021 C 
HETATM    6  C14 UNL     1      -8.937   7.918  15.009  1.00  0.00    -0.070 C 
HETATM    7  C15 UNL     1      -9.264   9.187  15.330  1.00  0.00    -0.022 C 
HETATM    8  C16 UNL     1     -10.651   9.752  15.340  1.00  0.00     0.034 C 
HETATM    9  C17 UNL     1     -11.752   8.679  15.245  1.00  0.00     0.013 C 
HETATM   10  C18 UNL     1     -13.199   9.288  15.169  1.00  0.00     0.018 C 
HETATM   11  C19 UNL     1     -13.320  10.569  14.322  1.00  0.00     0.023 C 
HETATM   12  C20 UNL     1     -13.683   9.636  16.594  1.00  0.00     0.023 C 
HETATM   13  C21 UNL     1     -14.168   8.233  14.630  1.00  0.00     0.135 C 
HETATM   14  O1  UNL     1     -15.246   8.521  14.112  1.00  0.00    -0.297 OA
HETATM   15  C22 UNL     1     -13.771   6.796  14.836  1.00  0.00     0.080 C 
HETATM   16  C23 UNL     1     -12.494   6.496  14.070  1.00  0.00     0.017 C 
HETATM   17  C24 UNL     1     -11.393   7.604  14.154  1.00  0.00    -0.031 C 
HETATM   18  C25 UNL     1     -11.264   8.258  12.752  1.00  0.00     0.016 C 
HETATM   19  C26 UNL     1     -10.020   6.926  14.588  1.00  0.00     0.024 C 
HETATM   20  C27 UNL     1      -9.538   5.866  13.571  1.00  0.00     0.010 C 
HETATM   21  C28 UNL     1      -8.139   6.123  13.033  1.00  0.00     0.011 C 
HETATM   22  C29 UNL     1      -7.081   6.218  14.161  1.00  0.00    -0.029 C 
HETATM   23  C30 UNL     1      -6.981   4.854  14.883  1.00  0.00     0.016 C 
ENDROOT
BRANCH   1  24
HETATM   24  C7  UNL     1      -4.623   5.566  13.183  1.00  0.00    -0.014 C 
HETATM   25  C8  UNL     1      -3.539   5.504  14.266  1.00  0.00     0.010 C 
BRANCH  24  26
HETATM   26  C6  UNL     1      -5.279   4.169  12.986  1.00  0.00     0.008 C 
BRANCH  26  27
HETATM   27  C5  UNL     1      -5.130   3.543  11.588  1.00  0.00     0.028 C 
BRANCH  27  28
HETATM   28  C4  UNL     1      -4.012   2.540  11.492  1.00  0.00    -0.025 C 
HETATM   29  C2  UNL     1      -2.708   2.765  11.233  1.00  0.00    -0.091 C 
HETATM   30  C1  UNL     1      -1.734   1.616  11.163  1.00  0.00     0.042 C 
HETATM   31  C3  UNL     1      -2.086   4.110  10.988  1.00  0.00     0.042 C 
ENDBRANCH  27  28
ENDBRANCH  26  27
ENDBRANCH  24  26
ENDBRANCH   1  24
TORSDOF 4
ENDMDL
MODEL 4
REMARK minimizedAffinity -8.70481205
REMARK  4 active torsions:
REMARK  status: ('A' for Active; 'I' for Inactive)
REMARK    1  A    between atoms: C4_4  and  C5_5 
REMARK    2  A    between atoms: C5_5  and  C6_6 
REMARK    3  A    between atoms: C6_6  and  C7_7 
REMARK    4  A    between atoms: C7_7  and  C9_9 
ROOT
HETATM    1  C9  UNL     1       0.906   8.995  13.220  1.00  0.00    -0.002 C 
HETATM    2  C10 UNL     1       1.043   9.705  14.568  1.00  0.00     0.007 C 
HETATM    3  C11 UNL     1      -0.362   9.647  15.133  1.00  0.00     0.015 C 
HETATM    4  C12 UNL     1      -0.821   8.183  14.907  1.00  0.00    -0.013 C 
HETATM    5  C13 UNL     1      -0.339   7.352  16.126  1.00  0.00     0.021 C 
HETATM    6  C14 UNL     1      -2.361   8.058  14.889  1.00  0.00    -0.070 C 
HETATM    7  C15 UNL     1      -3.136   8.824  15.685  1.00  0.00    -0.022 C 
HETATM    8  C16 UNL     1      -4.620   8.697  15.839  1.00  0.00     0.034 C 
HETATM    9  C17 UNL     1      -5.190   7.399  15.237  1.00  0.00     0.013 C 
HETATM   10  C18 UNL     1      -6.757   7.316  15.327  1.00  0.00     0.018 C 
HETATM   11  C19 UNL     1      -7.492   8.647  15.082  1.00  0.00     0.023 C 
HETATM   12  C20 UNL     1      -7.163   6.824  16.734  1.00  0.00     0.023 C 
HETATM   13  C21 UNL     1      -7.269   6.266  14.339  1.00  0.00     0.135 C 
HETATM   14  O1  UNL     1      -8.425   6.254  13.919  1.00  0.00    -0.297 OA
HETATM   15  C22 UNL     1      -6.299   5.181  13.957  1.00  0.00     0.080 C 
HETATM   16  C23 UNL     1      -5.115   5.781  13.219  1.00  0.00     0.017 C 
HETATM   17  C24 UNL     1      -4.560   7.112  13.825  1.00  0.00    -0.031 C 
HETATM   18  C25 UNL     1      -4.881   8.261  12.831  1.00  0.00     0.016 C 
HETATM   19  C26 UNL     1      -2.988   6.964  14.026  1.00  0.00     0.024 C 
HETATM   20  C27 UNL     1      -2.244   6.711  12.695  1.00  0.00     0.010 C 
HETATM   21  C28 UNL     1      -1.148   7.726  12.403  1.00  0.00     0.011 C 
HETATM   22  C29 UNL     1      -0.092   7.796  13.534  1.00  0.00    -0.029 C 
HETATM   23  C30 UNL     1       0.643   6.437  13.631  1.00  0.00     0.016 C 
ENDROOT
BRANCH   1  24
HETATM   24  C7  UNL     1       2.280   8.691  12.534  1.00  0.00    -0.014 C 
HETATM   25  C8  UNL     1       3.253   8.023  13.513  1.00  0.00     0.010 C 
BRANCH  24  26
HETATM   26  C6  UNL     1       2.096   7.814  11.262  1.00  0.00     0.008 C 
BRANCH  26  27
HETATM   27  C5  UNL     1       3.135   8.017  10.145  1.00  0.00     0.028 C 
BRANCH  27  28
HETATM   28  C4  UNL     1       2.543   8.006   8.760  1.00  0.00    -0.025 C 
HETATM   29  C2  UNL     1       2.449   6.973   7.900  1.00  0.00    -0.091 C 
HETATM   30  C1  UNL     1       1.829   7.165   6.540  1.00  0.00     0.042 C 
HETATM   31  C3  UNL     1       2.925   5.572   8.163  1.00  0.00     0.042 C 
ENDBRANCH  27  28
ENDBRANCH  26  27
ENDBRANCH  24  26
ENDBRANCH   1  24
TORSDOF 4
ENDMDL
MODEL 5
REMARK minimizedAffinity -8.62625408
REMARK  4 active torsions:
REMARK  status: ('A' for Active; 'I' for Inactive)
REMARK    1  A    between atoms: C4_4  and  C5_5 
REMARK    2  A    between atoms: C5_5  and  C6_6 
REMARK    3  A    between atoms: C6_6  and  C7_7 
REMARK    4  A    between atoms: C7_7  and  C9_9 
ROOT
HETATM    1  C9  UNL     1       0.192   4.906  12.236  1.00  0.00    -0.002 C 
HETATM    2  C10 UNL     1      -0.346   5.429  13.570  1.00  0.00     0.007 C 
HETATM    3  C11 UNL     1       0.768   6.331  14.061  1.00  0.00     0.015 C 
HETATM    4  C12 UNL     1       1.160   7.186  12.828  1.00  0.00    -0.013 C 
HETATM    5  C13 UNL     1       0.223   8.423  12.804  1.00  0.00     0.021 C 
HETATM    6  C14 UNL     1       2.597   7.743  12.946  1.00  0.00    -0.070 C 
HETATM    7  C15 UNL     1       3.107   8.120  14.137  1.00  0.00    -0.022 C 
HETATM    8  C16 UNL     1       4.432   8.786  14.345  1.00  0.00     0.034 C 
HETATM    9  C17 UNL     1       5.071   9.302  13.042  1.00  0.00     0.013 C 
HETATM   10  C18 UNL     1       6.498   9.921  13.260  1.00  0.00     0.018 C 
HETATM   11  C19 UNL     1       7.376   9.183  14.289  1.00  0.00     0.023 C 
HETATM   12  C20 UNL     1       6.354  11.380  13.748  1.00  0.00     0.023 C 
HETATM   13  C21 UNL     1       7.236   9.986  11.921  1.00  0.00     0.135 C 
HETATM   14  O1  UNL     1       8.462  10.056  11.838  1.00  0.00    -0.297 OA
HETATM   15  C22 UNL     1       6.376  10.040  10.688  1.00  0.00     0.080 C 
HETATM   16  C23 UNL     1       5.570   8.759  10.561  1.00  0.00     0.017 C 
HETATM   17  C24 UNL     1       4.946   8.232  11.896  1.00  0.00    -0.031 C 
HETATM   18  C25 UNL     1       5.680   6.919  12.281  1.00  0.00     0.016 C 
HETATM   19  C26 UNL     1       3.395   7.963  11.662  1.00  0.00     0.024 C 
HETATM   20  C27 UNL     1       3.139   6.895  10.573  1.00  0.00     0.010 C 
HETATM   21  C28 UNL     1       2.295   5.723  11.050  1.00  0.00     0.011 C 
HETATM   22  C29 UNL     1       0.922   6.173  11.610  1.00  0.00    -0.029 C 
HETATM   23  C30 UNL     1       0.094   6.819  10.473  1.00  0.00     0.016 C 
ENDROOT
BRANCH   1  24
HETATM   24  C7  UNL     1      -0.880   4.141  11.390  1.00  0.00    -0.014 C 
HETATM   25  C8  UNL     1      -0.643   2.627  11.431  1.00  0.00     0.010 C 
BRANCH  24  26
HETATM   26  C6  UNL     1      -2.323   4.481  11.863  1.00  0.00     0.008 C 
BRANCH  26  27
HETATM   27  C5  UNL     1      -3.442   3.568  11.332  1.00  0.00     0.028 C 
BRANCH  27  28
HETATM   28  C4  UNL     1      -4.740   3.705  12.082  1.00  0.00    -0.025 C 
HETATM   29  C2  UNL     1      -5.818   2.898  12.040  1.00  0.00    -0.091 C 
HETATM   30  C1  UNL     1      -7.042   3.214  12.861  1.00  0.00     0.042 C 
HETATM   31  C3  UNL     1      -5.942   1.648  11.214  1.00  0.00     0.042 C 
ENDBRANCH  27  28
ENDBRANCH  26  27
ENDBRANCH  24  26
ENDBRANCH   1  24
TORSDOF 4
ENDMDL
MODEL 6
REMARK minimizedAffinity -8.62280273
REMARK  4 active torsions:
REMARK  status: ('A' for Active; 'I' for Inactive)
REMARK    1  A    between atoms: C4_4  and  C5_5 
REMARK    2  A    between atoms: C5_5  and  C6_6 
REMARK    3  A    between atoms: C6_6  and  C7_7 
REMARK    4  A    between atoms: C7_7  and  C9_9 
ROOT
HETATM    1  C9  UNL     1      -2.802   8.690  15.610  1.00  0.00    -0.002 C 
HETATM    2  C10 UNL     1      -1.696   8.549  16.659  1.00  0.00     0.007 C 
HETATM    3  C11 UNL     1      -0.518   8.043  15.852  1.00  0.00     0.015 C 
HETATM    4  C12 UNL     1      -0.482   8.946  14.592  1.00  0.00    -0.013 C 
HETATM    5  C13 UNL     1       0.354  10.205  14.947  1.00  0.00     0.021 C 
HETATM    6  C14 UNL     1       0.254   8.265  13.416  1.00  0.00    -0.070 C 
HETATM    7  C15 UNL     1       1.322   7.467  13.625  1.00  0.00    -0.022 C 
HETATM    8  C16 UNL     1       2.180   6.863  12.557  1.00  0.00     0.034 C 
HETATM    9  C17 UNL     1       1.942   7.471  11.162  1.00  0.00     0.013 C 
HETATM   10  C18 UNL     1       2.784   6.772  10.034  1.00  0.00     0.018 C 
HETATM   11  C19 UNL     1       2.919   5.244  10.178  1.00  0.00     0.023 C 
HETATM   12  C20 UNL     1       4.214   7.357  10.027  1.00  0.00     0.023 C 
HETATM   13  C21 UNL     1       2.178   7.099   8.668  1.00  0.00     0.135 C 
HETATM   14  O1  UNL     1       2.375   6.409   7.669  1.00  0.00    -0.297 OA
HETATM   15  C22 UNL     1       1.379   8.371   8.581  1.00  0.00     0.080 C 
HETATM   16  C23 UNL     1       0.154   8.276   9.473  1.00  0.00     0.017 C 
HETATM   17  C24 UNL     1       0.403   7.635  10.878  1.00  0.00    -0.031 C 
HETATM   18  C25 UNL     1      -0.316   6.259  10.911  1.00  0.00     0.016 C 
HETATM   19  C26 UNL     1      -0.186   8.606  11.993  1.00  0.00     0.024 C 
HETATM   20  C27 UNL     1      -1.710   8.821  11.843  1.00  0.00     0.010 C 
HETATM   21  C28 UNL     1      -2.505   8.465  13.089  1.00  0.00     0.011 C 
HETATM   22  C29 UNL     1      -2.033   9.253  14.336  1.00  0.00    -0.029 C 
HETATM   23  C30 UNL     1      -2.297  10.762  14.117  1.00  0.00     0.016 C 
ENDROOT
BRANCH   1  24
HETATM   24  C7  UNL     1      -4.068   9.443  16.138  1.00  0.00    -0.014 C 
HETATM   25  C8  UNL     1      -3.893  10.963  16.035  1.00  0.00     0.010 C 
BRANCH  24  26
HETATM   26  C6  UNL     1      -5.352   8.989  15.387  1.00  0.00     0.008 C 
BRANCH  26  27
HETATM   27  C5  UNL     1      -5.498   7.475  15.151  1.00  0.00     0.028 C 
BRANCH  27  28
HETATM   28  C4  UNL     1      -6.645   7.113  14.245  1.00  0.00    -0.025 C 
HETATM   29  C2  UNL     1      -6.828   5.977  13.544  1.00  0.00    -0.091 C 
HETATM   30  C1  UNL     1      -8.047   5.805  12.673  1.00  0.00     0.042 C 
HETATM   31  C3  UNL     1      -5.896   4.798  13.530  1.00  0.00     0.042 C 
ENDBRANCH  27  28
ENDBRANCH  26  27
ENDBRANCH  24  26
ENDBRANCH   1  24
TORSDOF 4
ENDMDL
MODEL 7
REMARK minimizedAffinity -8.5368185
REMARK  4 active torsions:
REMARK  status: ('A' for Active; 'I' for Inactive)
REMARK    1  A    between atoms: C4_4  and  C5_5 
REMARK    2  A    between atoms: C5_5  and  C6_6 
REMARK    3  A    between atoms: C6_6  and  C7_7 
REMARK    4  A    between atoms: C7_7  and  C9_9 
ROOT
HETATM    1  C9  UNL     1      -4.760   8.365  14.759  1.00  0.00    -0.002 C 
HETATM    2  C10 UNL     1      -4.949   8.267  13.244  1.00  0.00     0.007 C 
HETATM    3  C11 UNL     1      -3.543   8.446  12.709  1.00  0.00     0.015 C 
HETATM    4  C12 UNL     1      -2.663   7.520  13.587  1.00  0.00    -0.013 C 
HETATM    5  C13 UNL     1      -2.685   6.108  12.943  1.00  0.00     0.021 C 
HETATM    6  C14 UNL     1      -1.182   7.962  13.589  1.00  0.00    -0.070 C 
HETATM    7  C15 UNL     1      -0.606   8.485  12.486  1.00  0.00    -0.022 C 
HETATM    8  C16 UNL     1       0.845   8.826  12.340  1.00  0.00     0.034 C 
HETATM    9  C17 UNL     1       1.727   8.249  13.463  1.00  0.00     0.013 C 
HETATM   10  C18 UNL     1       3.233   8.685  13.348  1.00  0.00     0.018 C 
HETATM   11  C19 UNL     1       3.454  10.138  12.888  1.00  0.00     0.023 C 
HETATM   12  C20 UNL     1       3.954   7.771  12.332  1.00  0.00     0.023 C 
HETATM   13  C21 UNL     1       3.930   8.470  14.693  1.00  0.00     0.135 C 
HETATM   14  O1  UNL     1       4.962   9.058  15.010  1.00  0.00    -0.297 OA
HETATM   15  C22 UNL     1       3.328   7.427  15.596  1.00  0.00     0.080 C 
HETATM   16  C23 UNL     1       1.929   7.846  16.011  1.00  0.00     0.017 C 
HETATM   17  C24 UNL     1       1.051   8.454  14.868  1.00  0.00    -0.031 C 
HETATM   18  C25 UNL     1       0.848   9.963  15.171  1.00  0.00     0.016 C 
HETATM   19  C26 UNL     1      -0.347   7.692  14.839  1.00  0.00     0.024 C 
HETATM   20  C27 UNL     1      -1.131   7.848  16.163  1.00  0.00     0.010 C 
HETATM   21  C28 UNL     1      -2.526   8.427  15.984  1.00  0.00     0.011 C 
HETATM   22  C29 UNL     1      -3.393   7.590  15.011  1.00  0.00    -0.029 C 
HETATM   23  C30 UNL     1      -3.624   6.184  15.614  1.00  0.00     0.016 C 
ENDROOT
BRANCH   1  24
HETATM   24  C7  UNL     1      -6.034   7.958  15.572  1.00  0.00    -0.014 C 
HETATM   25  C8  UNL     1      -7.273   8.713  15.075  1.00  0.00     0.010 C 
BRANCH  24  26
HETATM   26  C6  UNL     1      -6.273   6.422  15.522  1.00  0.00     0.008 C 
BRANCH  26  27
HETATM   27  C5  UNL     1      -7.126   5.908  14.349  1.00  0.00     0.028 C 
BRANCH  27  28
HETATM   28  C4  UNL     1      -6.332   5.176  13.299  1.00  0.00    -0.025 C 
HETATM   29  C2  UNL     1      -6.530   3.933  12.818  1.00  0.00    -0.091 C 
HETATM   30  C1  UNL     1      -5.610   3.365  11.767  1.00  0.00     0.042 C 
HETATM   31  C3  UNL     1      -7.628   2.997  13.241  1.00  0.00     0.042 C 
ENDBRANCH  27  28
ENDBRANCH  26  27
ENDBRANCH  24  26
ENDBRANCH   1  24
TORSDOF 4
ENDMDL
MODEL 8
REMARK minimizedAffinity -8.5277977
REMARK  4 active torsions:
REMARK  status: ('A' for Active; 'I' for Inactive)
REMARK    1  A    between atoms: C4_4  and  C5_5 
REMARK    2  A    between atoms: C5_5  and  C6_6 
REMARK    3  A    between atoms: C6_6  and  C7_7 
REMARK    4  A    between atoms: C7_7  and  C9_9 
ROOT
HETATM    1  C9  UNL     1      -3.520   5.220  12.294  1.00  0.00    -0.002 C 
HETATM    2  C10 UNL     1      -3.166   3.956  11.508  1.00  0.00     0.007 C 
HETATM    3  C11 UNL     1      -1.759   4.234  11.022  1.00  0.00     0.015 C 
HETATM    4  C12 UNL     1      -1.011   4.784  12.263  1.00  0.00    -0.013 C 
HETATM    5  C13 UNL     1      -0.456   3.565  13.048  1.00  0.00     0.021 C 
HETATM    6  C14 UNL     1       0.220   5.630  11.866  1.00  0.00    -0.070 C 
HETATM    7  C15 UNL     1       0.972   5.313  10.792  1.00  0.00    -0.022 C 
HETATM    8  C16 UNL     1       2.250   5.985  10.395  1.00  0.00     0.034 C 
HETATM    9  C17 UNL     1       2.830   6.898  11.491  1.00  0.00     0.013 C 
HETATM   10  C18 UNL     1       4.123   7.665  11.033  1.00  0.00     0.018 C 
HETATM   11  C19 UNL     1       4.101   8.159   9.574  1.00  0.00     0.023 C 
HETATM   12  C20 UNL     1       5.348   6.735  11.180  1.00  0.00     0.023 C 
HETATM   13  C21 UNL     1       4.368   8.853  11.965  1.00  0.00     0.135 C 
HETATM   14  O1  UNL     1       5.050   9.824  11.641  1.00  0.00    -0.297 OA
HETATM   15  C22 UNL     1       3.793   8.743  13.351  1.00  0.00     0.080 C 
HETATM   16  C23 UNL     1       2.277   8.685  13.279  1.00  0.00     0.017 C 
HETATM   17  C24 UNL     1       1.699   7.774  12.146  1.00  0.00    -0.031 C 
HETATM   18  C25 UNL     1       1.027   8.692  11.090  1.00  0.00     0.016 C 
HETATM   19  C26 UNL     1       0.635   6.777  12.786  1.00  0.00     0.024 C 
HETATM   20  C27 UNL     1      -0.553   7.521  13.437  1.00  0.00     0.010 C 
HETATM   21  C28 UNL     1      -1.911   7.103  12.893  1.00  0.00     0.011 C 
HETATM   22  C29 UNL     1      -2.162   5.582  13.040  1.00  0.00    -0.029 C 
HETATM   23  C30 UNL     1      -2.208   5.215  14.543  1.00  0.00     0.016 C 
ENDROOT
BRANCH   1  24
HETATM   24  C7  UNL     1      -4.841   5.088  13.123  1.00  0.00    -0.014 C 
HETATM   25  C8  UNL     1      -5.379   6.465  13.531  1.00  0.00     0.010 C 
BRANCH  24  26
HETATM   26  C6  UNL     1      -5.922   4.288  12.342  1.00  0.00     0.008 C 
BRANCH  26  27
HETATM   27  C5  UNL     1      -7.068   3.699  13.185  1.00  0.00     0.028 C 
BRANCH  27  28
HETATM   28  C4  UNL     1      -8.030   4.734  13.702  1.00  0.00    -0.025 C 
HETATM   29  C2  UNL     1      -8.782   5.602  12.997  1.00  0.00    -0.091 C 
HETATM   30  C1  UNL     1      -9.684   6.582  13.704  1.00  0.00     0.042 C 
HETATM   31  C3  UNL     1      -8.819   5.709  11.498  1.00  0.00     0.042 C 
ENDBRANCH  27  28
ENDBRANCH  26  27
ENDBRANCH  24  26
ENDBRANCH   1  24
TORSDOF 4
ENDMDL
MODEL 9
REMARK minimizedAffinity -8.44555664
REMARK  4 active torsions:
REMARK  status: ('A' for Active; 'I' for Inactive)
REMARK    1  A    between atoms: C4_4  and  C5_5 
REMARK    2  A    between atoms: C5_5  and  C6_6 
REMARK    3  A    between atoms: C6_6  and  C7_7 
REMARK    4  A    between atoms: C7_7  and  C9_9 
ROOT
HETATM    1  C9  UNL     1      -3.375   7.539  15.030  1.00  0.00    -0.002 C 
HETATM    2  C10 UNL     1      -2.940   8.542  16.101  1.00  0.00     0.007 C 
HETATM    3  C11 UNL     1      -1.473   8.760  15.794  1.00  0.00     0.015 C 
HETATM    4  C12 UNL     1      -1.415   8.970  14.259  1.00  0.00    -0.013 C 
HETATM    5  C13 UNL     1      -1.655  10.480  13.987  1.00  0.00     0.021 C 
HETATM    6  C14 UNL     1      -0.015   8.653  13.685  1.00  0.00    -0.070 C 
HETATM    7  C15 UNL     1       1.107   8.930  14.382  1.00  0.00    -0.022 C 
HETATM    8  C16 UNL     1       2.507   8.782  13.872  1.00  0.00     0.034 C 
HETATM    9  C17 UNL     1       2.586   8.568  12.349  1.00  0.00     0.013 C 
HETATM   10  C18 UNL     1       4.052   8.327  11.837  1.00  0.00     0.018 C 
HETATM   11  C19 UNL     1       4.931   7.467  12.765  1.00  0.00     0.023 C 
HETATM   12  C20 UNL     1       4.764   9.687  11.667  1.00  0.00     0.023 C 
HETATM   13  C21 UNL     1       4.008   7.687  10.448  1.00  0.00     0.135 C 
HETATM   14  O1  UNL     1       4.950   7.050   9.977  1.00  0.00    -0.297 OA
HETATM   15  C22 UNL     1       2.768   7.942   9.635  1.00  0.00     0.080 C 
HETATM   16  C23 UNL     1       1.562   7.326  10.323  1.00  0.00     0.017 C 
HETATM   17  C24 UNL     1       1.505   7.528  11.873  1.00  0.00    -0.031 C 
HETATM   18  C25 UNL     1       1.730   6.147  12.545  1.00  0.00     0.016 C 
HETATM   19  C26 UNL     1       0.077   8.117  12.258  1.00  0.00     0.024 C 
HETATM   20  C27 UNL     1      -1.077   7.165  11.869  1.00  0.00     0.010 C 
HETATM   21  C28 UNL     1      -1.979   6.786  13.035  1.00  0.00     0.011 C 
HETATM   22  C29 UNL     1      -2.595   8.025  13.731  1.00  0.00    -0.029 C 
HETATM   23  C30 UNL     1      -3.525   8.760  12.736  1.00  0.00     0.016 C 
ENDROOT
BRANCH   1  24
HETATM   24  C7  UNL     1      -4.925   7.332  14.963  1.00  0.00    -0.014 C 
HETATM   25  C8  UNL     1      -5.669   8.666  15.105  1.00  0.00     0.010 C 
BRANCH  24  26
HETATM   26  C6  UNL     1      -5.344   6.609  13.651  1.00  0.00     0.008 C 
BRANCH  26  27
HETATM   27  C5  UNL     1      -5.940   5.200  13.816  1.00  0.00     0.028 C 
BRANCH  27  28
HETATM   28  C4  UNL     1      -5.548   4.247  12.719  1.00  0.00    -0.025 C 
HETATM   29  C2  UNL     1      -6.198   3.142  12.300  1.00  0.00    -0.091 C 
HETATM   30  C1  UNL     1      -5.634   2.301  11.184  1.00  0.00     0.042 C 
HETATM   31  C3  UNL     1      -7.495   2.628  12.859  1.00  0.00     0.042 C 
ENDBRANCH  27  28
ENDBRANCH  26  27
ENDBRANCH  24  26
ENDBRANCH   1  24
TORSDOF 4
ENDMDL
