MODEL 1
REMARK minimizedAffinity -7.76586342
REMARK CNNscore 0.746879935
REMARK CNNaffinity 6.51594496
REMARK  11 active torsions:
REMARK  status: ('A' for Active; 'I' for Inactive)
REMARK    1  A    between atoms: C2_2  and  C3_3 
REMARK    2  A    between atoms: C3_3  and  C4_4 
REMARK    3  A    between atoms: C4_4  and  C6_6 
REMARK    4  A    between atoms: C9_9  and  O1_10 
REMARK    5  A    between atoms: C15_16  and  O2_17 
REMARK    6  A    between atoms: O2_17  and  C16_18 
REMARK    7  A    between atoms: C17_20  and  C18_21 
REMARK    8  A    between atoms: C18_21  and  O4_22 
REMARK    9  A    between atoms: C19_23  and  O5_24 
REMARK   10  A    between atoms: C20_25  and  O6_26 
REMARK   11  A    between atoms: C21_27  and  O7_28 
ROOT
HETATM    1  C6  UNL     1      -1.470  53.017 -10.574  1.00  0.00     0.000 C 
HETATM    2  C7  UNL     1      -0.931  51.636 -11.046  1.00  0.00     0.009 C 
HETATM    3  C8  UNL     1       0.606  51.675 -10.972  1.00  0.00     0.039 C 
HETATM    4  C9  UNL     1       0.920  53.142 -10.715  1.00  0.00     0.070 C 
HETATM    5  C10 UNL     1       2.345  53.519 -10.269  1.00  0.00     0.030 C 
HETATM    6  C11 UNL     1       3.015  52.646  -9.204  1.00  0.00     0.009 C 
HETATM    7  C12 UNL     1       4.440  53.099  -8.840  1.00  0.00     0.006 C 
HETATM    8  C13 UNL     1       4.919  54.400  -9.517  1.00  0.00    -0.003 C 
HETATM    9  C14 UNL     1       6.222  54.915  -8.894  1.00  0.00     0.037 C 
HETATM   10  C15 UNL     1       6.052  55.369  -7.436  1.00  0.00     0.125 C 
HETATM   11  C22 UNL     1       4.717  56.091  -7.196  1.00  0.00     0.033 C 
HETATM   12  C23 UNL     1       4.089  56.607  -8.488  1.00  0.00     0.013 C 
HETATM   13  C24 UNL     1       3.838  55.483  -9.482  1.00  0.00    -0.028 A 
HETATM   14  C25 UNL     1       3.210  55.915 -10.791  1.00  0.00     0.021 A 
HETATM   15  C26 UNL     1       2.426  55.007  -9.872  1.00  0.00    -0.025 A 
HETATM   16  C27 UNL     1       1.221  55.593  -9.148  1.00  0.00     0.012 C 
HETATM   17  C28 UNL     1      -0.148  55.132  -9.682  1.00  0.00     0.013 C 
HETATM   18  C29 UNL     1      -0.242  53.597  -9.778  1.00  0.00    -0.009 C 
HETATM   19  C30 UNL     1      -0.217  52.989  -8.355  1.00  0.00     0.019 C 
ENDROOT
BRANCH  10  20
HETATM   20  O2  UNL     1       7.156  56.239  -7.150  1.00  0.00    -0.353 OA
BRANCH  20  21
HETATM   21  C16 UNL     1       7.066  56.871  -5.857  1.00  0.00     0.292 C 
HETATM   22  O3  UNL     1       7.073  58.287  -6.017  1.00  0.00    -0.348 OA
HETATM   23  C17 UNL     1       7.623  59.048  -4.932  1.00  0.00     0.179 C 
HETATM   24  C19 UNL     1       9.090  58.656  -4.633  1.00  0.00     0.180 C 
HETATM   25  C20 UNL     1       9.438  57.265  -5.175  1.00  0.00     0.183 C 
HETATM   26  C21 UNL     1       8.252  56.327  -5.027  1.00  0.00     0.204 C 
BRANCH  23  27
HETATM   27  C18 UNL     1       6.698  58.974  -3.701  1.00  0.00     0.198 C 
BRANCH  27  28
HETATM   28  O4  UNL     1       5.394  59.449  -3.998  1.00  0.00    -0.398 OA
HETATM   29  H31 UNL     1       4.834  59.275  -3.222  1.00  0.00     0.209 HD
ENDBRANCH  27  28
ENDBRANCH  23  27
BRANCH  24  30
HETATM   30  O5  UNL     1       9.990  59.591  -5.260  1.00  0.00    -0.390 OA
HETATM   31  H33 UNL     1      10.888  59.271  -5.054  1.00  0.00     0.210 HD
ENDBRANCH  24  30
BRANCH  25  32
HETATM   32  O6  UNL     1      10.571  56.750  -4.453  1.00  0.00    -0.390 OA
HETATM   33  H35 UNL     1      10.565  55.786  -4.624  1.00  0.00     0.210 HD
ENDBRANCH  25  32
BRANCH  26  34
HETATM   34  O7  UNL     1       8.634  55.002  -5.435  1.00  0.00    -0.388 OA
HETATM   35  H37 UNL     1       8.415  54.963  -6.391  1.00  0.00     0.210 HD
ENDBRANCH  26  34
ENDBRANCH  20  21
ENDBRANCH  10  20
BRANCH   4  36
HETATM   36  O1  UNL     1       0.737  53.798 -12.003  1.00  0.00    -0.389 OA
HETATM   37  H17 UNL     1       1.442  53.496 -12.602  1.00  0.00     0.210 HD
ENDBRANCH   4  36
BRANCH   1  38
HETATM   38  C4  UNL     1      -2.871  52.918  -9.895  1.00  0.00    -0.014 C 
HETATM   39  C5  UNL     1      -3.921  53.751 -10.647  1.00  0.00     0.010 C 
BRANCH  38  40
HETATM   40  C3  UNL     1      -3.409  51.457  -9.834  1.00  0.00     0.004 C 
BRANCH  40  41
HETATM   41  C2  UNL     1      -4.609  51.095 -10.716  1.00  0.00    -0.004 C 
HETATM   42  C1  UNL     1      -5.536  50.054 -10.105  1.00  0.00     0.005 C 
ENDBRANCH  40  41
ENDBRANCH  38  40
ENDBRANCH   1  38
TORSDOF 11
ENDMDL
MODEL 2
REMARK minimizedAffinity -7.65020704
REMARK CNNscore 0.48005712
REMARK CNNaffinity 6.01059008
REMARK  11 active torsions:
REMARK  status: ('A' for Active; 'I' for Inactive)
REMARK    1  A    between atoms: C2_2  and  C3_3 
REMARK    2  A    between atoms: C3_3  and  C4_4 
REMARK    3  A    between atoms: C4_4  and  C6_6 
REMARK    4  A    between atoms: C9_9  and  O1_10 
REMARK    5  A    between atoms: C15_16  and  O2_17 
REMARK    6  A    between atoms: O2_17  and  C16_18 
REMARK    7  A    between atoms: C17_20  and  C18_21 
REMARK    8  A    between atoms: C18_21  and  O4_22 
REMARK    9  A    between atoms: C19_23  and  O5_24 
REMARK   10  A    between atoms: C20_25  and  O6_26 
REMARK   11  A    between atoms: C21_27  and  O7_28 
ROOT
HETATM    1  C6  UNL     1       5.458  57.513  -6.029  1.00  0.00     0.000 C 
HETATM    2  C7  UNL     1       4.204  58.186  -5.399  1.00  0.00     0.009 C 
HETATM    3  C8  UNL     1       2.979  57.797  -6.246  1.00  0.00     0.039 C 
HETATM    4  C9  UNL     1       3.584  57.135  -7.476  1.00  0.00     0.070 C 
HETATM    5  C10 UNL     1       2.656  56.334  -8.408  1.00  0.00     0.030 C 
HETATM    6  C11 UNL     1       1.629  55.399  -7.761  1.00  0.00     0.009 C 
HETATM    7  C12 UNL     1       0.743  54.657  -8.777  1.00  0.00     0.006 C 
HETATM    8  C13 UNL     1       1.093  54.889 -10.262  1.00  0.00    -0.003 C 
HETATM    9  C14 UNL     1       0.348  53.911 -11.178  1.00  0.00     0.037 C 
HETATM   10  C15 UNL     1       0.786  52.451 -10.981  1.00  0.00     0.125 C 
HETATM   11  C22 UNL     1       2.297  52.317 -10.737  1.00  0.00     0.033 C 
HETATM   12  C23 UNL     1       3.077  53.545 -11.199  1.00  0.00     0.013 C 
HETATM   13  C24 UNL     1       2.603  54.811 -10.501  1.00  0.00    -0.028 A 
HETATM   14  C25 UNL     1       3.333  56.076 -10.904  1.00  0.00     0.021 A 
HETATM   15  C26 UNL     1       3.465  55.581  -9.483  1.00  0.00    -0.025 A 
HETATM   16  C27 UNL     1       4.803  54.995  -9.052  1.00  0.00     0.012 C 
HETATM   17  C28 UNL     1       5.635  55.888  -8.114  1.00  0.00     0.013 C 
HETATM   18  C29 UNL     1       4.816  56.370  -6.900  1.00  0.00    -0.009 C 
HETATM   19  C30 UNL     1       4.477  55.161  -5.995  1.00  0.00     0.019 C 
ENDROOT
BRANCH  10  20
HETATM   20  O2  UNL     1       0.402  51.746 -12.170  1.00  0.00    -0.353 OA
BRANCH  20  21
HETATM   21  C16 UNL     1      -0.812  52.246 -12.765  1.00  0.00     0.292 C 
HETATM   22  O3  UNL     1      -1.936  51.750 -12.043  1.00  0.00    -0.348 OA
HETATM   23  C17 UNL     1      -3.149  51.582 -12.790  1.00  0.00     0.179 C 
HETATM   24  C19 UNL     1      -2.965  50.618 -13.987  1.00  0.00     0.180 C 
HETATM   25  C20 UNL     1      -1.494  50.481 -14.397  1.00  0.00     0.183 C 
HETATM   26  C21 UNL     1      -0.777  51.812 -14.248  1.00  0.00     0.204 C 
BRANCH  23  27
HETATM   27  C18 UNL     1      -3.733  52.954 -13.182  1.00  0.00     0.198 C 
BRANCH  27  28
HETATM   28  O4  UNL     1      -3.860  53.809 -12.057  1.00  0.00    -0.398 OA
HETATM   29  H31 UNL     1      -4.125  54.687 -12.381  1.00  0.00     0.209 HD
ENDBRANCH  27  28
ENDBRANCH  23  27
BRANCH  24  30
HETATM   30  O5  UNL     1      -3.432  49.300 -13.637  1.00  0.00    -0.390 OA
HETATM   31  H33 UNL     1      -3.263  48.745 -14.421  1.00  0.00     0.210 HD
ENDBRANCH  24  30
BRANCH  25  32
HETATM   32  O6  UNL     1      -1.428  50.031 -15.761  1.00  0.00    -0.390 OA
HETATM   33  H35 UNL     1      -0.517  50.238 -16.054  1.00  0.00     0.210 HD
ENDBRANCH  25  32
BRANCH  26  34
HETATM   34  O7  UNL     1       0.568  51.690 -14.744  1.00  0.00    -0.388 OA
HETATM   35  H37 UNL     1       1.099  51.432 -13.959  1.00  0.00     0.210 HD
ENDBRANCH  26  34
ENDBRANCH  20  21
ENDBRANCH  10  20
BRANCH   4  36
HETATM   36  O1  UNL     1       4.083  58.236  -8.290  1.00  0.00    -0.389 OA
HETATM   37  H17 UNL     1       3.320  58.736  -8.628  1.00  0.00     0.210 HD
ENDBRANCH   4  36
BRANCH   1  38
HETATM   38  C4  UNL     1       6.556  57.175  -4.974  1.00  0.00    -0.014 C 
HETATM   39  C5  UNL     1       7.832  56.637  -5.641  1.00  0.00     0.010 C 
BRANCH  38  40
HETATM   40  C3  UNL     1       6.973  58.410  -4.122  1.00  0.00     0.004 C 
BRANCH  40  41
HETATM   41  C2  UNL     1       7.744  59.537  -4.820  1.00  0.00    -0.004 C 
HETATM   42  C1  UNL     1       8.796  60.203  -3.945  1.00  0.00     0.005 C 
ENDBRANCH  40  41
ENDBRANCH  38  40
ENDBRANCH   1  38
TORSDOF 11
ENDMDL
MODEL 3
REMARK minimizedAffinity -7.4776721
REMARK CNNscore 0.470410913
REMARK CNNaffinity 5.61953497
REMARK  11 active torsions:
REMARK  status: ('A' for Active; 'I' for Inactive)
REMARK    1  A    between atoms: C2_2  and  C3_3 
REMARK    2  A    between atoms: C3_3  and  C4_4 
REMARK    3  A    between atoms: C4_4  and  C6_6 
REMARK    4  A    between atoms: C9_9  and  O1_10 
REMARK    5  A    between atoms: C15_16  and  O2_17 
REMARK    6  A    between atoms: O2_17  and  C16_18 
REMARK    7  A    between atoms: C17_20  and  C18_21 
REMARK    8  A    between atoms: C18_21  and  O4_22 
REMARK    9  A    between atoms: C19_23  and  O5_24 
REMARK   10  A    between atoms: C20_25  and  O6_26 
REMARK   11  A    between atoms: C21_27  and  O7_28 
ROOT
HETATM    1  C6  UNL     1       6.567  66.115 -14.571  1.00  0.00     0.000 C 
HETATM    2  C7  UNL     1       6.111  64.800 -13.874  1.00  0.00     0.009 C 
HETATM    3  C8  UNL     1       7.370  64.039 -13.422  1.00  0.00     0.039 C 
HETATM    4  C9  UNL     1       8.510  64.793 -14.092  1.00  0.00     0.070 C 
HETATM    5  C10 UNL     1       9.949  64.514 -13.621  1.00  0.00     0.030 C 
HETATM    6  C11 UNL     1      10.201  64.415 -12.113  1.00  0.00     0.009 C 
HETATM    7  C12 UNL     1      11.667  64.121 -11.749  1.00  0.00     0.006 C 
HETATM    8  C13 UNL     1      12.653  64.077 -12.936  1.00  0.00    -0.003 C 
HETATM    9  C14 UNL     1      14.110  64.053 -12.460  1.00  0.00     0.037 C 
HETATM   10  C15 UNL     1      14.533  65.351 -11.755  1.00  0.00     0.125 C 
HETATM   11  C22 UNL     1      13.933  66.602 -12.414  1.00  0.00     0.033 C 
HETATM   12  C23 UNL     1      13.464  66.344 -13.843  1.00  0.00     0.013 C 
HETATM   13  C24 UNL     1      12.419  65.240 -13.904  1.00  0.00    -0.028 A 
HETATM   14  C25 UNL     1      11.898  64.927 -15.292  1.00  0.00     0.021 A 
HETATM   15  C26 UNL     1      10.945  65.498 -14.268  1.00  0.00    -0.025 A 
HETATM   16  C27 UNL     1      10.469  66.933 -14.458  1.00  0.00     0.012 C 
HETATM   17  C28 UNL     1       9.009  67.080 -14.923  1.00  0.00     0.013 C 
HETATM   18  C29 UNL     1       8.037  66.279 -14.033  1.00  0.00    -0.009 C 
HETATM   19  C30 UNL     1       8.002  66.904 -12.618  1.00  0.00     0.019 C 
ENDROOT
BRANCH  10  20
HETATM   20  O2  UNL     1      15.966  65.392 -11.803  1.00  0.00    -0.353 OA
BRANCH  20  21
HETATM   21  C16 UNL     1      16.589  64.160 -11.387  1.00  0.00     0.292 C 
HETATM   22  O3  UNL     1      16.159  63.829 -10.069  1.00  0.00    -0.348 OA
HETATM   23  C17 UNL     1      17.082  63.078  -9.268  1.00  0.00     0.179 C 
HETATM   24  C19 UNL     1      18.432  63.813  -9.093  1.00  0.00     0.180 C 
HETATM   25  C20 UNL     1      18.660  64.869 -10.181  1.00  0.00     0.183 C 
HETATM   26  C21 UNL     1      18.114  64.383 -11.513  1.00  0.00     0.204 C 
BRANCH  23  27
HETATM   27  C18 UNL     1      17.223  61.644  -9.815  1.00  0.00     0.198 C 
BRANCH  27  28
HETATM   28  O4  UNL     1      16.036  61.210 -10.460  1.00  0.00    -0.398 OA
HETATM   29  H31 UNL     1      16.222  60.352 -10.876  1.00  0.00     0.209 HD
ENDBRANCH  27  28
ENDBRANCH  23  27
BRANCH  24  30
HETATM   30  O5  UNL     1      18.461  64.500  -7.826  1.00  0.00    -0.390 OA
HETATM   31  H33 UNL     1      19.322  64.959  -7.795  1.00  0.00     0.210 HD
ENDBRANCH  24  30
BRANCH  25  32
HETATM   32  O6  UNL     1      20.070  65.134 -10.290  1.00  0.00    -0.390 OA
HETATM   33  H35 UNL     1      20.180  65.569 -11.160  1.00  0.00     0.210 HD
ENDBRANCH  25  32
BRANCH  26  34
HETATM   34  O7  UNL     1      18.438  65.335 -12.541  1.00  0.00    -0.388 OA
HETATM   35  H37 UNL     1      17.669  65.946 -12.565  1.00  0.00     0.210 HD
ENDBRANCH  26  34
ENDBRANCH  20  21
ENDBRANCH  10  20
BRANCH   4  36
HETATM   36  O1  UNL     1       8.475  64.369 -15.485  1.00  0.00    -0.389 OA
HETATM   37  H17 UNL     1       8.741  63.434 -15.526  1.00  0.00     0.210 HD
ENDBRANCH   4  36
BRANCH   1  38
HETATM   38  C4  UNL     1       5.536  67.273 -14.408  1.00  0.00    -0.014 C 
HETATM   39  C5  UNL     1       4.606  67.374 -15.628  1.00  0.00     0.010 C 
BRANCH  38  40
HETATM   40  C3  UNL     1       4.626  67.098 -13.156  1.00  0.00     0.004 C 
BRANCH  40  41
HETATM   41  C2  UNL     1       3.311  67.885 -13.107  1.00  0.00    -0.004 C 
HETATM   42  C1  UNL     1       3.318  69.043 -12.120  1.00  0.00     0.005 C 
ENDBRANCH  40  41
ENDBRANCH  38  40
ENDBRANCH   1  38
TORSDOF 11
ENDMDL
MODEL 4
REMARK minimizedAffinity -10.3809004
REMARK CNNscore 0.432270378
REMARK CNNaffinity 6.66559982
REMARK  11 active torsions:
REMARK  status: ('A' for Active; 'I' for Inactive)
REMARK    1  A    between atoms: C2_2  and  C3_3 
REMARK    2  A    between atoms: C3_3  and  C4_4 
REMARK    3  A    between atoms: C4_4  and  C6_6 
REMARK    4  A    between atoms: C9_9  and  O1_10 
REMARK    5  A    between atoms: C15_16  and  O2_17 
REMARK    6  A    between atoms: O2_17  and  C16_18 
REMARK    7  A    between atoms: C17_20  and  C18_21 
REMARK    8  A    between atoms: C18_21  and  O4_22 
REMARK    9  A    between atoms: C19_23  and  O5_24 
REMARK   10  A    between atoms: C20_25  and  O6_26 
REMARK   11  A    between atoms: C21_27  and  O7_28 
ROOT
HETATM    1  C6  UNL     1      -1.924  51.671 -19.485  1.00  0.00     0.000 C 
HETATM    2  C7  UNL     1      -2.789  50.615 -18.738  1.00  0.00     0.009 C 
HETATM    3  C8  UNL     1      -3.637  49.869 -19.783  1.00  0.00     0.039 C 
HETATM    4  C9  UNL     1      -3.440  50.680 -21.056  1.00  0.00     0.070 C 
HETATM    5  C10 UNL     1      -3.885  50.061 -22.395  1.00  0.00     0.030 C 
HETATM    6  C11 UNL     1      -3.542  48.590 -22.651  1.00  0.00     0.009 C 
HETATM    7  C12 UNL     1      -4.042  48.066 -24.009  1.00  0.00     0.006 C 
HETATM    8  C13 UNL     1      -4.707  49.116 -24.925  1.00  0.00    -0.003 C 
HETATM    9  C14 UNL     1      -4.921  48.574 -26.342  1.00  0.00     0.037 C 
HETATM   10  C15 UNL     1      -3.605  48.303 -27.088  1.00  0.00     0.125 C 
HETATM   11  C22 UNL     1      -2.533  49.365 -26.797  1.00  0.00     0.033 C 
HETATM   12  C23 UNL     1      -3.125  50.658 -26.243  1.00  0.00     0.013 C 
HETATM   13  C24 UNL     1      -3.904  50.419 -24.959  1.00  0.00    -0.028 A 
HETATM   14  C25 UNL     1      -4.520  51.659 -24.344  1.00  0.00     0.021 A 
HETATM   15  C26 UNL     1      -3.435  50.932 -23.584  1.00  0.00    -0.025 A 
HETATM   16  C27 UNL     1      -2.072  51.603 -23.470  1.00  0.00     0.012 C 
HETATM   17  C28 UNL     1      -1.741  52.174 -22.080  1.00  0.00     0.013 C 
HETATM   18  C29 UNL     1      -1.949  51.131 -20.963  1.00  0.00    -0.009 C 
HETATM   19  C30 UNL     1      -0.906  49.998 -21.116  1.00  0.00     0.019 C 
ENDROOT
BRANCH  10  20
HETATM   20  O2  UNL     1      -3.925  48.278 -28.485  1.00  0.00    -0.353 OA
BRANCH  20  21
HETATM   21  C16 UNL     1      -5.342  48.257 -28.748  1.00  0.00     0.292 C 
HETATM   22  O3  UNL     1      -5.854  46.950 -28.503  1.00  0.00    -0.348 OA
HETATM   23  C17 UNL     1      -6.999  46.559 -29.274  1.00  0.00     0.179 C 
HETATM   24  C19 UNL     1      -6.723  46.620 -30.796  1.00  0.00     0.180 C 
HETATM   25  C20 UNL     1      -5.538  47.532 -31.132  1.00  0.00     0.183 C 
HETATM   26  C21 UNL     1      -5.519  48.738 -30.207  1.00  0.00     0.204 C 
BRANCH  23  27
HETATM   27  C18 UNL     1      -8.240  47.361 -28.836  1.00  0.00     0.198 C 
BRANCH  27  28
HETATM   28  O4  UNL     1      -7.933  48.731 -28.634  1.00  0.00    -0.398 OA
HETATM   29  H31 UNL     1      -8.769  49.200 -28.469  1.00  0.00     0.209 HD
ENDBRANCH  27  28
ENDBRANCH  23  27
BRANCH  24  30
HETATM   30  O5  UNL     1      -6.399  45.306 -31.293  1.00  0.00    -0.390 OA
HETATM   31  H33 UNL     1      -6.213  45.423 -32.244  1.00  0.00     0.210 HD
ENDBRANCH  24  30
BRANCH  25  32
HETATM   32  O6  UNL     1      -5.647  47.959 -32.501  1.00  0.00    -0.390 OA
HETATM   33  H35 UNL     1      -5.061  48.740 -32.572  1.00  0.00     0.210 HD
ENDBRANCH  25  32
BRANCH  26  34
HETATM   34  O7  UNL     1      -4.471  49.636 -30.610  1.00  0.00    -0.388 OA
HETATM   35  H37 UNL     1      -3.687  49.353 -30.090  1.00  0.00     0.210 HD
ENDBRANCH  26  34
ENDBRANCH  20  21
ENDBRANCH  10  20
BRANCH   4  36
HETATM   36  O1  UNL     1      -4.275  51.860 -20.885  1.00  0.00    -0.389 OA
HETATM   37  H17 UNL     1      -5.207  51.581 -20.912  1.00  0.00     0.210 HD
ENDBRANCH   4  36
BRANCH   1  38
HETATM   38  C4  UNL     1      -0.565  51.952 -18.773  1.00  0.00    -0.014 C 
HETATM   39  C5  UNL     1      -0.078  50.725 -17.986  1.00  0.00     0.010 C 
BRANCH  38  40
HETATM   40  C3  UNL     1       0.570  52.334 -19.769  1.00  0.00     0.004 C 
BRANCH  40  41
HETATM   41  C2  UNL     1       0.761  53.817 -20.105  1.00  0.00    -0.004 C 
HETATM   42  C1  UNL     1       1.463  54.065 -21.433  1.00  0.00     0.005 C 
ENDBRANCH  40  41
ENDBRANCH  38  40
ENDBRANCH   1  38
TORSDOF 11
ENDMDL
MODEL 5
REMARK minimizedAffinity -7.91075373
REMARK CNNscore 0.406571329
REMARK CNNaffinity 5.76448393
REMARK  11 active torsions:
REMARK  status: ('A' for Active; 'I' for Inactive)
REMARK    1  A    between atoms: C2_2  and  C3_3 
REMARK    2  A    between atoms: C3_3  and  C4_4 
REMARK    3  A    between atoms: C4_4  and  C6_6 
REMARK    4  A    between atoms: C9_9  and  O1_10 
REMARK    5  A    between atoms: C15_16  and  O2_17 
REMARK    6  A    between atoms: O2_17  and  C16_18 
REMARK    7  A    between atoms: C17_20  and  C18_21 
REMARK    8  A    between atoms: C18_21  and  O4_22 
REMARK    9  A    between atoms: C19_23  and  O5_24 
REMARK   10  A    between atoms: C20_25  and  O6_26 
REMARK   11  A    between atoms: C21_27  and  O7_28 
ROOT
HETATM    1  C6  UNL     1      -7.086  47.957 -27.448  1.00  0.00     0.000 C 
HETATM    2  C7  UNL     1      -7.002  48.096 -25.900  1.00  0.00     0.009 C 
HETATM    3  C8  UNL     1      -8.406  47.844 -25.322  1.00  0.00     0.039 C 
HETATM    4  C9  UNL     1      -9.306  47.827 -26.550  1.00  0.00     0.070 C 
HETATM    5  C10 UNL     1     -10.741  47.288 -26.399  1.00  0.00     0.030 C 
HETATM    6  C11 UNL     1     -10.940  46.006 -25.584  1.00  0.00     0.009 C 
HETATM    7  C12 UNL     1     -12.410  45.561 -25.483  1.00  0.00     0.006 C 
HETATM    8  C13 UNL     1     -13.419  46.404 -26.291  1.00  0.00    -0.003 C 
HETATM    9  C14 UNL     1     -14.796  45.732 -26.350  1.00  0.00     0.037 C 
HETATM   10  C15 UNL     1     -14.789  44.415 -27.142  1.00  0.00     0.125 C 
HETATM   11  C22 UNL     1     -13.881  44.477 -28.380  1.00  0.00     0.033 C 
HETATM   12  C23 UNL     1     -13.574  45.908 -28.811  1.00  0.00     0.013 C 
HETATM   13  C24 UNL     1     -12.901  46.701 -27.700  1.00  0.00    -0.028 A 
HETATM   14  C25 UNL     1     -12.559  48.134 -28.053  1.00  0.00     0.021 A 
HETATM   15  C26 UNL     1     -11.434  47.166 -27.770  1.00  0.00    -0.025 A 
HETATM   16  C27 UNL     1     -10.570  46.715 -28.941  1.00  0.00     0.012 C 
HETATM   17  C28 UNL     1      -9.153  47.317 -28.975  1.00  0.00     0.013 C 
HETATM   18  C29 UNL     1      -8.418  47.139 -27.633  1.00  0.00    -0.009 C 
HETATM   19  C30 UNL     1      -8.136  45.636 -27.396  1.00  0.00     0.019 C 
ENDROOT
BRANCH  10  20
HETATM   20  O2  UNL     1     -16.148  44.162 -27.524  1.00  0.00    -0.353 OA
BRANCH  20  21
HETATM   21  C16 UNL     1     -17.105  44.959 -26.798  1.00  0.00     0.292 C 
HETATM   22  O3  UNL     1     -17.041  44.637 -25.412  1.00  0.00    -0.348 OA
HETATM   23  C17 UNL     1     -18.254  44.798 -24.663  1.00  0.00     0.179 C 
HETATM   24  C19 UNL     1     -19.408  43.942 -25.236  1.00  0.00     0.180 C 
HETATM   25  C20 UNL     1     -19.163  43.545 -26.697  1.00  0.00     0.183 C 
HETATM   26  C21 UNL     1     -18.481  44.677 -27.445  1.00  0.00     0.204 C 
BRANCH  23  27
HETATM   27  C18 UNL     1     -18.601  46.293 -24.521  1.00  0.00     0.198 C 
BRANCH  27  28
HETATM   28  O4  UNL     1     -19.876  46.588 -25.070  1.00  0.00    -0.398 OA
HETATM   29  H31 UNL     1     -20.084  47.513 -24.852  1.00  0.00     0.209 HD
ENDBRANCH  27  28
ENDBRANCH  23  27
BRANCH  24  30
HETATM   30  O5  UNL     1     -19.539  42.720 -24.482  1.00  0.00    -0.390 OA
HETATM   31  H33 UNL     1     -20.261  42.223 -24.911  1.00  0.00     0.210 HD
ENDBRANCH  24  30
BRANCH  25  32
HETATM   32  O6  UNL     1     -20.423  43.229 -27.315  1.00  0.00    -0.390 OA
HETATM   33  H35 UNL     1     -20.252  43.272 -28.277  1.00  0.00     0.210 HD
ENDBRANCH  25  32
BRANCH  26  34
HETATM   34  O7  UNL     1     -18.363  44.330 -28.836  1.00  0.00    -0.388 OA
HETATM   35  H37 UNL     1     -17.488  43.891 -28.909  1.00  0.00     0.210 HD
ENDBRANCH  26  34
ENDBRANCH  20  21
ENDBRANCH  10  20
BRANCH   4  36
HETATM   36  O1  UNL     1      -9.461  49.226 -26.924  1.00  0.00    -0.389 OA
HETATM   37  H17 UNL     1      -9.990  49.669 -26.237  1.00  0.00     0.210 HD
ENDBRANCH   4  36
BRANCH   1  38
HETATM   38  C4  UNL     1      -5.755  47.448 -28.081  1.00  0.00    -0.014 C 
HETATM   39  C5  UNL     1      -5.975  46.927 -29.510  1.00  0.00     0.010 C 
BRANCH  38  40
HETATM   40  C3  UNL     1      -4.664  48.557 -28.164  1.00  0.00     0.004 C 
BRANCH  40  41
HETATM   41  C2  UNL     1      -3.408  48.395 -27.300  1.00  0.00    -0.004 C 
HETATM   42  C1  UNL     1      -3.687  48.343 -25.805  1.00  0.00     0.005 C 
ENDBRANCH  40  41
ENDBRANCH  38  40
ENDBRANCH   1  38
TORSDOF 11
ENDMDL
MODEL 6
REMARK minimizedAffinity -9.09726238
REMARK CNNscore 0.406412691
REMARK CNNaffinity 6.4124589
REMARK  11 active torsions:
REMARK  status: ('A' for Active; 'I' for Inactive)
REMARK    1  A    between atoms: C2_2  and  C3_3 
REMARK    2  A    between atoms: C3_3  and  C4_4 
REMARK    3  A    between atoms: C4_4  and  C6_6 
REMARK    4  A    between atoms: C9_9  and  O1_10 
REMARK    5  A    between atoms: C15_16  and  O2_17 
REMARK    6  A    between atoms: O2_17  and  C16_18 
REMARK    7  A    between atoms: C17_20  and  C18_21 
REMARK    8  A    between atoms: C18_21  and  O4_22 
REMARK    9  A    between atoms: C19_23  and  O5_24 
REMARK   10  A    between atoms: C20_25  and  O6_26 
REMARK   11  A    between atoms: C21_27  and  O7_28 
ROOT
HETATM    1  C6  UNL     1      -1.096  50.917 -19.943  1.00  0.00     0.000 C 
HETATM    2  C7  UNL     1      -0.177  49.879 -20.649  1.00  0.00     0.009 C 
HETATM    3  C8  UNL     1      -1.076  48.870 -21.387  1.00  0.00     0.039 C 
HETATM    4  C9  UNL     1      -2.474  49.192 -20.878  1.00  0.00     0.070 C 
HETATM    5  C10 UNL     1      -3.681  48.597 -21.628  1.00  0.00     0.030 C 
HETATM    6  C11 UNL     1      -3.658  48.632 -23.159  1.00  0.00     0.009 C 
HETATM    7  C12 UNL     1      -4.902  48.001 -23.810  1.00  0.00     0.006 C 
HETATM    8  C13 UNL     1      -6.003  47.535 -22.833  1.00  0.00    -0.003 C 
HETATM    9  C14 UNL     1      -7.299  47.179 -23.569  1.00  0.00     0.037 C 
HETATM   10  C15 UNL     1      -7.967  48.394 -24.232  1.00  0.00     0.125 C 
HETATM   11  C22 UNL     1      -7.865  49.664 -23.373  1.00  0.00     0.033 C 
HETATM   12  C23 UNL     1      -7.565  49.358 -21.908  1.00  0.00     0.013 C 
HETATM   13  C24 UNL     1      -6.267  48.581 -21.746  1.00  0.00    -0.028 A 
HETATM   14  C25 UNL     1      -5.898  48.242 -20.317  1.00  0.00     0.021 A 
HETATM   15  C26 UNL     1      -5.006  49.180 -21.097  1.00  0.00    -0.025 A 
HETATM   16  C27 UNL     1      -5.002  50.652 -20.705  1.00  0.00     0.012 C 
HETATM   17  C28 UNL     1      -3.736  51.127 -19.969  1.00  0.00     0.013 C 
HETATM   18  C29 UNL     1      -2.450  50.745 -20.727  1.00  0.00    -0.009 C 
HETATM   19  C30 UNL     1      -2.380  51.535 -22.055  1.00  0.00     0.019 C 
ENDROOT
BRANCH  10  20
HETATM   20  O2  UNL     1      -9.340  48.038 -24.446  1.00  0.00    -0.353 OA
BRANCH  20  21
HETATM   21  C16 UNL     1      -9.542  47.207 -25.606  1.00  0.00     0.292 C 
HETATM   22  O3  UNL     1      -8.385  46.405 -25.826  1.00  0.00    -0.348 OA
HETATM   23  C17 UNL     1      -8.118  46.031 -27.185  1.00  0.00     0.179 C 
HETATM   24  C19 UNL     1      -7.950  47.264 -28.104  1.00  0.00     0.180 C 
HETATM   25  C20 UNL     1      -8.590  48.522 -27.506  1.00  0.00     0.183 C 
HETATM   26  C21 UNL     1      -9.872  48.166 -26.773  1.00  0.00     0.204 C 
BRANCH  23  27
HETATM   27  C18 UNL     1      -9.175  45.025 -27.682  1.00  0.00     0.198 C 
BRANCH  27  28
HETATM   28  O4  UNL     1      -9.174  44.923 -29.098  1.00  0.00    -0.398 OA
HETATM   29  H31 UNL     1      -9.777  44.200 -29.342  1.00  0.00     0.209 HD
ENDBRANCH  27  28
ENDBRANCH  23  27
BRANCH  24  30
HETATM   30  O5  UNL     1      -6.550  47.552 -28.295  1.00  0.00    -0.390 OA
HETATM   31  H33 UNL     1      -6.520  48.349 -28.857  1.00  0.00     0.210 HD
ENDBRANCH  24  30
BRANCH  25  32
HETATM   32  O6  UNL     1      -8.866  49.457 -28.563  1.00  0.00    -0.390 OA
HETATM   33  H35 UNL     1      -9.515  50.084 -28.186  1.00  0.00     0.210 HD
ENDBRANCH  25  32
BRANCH  26  34
HETATM   34  O7  UNL     1     -10.515  49.370 -26.318  1.00  0.00    -0.388 OA
HETATM   35  H37 UNL     1     -10.159  49.514 -25.414  1.00  0.00     0.210 HD
ENDBRANCH  26  34
ENDBRANCH  20  21
ENDBRANCH  10  20
BRANCH   4  36
HETATM   36  O1  UNL     1      -2.532  48.614 -19.542  1.00  0.00    -0.389 OA
HETATM   37  H17 UNL     1      -2.518  47.645 -19.628  1.00  0.00     0.210 HD
ENDBRANCH   4  36
BRANCH   1  38
HETATM   38  C4  UNL     1      -0.433  52.323 -19.817  1.00  0.00    -0.014 C 
HETATM   39  C5  UNL     1       0.208  52.521 -18.434  1.00  0.00     0.010 C 
BRANCH  38  40
HETATM   40  C3  UNL     1       0.686  52.558 -20.875  1.00  0.00     0.004 C 
BRANCH  40  41
HETATM   41  C2  UNL     1       1.412  53.908 -20.865  1.00  0.00    -0.004 C 
HETATM   42  C1  UNL     1       1.585  54.528 -22.244  1.00  0.00     0.005 C 
ENDBRANCH  40  41
ENDBRANCH  38  40
ENDBRANCH   1  38
TORSDOF 11
ENDMDL
MODEL 7
REMARK minimizedAffinity -7.49629688
REMARK CNNscore 0.396102309
REMARK CNNaffinity 6.30333281
REMARK  11 active torsions:
REMARK  status: ('A' for Active; 'I' for Inactive)
REMARK    1  A    between atoms: C2_2  and  C3_3 
REMARK    2  A    between atoms: C3_3  and  C4_4 
REMARK    3  A    between atoms: C4_4  and  C6_6 
REMARK    4  A    between atoms: C9_9  and  O1_10 
REMARK    5  A    between atoms: C15_16  and  O2_17 
REMARK    6  A    between atoms: O2_17  and  C16_18 
REMARK    7  A    between atoms: C17_20  and  C18_21 
REMARK    8  A    between atoms: C18_21  and  O4_22 
REMARK    9  A    between atoms: C19_23  and  O5_24 
REMARK   10  A    between atoms: C20_25  and  O6_26 
REMARK   11  A    between atoms: C21_27  and  O7_28 
ROOT
HETATM    1  C6  UNL     1      -5.764  48.876 -24.596  1.00  0.00     0.000 C 
HETATM    2  C7  UNL     1      -4.545  48.463 -25.471  1.00  0.00     0.009 C 
HETATM    3  C8  UNL     1      -3.272  48.627 -24.620  1.00  0.00     0.039 C 
HETATM    4  C9  UNL     1      -3.756  49.369 -23.383  1.00  0.00     0.070 C 
HETATM    5  C10 UNL     1      -2.824  49.436 -22.158  1.00  0.00     0.030 C 
HETATM    6  C11 UNL     1      -2.090  48.156 -21.749  1.00  0.00     0.009 C 
HETATM    7  C12 UNL     1      -1.176  48.333 -20.524  1.00  0.00     0.006 C 
HETATM    8  C13 UNL     1      -1.223  49.721 -19.851  1.00  0.00    -0.003 C 
HETATM    9  C14 UNL     1      -0.501  49.719 -18.499  1.00  0.00     0.037 C 
HETATM   10  C15 UNL     1      -1.198  48.842 -17.447  1.00  0.00     0.125 C 
HETATM   11  C22 UNL     1      -2.730  48.928 -17.530  1.00  0.00     0.033 C 
HETATM   12  C23 UNL     1      -3.208  50.170 -18.277  1.00  0.00     0.013 C 
HETATM   13  C24 UNL     1      -2.661  50.221 -19.696  1.00  0.00    -0.028 A 
HETATM   14  C25 UNL     1      -3.095  51.425 -20.507  1.00  0.00     0.021 A 
HETATM   15  C26 UNL     1      -3.548  50.052 -20.944  1.00  0.00    -0.025 A 
HETATM   16  C27 UNL     1      -5.018  49.694 -20.765  1.00  0.00     0.012 C 
HETATM   17  C28 UNL     1      -5.841  49.651 -22.065  1.00  0.00     0.013 C 
HETATM   18  C29 UNL     1      -5.177  48.770 -23.140  1.00  0.00    -0.009 C 
HETATM   19  C30 UNL     1      -5.199  47.292 -22.682  1.00  0.00     0.019 C 
ENDROOT
BRANCH  10  20
HETATM   20  O2  UNL     1      -0.735  49.295 -16.167  1.00  0.00    -0.353 OA
BRANCH  20  21
HETATM   21  C16 UNL     1      -0.106  50.591 -16.211  1.00  0.00     0.292 C 
HETATM   22  O3  UNL     1       1.303  50.443 -16.059  1.00  0.00    -0.348 OA
HETATM   23  C17 UNL     1       1.997  51.542 -15.451  1.00  0.00     0.179 C 
HETATM   24  C19 UNL     1       1.456  51.858 -14.035  1.00  0.00     0.180 C 
HETATM   25  C20 UNL     1       0.040  51.310 -13.822  1.00  0.00     0.183 C 
HETATM   26  C21 UNL     1      -0.773  51.434 -15.100  1.00  0.00     0.204 C 
BRANCH  23  27
HETATM   27  C18 UNL     1       2.009  52.758 -16.396  1.00  0.00     0.198 C 
BRANCH  27  28
HETATM   28  O4  UNL     1       1.323  52.486 -17.608  1.00  0.00    -0.398 OA
HETATM   29  H31 UNL     1       1.270  53.317 -18.110  1.00  0.00     0.209 HD
ENDBRANCH  27  28
ENDBRANCH  23  27
BRANCH  24  30
HETATM   30  O5  UNL     1       2.299  51.251 -13.036  1.00  0.00    -0.390 OA
HETATM   31  H33 UNL     1       1.888  51.467 -12.178  1.00  0.00     0.210 HD
ENDBRANCH  24  30
BRANCH  25  32
HETATM   32  O6  UNL     1      -0.592  52.043 -12.758  1.00  0.00    -0.390 OA
HETATM   33  H35 UNL     1      -1.549  51.865 -12.860  1.00  0.00     0.210 HD
ENDBRANCH  25  32
BRANCH  26  34
HETATM   34  O7  UNL     1      -2.128  51.021 -14.848  1.00  0.00    -0.388 OA
HETATM   35  H37 UNL     1      -2.137  50.061 -15.056  1.00  0.00     0.210 HD
ENDBRANCH  26  34
ENDBRANCH  20  21
ENDBRANCH  10  20
BRANCH   4  36
HETATM   36  O1  UNL     1      -3.922  50.751 -23.812  1.00  0.00    -0.389 OA
HETATM   37  H17 UNL     1      -3.041  51.122 -23.994  1.00  0.00     0.210 HD
ENDBRANCH   4  36
BRANCH   1  38
HETATM   38  C4  UNL     1      -7.067  48.108 -24.977  1.00  0.00    -0.014 C 
HETATM   39  C5  UNL     1      -6.905  47.349 -26.304  1.00  0.00     0.010 C 
BRANCH  38  40
HETATM   40  C3  UNL     1      -7.486  47.062 -23.902  1.00  0.00     0.004 C 
BRANCH  40  41
HETATM   41  C2  UNL     1      -8.835  47.254 -23.200  1.00  0.00    -0.004 C 
HETATM   42  C1  UNL     1      -8.735  47.358 -21.685  1.00  0.00     0.005 C 
ENDBRANCH  40  41
ENDBRANCH  38  40
ENDBRANCH   1  38
TORSDOF 11
ENDMDL
MODEL 8
REMARK minimizedAffinity -7.62263632
REMARK CNNscore 0.368218988
REMARK CNNaffinity 5.53057432
REMARK  11 active torsions:
REMARK  status: ('A' for Active; 'I' for Inactive)
REMARK    1  A    between atoms: C2_2  and  C3_3 
REMARK    2  A    between atoms: C3_3  and  C4_4 
REMARK    3  A    between atoms: C4_4  and  C6_6 
REMARK    4  A    between atoms: C9_9  and  O1_10 
REMARK    5  A    between atoms: C15_16  and  O2_17 
REMARK    6  A    between atoms: O2_17  and  C16_18 
REMARK    7  A    between atoms: C17_20  and  C18_21 
REMARK    8  A    between atoms: C18_21  and  O4_22 
REMARK    9  A    between atoms: C19_23  and  O5_24 
REMARK   10  A    between atoms: C20_25  and  O6_26 
REMARK   11  A    between atoms: C21_27  and  O7_28 
ROOT
HETATM    1  C6  UNL     1      -7.410  47.465 -30.079  1.00  0.00     0.000 C 
HETATM    2  C7  UNL     1      -6.448  47.456 -28.857  1.00  0.00     0.009 C 
HETATM    3  C8  UNL     1      -7.301  47.356 -27.580  1.00  0.00     0.039 C 
HETATM    4  C9  UNL     1      -8.724  47.573 -28.076  1.00  0.00     0.070 C 
HETATM    5  C10 UNL     1      -9.890  47.231 -27.130  1.00  0.00     0.030 C 
HETATM    6  C11 UNL     1      -9.805  45.924 -26.335  1.00  0.00     0.009 C 
HETATM    7  C12 UNL     1     -11.012  45.684 -25.411  1.00  0.00     0.006 C 
HETATM    8  C13 UNL     1     -12.145  46.728 -25.508  1.00  0.00    -0.003 C 
HETATM    9  C14 UNL     1     -13.404  46.266 -24.766  1.00  0.00     0.037 C 
HETATM   10  C15 UNL     1     -14.062  45.035 -25.409  1.00  0.00     0.125 C 
HETATM   11  C22 UNL     1     -14.014  45.075 -26.944  1.00  0.00     0.033 C 
HETATM   12  C23 UNL     1     -13.770  46.481 -27.486  1.00  0.00     0.013 C 
HETATM   13  C24 UNL     1     -12.469  47.071 -26.964  1.00  0.00    -0.028 A 
HETATM   14  C25 UNL     1     -12.153  48.467 -27.462  1.00  0.00     0.021 A 
HETATM   15  C26 UNL     1     -11.244  47.328 -27.861  1.00  0.00    -0.025 A 
HETATM   16  C27 UNL     1     -11.278  46.863 -29.312  1.00  0.00     0.012 C 
HETATM   17  C28 UNL     1     -10.050  47.259 -30.152  1.00  0.00     0.013 C 
HETATM   18  C29 UNL     1      -8.728  46.862 -29.466  1.00  0.00    -0.009 C 
HETATM   19  C30 UNL     1      -8.616  45.320 -29.418  1.00  0.00     0.019 C 
ENDROOT
BRANCH  10  20
HETATM   20  O2  UNL     1     -15.420  45.011 -24.947  1.00  0.00    -0.353 OA
BRANCH  20  21
HETATM   21  C16 UNL     1     -16.321  44.341 -25.851  1.00  0.00     0.292 C 
HETATM   22  O3  UNL     1     -16.997  45.305 -26.653  1.00  0.00    -0.348 OA
HETATM   23  C17 UNL     1     -18.310  44.947 -27.108  1.00  0.00     0.179 C 
HETATM   24  C19 UNL     1     -19.268  44.639 -25.932  1.00  0.00     0.180 C 
HETATM   25  C20 UNL     1     -18.510  44.289 -24.646  1.00  0.00     0.183 C 
HETATM   26  C21 UNL     1     -17.261  43.486 -24.970  1.00  0.00     0.204 C 
BRANCH  23  27
HETATM   27  C18 UNL     1     -18.226  43.819 -28.153  1.00  0.00     0.198 C 
BRANCH  27  28
HETATM   28  O4  UNL     1     -17.341  44.150 -29.212  1.00  0.00    -0.398 OA
HETATM   29  H31 UNL     1     -17.246  43.363 -29.775  1.00  0.00     0.209 HD
ENDBRANCH  27  28
ENDBRANCH  23  27
BRANCH  24  30
HETATM   30  O5  UNL     1     -20.083  45.792 -25.642  1.00  0.00    -0.390 OA
HETATM   31  H33 UNL     1     -20.638  45.536 -24.882  1.00  0.00     0.210 HD
ENDBRANCH  24  30
BRANCH  25  32
HETATM   32  O6  UNL     1     -19.376  43.532 -23.782  1.00  0.00    -0.390 OA
HETATM   33  H35 UNL     1     -18.779  43.099 -23.140  1.00  0.00     0.210 HD
ENDBRANCH  25  32
BRANCH  26  34
HETATM   34  O7  UNL     1     -16.627  43.072 -23.747  1.00  0.00    -0.388 OA
HETATM   35  H37 UNL     1     -15.989  43.789 -23.543  1.00  0.00     0.210 HD
ENDBRANCH  26  34
ENDBRANCH  20  21
ENDBRANCH  10  20
BRANCH   4  36
HETATM   36  O1  UNL     1      -8.828  49.007 -28.308  1.00  0.00    -0.389 OA
HETATM   37  H17 UNL     1      -8.796  49.458 -27.447  1.00  0.00     0.210 HD
ENDBRANCH   4  36
BRANCH   1  38
HETATM   38  C4  UNL     1      -6.773  46.830 -31.354  1.00  0.00    -0.014 C 
HETATM   39  C5  UNL     1      -7.307  47.486 -32.637  1.00  0.00     0.010 C 
BRANCH  38  40
HETATM   40  C3  UNL     1      -5.222  46.967 -31.384  1.00  0.00     0.004 C 
BRANCH  40  41
HETATM   41  C2  UNL     1      -4.472  46.382 -32.586  1.00  0.00    -0.004 C 
HETATM   42  C1  UNL     1      -3.752  47.421 -33.433  1.00  0.00     0.005 C 
ENDBRANCH  40  41
ENDBRANCH  38  40
ENDBRANCH   1  38
TORSDOF 11
ENDMDL
MODEL 9
REMARK minimizedAffinity -9.19917583
REMARK CNNscore 0.362475425
REMARK CNNaffinity 5.93007708
REMARK  11 active torsions:
REMARK  status: ('A' for Active; 'I' for Inactive)
REMARK    1  A    between atoms: C2_2  and  C3_3 
REMARK    2  A    between atoms: C3_3  and  C4_4 
REMARK    3  A    between atoms: C4_4  and  C6_6 
REMARK    4  A    between atoms: C9_9  and  O1_10 
REMARK    5  A    between atoms: C15_16  and  O2_17 
REMARK    6  A    between atoms: O2_17  and  C16_18 
REMARK    7  A    between atoms: C17_20  and  C18_21 
REMARK    8  A    between atoms: C18_21  and  O4_22 
REMARK    9  A    between atoms: C19_23  and  O5_24 
REMARK   10  A    between atoms: C20_25  and  O6_26 
REMARK   11  A    between atoms: C21_27  and  O7_28 
ROOT
HETATM    1  C6  UNL     1       0.115  51.145 -18.375  1.00  0.00     0.000 C 
HETATM    2  C7  UNL     1       0.546  52.307 -19.318  1.00  0.00     0.009 C 
HETATM    3  C8  UNL     1      -0.100  52.067 -20.694  1.00  0.00     0.039 C 
HETATM    4  C9  UNL     1      -0.664  50.657 -20.590  1.00  0.00     0.070 C 
HETATM    5  C10 UNL     1      -1.659  50.185 -21.667  1.00  0.00     0.030 C 
HETATM    6  C11 UNL     1      -2.758  51.159 -22.100  1.00  0.00     0.009 C 
HETATM    7  C12 UNL     1      -3.689  50.596 -23.189  1.00  0.00     0.006 C 
HETATM    8  C13 UNL     1      -3.435  49.127 -23.589  1.00  0.00    -0.003 C 
HETATM    9  C14 UNL     1      -4.566  48.576 -24.465  1.00  0.00     0.037 C 
HETATM   10  C15 UNL     1      -5.905  48.466 -23.719  1.00  0.00     0.125 C 
HETATM   11  C22 UNL     1      -5.732  48.007 -22.262  1.00  0.00     0.033 C 
HETATM   12  C23 UNL     1      -4.388  47.326 -22.018  1.00  0.00     0.013 C 
HETATM   13  C24 UNL     1      -3.221  48.240 -22.360  1.00  0.00    -0.028 A 
HETATM   14  C25 UNL     1      -1.849  47.635 -22.139  1.00  0.00     0.021 A 
HETATM   15  C26 UNL     1      -2.268  48.818 -21.297  1.00  0.00    -0.025 A 
HETATM   16  C27 UNL     1      -2.567  48.573 -19.823  1.00  0.00     0.012 C 
HETATM   17  C28 UNL     1      -1.501  49.100 -18.846  1.00  0.00     0.013 C 
HETATM   18  C29 UNL     1      -1.156  50.579 -19.110  1.00  0.00    -0.009 C 
HETATM   19  C30 UNL     1      -2.381  51.462 -18.776  1.00  0.00     0.019 C 
ENDROOT
BRANCH  10  20
HETATM   20  O2  UNL     1      -6.705  47.529 -24.452  1.00  0.00    -0.353 OA
BRANCH  20  21
HETATM   21  C16 UNL     1      -8.087  47.512 -24.043  1.00  0.00     0.292 C 
HETATM   22  O3  UNL     1      -8.752  46.411 -24.656  1.00  0.00    -0.348 OA
HETATM   23  C17 UNL     1     -10.155  46.575 -24.907  1.00  0.00     0.179 C 
HETATM   24  C19 UNL     1     -10.445  47.794 -25.815  1.00  0.00     0.180 C 
HETATM   25  C20 UNL     1      -9.291  48.803 -25.812  1.00  0.00     0.183 C 
HETATM   26  C21 UNL     1      -8.669  48.891 -24.428  1.00  0.00     0.204 C 
BRANCH  23  27
HETATM   27  C18 UNL     1     -10.940  46.589 -23.581  1.00  0.00     0.198 C 
BRANCH  27  28
HETATM   28  O4  UNL     1     -11.480  45.311 -23.279  1.00  0.00    -0.398 OA
HETATM   29  H31 UNL     1     -11.863  45.357 -22.386  1.00  0.00     0.209 HD
ENDBRANCH  27  28
ENDBRANCH  23  27
BRANCH  24  30
HETATM   30  O5  UNL     1     -10.626  47.363 -27.179  1.00  0.00    -0.390 OA
HETATM   31  H33 UNL     1     -10.777  48.178 -27.694  1.00  0.00     0.210 HD
ENDBRANCH  24  30
BRANCH  25  32
HETATM   32  O6  UNL     1      -9.792  50.091 -26.214  1.00  0.00    -0.390 OA
HETATM   33  H35 UNL     1      -9.113  50.731 -25.919  1.00  0.00     0.210 HD
ENDBRANCH  25  32
BRANCH  26  34
HETATM   34  O7  UNL     1      -7.667  49.923 -24.418  1.00  0.00    -0.388 OA
HETATM   35  H37 UNL     1      -6.832  49.461 -24.651  1.00  0.00     0.210 HD
ENDBRANCH  26  34
ENDBRANCH  20  21
ENDBRANCH  10  20
BRANCH   4  36
HETATM   36  O1  UNL     1       0.489  49.778 -20.723  1.00  0.00    -0.389 OA
HETATM   37  H17 UNL     1       0.820  49.844 -21.636  1.00  0.00     0.210 HD
ENDBRANCH   4  36
BRANCH   1  38
HETATM   38  C4  UNL     1       0.030  51.582 -16.880  1.00  0.00    -0.014 C 
HETATM   39  C5  UNL     1      -0.896  50.656 -16.076  1.00  0.00     0.010 C 
BRANCH  38  40
HETATM   40  C3  UNL     1       1.416  51.570 -16.169  1.00  0.00     0.004 C 
BRANCH  40  41
HETATM   41  C2  UNL     1       2.464  52.593 -16.622  1.00  0.00    -0.004 C 
HETATM   42  C1  UNL     1       3.764  52.539 -15.832  1.00  0.00     0.005 C 
ENDBRANCH  40  41
ENDBRANCH  38  40
ENDBRANCH   1  38
TORSDOF 11
ENDMDL
