MODEL 1
REMARK minimizedAffinity -6.9634819
REMARK CNNscore 0.59854275
REMARK CNNaffinity 6.94375992
REMARK  8 active torsions:
REMARK  status: ('A' for Active; 'I' for Inactive)
REMARK    1  A    between atoms: C2_2  and  C3_3 
REMARK    2  A    between atoms: C2_2  and  C9_12 
REMARK    3  A    between atoms: C3_3  and  C4_4 
REMARK    4  A    between atoms: C4_4  and  C5_5 
REMARK    5  A    between atoms: C6_6  and  C7_7 
REMARK    6  A    between atoms: C6_6  and  C8_9 
REMARK    7  A    between atoms: C7_7  and  O1_8 
REMARK    8  A    between atoms: C8_9  and  O3_11 
ROOT
HETATM    1  C9  UNL     1      -1.233   9.870  15.513  1.00  0.00    -0.002 C 
HETATM    2  C10 UNL     1      -0.072   9.383  16.437  1.00  0.00     0.006 C 
HETATM    3  C11 UNL     1       0.635   8.220  15.705  1.00  0.00     0.011 C 
HETATM    4  C12 UNL     1       0.147   8.326  14.251  1.00  0.00    -0.032 C 
HETATM    5  C13 UNL     1       1.003   9.455  13.593  1.00  0.00     0.016 C 
HETATM    6  C14 UNL     1       0.241   7.037  13.378  1.00  0.00     0.004 C 
HETATM    7  C15 UNL     1       1.631   6.403  13.280  1.00  0.00     0.007 C 
HETATM    8  C16 UNL     1       2.530   6.777  12.105  1.00  0.00     0.007 C 
HETATM    9  C17 UNL     1       1.942   7.602  10.947  1.00  0.00     0.010 C 
HETATM   10  C18 UNL     1       2.721   7.393   9.603  1.00  0.00     0.018 C 
HETATM   11  C19 UNL     1       4.209   7.764   9.780  1.00  0.00     0.023 C 
HETATM   12  C20 UNL     1       2.646   5.956   9.054  1.00  0.00     0.023 C 
HETATM   13  C21 UNL     1       2.105   8.325   8.549  1.00  0.00     0.135 C 
HETATM   14  O4  UNL     1       2.781   9.071   7.839  1.00  0.00    -0.297 OA
HETATM   15  C22 UNL     1       0.612   8.238   8.357  1.00  0.00     0.080 C 
HETATM   16  C23 UNL     1      -0.093   8.443   9.684  1.00  0.00     0.018 C 
HETATM   17  C24 UNL     1       0.423   7.499  10.763  1.00  0.00    -0.026 A 
HETATM   18  C25 UNL     1      -0.290   6.183  10.958  1.00  0.00     0.021 A 
HETATM   19  C26 UNL     1      -0.445   7.264  12.017  1.00  0.00    -0.027 A 
HETATM   20  C27 UNL     1      -1.863   7.846  12.138  1.00  0.00     0.011 C 
HETATM   21  C28 UNL     1      -1.985   9.036  13.111  1.00  0.00     0.011 C 
HETATM   22  C29 UNL     1      -1.375   8.705  14.484  1.00  0.00    -0.032 C 
HETATM   23  C30 UNL     1      -2.229   7.568  15.120  1.00  0.00     0.016 C 
ENDROOT
BRANCH   1  24
HETATM   24  C2  UNL     1      -2.438  10.488  16.290  1.00  0.00    -0.014 C 
HETATM   25  C1  UNL     1      -3.282  11.520  15.531  1.00  0.00     0.010 C 
BRANCH  24  26
HETATM   26  C3  UNL     1      -1.992  11.021  17.673  1.00  0.00     0.008 C 
BRANCH  26  27
HETATM   27  C4  UNL     1      -1.501  12.477  17.702  1.00  0.00     0.028 C 
BRANCH  27  28
HETATM   28  C5  UNL     1      -1.895  13.257  18.924  1.00  0.00    -0.011 C 
HETATM   29  C6  UNL     1      -2.788  14.269  18.968  1.00  0.00     0.035 C 
BRANCH  29  30
HETATM   30  C7  UNL     1      -3.613  14.733  17.806  1.00  0.00     0.209 C 
BRANCH  30  31
HETATM   31  O1  UNL     1      -3.207  16.049  17.447  1.00  0.00    -0.396 OA
HETATM   32  H12 UNL     1      -3.872  16.386  16.823  1.00  0.00     0.209 HD
ENDBRANCH  30  31
ENDBRANCH  29  30
BRANCH  29  33
HETATM   33  C8  UNL     1      -3.072  14.971  20.245  1.00  0.00     0.173 C 
HETATM   34  O2  UNL     1      -4.179  15.170  20.715  1.00  0.00    -0.646 OA
BRANCH  33  35
HETATM   35  O3  UNL     1      -1.971  15.393  20.892  1.00  0.00    -0.773 OA
HETATM   36  H13 UNL     1      -2.330  15.844  21.684  1.00  0.00     0.167 HD
ENDBRANCH  33  35
ENDBRANCH  29  33
ENDBRANCH  27  28
ENDBRANCH  26  27
ENDBRANCH  24  26
ENDBRANCH   1  24
TORSDOF 8
ENDMDL
MODEL 2
REMARK minimizedAffinity -8.63442898
REMARK CNNscore 0.529087365
REMARK CNNaffinity 6.92263794
REMARK  8 active torsions:
REMARK  status: ('A' for Active; 'I' for Inactive)
REMARK    1  A    between atoms: C2_2  and  C3_3 
REMARK    2  A    between atoms: C2_2  and  C9_12 
REMARK    3  A    between atoms: C3_3  and  C4_4 
REMARK    4  A    between atoms: C4_4  and  C5_5 
REMARK    5  A    between atoms: C6_6  and  C7_7 
REMARK    6  A    between atoms: C6_6  and  C8_9 
REMARK    7  A    between atoms: C7_7  and  O1_8 
REMARK    8  A    between atoms: C8_9  and  O3_11 
ROOT
HETATM    1  C9  UNL     1       1.207   7.046  10.067  1.00  0.00    -0.002 C 
HETATM    2  C10 UNL     1       1.762   5.684  10.590  1.00  0.00     0.006 C 
HETATM    3  C11 UNL     1       1.129   5.437  11.978  1.00  0.00     0.011 C 
HETATM    4  C12 UNL     1      -0.049   6.423  12.045  1.00  0.00    -0.032 C 
HETATM    5  C13 UNL     1      -1.209   5.761  11.236  1.00  0.00     0.016 C 
HETATM    6  C14 UNL     1      -0.568   6.808  13.465  1.00  0.00     0.004 C 
HETATM    7  C15 UNL     1      -0.986   5.636  14.357  1.00  0.00     0.007 C 
HETATM    8  C16 UNL     1      -2.451   5.212  14.378  1.00  0.00     0.007 C 
HETATM    9  C17 UNL     1      -3.496   6.099  13.679  1.00  0.00     0.010 C 
HETATM   10  C18 UNL     1      -4.936   5.914  14.270  1.00  0.00     0.018 C 
HETATM   11  C19 UNL     1      -5.376   4.438  14.162  1.00  0.00     0.023 C 
HETATM   12  C20 UNL     1      -5.068   6.347  15.743  1.00  0.00     0.023 C 
HETATM   13  C21 UNL     1      -5.902   6.776  13.445  1.00  0.00     0.135 C 
HETATM   14  O4  UNL     1      -6.956   6.341  12.981  1.00  0.00    -0.297 OA
HETATM   15  C22 UNL     1      -5.541   8.230  13.281  1.00  0.00     0.080 C 
HETATM   16  C23 UNL     1      -4.142   8.356  12.710  1.00  0.00     0.018 C 
HETATM   17  C24 UNL     1      -3.115   7.577  13.525  1.00  0.00    -0.026 A 
HETATM   18  C25 UNL     1      -2.380   8.303  14.625  1.00  0.00     0.021 A 
HETATM   19  C26 UNL     1      -1.622   7.928  13.361  1.00  0.00    -0.027 A 
HETATM   20  C27 UNL     1      -1.161   9.122  12.509  1.00  0.00     0.011 C 
HETATM   21  C28 UNL     1      -0.517   8.737  11.163  1.00  0.00     0.011 C 
HETATM   22  C29 UNL     1       0.598   7.694  11.350  1.00  0.00    -0.032 C 
HETATM   23  C30 UNL     1       1.740   8.363  12.171  1.00  0.00     0.016 C 
ENDROOT
BRANCH   1  24
HETATM   24  C2  UNL     1       2.182   7.794   9.102  1.00  0.00    -0.014 C 
HETATM   25  C1  UNL     1       2.258   7.264   7.665  1.00  0.00     0.010 C 
BRANCH  24  26
HETATM   26  C3  UNL     1       3.587   7.937   9.734  1.00  0.00     0.008 C 
BRANCH  26  27
HETATM   27  C4  UNL     1       4.104   6.707  10.499  1.00  0.00     0.028 C 
BRANCH  27  28
HETATM   28  C5  UNL     1       4.822   7.011  11.782  1.00  0.00    -0.011 C 
HETATM   29  C6  UNL     1       6.150   6.897  11.997  1.00  0.00     0.035 C 
BRANCH  29  30
HETATM   30  C7  UNL     1       7.157   6.527  10.950  1.00  0.00     0.209 C 
BRANCH  30  31
HETATM   31  O1  UNL     1       7.066   5.131  10.695  1.00  0.00    -0.396 OA
HETATM   32  H12 UNL     1       7.841   4.894  10.158  1.00  0.00     0.209 HD
ENDBRANCH  30  31
ENDBRANCH  29  30
BRANCH  29  33
HETATM   33  C8  UNL     1       6.731   7.214  13.326  1.00  0.00     0.173 C 
HETATM   34  O2  UNL     1       7.411   8.190  13.590  1.00  0.00    -0.646 OA
BRANCH  33  35
HETATM   35  O3  UNL     1       6.438   6.311  14.278  1.00  0.00    -0.773 OA
HETATM   36  H13 UNL     1       6.906   6.651  15.069  1.00  0.00     0.167 HD
ENDBRANCH  33  35
ENDBRANCH  29  33
ENDBRANCH  27  28
ENDBRANCH  26  27
ENDBRANCH  24  26
ENDBRANCH   1  24
TORSDOF 8
ENDMDL
MODEL 3
REMARK minimizedAffinity -6.78747797
REMARK CNNscore 0.456428468
REMARK CNNaffinity 6.85336351
REMARK  8 active torsions:
REMARK  status: ('A' for Active; 'I' for Inactive)
REMARK    1  A    between atoms: C2_2  and  C3_3 
REMARK    2  A    between atoms: C2_2  and  C9_12 
REMARK    3  A    between atoms: C3_3  and  C4_4 
REMARK    4  A    between atoms: C4_4  and  C5_5 
REMARK    5  A    between atoms: C6_6  and  C7_7 
REMARK    6  A    between atoms: C6_6  and  C8_9 
REMARK    7  A    between atoms: C7_7  and  O1_8 
REMARK    8  A    between atoms: C8_9  and  O3_11 
ROOT
HETATM    1  C9  UNL     1      -1.156   9.926  15.358  1.00  0.00    -0.002 C 
HETATM    2  C10 UNL     1       0.003   9.474  16.301  1.00  0.00     0.006 C 
HETATM    3  C11 UNL     1       0.728   8.303  15.602  1.00  0.00     0.011 C 
HETATM    4  C12 UNL     1       0.251   8.369  14.142  1.00  0.00    -0.032 C 
HETATM    5  C13 UNL     1       1.098   9.493  13.464  1.00  0.00     0.016 C 
HETATM    6  C14 UNL     1       0.365   7.062  13.300  1.00  0.00     0.004 C 
HETATM    7  C15 UNL     1       1.763   6.442  13.227  1.00  0.00     0.007 C 
HETATM    8  C16 UNL     1       2.666   6.798  12.051  1.00  0.00     0.007 C 
HETATM    9  C17 UNL     1       2.078   7.590  10.869  1.00  0.00     0.010 C 
HETATM   10  C18 UNL     1       2.869   7.359   9.537  1.00  0.00     0.018 C 
HETATM   11  C19 UNL     1       4.352   7.750   9.715  1.00  0.00     0.023 C 
HETATM   12  C20 UNL     1       2.815   5.909   9.020  1.00  0.00     0.023 C 
HETATM   13  C21 UNL     1       2.251   8.259   8.456  1.00  0.00     0.135 C 
HETATM   14  O4  UNL     1       2.924   8.996   7.735  1.00  0.00    -0.297 OA
HETATM   15  C22 UNL     1       0.761   8.151   8.256  1.00  0.00     0.080 C 
HETATM   16  C23 UNL     1       0.043   8.378   9.572  1.00  0.00     0.018 C 
HETATM   17  C24 UNL     1       0.562   7.465  10.677  1.00  0.00    -0.026 A 
HETATM   18  C25 UNL     1      -0.138   6.146  10.897  1.00  0.00     0.021 A 
HETATM   19  C26 UNL     1      -0.313   7.250  11.929  1.00  0.00    -0.027 A 
HETATM   20  C27 UNL     1      -1.738   7.818  12.027  1.00  0.00     0.011 C 
HETATM   21  C28 UNL     1      -1.881   9.028  12.970  1.00  0.00     0.011 C 
HETATM   22  C29 UNL     1      -1.278   8.736  14.356  1.00  0.00    -0.032 C 
HETATM   23  C30 UNL     1      -2.124   7.605  15.012  1.00  0.00     0.016 C 
ENDROOT
BRANCH   1  24
HETATM   24  C2  UNL     1      -2.374  10.549  16.112  1.00  0.00    -0.014 C 
HETATM   25  C1  UNL     1      -3.715   9.820  15.960  1.00  0.00     0.010 C 
BRANCH  24  26
HETATM   26  C3  UNL     1      -2.506  12.059  15.800  1.00  0.00     0.008 C 
BRANCH  26  27
HETATM   27  C4  UNL     1      -1.286  12.924  16.160  1.00  0.00     0.028 C 
BRANCH  27  28
HETATM   28  C5  UNL     1      -0.720  13.727  15.024  1.00  0.00    -0.011 C 
HETATM   29  C6  UNL     1      -1.099  14.971  14.663  1.00  0.00     0.035 C 
BRANCH  29  30
HETATM   30  C7  UNL     1      -2.102  15.807  15.399  1.00  0.00     0.209 C 
BRANCH  30  31
HETATM   31  O1  UNL     1      -1.423  16.864  16.067  1.00  0.00    -0.396 OA
HETATM   32  H12 UNL     1      -2.065  17.270  16.673  1.00  0.00     0.209 HD
ENDBRANCH  30  31
ENDBRANCH  29  30
BRANCH  29  33
HETATM   33  C8  UNL     1      -0.468  15.648  13.502  1.00  0.00     0.173 C 
HETATM   34  O2  UNL     1      -0.548  16.836  13.241  1.00  0.00    -0.646 OA
BRANCH  33  35
HETATM   35  O3  UNL     1       0.247  14.825  12.714  1.00  0.00    -0.773 OA
HETATM   36  H13 UNL     1       0.569  15.414  12.000  1.00  0.00     0.167 HD
ENDBRANCH  33  35
ENDBRANCH  29  33
ENDBRANCH  27  28
ENDBRANCH  26  27
ENDBRANCH  24  26
ENDBRANCH   1  24
TORSDOF 8
ENDMDL
MODEL 4
REMARK minimizedAffinity -6.75333834
REMARK CNNscore 0.419980168
REMARK CNNaffinity 6.05962992
REMARK  8 active torsions:
REMARK  status: ('A' for Active; 'I' for Inactive)
REMARK    1  A    between atoms: C2_2  and  C3_3 
REMARK    2  A    between atoms: C2_2  and  C9_12 
REMARK    3  A    between atoms: C3_3  and  C4_4 
REMARK    4  A    between atoms: C4_4  and  C5_5 
REMARK    5  A    between atoms: C6_6  and  C7_7 
REMARK    6  A    between atoms: C6_6  and  C8_9 
REMARK    7  A    between atoms: C7_7  and  O1_8 
REMARK    8  A    between atoms: C8_9  and  O3_11 
ROOT
HETATM    1  C9  UNL     1       2.590  11.477  21.024  1.00  0.00    -0.002 C 
HETATM    2  C10 UNL     1       1.797  12.770  21.390  1.00  0.00     0.006 C 
HETATM    3  C11 UNL     1       1.045  13.219  20.117  1.00  0.00     0.011 C 
HETATM    4  C12 UNL     1       1.091  11.994  19.189  1.00  0.00    -0.032 C 
HETATM    5  C13 UNL     1      -0.034  11.034  19.692  1.00  0.00     0.016 C 
HETATM    6  C14 UNL     1       0.899  12.255  17.664  1.00  0.00     0.004 C 
HETATM    7  C15 UNL     1      -0.384  12.993  17.274  1.00  0.00     0.007 C 
HETATM    8  C16 UNL     1      -1.611  12.179  16.878  1.00  0.00     0.007 C 
HETATM    9  C17 UNL     1      -1.467  10.661  16.671  1.00  0.00     0.010 C 
HETATM   10  C18 UNL     1      -2.563  10.077  15.716  1.00  0.00     0.018 C 
HETATM   11  C19 UNL     1      -3.973  10.376  16.267  1.00  0.00     0.023 C 
HETATM   12  C20 UNL     1      -2.488  10.613  14.274  1.00  0.00     0.023 C 
HETATM   13  C21 UNL     1      -2.374   8.553  15.654  1.00  0.00     0.135 C 
HETATM   14  O4  UNL     1      -3.300   7.758  15.817  1.00  0.00    -0.297 OA
HETATM   15  C22 UNL     1      -0.995   8.055  15.304  1.00  0.00     0.080 C 
HETATM   16  C23 UNL     1       0.027   8.651  16.253  1.00  0.00     0.018 C 
HETATM   17  C24 UNL     1      -0.058  10.172  16.311  1.00  0.00    -0.026 A 
HETATM   18  C25 UNL     1       0.821  10.970  15.381  1.00  0.00     0.021 A 
HETATM   19  C26 UNL     1       1.147  10.959  16.867  1.00  0.00    -0.027 A 
HETATM   20  C27 UNL     1       2.468  10.263  17.230  1.00  0.00     0.011 C 
HETATM   21  C28 UNL     1       2.726  10.129  18.743  1.00  0.00     0.011 C 
HETATM   22  C29 UNL     1       2.567  11.480  19.463  1.00  0.00    -0.032 C 
HETATM   23  C30 UNL     1       3.685  12.430  18.941  1.00  0.00     0.016 C 
ENDROOT
BRANCH   1  24
HETATM   24  C2  UNL     1       3.890  11.275  21.867  1.00  0.00    -0.014 C 
HETATM   25  C1  UNL     1       4.137   9.863  22.411  1.00  0.00     0.010 C 
BRANCH  24  26
HETATM   26  C3  UNL     1       3.999  12.345  22.980  1.00  0.00     0.008 C 
BRANCH  26  27
HETATM   27  C4  UNL     1       5.150  13.353  22.828  1.00  0.00     0.028 C 
BRANCH  27  28
HETATM   28  C5  UNL     1       6.519  12.801  23.103  1.00  0.00    -0.011 C 
HETATM   29  C6  UNL     1       7.609  12.948  22.320  1.00  0.00     0.035 C 
BRANCH  29  30
HETATM   30  C7  UNL     1       7.657  13.774  21.070  1.00  0.00     0.209 C 
BRANCH  30  31
HETATM   31  O1  UNL     1       8.087  15.089  21.401  1.00  0.00    -0.396 OA
HETATM   32  H12 UNL     1       7.934  15.639  20.614  1.00  0.00     0.209 HD
ENDBRANCH  30  31
ENDBRANCH  29  30
BRANCH  29  33
HETATM   33  C8  UNL     1       8.904  12.331  22.701  1.00  0.00     0.173 C 
HETATM   34  O2  UNL     1       9.040  11.321  23.370  1.00  0.00    -0.646 OA
BRANCH  33  35
HETATM   35  O3  UNL     1       9.980  12.987  22.232  1.00  0.00    -0.773 OA
HETATM   36  H13 UNL     1      10.734  12.472  22.586  1.00  0.00     0.167 HD
ENDBRANCH  33  35
ENDBRANCH  29  33
ENDBRANCH  27  28
ENDBRANCH  26  27
ENDBRANCH  24  26
ENDBRANCH   1  24
TORSDOF 8
ENDMDL
MODEL 5
REMARK minimizedAffinity -7.94553995
REMARK CNNscore 0.342603385
REMARK CNNaffinity 6.63521767
REMARK  8 active torsions:
REMARK  status: ('A' for Active; 'I' for Inactive)
REMARK    1  A    between atoms: C2_2  and  C3_3 
REMARK    2  A    between atoms: C2_2  and  C9_12 
REMARK    3  A    between atoms: C3_3  and  C4_4 
REMARK    4  A    between atoms: C4_4  and  C5_5 
REMARK    5  A    between atoms: C6_6  and  C7_7 
REMARK    6  A    between atoms: C6_6  and  C8_9 
REMARK    7  A    between atoms: C7_7  and  O1_8 
REMARK    8  A    between atoms: C8_9  and  O3_11 
ROOT
HETATM    1  C9  UNL     1      -0.889  10.051  15.658  1.00  0.00    -0.002 C 
HETATM    2  C10 UNL     1       0.273   9.476  16.526  1.00  0.00     0.006 C 
HETATM    3  C11 UNL     1       0.855   8.264  15.764  1.00  0.00     0.011 C 
HETATM    4  C12 UNL     1       0.309   8.409  14.335  1.00  0.00    -0.032 C 
HETATM    5  C13 UNL     1       1.215   9.471  13.634  1.00  0.00     0.016 C 
HETATM    6  C14 UNL     1       0.263   7.118  13.462  1.00  0.00     0.004 C 
HETATM    7  C15 UNL     1       1.595   6.381  13.299  1.00  0.00     0.007 C 
HETATM    8  C16 UNL     1       2.462   6.687  12.082  1.00  0.00     0.007 C 
HETATM    9  C17 UNL     1       1.885   7.555  10.952  1.00  0.00     0.010 C 
HETATM   10  C18 UNL     1       2.581   7.290   9.573  1.00  0.00     0.018 C 
HETATM   11  C19 UNL     1       4.099   7.547   9.678  1.00  0.00     0.023 C 
HETATM   12  C20 UNL     1       2.372   5.863   9.031  1.00  0.00     0.023 C 
HETATM   13  C21 UNL     1       1.987   8.267   8.547  1.00  0.00     0.135 C 
HETATM   14  O4  UNL     1       2.684   8.960   7.804  1.00  0.00    -0.297 OA
HETATM   15  C22 UNL     1       0.485   8.294   8.426  1.00  0.00     0.080 C 
HETATM   16  C23 UNL     1      -0.139   8.550   9.784  1.00  0.00     0.018 C 
HETATM   17  C24 UNL     1       0.355   7.567  10.840  1.00  0.00    -0.026 A 
HETATM   18  C25 UNL     1      -0.446   6.309  11.072  1.00  0.00     0.021 A 
HETATM   19  C26 UNL     1      -0.468   7.398  12.134  1.00  0.00    -0.027 A 
HETATM   20  C27 UNL     1      -1.830   8.085  12.321  1.00  0.00     0.011 C 
HETATM   21  C28 UNL     1      -1.816   9.279  13.296  1.00  0.00     0.011 C 
HETATM   22  C29 UNL     1      -1.169   8.902  14.639  1.00  0.00    -0.032 C 
HETATM   23  C30 UNL     1      -2.075   7.832  15.318  1.00  0.00     0.016 C 
ENDROOT
BRANCH   1  24
HETATM   24  C2  UNL     1      -2.007  10.758  16.489  1.00  0.00    -0.014 C 
HETATM   25  C1  UNL     1      -2.174  12.265  16.264  1.00  0.00     0.010 C 
BRANCH  24  26
HETATM   26  C3  UNL     1      -1.879  10.415  17.993  1.00  0.00     0.008 C 
BRANCH  26  27
HETATM   27  C4  UNL     1      -1.148  11.456  18.856  1.00  0.00     0.028 C 
BRANCH  27  28
HETATM   28  C5  UNL     1      -0.089  10.899  19.763  1.00  0.00    -0.011 C 
HETATM   29  C6  UNL     1       1.228  11.193  19.722  1.00  0.00     0.035 C 
BRANCH  29  30
HETATM   30  C7  UNL     1       1.850  12.206  18.809  1.00  0.00     0.209 C 
BRANCH  30  31
HETATM   31  O1  UNL     1       0.875  12.642  17.869  1.00  0.00    -0.396 OA
HETATM   32  H12 UNL     1       1.349  13.150  17.190  1.00  0.00     0.209 HD
ENDBRANCH  30  31
ENDBRANCH  29  30
BRANCH  29  33
HETATM   33  C8  UNL     1       2.176  10.553  20.669  1.00  0.00     0.173 C 
HETATM   34  O2  UNL     1       2.725   9.477  20.506  1.00  0.00    -0.646 OA
BRANCH  33  35
HETATM   35  O3  UNL     1       2.412  11.277  21.778  1.00  0.00    -0.773 OA
HETATM   36  H13 UNL     1       3.025  10.714  22.293  1.00  0.00     0.167 HD
ENDBRANCH  33  35
ENDBRANCH  29  33
ENDBRANCH  27  28
ENDBRANCH  26  27
ENDBRANCH  24  26
ENDBRANCH   1  24
TORSDOF 8
ENDMDL
MODEL 6
REMARK minimizedAffinity -7.01883841
REMARK CNNscore 0.308675796
REMARK CNNaffinity 6.41182756
REMARK  8 active torsions:
REMARK  status: ('A' for Active; 'I' for Inactive)
REMARK    1  A    between atoms: C2_2  and  C3_3 
REMARK    2  A    between atoms: C2_2  and  C9_12 
REMARK    3  A    between atoms: C3_3  and  C4_4 
REMARK    4  A    between atoms: C4_4  and  C5_5 
REMARK    5  A    between atoms: C6_6  and  C7_7 
REMARK    6  A    between atoms: C6_6  and  C8_9 
REMARK    7  A    between atoms: C7_7  and  O1_8 
REMARK    8  A    between atoms: C8_9  and  O3_11 
ROOT
HETATM    1  C9  UNL     1      -0.649   8.353  13.430  1.00  0.00    -0.002 C 
HETATM    2  C10 UNL     1      -1.851   8.574  12.460  1.00  0.00     0.006 C 
HETATM    3  C11 UNL     1      -3.023   9.124  13.303  1.00  0.00     0.011 C 
HETATM    4  C12 UNL     1      -2.371   9.580  14.618  1.00  0.00    -0.032 C 
HETATM    5  C13 UNL     1      -1.736  10.976  14.321  1.00  0.00     0.016 C 
HETATM    6  C14 UNL     1      -3.299   9.694  15.866  1.00  0.00     0.004 C 
HETATM    7  C15 UNL     1      -4.522  10.599  15.701  1.00  0.00     0.007 C 
HETATM    8  C16 UNL     1      -4.425  12.056  16.143  1.00  0.00     0.007 C 
HETATM    9  C17 UNL     1      -3.190  12.516  16.935  1.00  0.00     0.010 C 
HETATM   10  C18 UNL     1      -3.477  13.777  17.820  1.00  0.00     0.018 C 
HETATM   11  C19 UNL     1      -3.978  14.947  16.946  1.00  0.00     0.023 C 
HETATM   12  C20 UNL     1      -4.511  13.536  18.936  1.00  0.00     0.023 C 
HETATM   13  C21 UNL     1      -2.160  14.195  18.491  1.00  0.00     0.135 C 
HETATM   14  O4  UNL     1      -1.740  15.353  18.475  1.00  0.00    -0.297 OA
HETATM   15  C22 UNL     1      -1.418  13.126  19.252  1.00  0.00     0.080 C 
HETATM   16  C23 UNL     1      -1.168  11.930  18.355  1.00  0.00     0.018 C 
HETATM   17  C24 UNL     1      -2.450  11.417  17.707  1.00  0.00    -0.026 A 
HETATM   18  C25 UNL     1      -3.212  10.320  18.409  1.00  0.00     0.021 A 
HETATM   19  C26 UNL     1      -2.464   9.988  17.127  1.00  0.00    -0.027 A 
HETATM   20  C27 UNL     1      -1.274   9.031  17.307  1.00  0.00     0.011 C 
HETATM   21  C28 UNL     1      -0.434   8.807  16.034  1.00  0.00     0.011 C 
HETATM   22  C29 UNL     1      -1.319   8.412  14.839  1.00  0.00    -0.032 C 
HETATM   23  C30 UNL     1      -1.955   7.027  15.157  1.00  0.00     0.016 C 
ENDROOT
BRANCH   1  24
HETATM   24  C2  UNL     1       0.321   7.212  12.983  1.00  0.00    -0.014 C 
HETATM   25  C1  UNL     1       1.810   7.570  12.920  1.00  0.00     0.010 C 
BRANCH  24  26
HETATM   26  C3  UNL     1      -0.166   6.555  11.669  1.00  0.00     0.008 C 
BRANCH  26  27
HETATM   27  C4  UNL     1       0.938   6.100  10.701  1.00  0.00     0.028 C 
BRANCH  27  28
HETATM   28  C5  UNL     1       1.726   7.211  10.069  1.00  0.00    -0.011 C 
HETATM   29  C6  UNL     1       2.554   7.096   9.008  1.00  0.00     0.035 C 
BRANCH  29  30
HETATM   30  C7  UNL     1       2.758   5.840   8.216  1.00  0.00     0.209 C 
BRANCH  30  31
HETATM   31  O1  UNL     1       3.768   5.057   8.843  1.00  0.00    -0.396 OA
HETATM   32  H12 UNL     1       4.003   4.352   8.217  1.00  0.00     0.209 HD
ENDBRANCH  30  31
ENDBRANCH  29  30
BRANCH  29  33
HETATM   33  C8  UNL     1       3.292   8.277   8.493  1.00  0.00     0.173 C 
HETATM   34  O2  UNL     1       4.228   8.826   9.046  1.00  0.00    -0.646 OA
BRANCH  33  35
HETATM   35  O3  UNL     1       2.844   8.725   7.306  1.00  0.00    -0.773 OA
HETATM   36  H13 UNL     1       3.412   9.502   7.126  1.00  0.00     0.167 HD
ENDBRANCH  33  35
ENDBRANCH  29  33
ENDBRANCH  27  28
ENDBRANCH  26  27
ENDBRANCH  24  26
ENDBRANCH   1  24
TORSDOF 8
ENDMDL
MODEL 7
REMARK minimizedAffinity -7.30062914
REMARK CNNscore 0.280338466
REMARK CNNaffinity 5.87072897
REMARK  8 active torsions:
REMARK  status: ('A' for Active; 'I' for Inactive)
REMARK    1  A    between atoms: C2_2  and  C3_3 
REMARK    2  A    between atoms: C2_2  and  C9_12 
REMARK    3  A    between atoms: C3_3  and  C4_4 
REMARK    4  A    between atoms: C4_4  and  C5_5 
REMARK    5  A    between atoms: C6_6  and  C7_7 
REMARK    6  A    between atoms: C6_6  and  C8_9 
REMARK    7  A    between atoms: C7_7  and  O1_8 
REMARK    8  A    between atoms: C8_9  and  O3_11 
ROOT
HETATM    1  C9  UNL     1      -4.236  -9.830   5.652  1.00  0.00    -0.002 C 
HETATM    2  C10 UNL     1      -2.861 -10.462   5.269  1.00  0.00     0.006 C 
HETATM    3  C11 UNL     1      -3.104 -11.375   4.046  1.00  0.00     0.011 C 
HETATM    4  C12 UNL     1      -4.483 -10.950   3.515  1.00  0.00    -0.032 C 
HETATM    5  C13 UNL     1      -4.239  -9.652   2.681  1.00  0.00     0.016 C 
HETATM    6  C14 UNL     1      -5.253 -11.985   2.640  1.00  0.00     0.004 C 
HETATM    7  C15 UNL     1      -4.502 -12.502   1.410  1.00  0.00     0.007 C 
HETATM    8  C16 UNL     1      -4.721 -11.810   0.068  1.00  0.00     0.007 C 
HETATM    9  C17 UNL     1      -5.842 -10.764  -0.059  1.00  0.00     0.010 C 
HETATM   10  C18 UNL     1      -6.350 -10.603  -1.533  1.00  0.00     0.018 C 
HETATM   11  C19 UNL     1      -5.184 -10.206  -2.464  1.00  0.00     0.023 C 
HETATM   12  C20 UNL     1      -7.014 -11.868  -2.108  1.00  0.00     0.023 C 
HETATM   13  C21 UNL     1      -7.398  -9.480  -1.553  1.00  0.00     0.135 C 
HETATM   14  O4  UNL     1      -7.366  -8.550  -2.360  1.00  0.00    -0.297 OA
HETATM   15  C22 UNL     1      -8.536  -9.598  -0.571  1.00  0.00     0.080 C 
HETATM   16  C23 UNL     1      -7.993  -9.755   0.836  1.00  0.00     0.018 C 
HETATM   17  C24 UNL     1      -6.994 -10.902   0.944  1.00  0.00    -0.026 A 
HETATM   18  C25 UNL     1      -7.513 -12.262   1.341  1.00  0.00     0.021 A 
HETATM   19  C26 UNL     1      -6.676 -11.476   2.340  1.00  0.00    -0.027 A 
HETATM   20  C27 UNL     1      -7.436 -11.016   3.595  1.00  0.00     0.011 C 
HETATM   21  C28 UNL     1      -6.626 -10.103   4.535  1.00  0.00     0.011 C 
HETATM   22  C29 UNL     1      -5.259 -10.720   4.880  1.00  0.00    -0.032 C 
HETATM   23  C30 UNL     1      -5.519 -12.021   5.697  1.00  0.00     0.016 C 
ENDROOT
BRANCH   1  24
HETATM   24  C2  UNL     1      -4.368  -9.481   7.169  1.00  0.00    -0.014 C 
HETATM   25  C1  UNL     1      -4.098 -10.622   8.157  1.00  0.00     0.010 C 
BRANCH  24  26
HETATM   26  C3  UNL     1      -5.716  -8.778   7.461  1.00  0.00     0.008 C 
BRANCH  26  27
HETATM   27  C4  UNL     1      -6.612  -9.461   8.506  1.00  0.00     0.028 C 
BRANCH  27  28
HETATM   28  C5  UNL     1      -6.990  -8.601   9.678  1.00  0.00    -0.011 C 
HETATM   29  C6  UNL     1      -6.634  -8.807  10.964  1.00  0.00     0.035 C 
BRANCH  29  30
HETATM   30  C7  UNL     1      -5.714  -9.894  11.433  1.00  0.00     0.209 C 
BRANCH  30  31
HETATM   31  O1  UNL     1      -4.442  -9.328  11.727  1.00  0.00    -0.396 OA
HETATM   32  H12 UNL     1      -3.828 -10.072  11.849  1.00  0.00     0.209 HD
ENDBRANCH  30  31
ENDBRANCH  29  30
BRANCH  29  33
HETATM   33  C8  UNL     1      -7.095  -7.886  12.034  1.00  0.00     0.173 C 
HETATM   34  O2  UNL     1      -6.476  -6.926  12.459  1.00  0.00    -0.646 OA
BRANCH  33  35
HETATM   35  O3  UNL     1      -8.308  -8.188  12.528  1.00  0.00    -0.773 OA
HETATM   36  H13 UNL     1      -8.448  -7.511  13.222  1.00  0.00     0.167 HD
ENDBRANCH  33  35
ENDBRANCH  29  33
ENDBRANCH  27  28
ENDBRANCH  26  27
ENDBRANCH  24  26
ENDBRANCH   1  24
TORSDOF 8
ENDMDL
MODEL 8
REMARK minimizedAffinity -6.73914051
REMARK CNNscore 0.244782299
REMARK CNNaffinity 5.04743338
REMARK  8 active torsions:
REMARK  status: ('A' for Active; 'I' for Inactive)
REMARK    1  A    between atoms: C2_2  and  C3_3 
REMARK    2  A    between atoms: C2_2  and  C9_12 
REMARK    3  A    between atoms: C3_3  and  C4_4 
REMARK    4  A    between atoms: C4_4  and  C5_5 
REMARK    5  A    between atoms: C6_6  and  C7_7 
REMARK    6  A    between atoms: C6_6  and  C8_9 
REMARK    7  A    between atoms: C7_7  and  O1_8 
REMARK    8  A    between atoms: C8_9  and  O3_11 
ROOT
HETATM    1  C9  UNL     1      -8.139 -10.321  11.322  1.00  0.00    -0.002 C 
HETATM    2  C10 UNL     1      -9.270  -9.460  10.676  1.00  0.00     0.006 C 
HETATM    3  C11 UNL     1      -8.675  -8.801   9.412  1.00  0.00     0.011 C 
HETATM    4  C12 UNL     1      -7.385  -9.590   9.136  1.00  0.00    -0.032 C 
HETATM    5  C13 UNL     1      -7.831 -10.904   8.420  1.00  0.00     0.016 C 
HETATM    6  C14 UNL     1      -6.294  -8.882   8.276  1.00  0.00     0.004 C 
HETATM    7  C15 UNL     1      -6.751  -8.387   6.902  1.00  0.00     0.007 C 
HETATM    8  C16 UNL     1      -6.548  -9.289   5.688  1.00  0.00     0.007 C 
HETATM    9  C17 UNL     1      -5.701 -10.564   5.839  1.00  0.00     0.010 C 
HETATM   10  C18 UNL     1      -5.077 -11.036   4.481  1.00  0.00     0.018 C 
HETATM   11  C19 UNL     1      -6.186 -11.290   3.437  1.00  0.00     0.023 C 
HETATM   12  C20 UNL     1      -4.068 -10.042   3.876  1.00  0.00     0.023 C 
HETATM   13  C21 UNL     1      -4.331 -12.355   4.735  1.00  0.00     0.135 C 
HETATM   14  O4  UNL     1      -4.488 -13.357   4.036  1.00  0.00    -0.297 OA
HETATM   15  C22 UNL     1      -3.321 -12.358   5.853  1.00  0.00     0.080 C 
HETATM   16  C23 UNL     1      -3.972 -11.891   7.141  1.00  0.00     0.018 C 
HETATM   17  C24 UNL     1      -4.674 -10.548   6.978  1.00  0.00    -0.026 A 
HETATM   18  C25 UNL     1      -3.897  -9.295   7.299  1.00  0.00     0.021 A 
HETATM   19  C26 UNL     1      -5.008  -9.731   8.243  1.00  0.00    -0.027 A 
HETATM   20  C27 UNL     1      -4.531 -10.169   9.638  1.00  0.00     0.011 C 
HETATM   21  C28 UNL     1      -5.639 -10.741  10.542  1.00  0.00     0.011 C 
HETATM   22  C29 UNL     1      -6.850  -9.795  10.616  1.00  0.00    -0.032 C 
HETATM   23  C30 UNL     1      -6.386  -8.484  11.318  1.00  0.00     0.016 C 
ENDROOT
BRANCH   1  24
HETATM   24  C2  UNL     1      -8.273 -10.477  12.870  1.00  0.00    -0.014 C 
HETATM   25  C1  UNL     1      -7.982 -11.870  13.443  1.00  0.00     0.010 C 
BRANCH  24  26
HETATM   26  C3  UNL     1      -9.630  -9.926  13.368  1.00  0.00     0.008 C 
BRANCH  26  27
HETATM   27  C4  UNL     1     -10.176 -10.558  14.659  1.00  0.00     0.028 C 
BRANCH  27  28
HETATM   28  C5  UNL     1      -9.682  -9.930  15.931  1.00  0.00    -0.011 C 
HETATM   29  C6  UNL     1     -10.330  -9.919  17.116  1.00  0.00     0.035 C 
BRANCH  29  30
HETATM   30  C7  UNL     1     -11.628 -10.618  17.387  1.00  0.00     0.209 C 
BRANCH  30  31
HETATM   31  O1  UNL     1     -11.358 -11.876  17.995  1.00  0.00    -0.396 OA
HETATM   32  H12 UNL     1     -12.193 -12.373  17.989  1.00  0.00     0.209 HD
ENDBRANCH  30  31
ENDBRANCH  29  30
BRANCH  29  33
HETATM   33  C8  UNL     1      -9.736  -9.242  18.296  1.00  0.00     0.173 C 
HETATM   34  O2  UNL     1      -9.704  -9.689  19.430  1.00  0.00    -0.646 OA
BRANCH  33  35
HETATM   35  O3  UNL     1      -9.198  -8.041  18.023  1.00  0.00    -0.773 OA
HETATM   36  H13 UNL     1      -8.878  -7.729  18.894  1.00  0.00     0.167 HD
ENDBRANCH  33  35
ENDBRANCH  29  33
ENDBRANCH  27  28
ENDBRANCH  26  27
ENDBRANCH  24  26
ENDBRANCH   1  24
TORSDOF 8
ENDMDL
MODEL 9
REMARK minimizedAffinity -7.35400963
REMARK CNNscore 0.243546277
REMARK CNNaffinity 5.4409256
REMARK  8 active torsions:
REMARK  status: ('A' for Active; 'I' for Inactive)
REMARK    1  A    between atoms: C2_2  and  C3_3 
REMARK    2  A    between atoms: C2_2  and  C9_12 
REMARK    3  A    between atoms: C3_3  and  C4_4 
REMARK    4  A    between atoms: C4_4  and  C5_5 
REMARK    5  A    between atoms: C6_6  and  C7_7 
REMARK    6  A    between atoms: C6_6  and  C8_9 
REMARK    7  A    between atoms: C7_7  and  O1_8 
REMARK    8  A    between atoms: C8_9  and  O3_11 
ROOT
HETATM    1  C9  UNL     1       4.835  12.380  22.038  1.00  0.00    -0.002 C 
HETATM    2  C10 UNL     1       4.600  10.845  22.192  1.00  0.00     0.006 C 
HETATM    3  C11 UNL     1       3.160  10.553  21.714  1.00  0.00     0.011 C 
HETATM    4  C12 UNL     1       2.749  11.814  20.937  1.00  0.00    -0.032 C 
HETATM    5  C13 UNL     1       3.402  11.680  19.525  1.00  0.00     0.016 C 
HETATM    6  C14 UNL     1       1.221  12.076  20.772  1.00  0.00     0.004 C 
HETATM    7  C15 UNL     1       0.420  10.942  20.129  1.00  0.00     0.007 C 
HETATM    8  C16 UNL     1       0.177  10.973  18.623  1.00  0.00     0.007 C 
HETATM    9  C17 UNL     1       0.549  12.238  17.832  1.00  0.00     0.010 C 
HETATM   10  C18 UNL     1      -0.274  12.384  16.506  1.00  0.00     0.018 C 
HETATM   11  C19 UNL     1      -0.066  11.149  15.605  1.00  0.00     0.023 C 
HETATM   12  C20 UNL     1      -1.787  12.568  16.727  1.00  0.00     0.023 C 
HETATM   13  C21 UNL     1       0.240  13.626  15.763  1.00  0.00     0.135 C 
HETATM   14  O4  UNL     1       0.549  13.611  14.571  1.00  0.00    -0.297 OA
HETATM   15  C22 UNL     1       0.286  14.914  16.546  1.00  0.00     0.080 C 
HETATM   16  C23 UNL     1       1.089  14.719  17.817  1.00  0.00     0.018 C 
HETATM   17  C24 UNL     1       0.586  13.540  18.642  1.00  0.00    -0.026 A 
HETATM   18  C25 UNL     1      -0.438  13.809  19.717  1.00  0.00     0.021 A 
HETATM   19  C26 UNL     1       0.983  13.457  20.131  1.00  0.00    -0.027 A 
HETATM   20  C27 UNL     1       1.750  14.593  20.827  1.00  0.00     0.011 C 
HETATM   21  C28 UNL     1       3.231  14.281  21.118  1.00  0.00     0.011 C 
HETATM   22  C29 UNL     1       3.389  12.939  21.854  1.00  0.00    -0.032 C 
HETATM   23  C30 UNL     1       2.720  13.085  23.253  1.00  0.00     0.016 C 
ENDROOT
BRANCH   1  24
HETATM   24  C2  UNL     1       5.864  12.966  23.056  1.00  0.00    -0.014 C 
HETATM   25  C1  UNL     1       6.225  14.446  22.886  1.00  0.00     0.010 C 
BRANCH  24  26
HETATM   26  C3  UNL     1       7.128  12.075  23.140  1.00  0.00     0.008 C 
BRANCH  26  27
HETATM   27  C4  UNL     1       8.468  12.824  23.224  1.00  0.00     0.028 C 
BRANCH  27  28
HETATM   28  C5  UNL     1       9.548  12.297  22.323  1.00  0.00    -0.011 C 
HETATM   29  C6  UNL     1      10.012  12.894  21.205  1.00  0.00     0.035 C 
BRANCH  29  30
HETATM   30  C7  UNL     1       9.584  14.245  20.716  1.00  0.00     0.209 C 
BRANCH  30  31
HETATM   31  O1  UNL     1      10.110  15.239  21.587  1.00  0.00    -0.396 OA
HETATM   32  H12 UNL     1       9.670  16.075  21.355  1.00  0.00     0.209 HD
ENDBRANCH  30  31
ENDBRANCH  29  30
BRANCH  29  33
HETATM   33  C8  UNL     1      11.075  12.252  20.390  1.00  0.00     0.173 C 
HETATM   34  O2  UNL     1      11.150  11.064  20.131  1.00  0.00    -0.646 OA
BRANCH  33  35
HETATM   35  O3  UNL     1      11.998  13.111  19.923  1.00  0.00    -0.773 OA
HETATM   36  H13 UNL     1      12.623  12.534  19.437  1.00  0.00     0.167 HD
ENDBRANCH  33  35
ENDBRANCH  29  33
ENDBRANCH  27  28
ENDBRANCH  26  27
ENDBRANCH  24  26
ENDBRANCH   1  24
TORSDOF 8
ENDMDL
