MODEL 1
REMARK minimizedAffinity -10.0706015
REMARK CNNscore 0.628086627
REMARK CNNaffinity 7.70314789
REMARK  9 active torsions:
REMARK  status: ('A' for Active; 'I' for Inactive)
REMARK    1  A    between atoms: C4_4  and  C5_5 
REMARK    2  A    between atoms: C7_7  and  O1_9 
REMARK    3  A    between atoms: C20_21  and  O2_22 
REMARK    4  A    between atoms: O2_22  and  C21_23 
REMARK    5  A    between atoms: C22_25  and  C23_26 
REMARK    6  A    between atoms: C23_26  and  O4_27 
REMARK    7  A    between atoms: C24_28  and  O5_29 
REMARK    8  A    between atoms: C25_30  and  O6_31 
REMARK    9  A    between atoms: C26_32  and  O7_33 
ROOT
HETATM    1  C5  UNL     1       0.339   7.641  10.293  1.00  0.00     0.147 C 
HETATM    2  C6  UNL     1       1.358   7.341  11.390  1.00  0.00     0.074 C 
HETATM    3  C7  UNL     1       0.679   6.945  12.725  1.00  0.00     0.064 C 
HETATM    4  C8  UNL     1       0.660   5.421  12.895  1.00  0.00     0.046 C 
HETATM    5  C9  UNL     1      -0.765   7.518  12.793  1.00  0.00     0.058 C 
HETATM    6  C10 UNL     1      -0.809   8.839  12.039  1.00  0.00     0.131 C 
HETATM    7  C11 UNL     1      -2.246   9.292  12.241  1.00  0.00     0.042 C 
HETATM    8  C12 UNL     1      -2.577   8.972  13.736  1.00  0.00    -0.029 C 
HETATM    9  C13 UNL     1      -2.308  10.327  14.452  1.00  0.00     0.016 C 
HETATM   10  C14 UNL     1      -4.092   8.539  13.952  1.00  0.00     0.014 C 
HETATM   11  C15 UNL     1      -4.608   7.646  12.783  1.00  0.00     0.034 C 
HETATM   12  C16 UNL     1      -5.762   6.738  13.052  1.00  0.00    -0.022 C 
HETATM   13  C17 UNL     1      -6.366   6.595  14.241  1.00  0.00    -0.059 C 
HETATM   14  C18 UNL     1      -5.870   7.357  15.452  1.00  0.00     0.057 C 
HETATM   15  C19 UNL     1      -6.934   8.392  15.752  1.00  0.00     0.024 C 
HETATM   16  C20 UNL     1      -8.246   8.224  15.515  1.00  0.00     0.116 C 
HETATM   17  C27 UNL     1      -8.734   6.911  14.934  1.00  0.00     0.194 C 
HETATM   18  O8  UNL     1      -9.942   6.678  14.866  1.00  0.00    -0.289 OA
HETATM   19  C28 UNL     1      -7.694   5.859  14.467  1.00  0.00     0.044 C 
HETATM   20  C29 UNL     1      -7.574   4.773  15.550  1.00  0.00     0.028 C 
HETATM   21  C30 UNL     1      -8.253   5.189  13.192  1.00  0.00     0.028 C 
HETATM   22  C31 UNL     1      -4.382   7.879  15.340  1.00  0.00     0.032 C 
HETATM   23  C32 UNL     1      -4.120   8.809  16.550  1.00  0.00     0.025 C 
HETATM   24  C33 UNL     1      -3.419   6.698  15.545  1.00  0.00     0.137 C 
HETATM   25  O9  UNL     1      -3.576   5.898  16.472  1.00  0.00    -0.297 OA
HETATM   26  C34 UNL     1      -2.262   6.507  14.581  1.00  0.00     0.089 C 
HETATM   27  C35 UNL     1      -1.543   7.807  14.138  1.00  0.00    -0.021 C 
HETATM   28  C36 UNL     1      -0.599   8.218  15.287  1.00  0.00     0.017 C 
HETATM   29  O10 UNL     1      -0.567   8.688  10.644  1.00  0.00    -0.376 OA
ENDROOT
BRANCH  16  30
HETATM   30  O2  UNL     1      -9.095   9.256  15.877  1.00  0.00    -0.314 OA
BRANCH  30  31
HETATM   31  C21 UNL     1     -10.144   9.663  14.988  1.00  0.00     0.298 C 
HETATM   32  O3  UNL     1     -11.390   9.137  15.499  1.00  0.00    -0.348 OA
HETATM   33  C22 UNL     1     -12.122   9.987  16.375  1.00  0.00     0.179 C 
HETATM   34  C24 UNL     1     -12.492  11.332  15.710  1.00  0.00     0.180 C 
HETATM   35  C25 UNL     1     -11.627  11.644  14.474  1.00  0.00     0.183 C 
HETATM   36  C26 UNL     1     -10.188  11.197  14.703  1.00  0.00     0.205 C 
BRANCH  33  37
HETATM   37  C23 UNL     1     -11.433  10.144  17.739  1.00  0.00     0.198 C 
BRANCH  37  38
HETATM   38  O4  UNL     1     -10.975   8.877  18.211  1.00  0.00    -0.398 OA
HETATM   39  H32 UNL     1     -10.106   8.719  17.801  1.00  0.00     0.209 HD
ENDBRANCH  37  38
ENDBRANCH  33  37
BRANCH  34  40
HETATM   40  O5  UNL     1     -13.862  11.314  15.254  1.00  0.00    -0.390 OA
HETATM   41  H34 UNL     1     -14.423  11.261  16.049  1.00  0.00     0.210 HD
ENDBRANCH  34  40
BRANCH  35  42
HETATM   42  O6  UNL     1     -12.161  11.031  13.296  1.00  0.00    -0.390 OA
HETATM   43  H36 UNL     1     -13.109  10.870  13.505  1.00  0.00     0.210 HD
ENDBRANCH  35  42
BRANCH  36  44
HETATM   44  O7  UNL     1      -9.643  11.981  15.779  1.00  0.00    -0.388 OA
HETATM   45  H38 UNL     1      -9.473  12.873  15.425  1.00  0.00     0.210 HD
ENDBRANCH  36  44
ENDBRANCH  30  31
ENDBRANCH  16  30
BRANCH   3  46
HETATM   46  O1  UNL     1       1.517   7.474  13.750  1.00  0.00    -0.390 OA
HETATM   47  H14 UNL     1       2.397   7.060  13.680  1.00  0.00     0.210 HD
ENDBRANCH   3  46
BRANCH   1  48
HETATM   48  C4  UNL     1       1.027   7.967   8.987  1.00  0.00     0.007 C 
HETATM   49  C2  UNL     1       1.979   7.285   8.318  1.00  0.00    -0.089 C 
HETATM   50  C1  UNL     1       2.576   7.836   7.049  1.00  0.00     0.042 C 
HETATM   51  C3  UNL     1       2.532   5.947   8.728  1.00  0.00     0.042 C 
ENDBRANCH   1  48
TORSDOF 9
ENDMDL
MODEL 2
REMARK minimizedAffinity -6.95304346
REMARK CNNscore 0.532111049
REMARK CNNaffinity 6.57582092
REMARK  9 active torsions:
REMARK  status: ('A' for Active; 'I' for Inactive)
REMARK    1  A    between atoms: C4_4  and  C5_5 
REMARK    2  A    between atoms: C7_7  and  O1_9 
REMARK    3  A    between atoms: C20_21  and  O2_22 
REMARK    4  A    between atoms: O2_22  and  C21_23 
REMARK    5  A    between atoms: C22_25  and  C23_26 
REMARK    6  A    between atoms: C23_26  and  O4_27 
REMARK    7  A    between atoms: C24_28  and  O5_29 
REMARK    8  A    between atoms: C25_30  and  O6_31 
REMARK    9  A    between atoms: C26_32  and  O7_33 
ROOT
HETATM    1  C5  UNL     1      -3.020  19.325   5.016  1.00  0.00     0.147 C 
HETATM    2  C6  UNL     1      -3.231  18.418   6.227  1.00  0.00     0.074 C 
HETATM    3  C7  UNL     1      -2.115  17.353   6.360  1.00  0.00     0.064 C 
HETATM    4  C8  UNL     1      -1.064  17.791   7.389  1.00  0.00     0.046 C 
HETATM    5  C9  UNL     1      -1.449  17.086   4.982  1.00  0.00     0.058 C 
HETATM    6  C10 UNL     1      -2.489  17.266   3.886  1.00  0.00     0.131 C 
HETATM    7  C11 UNL     1      -1.712  16.921   2.626  1.00  0.00     0.042 C 
HETATM    8  C12 UNL     1      -0.844  15.674   2.999  1.00  0.00    -0.029 C 
HETATM    9  C13 UNL     1      -1.709  14.483   2.495  1.00  0.00     0.016 C 
HETATM   10  C14 UNL     1       0.567  15.664   2.265  1.00  0.00     0.014 C 
HETATM   11  C15 UNL     1       1.178  17.096   2.172  1.00  0.00     0.034 C 
HETATM   12  C16 UNL     1       2.657  17.218   2.019  1.00  0.00    -0.022 C 
HETATM   13  C17 UNL     1       3.515  16.186   2.002  1.00  0.00    -0.059 C 
HETATM   14  C18 UNL     1       3.016  14.768   2.179  1.00  0.00     0.057 C 
HETATM   15  C19 UNL     1       3.180  14.102   0.828  1.00  0.00     0.024 C 
HETATM   16  C20 UNL     1       4.148  14.403  -0.055  1.00  0.00     0.116 C 
HETATM   17  C27 UNL     1       5.178  15.457   0.302  1.00  0.00     0.194 C 
HETATM   18  O8  UNL     1       6.162  15.627  -0.419  1.00  0.00    -0.289 OA
HETATM   19  C28 UNL     1       4.994  16.284   1.602  1.00  0.00     0.044 C 
HETATM   20  C29 UNL     1       5.923  15.708   2.685  1.00  0.00     0.028 C 
HETATM   21  C30 UNL     1       5.460  17.726   1.304  1.00  0.00     0.028 C 
HETATM   22  C31 UNL     1       1.595  14.647   2.862  1.00  0.00     0.032 C 
HETATM   23  C32 UNL     1       1.152  13.168   2.762  1.00  0.00     0.025 C 
HETATM   24  C33 UNL     1       1.741  14.907   4.370  1.00  0.00     0.137 C 
HETATM   25  O9  UNL     1       2.634  14.368   5.029  1.00  0.00    -0.297 OA
HETATM   26  C34 UNL     1       0.773  15.853   5.058  1.00  0.00     0.089 C 
HETATM   27  C35 UNL     1      -0.704  15.745   4.600  1.00  0.00    -0.021 C 
HETATM   28  C36 UNL     1      -1.310  14.515   5.306  1.00  0.00     0.017 C 
HETATM   29  O10 UNL     1      -2.960  18.606   3.784  1.00  0.00    -0.376 OA
ENDROOT
BRANCH  16  30
HETATM   30  O2  UNL     1       4.180  13.678  -1.234  1.00  0.00    -0.314 OA
BRANCH  30  31
HETATM   31  C21 UNL     1       3.961  14.342  -2.486  1.00  0.00     0.298 C 
HETATM   32  O3  UNL     1       4.995  13.918  -3.403  1.00  0.00    -0.348 OA
HETATM   33  C22 UNL     1       4.694  12.790  -4.216  1.00  0.00     0.179 C 
HETATM   34  C24 UNL     1       3.443  13.019  -5.094  1.00  0.00     0.180 C 
HETATM   35  C25 UNL     1       2.558  14.172  -4.582  1.00  0.00     0.183 C 
HETATM   36  C26 UNL     1       2.518  14.177  -3.059  1.00  0.00     0.205 C 
BRANCH  33  37
HETATM   37  C23 UNL     1       4.644  11.487  -3.403  1.00  0.00     0.198 C 
BRANCH  37  38
HETATM   38  O4  UNL     1       5.690  11.469  -2.431  1.00  0.00    -0.398 OA
HETATM   39  H32 UNL     1       5.362  11.956  -1.654  1.00  0.00     0.209 HD
ENDBRANCH  37  38
ENDBRANCH  33  37
BRANCH  34  40
HETATM   40  O5  UNL     1       3.825  13.367  -6.442  1.00  0.00    -0.390 OA
HETATM   41  H34 UNL     1       4.262  12.584  -6.823  1.00  0.00     0.210 HD
ENDBRANCH  34  40
BRANCH  35  42
HETATM   42  O6  UNL     1       3.013  15.436  -5.076  1.00  0.00    -0.390 OA
HETATM   43  H36 UNL     1       3.539  15.218  -5.878  1.00  0.00     0.210 HD
ENDBRANCH  35  42
BRANCH  36  44
HETATM   44  O7  UNL     1       1.880  12.963  -2.624  1.00  0.00    -0.388 OA
HETATM   45  H38 UNL     1       0.927  13.060  -2.804  1.00  0.00     0.210 HD
ENDBRANCH  36  44
ENDBRANCH  30  31
ENDBRANCH  16  30
BRANCH   3  46
HETATM   46  O1  UNL     1      -2.757  16.192   6.882  1.00  0.00    -0.390 OA
HETATM   47  H14 UNL     1      -3.129  16.406   7.757  1.00  0.00     0.210 HD
ENDBRANCH   3  46
BRANCH   1  48
HETATM   48  C4  UNL     1      -4.088  20.391   4.943  1.00  0.00     0.007 C 
HETATM   49  C2  UNL     1      -5.123  20.636   5.773  1.00  0.00    -0.089 C 
HETATM   50  C1  UNL     1      -6.116  21.727   5.466  1.00  0.00     0.042 C 
HETATM   51  C3  UNL     1      -5.398  19.896   7.053  1.00  0.00     0.042 C 
ENDBRANCH   1  48
TORSDOF 9
ENDMDL
MODEL 3
REMARK minimizedAffinity -8.00237179
REMARK CNNscore 0.523923755
REMARK CNNaffinity 6.70681381
REMARK  9 active torsions:
REMARK  status: ('A' for Active; 'I' for Inactive)
REMARK    1  A    between atoms: C4_4  and  C5_5 
REMARK    2  A    between atoms: C7_7  and  O1_9 
REMARK    3  A    between atoms: C20_21  and  O2_22 
REMARK    4  A    between atoms: O2_22  and  C21_23 
REMARK    5  A    between atoms: C22_25  and  C23_26 
REMARK    6  A    between atoms: C23_26  and  O4_27 
REMARK    7  A    between atoms: C24_28  and  O5_29 
REMARK    8  A    between atoms: C25_30  and  O6_31 
REMARK    9  A    between atoms: C26_32  and  O7_33 
ROOT
HETATM    1  C5  UNL     1      -4.086  13.233  17.948  1.00  0.00     0.147 C 
HETATM    2  C6  UNL     1      -4.129  12.246  16.783  1.00  0.00     0.074 C 
HETATM    3  C7  UNL     1      -2.854  11.369  16.713  1.00  0.00     0.064 C 
HETATM    4  C8  UNL     1      -3.103   9.996  17.350  1.00  0.00     0.046 C 
HETATM    5  C9  UNL     1      -1.662  12.084  17.410  1.00  0.00     0.058 C 
HETATM    6  C10 UNL     1      -1.814  13.587  17.231  1.00  0.00     0.131 C 
HETATM    7  C11 UNL     1      -0.565  14.132  17.905  1.00  0.00     0.042 C 
HETATM    8  C12 UNL     1       0.594  13.176  17.472  1.00  0.00    -0.029 C 
HETATM    9  C13 UNL     1       1.224  13.919  16.258  1.00  0.00     0.016 C 
HETATM   10  C14 UNL     1       1.687  12.978  18.610  1.00  0.00     0.014 C 
HETATM   11  C15 UNL     1       1.037  12.898  20.025  1.00  0.00     0.034 C 
HETATM   12  C16 UNL     1       1.798  12.205  21.106  1.00  0.00    -0.022 C 
HETATM   13  C17 UNL     1       2.985  11.601  20.944  1.00  0.00    -0.059 C 
HETATM   14  C18 UNL     1       3.644  11.552  19.582  1.00  0.00     0.057 C 
HETATM   15  C19 UNL     1       4.842  12.474  19.671  1.00  0.00     0.024 C 
HETATM   16  C20 UNL     1       5.555  12.689  20.791  1.00  0.00     0.116 C 
HETATM   17  C27 UNL     1       5.178  11.955  22.064  1.00  0.00     0.194 C 
HETATM   18  O8  UNL     1       5.915  12.011  23.049  1.00  0.00    -0.289 OA
HETATM   19  C28 UNL     1       3.879  11.106  22.090  1.00  0.00     0.044 C 
HETATM   20  C29 UNL     1       4.258   9.625  21.927  1.00  0.00     0.028 C 
HETATM   21  C30 UNL     1       3.243  11.276  23.488  1.00  0.00     0.028 C 
HETATM   22  C31 UNL     1       2.662  11.780  18.364  1.00  0.00     0.032 C 
HETATM   23  C32 UNL     1       3.525  11.916  17.087  1.00  0.00     0.025 C 
HETATM   24  C33 UNL     1       1.838  10.501  18.140  1.00  0.00     0.137 C 
HETATM   25  O9  UNL     1       2.375   9.390  18.119  1.00  0.00    -0.297 OA
HETATM   26  C34 UNL     1       0.336  10.608  17.950  1.00  0.00     0.089 C 
HETATM   27  C35 UNL     1      -0.142  11.800  17.082  1.00  0.00    -0.021 C 
HETATM   28  C36 UNL     1       0.077  11.404  15.607  1.00  0.00     0.017 C 
HETATM   29  O10 UNL     1      -2.960  14.110  17.894  1.00  0.00    -0.376 OA
ENDROOT
BRANCH  16  30
HETATM   30  O2  UNL     1       6.644  13.538  20.699  1.00  0.00    -0.314 OA
BRANCH  30  31
HETATM   31  C21 UNL     1       7.402  13.859  21.873  1.00  0.00     0.298 C 
HETATM   32  O3  UNL     1       8.794  13.949  21.495  1.00  0.00    -0.348 OA
HETATM   33  C22 UNL     1       9.264  15.240  21.125  1.00  0.00     0.179 C 
HETATM   34  C24 UNL     1       9.084  16.276  22.258  1.00  0.00     0.180 C 
HETATM   35  C25 UNL     1       8.055  15.829  23.314  1.00  0.00     0.183 C 
HETATM   36  C26 UNL     1       6.887  15.111  22.650  1.00  0.00     0.205 C 
BRANCH  33  37
HETATM   37  C23 UNL     1       8.692  15.700  19.775  1.00  0.00     0.198 C 
BRANCH  37  38
HETATM   38  O4  UNL     1       8.815  17.115  19.640  1.00  0.00    -0.398 OA
HETATM   39  H32 UNL     1       9.713  17.291  19.309  1.00  0.00     0.209 HD
ENDBRANCH  37  38
ENDBRANCH  33  37
BRANCH  34  40
HETATM   40  O5  UNL     1      10.328  16.480  22.962  1.00  0.00    -0.390 OA
HETATM   41  H34 UNL     1      10.943  16.898  22.333  1.00  0.00     0.210 HD
ENDBRANCH  34  40
BRANCH  35  42
HETATM   42  O6  UNL     1       8.657  14.996  24.309  1.00  0.00    -0.390 OA
HETATM   43  H36 UNL     1       9.617  15.206  24.265  1.00  0.00     0.210 HD
ENDBRANCH  35  42
BRANCH  36  44
HETATM   44  O7  UNL     1       6.205  16.052  21.803  1.00  0.00    -0.388 OA
HETATM   45  H38 UNL     1       5.706  16.652  22.386  1.00  0.00     0.210 HD
ENDBRANCH  36  44
ENDBRANCH  30  31
ENDBRANCH  16  30
BRANCH   3  46
HETATM   46  O1  UNL     1      -2.616  11.154  15.325  1.00  0.00    -0.390 OA
HETATM   47  H14 UNL     1      -3.377  10.677  14.946  1.00  0.00     0.210 HD
ENDBRANCH   3  46
BRANCH   1  48
HETATM   48  C4  UNL     1      -5.364  14.034  18.028  1.00  0.00     0.007 C 
HETATM   49  C2  UNL     1      -6.280  14.105  19.017  1.00  0.00    -0.089 C 
HETATM   50  C1  UNL     1      -7.529  14.931  18.854  1.00  0.00     0.042 C 
HETATM   51  C3  UNL     1      -6.169  13.411  20.347  1.00  0.00     0.042 C 
ENDBRANCH   1  48
TORSDOF 9
ENDMDL
MODEL 4
REMARK minimizedAffinity -7.68092537
REMARK CNNscore 0.494227886
REMARK CNNaffinity 6.49690247
REMARK  9 active torsions:
REMARK  status: ('A' for Active; 'I' for Inactive)
REMARK    1  A    between atoms: C4_4  and  C5_5 
REMARK    2  A    between atoms: C7_7  and  O1_9 
REMARK    3  A    between atoms: C20_21  and  O2_22 
REMARK    4  A    between atoms: O2_22  and  C21_23 
REMARK    5  A    between atoms: C22_25  and  C23_26 
REMARK    6  A    between atoms: C23_26  and  O4_27 
REMARK    7  A    between atoms: C24_28  and  O5_29 
REMARK    8  A    between atoms: C25_30  and  O6_31 
REMARK    9  A    between atoms: C26_32  and  O7_33 
ROOT
HETATM    1  C5  UNL     1       2.137  11.329  20.216  1.00  0.00     0.147 C 
HETATM    2  C6  UNL     1       2.649  10.332  19.179  1.00  0.00     0.074 C 
HETATM    3  C7  UNL     1       1.961  10.515  17.804  1.00  0.00     0.064 C 
HETATM    4  C8  UNL     1       2.848  11.331  16.855  1.00  0.00     0.046 C 
HETATM    5  C9  UNL     1       0.575  11.199  17.974  1.00  0.00     0.058 C 
HETATM    6  C10 UNL     1      -0.024  10.777  19.308  1.00  0.00     0.131 C 
HETATM    7  C11 UNL     1      -1.377  11.471  19.302  1.00  0.00     0.042 C 
HETATM    8  C12 UNL     1      -1.927  11.298  17.848  1.00  0.00    -0.029 C 
HETATM    9  C13 UNL     1      -2.845  10.046  17.969  1.00  0.00     0.016 C 
HETATM   10  C14 UNL     1      -2.781  12.548  17.360  1.00  0.00     0.014 C 
HETATM   11  C15 UNL     1      -2.167  13.893  17.855  1.00  0.00     0.034 C 
HETATM   12  C16 UNL     1      -2.489  15.133  17.090  1.00  0.00    -0.022 C 
HETATM   13  C17 UNL     1      -3.234  15.176  15.975  1.00  0.00    -0.059 C 
HETATM   14  C18 UNL     1      -3.794  13.904  15.374  1.00  0.00     0.057 C 
HETATM   15  C19 UNL     1      -5.289  13.958  15.612  1.00  0.00     0.024 C 
HETATM   16  C20 UNL     1      -6.010  15.092  15.657  1.00  0.00     0.116 C 
HETATM   17  C27 UNL     1      -5.318  16.423  15.434  1.00  0.00     0.194 C 
HETATM   18  O8  UNL     1      -5.984  17.451  15.307  1.00  0.00    -0.289 OA
HETATM   19  C28 UNL     1      -3.770  16.461  15.328  1.00  0.00     0.044 C 
HETATM   20  C29 UNL     1      -3.382  16.564  13.844  1.00  0.00     0.028 C 
HETATM   21  C30 UNL     1      -3.290  17.751  16.028  1.00  0.00     0.028 C 
HETATM   22  C31 UNL     1      -3.052  12.581  15.820  1.00  0.00     0.032 C 
HETATM   23  C32 UNL     1      -3.879  11.382  15.297  1.00  0.00     0.025 C 
HETATM   24  C33 UNL     1      -1.712  12.482  15.073  1.00  0.00     0.137 C 
HETATM   25  O9  UNL     1      -1.641  12.682  13.857  1.00  0.00    -0.297 OA
HETATM   26  C34 UNL     1      -0.452  12.141  15.848  1.00  0.00     0.089 C 
HETATM   27  C35 UNL     1      -0.617  11.059  16.946  1.00  0.00    -0.021 C 
HETATM   28  C36 UNL     1      -0.624   9.689  16.236  1.00  0.00     0.017 C 
HETATM   29  O10 UNL     1       0.727  11.244  20.424  1.00  0.00    -0.376 OA
ENDROOT
BRANCH  16  30
HETATM   30  O2  UNL     1      -7.375  14.969  15.851  1.00  0.00    -0.314 OA
BRANCH  30  31
HETATM   31  C21 UNL     1      -8.283  15.369  14.815  1.00  0.00     0.298 C 
HETATM   32  O3  UNL     1      -8.600  14.201  14.026  1.00  0.00    -0.348 OA
HETATM   33  C22 UNL     1      -9.750  13.464  14.424  1.00  0.00     0.179 C 
HETATM   34  C24 UNL     1     -11.033  14.326  14.407  1.00  0.00     0.180 C 
HETATM   35  C25 UNL     1     -10.734  15.838  14.422  1.00  0.00     0.183 C 
HETATM   36  C26 UNL     1      -9.543  16.137  15.323  1.00  0.00     0.205 C 
BRANCH  33  37
HETATM   37  C23 UNL     1      -9.529  12.718  15.749  1.00  0.00     0.198 C 
BRANCH  37  38
HETATM   38  O4  UNL     1      -8.522  11.718  15.593  1.00  0.00    -0.398 OA
HETATM   39  H32 UNL     1      -7.663  12.160  15.708  1.00  0.00     0.209 HD
ENDBRANCH  37  38
ENDBRANCH  33  37
BRANCH  34  40
HETATM   40  O5  UNL     1     -11.798  14.074  13.209  1.00  0.00    -0.390 OA
HETATM   41  H34 UNL     1     -12.113  13.154  13.263  1.00  0.00     0.210 HD
ENDBRANCH  34  40
BRANCH  35  42
HETATM   42  O6  UNL     1     -10.503  16.336  13.101  1.00  0.00    -0.390 OA
HETATM   43  H36 UNL     1     -10.932  15.681  12.506  1.00  0.00     0.210 HD
ENDBRANCH  35  42
BRANCH  36  44
HETATM   44  O7  UNL     1      -9.903  15.789  16.671  1.00  0.00    -0.388 OA
HETATM   45  H38 UNL     1     -10.515  16.477  16.991  1.00  0.00     0.210 HD
ENDBRANCH  36  44
ENDBRANCH  30  31
ENDBRANCH  16  30
BRANCH   3  46
HETATM   46  O1  UNL     1       1.850   9.204  17.255  1.00  0.00    -0.390 OA
HETATM   47  H14 UNL     1       2.745   8.836  17.141  1.00  0.00     0.210 HD
ENDBRANCH   3  46
BRANCH   1  48
HETATM   48  C4  UNL     1       2.866  11.168  21.530  1.00  0.00     0.007 C 
HETATM   49  C2  UNL     1       2.885  10.125  22.386  1.00  0.00    -0.089 C 
HETATM   50  C1  UNL     1       3.640  10.208  23.687  1.00  0.00     0.042 C 
HETATM   51  C3  UNL     1       2.198   8.806  22.156  1.00  0.00     0.042 C 
ENDBRANCH   1  48
TORSDOF 9
ENDMDL
MODEL 5
REMARK minimizedAffinity -7.92873478
REMARK CNNscore 0.407480776
REMARK CNNaffinity 6.33112192
REMARK  9 active torsions:
REMARK  status: ('A' for Active; 'I' for Inactive)
REMARK    1  A    between atoms: C4_4  and  C5_5 
REMARK    2  A    between atoms: C7_7  and  O1_9 
REMARK    3  A    between atoms: C20_21  and  O2_22 
REMARK    4  A    between atoms: O2_22  and  C21_23 
REMARK    5  A    between atoms: C22_25  and  C23_26 
REMARK    6  A    between atoms: C23_26  and  O4_27 
REMARK    7  A    between atoms: C24_28  and  O5_29 
REMARK    8  A    between atoms: C25_30  and  O6_31 
REMARK    9  A    between atoms: C26_32  and  O7_33 
ROOT
HETATM    1  C5  UNL     1      -6.766 -10.002   5.551  1.00  0.00     0.147 C 
HETATM    2  C6  UNL     1      -5.271  -9.920   5.850  1.00  0.00     0.074 C 
HETATM    3  C7  UNL     1      -4.939 -10.360   7.297  1.00  0.00     0.064 C 
HETATM    4  C8  UNL     1      -4.446 -11.813   7.325  1.00  0.00     0.046 C 
HETATM    5  C9  UNL     1      -6.181 -10.190   8.217  1.00  0.00     0.058 C 
HETATM    6  C10 UNL     1      -6.998  -9.002   7.730  1.00  0.00     0.131 C 
HETATM    7  C11 UNL     1      -8.127  -8.933   8.746  1.00  0.00     0.042 C 
HETATM    8  C12 UNL     1      -7.454  -9.194  10.134  1.00  0.00    -0.029 C 
HETATM    9  C13 UNL     1      -7.206  -7.757  10.678  1.00  0.00     0.016 C 
HETATM   10  C14 UNL     1      -8.397  -9.994  11.134  1.00  0.00     0.014 C 
HETATM   11  C15 UNL     1      -9.219 -11.094  10.395  1.00  0.00     0.034 C 
HETATM   12  C16 UNL     1      -9.722 -12.248  11.196  1.00  0.00    -0.022 C 
HETATM   13  C17 UNL     1      -9.482 -12.439  12.502  1.00  0.00    -0.059 C 
HETATM   14  C18 UNL     1      -8.617 -11.468  13.276  1.00  0.00     0.057 C 
HETATM   15  C19 UNL     1      -9.556 -10.731  14.208  1.00  0.00     0.024 C 
HETATM   16  C20 UNL     1     -10.668 -11.264  14.743  1.00  0.00     0.116 C 
HETATM   17  C27 UNL     1     -11.023 -12.706  14.437  1.00  0.00     0.194 C 
HETATM   18  O8  UNL     1     -11.940 -13.259  15.046  1.00  0.00    -0.289 OA
HETATM   19  C28 UNL     1     -10.192 -13.480  13.380  1.00  0.00     0.044 C 
HETATM   20  C29 UNL     1      -9.194 -14.393  14.113  1.00  0.00     0.028 C 
HETATM   21  C30 UNL     1     -11.167 -14.387  12.597  1.00  0.00     0.028 C 
HETATM   22  C31 UNL     1      -7.661 -10.579  12.384  1.00  0.00     0.032 C 
HETATM   23  C32 UNL     1      -7.024  -9.509  13.302  1.00  0.00     0.025 C 
HETATM   24  C33 UNL     1      -6.476 -11.437  11.911  1.00  0.00     0.137 C 
HETATM   25  O9  UNL     1      -5.859 -12.163  12.696  1.00  0.00    -0.297 OA
HETATM   26  C34 UNL     1      -6.065 -11.399  10.450  1.00  0.00     0.089 C 
HETATM   27  C35 UNL     1      -6.106  -9.999   9.784  1.00  0.00    -0.021 C 
HETATM   28  C36 UNL     1      -4.832  -9.249  10.225  1.00  0.00     0.017 C 
HETATM   29  O10 UNL     1      -7.557  -9.208   6.436  1.00  0.00    -0.376 OA
ENDROOT
BRANCH  16  30
HETATM   30  O2  UNL     1     -11.404 -10.467  15.604  1.00  0.00    -0.314 OA
BRANCH  30  31
HETATM   31  C21 UNL     1     -11.670  -9.100  15.260  1.00  0.00     0.298 C 
HETATM   32  O3  UNL     1     -13.103  -8.928  15.195  1.00  0.00    -0.348 OA
HETATM   33  C22 UNL     1     -13.743  -8.505  16.394  1.00  0.00     0.179 C 
HETATM   34  C24 UNL     1     -13.195  -7.153  16.905  1.00  0.00     0.180 C 
HETATM   35  C25 UNL     1     -11.819  -6.805  16.305  1.00  0.00     0.183 C 
HETATM   36  C26 UNL     1     -10.959  -8.056  16.177  1.00  0.00     0.205 C 
BRANCH  33  37
HETATM   37  C23 UNL     1     -13.754  -9.608  17.464  1.00  0.00     0.198 C 
BRANCH  37  38
HETATM   38  O4  UNL     1     -13.354  -9.078  18.727  1.00  0.00    -0.398 OA
HETATM   39  H32 UNL     1     -14.147  -8.687  19.135  1.00  0.00     0.209 HD
ENDBRANCH  37  38
ENDBRANCH  33  37
BRANCH  34  40
HETATM   40  O5  UNL     1     -14.083  -6.075  16.541  1.00  0.00    -0.390 OA
HETATM   41  H34 UNL     1     -14.912  -6.214  17.034  1.00  0.00     0.210 HD
ENDBRANCH  34  40
BRANCH  35  42
HETATM   42  O6  UNL     1     -11.953  -6.156  15.036  1.00  0.00    -0.390 OA
HETATM   43  H36 UNL     1     -12.866  -5.789  15.037  1.00  0.00     0.210 HD
ENDBRANCH  35  42
BRANCH  36  44
HETATM   44  O7  UNL     1     -10.701  -8.558  17.500  1.00  0.00    -0.388 OA
HETATM   45  H38 UNL     1     -10.047  -7.963  17.909  1.00  0.00     0.210 HD
ENDBRANCH  36  44
ENDBRANCH  30  31
ENDBRANCH  16  30
BRANCH   3  46
HETATM   46  O1  UNL     1      -3.850  -9.537   7.706  1.00  0.00    -0.390 OA
HETATM   47  H14 UNL     1      -3.091  -9.706   7.118  1.00  0.00     0.210 HD
ENDBRANCH   3  46
BRANCH   1  48
HETATM   48  C4  UNL     1      -7.055  -9.624   4.117  1.00  0.00     0.007 C 
HETATM   49  C2  UNL     1      -6.557 -10.133   2.971  1.00  0.00    -0.089 C 
HETATM   50  C1  UNL     1      -6.942  -9.551   1.636  1.00  0.00     0.042 C 
HETATM   51  C3  UNL     1      -5.607 -11.297   2.884  1.00  0.00     0.042 C 
ENDBRANCH   1  48
TORSDOF 9
ENDMDL
MODEL 6
REMARK minimizedAffinity -7.66484594
REMARK CNNscore 0.397181332
REMARK CNNaffinity 6.47596884
REMARK  9 active torsions:
REMARK  status: ('A' for Active; 'I' for Inactive)
REMARK    1  A    between atoms: C4_4  and  C5_5 
REMARK    2  A    between atoms: C7_7  and  O1_9 
REMARK    3  A    between atoms: C20_21  and  O2_22 
REMARK    4  A    between atoms: O2_22  and  C21_23 
REMARK    5  A    between atoms: C22_25  and  C23_26 
REMARK    6  A    between atoms: C23_26  and  O4_27 
REMARK    7  A    between atoms: C24_28  and  O5_29 
REMARK    8  A    between atoms: C25_30  and  O6_31 
REMARK    9  A    between atoms: C26_32  and  O7_33 
ROOT
HETATM    1  C5  UNL     1      -8.572  17.683   6.101  1.00  0.00     0.147 C 
HETATM    2  C6  UNL     1      -8.132  18.836   5.202  1.00  0.00     0.074 C 
HETATM    3  C7  UNL     1      -8.923  18.875   3.871  1.00  0.00     0.064 C 
HETATM    4  C8  UNL     1     -10.058  19.905   3.942  1.00  0.00     0.046 C 
HETATM    5  C9  UNL     1      -9.487  17.467   3.532  1.00  0.00     0.058 C 
HETATM    6  C10 UNL     1      -8.527  16.409   4.057  1.00  0.00     0.131 C 
HETATM    7  C11 UNL     1      -9.179  15.112   3.606  1.00  0.00     0.042 C 
HETATM    8  C12 UNL     1      -9.683  15.383   2.150  1.00  0.00    -0.029 C 
HETATM    9  C13 UNL     1      -8.529  14.823   1.270  1.00  0.00     0.016 C 
HETATM   10  C14 UNL     1     -11.037  14.619   1.815  1.00  0.00     0.014 C 
HETATM   11  C15 UNL     1     -12.008  14.605   3.036  1.00  0.00     0.034 C 
HETATM   12  C16 UNL     1     -13.465  14.426   2.769  1.00  0.00    -0.022 C 
HETATM   13  C17 UNL     1     -14.015  14.322   1.550  1.00  0.00    -0.059 C 
HETATM   14  C18 UNL     1     -13.157  14.418   0.307  1.00  0.00     0.057 C 
HETATM   15  C19 UNL     1     -13.130  13.024  -0.284  1.00  0.00     0.024 C 
HETATM   16  C20 UNL     1     -14.140  12.140  -0.192  1.00  0.00     0.116 C 
HETATM   17  C27 UNL     1     -15.416  12.541   0.522  1.00  0.00     0.194 C 
HETATM   18  O8  UNL     1     -16.406  11.810   0.473  1.00  0.00    -0.289 OA
HETATM   19  C28 UNL     1     -15.465  13.896   1.277  1.00  0.00     0.044 C 
HETATM   20  C29 UNL     1     -16.211  14.918   0.402  1.00  0.00     0.028 C 
HETATM   21  C30 UNL     1     -16.298  13.682   2.560  1.00  0.00     0.028 C 
HETATM   22  C31 UNL     1     -11.758  15.124   0.523  1.00  0.00     0.032 C 
HETATM   23  C32 UNL     1     -10.936  14.939  -0.775  1.00  0.00     0.025 C 
HETATM   24  C33 UNL     1     -11.975  16.642   0.630  1.00  0.00     0.137 C 
HETATM   25  O9  UNL     1     -12.695  17.244  -0.172  1.00  0.00    -0.297 OA
HETATM   26  C34 UNL     1     -11.299  17.413   1.750  1.00  0.00     0.089 C 
HETATM   27  C35 UNL     1      -9.845  16.982   2.071  1.00  0.00    -0.021 C 
HETATM   28  C36 UNL     1      -8.935  17.620   1.001  1.00  0.00     0.017 C 
HETATM   29  O10 UNL     1      -8.432  16.406   5.478  1.00  0.00    -0.376 OA
ENDROOT
BRANCH  16  30
HETATM   30  O2  UNL     1     -13.971  10.915  -0.816  1.00  0.00    -0.314 OA
BRANCH  30  31
HETATM   31  C21 UNL     1     -14.855  10.527  -1.876  1.00  0.00     0.298 C 
HETATM   32  O3  UNL     1     -14.925  11.619  -2.820  1.00  0.00    -0.348 OA
HETATM   33  C22 UNL     1     -13.996  11.582  -3.898  1.00  0.00     0.179 C 
HETATM   34  C24 UNL     1     -14.139  10.300  -4.749  1.00  0.00     0.180 C 
HETATM   35  C25 UNL     1     -14.890   9.175  -4.011  1.00  0.00     0.183 C 
HETATM   36  C26 UNL     1     -14.506   9.156  -2.536  1.00  0.00     0.205 C 
BRANCH  33  37
HETATM   37  C23 UNL     1     -12.558  11.854  -3.431  1.00  0.00     0.198 C 
BRANCH  37  38
HETATM   38  O4  UNL     1     -11.624  11.257  -4.330  1.00  0.00    -0.398 OA
HETATM   39  H32 UNL     1     -11.495  11.885  -5.063  1.00  0.00     0.209 HD
ENDBRANCH  37  38
ENDBRANCH  33  37
BRANCH  34  40
HETATM   40  O5  UNL     1     -14.890  10.570  -5.952  1.00  0.00    -0.390 OA
HETATM   41  H34 UNL     1     -14.350  11.174  -6.493  1.00  0.00     0.210 HD
ENDBRANCH  34  40
BRANCH  35  42
HETATM   42  O6  UNL     1     -16.306   9.310  -4.160  1.00  0.00    -0.390 OA
HETATM   43  H36 UNL     1     -16.423   9.862  -4.966  1.00  0.00     0.210 HD
ENDBRANCH  35  42
BRANCH  36  44
HETATM   44  O7  UNL     1     -13.109   8.831  -2.442  1.00  0.00    -0.388 OA
HETATM   45  H38 UNL     1     -13.023   7.880  -2.636  1.00  0.00     0.210 HD
ENDBRANCH  36  44
ENDBRANCH  30  31
ENDBRANCH  16  30
BRANCH   3  46
HETATM   46  O1  UNL     1      -7.996  19.334   2.891  1.00  0.00    -0.390 OA
HETATM   47  H14 UNL     1      -7.699  20.230   3.135  1.00  0.00     0.210 HD
ENDBRANCH   3  46
BRANCH   1  48
HETATM   48  C4  UNL     1      -7.827  17.704   7.415  1.00  0.00     0.007 C 
HETATM   49  C2  UNL     1      -8.136  18.320   8.575  1.00  0.00    -0.089 C 
HETATM   50  C1  UNL     1      -7.202  18.257   9.755  1.00  0.00     0.042 C 
HETATM   51  C3  UNL     1      -9.396  19.103   8.828  1.00  0.00     0.042 C 
ENDBRANCH   1  48
TORSDOF 9
ENDMDL
MODEL 7
REMARK minimizedAffinity -7.14738512
REMARK CNNscore 0.369818032
REMARK CNNaffinity 6.16608191
REMARK  9 active torsions:
REMARK  status: ('A' for Active; 'I' for Inactive)
REMARK    1  A    between atoms: C4_4  and  C5_5 
REMARK    2  A    between atoms: C7_7  and  O1_9 
REMARK    3  A    between atoms: C20_21  and  O2_22 
REMARK    4  A    between atoms: O2_22  and  C21_23 
REMARK    5  A    between atoms: C22_25  and  C23_26 
REMARK    6  A    between atoms: C23_26  and  O4_27 
REMARK    7  A    between atoms: C24_28  and  O5_29 
REMARK    8  A    between atoms: C25_30  and  O6_31 
REMARK    9  A    between atoms: C26_32  and  O7_33 
ROOT
HETATM    1  C5  UNL     1      -8.816  13.570  17.688  1.00  0.00     0.147 C 
HETATM    2  C6  UNL     1      -8.756  15.015  17.198  1.00  0.00     0.074 C 
HETATM    3  C7  UNL     1      -7.305  15.473  16.906  1.00  0.00     0.064 C 
HETATM    4  C8  UNL     1      -6.998  15.384  15.406  1.00  0.00     0.046 C 
HETATM    5  C9  UNL     1      -6.291  14.623  17.721  1.00  0.00     0.058 C 
HETATM    6  C10 UNL     1      -6.932  14.218  19.041  1.00  0.00     0.131 C 
HETATM    7  C11 UNL     1      -5.816  13.454  19.734  1.00  0.00     0.042 C 
HETATM    8  C12 UNL     1      -4.513  14.273  19.454  1.00  0.00    -0.029 C 
HETATM    9  C13 UNL     1      -4.371  15.152  20.730  1.00  0.00     0.016 C 
HETATM   10  C14 UNL     1      -3.229  13.349  19.289  1.00  0.00     0.014 C 
HETATM   11  C15 UNL     1      -3.560  12.035  18.517  1.00  0.00     0.034 C 
HETATM   12  C16 UNL     1      -2.443  11.332  17.821  1.00  0.00    -0.022 C 
HETATM   13  C17 UNL     1      -1.175  11.769  17.767  1.00  0.00    -0.059 C 
HETATM   14  C18 UNL     1      -0.786  13.082  18.412  1.00  0.00     0.057 C 
HETATM   15  C19 UNL     1       0.062  12.716  19.613  1.00  0.00     0.024 C 
HETATM   16  C20 UNL     1       0.859  11.636  19.679  1.00  0.00     0.116 C 
HETATM   17  C27 UNL     1       0.961  10.712  18.481  1.00  0.00     0.194 C 
HETATM   18  O8  UNL     1       1.807   9.816  18.463  1.00  0.00    -0.289 OA
HETATM   19  C28 UNL     1       0.017  10.938  17.270  1.00  0.00     0.044 C 
HETATM   20  C29 UNL     1       0.803  11.663  16.164  1.00  0.00     0.028 C 
HETATM   21  C30 UNL     1      -0.382   9.548  16.728  1.00  0.00     0.028 C 
HETATM   22  C31 UNL     1      -1.989  14.074  18.669  1.00  0.00     0.032 C 
HETATM   23  C32 UNL     1      -1.453  15.250  19.519  1.00  0.00     0.025 C 
HETATM   24  C33 UNL     1      -2.401  14.718  17.335  1.00  0.00     0.137 C 
HETATM   25  O9  UNL     1      -1.558  15.180  16.560  1.00  0.00    -0.297 OA
HETATM   26  C34 UNL     1      -3.871  14.776  16.959  1.00  0.00     0.089 C 
HETATM   27  C35 UNL     1      -4.842  15.111  18.121  1.00  0.00    -0.021 C 
HETATM   28  C36 UNL     1      -4.776  16.636  18.343  1.00  0.00     0.017 C 
HETATM   29  O10 UNL     1      -8.047  13.350  18.871  1.00  0.00    -0.376 OA
ENDROOT
BRANCH  16  30
HETATM   30  O2  UNL     1       1.596  11.460  20.838  1.00  0.00    -0.314 OA
BRANCH  30  31
HETATM   31  C21 UNL     1       2.676  12.354  21.140  1.00  0.00     0.298 C 
HETATM   32  O3  UNL     1       2.892  12.325  22.569  1.00  0.00    -0.348 OA
HETATM   33  C22 UNL     1       3.849  11.385  23.043  1.00  0.00     0.179 C 
HETATM   34  C24 UNL     1       5.248  11.611  22.426  1.00  0.00     0.180 C 
HETATM   35  C25 UNL     1       5.201  12.458  21.139  1.00  0.00     0.183 C 
HETATM   36  C26 UNL     1       3.974  12.101  20.310  1.00  0.00     0.205 C 
BRANCH  33  37
HETATM   37  C23 UNL     1       3.349   9.938  22.919  1.00  0.00     0.198 C 
BRANCH  37  38
HETATM   38  O4  UNL     1       2.751   9.513  24.144  1.00  0.00    -0.398 OA
HETATM   39  H32 UNL     1       1.829   9.823  24.132  1.00  0.00     0.209 HD
ENDBRANCH  37  38
ENDBRANCH  33  37
BRANCH  34  40
HETATM   40  O5  UNL     1       6.102  12.321  23.349  1.00  0.00    -0.390 OA
HETATM   41  H34 UNL     1       6.253  11.727  24.107  1.00  0.00     0.210 HD
ENDBRANCH  34  40
BRANCH  35  42
HETATM   42  O6  UNL     1       5.217  13.858  21.436  1.00  0.00    -0.390 OA
HETATM   43  H36 UNL     1       5.602  13.919  22.339  1.00  0.00     0.210 HD
ENDBRANCH  35  42
BRANCH  36  44
HETATM   44  O7  UNL     1       4.105  10.734  19.883  1.00  0.00    -0.388 OA
HETATM   45  H38 UNL     1       4.778  10.718  19.178  1.00  0.00     0.210 HD
ENDBRANCH  36  44
ENDBRANCH  30  31
ENDBRANCH  16  30
BRANCH   3  46
HETATM   46  O1  UNL     1      -7.262  16.852  17.265  1.00  0.00    -0.390 OA
HETATM   47  H14 UNL     1      -7.892  17.342  16.705  1.00  0.00     0.210 HD
ENDBRANCH   3  46
BRANCH   1  48
HETATM   48  C4  UNL     1     -10.245  13.130  17.908  1.00  0.00     0.007 C 
HETATM   49  C2  UNL     1     -11.107  13.454  18.894  1.00  0.00    -0.089 C 
HETATM   50  C1  UNL     1     -12.481  12.839  18.951  1.00  0.00     0.042 C 
HETATM   51  C3  UNL     1     -10.824  14.432  20.002  1.00  0.00     0.042 C 
ENDBRANCH   1  48
TORSDOF 9
ENDMDL
MODEL 8
REMARK minimizedAffinity -7.60301924
REMARK CNNscore 0.358417332
REMARK CNNaffinity 6.02311659
REMARK  9 active torsions:
REMARK  status: ('A' for Active; 'I' for Inactive)
REMARK    1  A    between atoms: C4_4  and  C5_5 
REMARK    2  A    between atoms: C7_7  and  O1_9 
REMARK    3  A    between atoms: C20_21  and  O2_22 
REMARK    4  A    between atoms: O2_22  and  C21_23 
REMARK    5  A    between atoms: C22_25  and  C23_26 
REMARK    6  A    between atoms: C23_26  and  O4_27 
REMARK    7  A    between atoms: C24_28  and  O5_29 
REMARK    8  A    between atoms: C25_30  and  O6_31 
REMARK    9  A    between atoms: C26_32  and  O7_33 
ROOT
HETATM    1  C5  UNL     1     -14.251   4.326  25.862  1.00  0.00     0.147 C 
HETATM    2  C6  UNL     1     -14.632   5.570  26.660  1.00  0.00     0.074 C 
HETATM    3  C7  UNL     1     -15.459   6.574  25.818  1.00  0.00     0.064 C 
HETATM    4  C8  UNL     1     -16.957   6.427  26.112  1.00  0.00     0.046 C 
HETATM    5  C9  UNL     1     -15.180   6.373  24.302  1.00  0.00     0.058 C 
HETATM    6  C10 UNL     1     -13.741   5.910  24.121  1.00  0.00     0.131 C 
HETATM    7  C11 UNL     1     -13.609   5.814  22.609  1.00  0.00     0.042 C 
HETATM    8  C12 UNL     1     -14.343   7.075  22.046  1.00  0.00    -0.029 C 
HETATM    9  C13 UNL     1     -13.182   8.090  21.836  1.00  0.00     0.016 C 
HETATM   10  C14 UNL     1     -15.071   6.795  20.659  1.00  0.00     0.014 C 
HETATM   11  C15 UNL     1     -15.722   5.378  20.627  1.00  0.00     0.034 C 
HETATM   12  C16 UNL     1     -16.853   5.149  19.682  1.00  0.00    -0.022 C 
HETATM   13  C17 UNL     1     -17.389   6.086  18.884  1.00  0.00    -0.059 C 
HETATM   14  C18 UNL     1     -16.878   7.510  18.919  1.00  0.00     0.057 C 
HETATM   15  C19 UNL     1     -16.150   7.719  17.607  1.00  0.00     0.024 C 
HETATM   16  C20 UNL     1     -16.479   7.117  16.451  1.00  0.00     0.116 C 
HETATM   17  C27 UNL     1     -17.671   6.180  16.414  1.00  0.00     0.194 C 
HETATM   18  O8  UNL     1     -18.085   5.752  15.336  1.00  0.00    -0.289 OA
HETATM   19  C28 UNL     1     -18.377   5.803  17.743  1.00  0.00     0.044 C 
HETATM   20  C29 UNL     1     -19.660   6.642  17.871  1.00  0.00     0.028 C 
HETATM   21  C30 UNL     1     -18.796   4.320  17.641  1.00  0.00     0.028 C 
HETATM   22  C31 UNL     1     -16.095   7.899  20.236  1.00  0.00     0.032 C 
HETATM   23  C32 UNL     1     -15.464   9.294  20.010  1.00  0.00     0.025 C 
HETATM   24  C33 UNL     1     -17.104   8.111  21.375  1.00  0.00     0.137 C 
HETATM   25  O9  UNL     1     -18.124   8.786  21.209  1.00  0.00    -0.297 OA
HETATM   26  C34 UNL     1     -16.847   7.467  22.726  1.00  0.00     0.089 C 
HETATM   27  C35 UNL     1     -15.373   7.495  23.207  1.00  0.00    -0.021 C 
HETATM   28  C36 UNL     1     -15.102   8.910  23.761  1.00  0.00     0.017 C 
HETATM   29  O10 UNL     1     -13.497   4.627  24.687  1.00  0.00    -0.376 OA
ENDROOT
BRANCH  16  30
HETATM   30  O2  UNL     1     -15.732   7.440  15.331  1.00  0.00    -0.314 OA
BRANCH  30  31
HETATM   31  C21 UNL     1     -14.360   7.033  15.246  1.00  0.00     0.298 C 
HETATM   32  O3  UNL     1     -14.178   6.336  13.994  1.00  0.00    -0.348 OA
HETATM   33  C22 UNL     1     -13.768   7.127  12.884  1.00  0.00     0.179 C 
HETATM   34  C24 UNL     1     -12.426   7.848  13.145  1.00  0.00     0.180 C 
HETATM   35  C25 UNL     1     -12.077   7.933  14.643  1.00  0.00     0.183 C 
HETATM   36  C26 UNL     1     -13.331   8.186  15.470  1.00  0.00     0.205 C 
BRANCH  33  37
HETATM   37  C23 UNL     1     -14.884   8.063  12.396  1.00  0.00     0.198 C 
BRANCH  37  38
HETATM   38  O4  UNL     1     -15.671   7.417  11.396  1.00  0.00    -0.398 OA
HETATM   39  H32 UNL     1     -16.336   6.880  11.861  1.00  0.00     0.209 HD
ENDBRANCH  37  38
ENDBRANCH  33  37
BRANCH  34  40
HETATM   40  O5  UNL     1     -11.337   7.141  12.513  1.00  0.00    -0.390 OA
HETATM   41  H34 UNL     1     -11.478   7.208  11.551  1.00  0.00     0.210 HD
ENDBRANCH  34  40
BRANCH  35  42
HETATM   42  O6  UNL     1     -11.411   6.748  15.091  1.00  0.00    -0.390 OA
HETATM   43  H36 UNL     1     -11.039   6.345  14.274  1.00  0.00     0.210 HD
ENDBRANCH  35  42
BRANCH  36  44
HETATM   44  O7  UNL     1     -13.852   9.477  15.109  1.00  0.00    -0.388 OA
HETATM   45  H38 UNL     1     -13.266  10.144  15.510  1.00  0.00     0.210 HD
ENDBRANCH  36  44
ENDBRANCH  30  31
ENDBRANCH  16  30
BRANCH   3  46
HETATM   46  O1  UNL     1     -15.064   7.867  26.271  1.00  0.00    -0.390 OA
HETATM   47  H14 UNL     1     -15.289   7.950  27.216  1.00  0.00     0.210 HD
ENDBRANCH   3  46
BRANCH   1  48
HETATM   48  C4  UNL     1     -13.497   3.339  26.722  1.00  0.00     0.007 C 
HETATM   49  C2  UNL     1     -12.693   2.316  26.363  1.00  0.00    -0.089 C 
HETATM   50  C1  UNL     1     -12.089   1.408  27.403  1.00  0.00     0.042 C 
HETATM   51  C3  UNL     1     -12.308   1.976  24.950  1.00  0.00     0.042 C 
ENDBRANCH   1  48
TORSDOF 9
ENDMDL
MODEL 9
REMARK minimizedAffinity -7.52256441
REMARK CNNscore 0.355985463
REMARK CNNaffinity 6.17401505
REMARK  9 active torsions:
REMARK  status: ('A' for Active; 'I' for Inactive)
REMARK    1  A    between atoms: C4_4  and  C5_5 
REMARK    2  A    between atoms: C7_7  and  O1_9 
REMARK    3  A    between atoms: C20_21  and  O2_22 
REMARK    4  A    between atoms: O2_22  and  C21_23 
REMARK    5  A    between atoms: C22_25  and  C23_26 
REMARK    6  A    between atoms: C23_26  and  O4_27 
REMARK    7  A    between atoms: C24_28  and  O5_29 
REMARK    8  A    between atoms: C25_30  and  O6_31 
REMARK    9  A    between atoms: C26_32  and  O7_33 
ROOT
HETATM    1  C5  UNL     1       0.892  11.376  20.390  1.00  0.00     0.147 C 
HETATM    2  C6  UNL     1       1.616  12.370  19.484  1.00  0.00     0.074 C 
HETATM    3  C7  UNL     1       0.668  13.474  18.953  1.00  0.00     0.064 C 
HETATM    4  C8  UNL     1       0.808  14.757  19.782  1.00  0.00     0.046 C 
HETATM    5  C9  UNL     1      -0.806  12.978  18.963  1.00  0.00     0.058 C 
HETATM    6  C10 UNL     1      -0.825  11.478  18.704  1.00  0.00     0.131 C 
HETATM    7  C11 UNL     1      -2.311  11.160  18.689  1.00  0.00     0.042 C 
HETATM    8  C12 UNL     1      -2.979  12.330  17.894  1.00  0.00    -0.029 C 
HETATM    9  C13 UNL     1      -3.092  11.754  16.453  1.00  0.00     0.016 C 
HETATM   10  C14 UNL     1      -4.427  12.699  18.442  1.00  0.00     0.014 C 
HETATM   11  C15 UNL     1      -4.491  12.615  19.998  1.00  0.00     0.034 C 
HETATM   12  C16 UNL     1      -5.544  13.408  20.699  1.00  0.00    -0.022 C 
HETATM   13  C17 UNL     1      -6.416  14.230  20.095  1.00  0.00    -0.059 C 
HETATM   14  C18 UNL     1      -6.363  14.441  18.596  1.00  0.00     0.057 C 
HETATM   15  C19 UNL     1      -7.597  13.759  18.041  1.00  0.00     0.024 C 
HETATM   16  C20 UNL     1      -8.765  13.651  18.696  1.00  0.00     0.116 C 
HETATM   17  C27 UNL     1      -8.903  14.264  20.076  1.00  0.00     0.194 C 
HETATM   18  O8  UNL     1     -10.008  14.321  20.619  1.00  0.00    -0.289 OA
HETATM   19  C28 UNL     1      -7.646  14.851  20.771  1.00  0.00     0.044 C 
HETATM   20  C29 UNL     1      -7.673  16.382  20.622  1.00  0.00     0.028 C 
HETATM   21  C30 UNL     1      -7.754  14.525  22.277  1.00  0.00     0.028 C 
HETATM   22  C31 UNL     1      -4.982  14.066  17.925  1.00  0.00     0.032 C 
HETATM   23  C32 UNL     1      -5.175  14.131  16.391  1.00  0.00     0.025 C 
HETATM   24  C33 UNL     1      -3.959  15.172  18.233  1.00  0.00     0.137 C 
HETATM   25  O9  UNL     1      -4.247  16.365  18.100  1.00  0.00    -0.297 OA
HETATM   26  C34 UNL     1      -2.573  14.788  18.720  1.00  0.00     0.089 C 
HETATM   27  C35 UNL     1      -1.943  13.553  18.028  1.00  0.00    -0.021 C 
HETATM   28  C36 UNL     1      -1.399  14.024  16.663  1.00  0.00     0.017 C 
HETATM   29  O10 UNL     1      -0.205  10.729  19.745  1.00  0.00    -0.376 OA
ENDROOT
BRANCH  16  30
HETATM   30  O2  UNL     1      -9.809  13.026  18.035  1.00  0.00    -0.314 OA
BRANCH  30  31
HETATM   31  C21 UNL     1      -9.883  13.081  16.604  1.00  0.00     0.298 C 
HETATM   32  O3  UNL     1      -9.377  11.831  16.084  1.00  0.00    -0.348 OA
HETATM   33  C22 UNL     1     -10.338  10.806  15.860  1.00  0.00     0.179 C 
HETATM   34  C24 UNL     1     -11.439  11.243  14.866  1.00  0.00     0.180 C 
HETATM   35  C25 UNL     1     -11.524  12.773  14.707  1.00  0.00     0.183 C 
HETATM   36  C26 UNL     1     -11.290  13.463  16.045  1.00  0.00     0.205 C 
BRANCH  33  37
HETATM   37  C23 UNL     1     -10.889  10.231  17.174  1.00  0.00     0.198 C 
BRANCH  37  38
HETATM   38  O4  UNL     1     -11.451   8.938  16.953  1.00  0.00    -0.398 OA
HETATM   39  H32 UNL     1     -10.717   8.300  16.992  1.00  0.00     0.209 HD
ENDBRANCH  37  38
ENDBRANCH  33  37
BRANCH  34  40
HETATM   40  O5  UNL     1     -11.176  10.710  13.550  1.00  0.00    -0.390 OA
HETATM   41  H34 UNL     1     -11.264   9.742  13.615  1.00  0.00     0.210 HD
ENDBRANCH  34  40
BRANCH  35  42
HETATM   42  O6  UNL     1     -10.594  13.247  13.728  1.00  0.00    -0.390 OA
HETATM   43  H36 UNL     1     -10.396  12.463  13.169  1.00  0.00     0.210 HD
ENDBRANCH  35  42
BRANCH  36  44
HETATM   44  O7  UNL     1     -12.361  13.095  16.932  1.00  0.00    -0.388 OA
HETATM   45  H38 UNL     1     -13.153  13.584  16.642  1.00  0.00     0.210 HD
ENDBRANCH  36  44
ENDBRANCH  30  31
ENDBRANCH  16  30
BRANCH   3  46
HETATM   46  O1  UNL     1       1.127  13.770  17.636  1.00  0.00    -0.390 OA
HETATM   47  H14 UNL     1       2.041  14.104  17.691  1.00  0.00     0.210 HD
ENDBRANCH   3  46
BRANCH   1  48
HETATM   48  C4  UNL     1       1.851  10.346  20.941  1.00  0.00     0.007 C 
HETATM   49  C2  UNL     1       2.782  10.462  21.910  1.00  0.00    -0.089 C 
HETATM   50  C1  UNL     1       3.683   9.305  22.257  1.00  0.00     0.042 C 
HETATM   51  C3  UNL     1       3.020  11.697  22.735  1.00  0.00     0.042 C 
ENDBRANCH   1  48
TORSDOF 9
ENDMDL
