MODEL 1
REMARK minimizedAffinity -7.9545126
REMARK CNNscore 0.364257514
REMARK CNNaffinity 6.91031456
REMARK  13 active torsions:
REMARK  status: ('A' for Active; 'I' for Inactive)
REMARK    1  A    between atoms: O1_2  and  C2_3 
REMARK    2  A    between atoms: C12_14  and  C13_15 
REMARK    3  A    between atoms: C13_15  and  C15_17 
REMARK    4  A    between atoms: C15_17  and  C16_18 
REMARK    5  A    between atoms: C17_19  and  C18_20 
REMARK    6  A    between atoms: C18_20  and  O3_23 
REMARK    7  A    between atoms: C28_31  and  O4_32 
REMARK    8  A    between atoms: O4_32  and  C29_33 
REMARK    9  A    between atoms: C30_35  and  C31_36 
REMARK   10  A    between atoms: C31_36  and  O6_37 
REMARK   11  A    between atoms: C32_38  and  O7_39 
REMARK   12  A    between atoms: C33_40  and  O8_41 
REMARK   13  A    between atoms: C34_42  and  O9_43 
ROOT
HETATM    1  C2  UNL     1       0.994  51.913  -9.266  1.00  0.00     0.270 C 
HETATM    2  O2  UNL     1       1.159  51.010 -10.386  1.00  0.00    -0.344 OA
HETATM    3  C3  UNL     1       1.971  51.675 -11.388  1.00  0.00     0.095 C 
HETATM    4  C4  UNL     1       3.393  51.318 -10.984  1.00  0.00     0.008 C 
HETATM    5  C5  UNL     1       4.041  51.963 -10.006  1.00  0.00    -0.021 C 
HETATM    6  C6  UNL     1       3.354  53.016  -9.175  1.00  0.00     0.030 C 
HETATM    7  C7  UNL     1       1.819  53.213  -9.577  1.00  0.00     0.024 C 
HETATM    8  C8  UNL     1       1.191  54.426  -8.816  1.00  0.00     0.016 C 
HETATM    9  C9  UNL     1       2.059  55.687  -8.647  1.00  0.00     0.011 C 
HETATM   10  C10 UNL     1       3.440  55.335  -8.083  1.00  0.00    -0.032 C 
HETATM   11  C11 UNL     1       3.230  54.723  -6.667  1.00  0.00     0.016 C 
HETATM   12  C12 UNL     1       4.482  56.488  -8.017  1.00  0.00    -0.002 C 
HETATM   13  C21 UNL     1       5.839  55.733  -7.984  1.00  0.00     0.006 C 
HETATM   14  C22 UNL     1       5.557  54.288  -8.472  1.00  0.00     0.011 C 
HETATM   15  C23 UNL     1       4.149  54.357  -9.101  1.00  0.00    -0.029 C 
HETATM   16  C24 UNL     1       4.359  54.947 -10.536  1.00  0.00     0.016 C 
HETATM   17  C25 UNL     1       1.641  53.166 -11.127  1.00  0.00     0.039 C 
HETATM   18  C26 UNL     1       0.215  53.555 -11.603  1.00  0.00     0.011 C 
HETATM   19  C27 UNL     1      -0.495  52.512 -12.455  1.00  0.00     0.033 C 
HETATM   20  C28 UNL     1       0.447  51.956 -13.503  1.00  0.00     0.136 C 
HETATM   21  C35 UNL     1       1.636  51.167 -12.848  1.00  0.00     0.014 C 
HETATM   22  C36 UNL     1       2.830  51.368 -13.826  1.00  0.00     0.021 C 
HETATM   23  C37 UNL     1       1.331  49.645 -12.805  1.00  0.00     0.021 C 
ENDROOT
BRANCH  20  24
HETATM   24  O4  UNL     1      -0.225  51.094 -14.430  1.00  0.00    -0.352 OA
BRANCH  24  25
HETATM   25  C29 UNL     1       0.598  50.199 -15.167  1.00  0.00     0.292 C 
HETATM   26  O5  UNL     1       1.123  50.801 -16.353  1.00  0.00    -0.348 OA
HETATM   27  C30 UNL     1       0.216  50.931 -17.459  1.00  0.00     0.179 C 
HETATM   28  C32 UNL     1      -1.261  50.682 -17.110  1.00  0.00     0.180 C 
HETATM   29  C33 UNL     1      -1.421  49.314 -16.430  1.00  0.00     0.183 C 
HETATM   30  C34 UNL     1      -0.223  48.949 -15.534  1.00  0.00     0.204 C 
BRANCH  27  31
HETATM   31  C31 UNL     1       0.412  52.319 -18.092  1.00  0.00     0.198 C 
BRANCH  31  32
HETATM   32  O6  UNL     1       1.102  53.215 -17.229  1.00  0.00    -0.398 OA
HETATM   33  H48 UNL     1       1.876  52.723 -16.873  1.00  0.00     0.209 HD
ENDBRANCH  31  32
ENDBRANCH  27  31
BRANCH  28  34
HETATM   34  O7  UNL     1      -2.085  50.744 -18.283  1.00  0.00    -0.390 OA
HETATM   35  H50 UNL     1      -2.221  49.807 -18.547  1.00  0.00     0.210 HD
ENDBRANCH  28  34
BRANCH  29  36
HETATM   36  O8  UNL     1      -1.614  48.313 -17.455  1.00  0.00    -0.390 OA
HETATM   37  H52 UNL     1      -0.978  47.594 -17.245  1.00  0.00     0.210 HD
ENDBRANCH  29  36
BRANCH  30  38
HETATM   38  O9  UNL     1       0.592  47.970 -16.215  1.00  0.00    -0.388 OA
HETATM   39  H54 UNL     1       1.260  48.462 -16.733  1.00  0.00     0.210 HD
ENDBRANCH  30  38
ENDBRANCH  24  25
ENDBRANCH  20  24
BRANCH   1  40
HETATM   40  O1  UNL     1       1.370  51.334  -8.022  1.00  0.00    -0.365 OA
HETATM   41  C1  UNL     1       1.364  49.915  -8.072  1.00  0.00     0.204 C 
ENDBRANCH   1  40
BRANCH  12  42
HETATM   42  C13 UNL     1       4.312  57.713  -7.073  1.00  0.00    -0.010 C 
HETATM   43  C14 UNL     1       5.008  57.416  -5.728  1.00  0.00     0.010 C 
BRANCH  42  44
HETATM   44  C15 UNL     1       2.926  58.337  -6.793  1.00  0.00     0.031 C 
BRANCH  44  45
HETATM   45  C16 UNL     1       2.170  57.854  -5.588  1.00  0.00    -0.027 C 
HETATM   46  C17 UNL     1       0.932  57.331  -5.634  1.00  0.00     0.006 C 
BRANCH  46  47
HETATM   47  C18 UNL     1       0.112  56.806  -4.478  1.00  0.00     0.068 C 
HETATM   48  C19 UNL     1      -0.716  57.854  -3.727  1.00  0.00     0.050 C 
HETATM   49  C20 UNL     1       1.018  56.059  -3.497  1.00  0.00     0.050 C 
BRANCH  47  50
HETATM   50  O3  UNL     1      -0.800  55.855  -5.032  1.00  0.00    -0.387 OA
HETATM   51  H30 UNL     1      -1.303  56.318  -5.725  1.00  0.00     0.211 HD
ENDBRANCH  47  50
ENDBRANCH  46  47
ENDBRANCH  44  45
ENDBRANCH  42  44
ENDBRANCH  12  42
TORSDOF 13
ENDMDL
MODEL 2
REMARK minimizedAffinity -9.52216625
REMARK CNNscore 0.32131502
REMARK CNNaffinity 6.96275854
REMARK  13 active torsions:
REMARK  status: ('A' for Active; 'I' for Inactive)
REMARK    1  A    between atoms: O1_2  and  C2_3 
REMARK    2  A    between atoms: C12_14  and  C13_15 
REMARK    3  A    between atoms: C13_15  and  C15_17 
REMARK    4  A    between atoms: C15_17  and  C16_18 
REMARK    5  A    between atoms: C17_19  and  C18_20 
REMARK    6  A    between atoms: C18_20  and  O3_23 
REMARK    7  A    between atoms: C28_31  and  O4_32 
REMARK    8  A    between atoms: O4_32  and  C29_33 
REMARK    9  A    between atoms: C30_35  and  C31_36 
REMARK   10  A    between atoms: C31_36  and  O6_37 
REMARK   11  A    between atoms: C32_38  and  O7_39 
REMARK   12  A    between atoms: C33_40  and  O8_41 
REMARK   13  A    between atoms: C34_42  and  O9_43 
ROOT
HETATM    1  C2  UNL     1      -3.631  47.131 -21.369  1.00  0.00     0.270 C 
HETATM    2  O2  UNL     1      -2.680  48.216 -21.508  1.00  0.00    -0.344 OA
HETATM    3  C3  UNL     1      -3.417  49.427 -21.815  1.00  0.00     0.095 C 
HETATM    4  C4  UNL     1      -3.753  49.993 -20.444  1.00  0.00     0.008 C 
HETATM    5  C5  UNL     1      -4.776  49.535 -19.712  1.00  0.00    -0.021 C 
HETATM    6  C6  UNL     1      -5.594  48.354 -20.165  1.00  0.00     0.030 C 
HETATM    7  C7  UNL     1      -5.070  47.735 -21.544  1.00  0.00     0.024 C 
HETATM    8  C8  UNL     1      -6.041  46.627 -22.067  1.00  0.00     0.016 C 
HETATM    9  C9  UNL     1      -7.554  46.878 -21.918  1.00  0.00     0.011 C 
HETATM   10  C10 UNL     1      -7.906  47.293 -20.485  1.00  0.00    -0.032 C 
HETATM   11  C11 UNL     1      -7.539  46.107 -19.547  1.00  0.00     0.016 C 
HETATM   12  C12 UNL     1      -9.374  47.742 -20.229  1.00  0.00    -0.002 C 
HETATM   13  C21 UNL     1      -9.257  48.606 -18.944  1.00  0.00     0.006 C 
HETATM   14  C22 UNL     1      -7.759  48.978 -18.792  1.00  0.00     0.011 C 
HETATM   15  C23 UNL     1      -7.130  48.628 -20.157  1.00  0.00    -0.029 C 
HETATM   16  C24 UNL     1      -7.474  49.833 -21.098  1.00  0.00     0.016 C 
HETATM   17  C25 UNL     1      -4.665  48.866 -22.541  1.00  0.00     0.039 C 
HETATM   18  C26 UNL     1      -4.343  48.351 -23.970  1.00  0.00     0.011 C 
HETATM   19  C27 UNL     1      -2.963  48.714 -24.499  1.00  0.00     0.033 C 
HETATM   20  C28 UNL     1      -2.652  50.168 -24.210  1.00  0.00     0.136 C 
HETATM   21  C35 UNL     1      -2.553  50.441 -22.668  1.00  0.00     0.014 C 
HETATM   22  C36 UNL     1      -3.035  51.911 -22.495  1.00  0.00     0.021 C 
HETATM   23  C37 UNL     1      -1.077  50.385 -22.192  1.00  0.00     0.021 C 
ENDROOT
BRANCH  20  24
HETATM   24  O4  UNL     1      -1.434  50.594 -24.835  1.00  0.00    -0.352 OA
BRANCH  24  25
HETATM   25  C29 UNL     1      -1.305  50.305 -26.221  1.00  0.00     0.292 C 
HETATM   26  O5  UNL     1       0.057  50.325 -26.653  1.00  0.00    -0.348 OA
HETATM   27  C30 UNL     1       0.653  51.620 -26.832  1.00  0.00     0.179 C 
HETATM   28  C32 UNL     1      -0.163  52.787 -26.249  1.00  0.00     0.180 C 
HETATM   29  C33 UNL     1      -1.595  52.762 -26.803  1.00  0.00     0.183 C 
HETATM   30  C34 UNL     1      -2.124  51.333 -27.025  1.00  0.00     0.204 C 
BRANCH  27  31
HETATM   31  C31 UNL     1       2.076  51.591 -26.251  1.00  0.00     0.198 C 
BRANCH  31  32
HETATM   32  O6  UNL     1       3.070  51.475 -27.263  1.00  0.00    -0.398 OA
HETATM   33  H48 UNL     1       2.838  52.126 -27.962  1.00  0.00     0.209 HD
ENDBRANCH  31  32
ENDBRANCH  27  31
BRANCH  28  34
HETATM   34  O7  UNL     1       0.454  54.047 -26.547  1.00  0.00    -0.390 OA
HETATM   35  H50 UNL     1      -0.034  54.390 -27.329  1.00  0.00     0.210 HD
ENDBRANCH  28  34
BRANCH  29  36
HETATM   36  O8  UNL     1      -1.621  53.513 -28.037  1.00  0.00    -0.390 OA
HETATM   37  H52 UNL     1      -2.074  52.934 -28.689  1.00  0.00     0.210 HD
ENDBRANCH  29  36
BRANCH  30  38
HETATM   38  O9  UNL     1      -2.093  51.035 -28.438  1.00  0.00    -0.388 OA
HETATM   39  H54 UNL     1      -1.222  50.633 -28.629  1.00  0.00     0.210 HD
ENDBRANCH  30  38
ENDBRANCH  24  25
ENDBRANCH  20  24
BRANCH   1  40
HETATM   40  O1  UNL     1      -3.498  46.429 -20.139  1.00  0.00    -0.365 OA
HETATM   41  C1  UNL     1      -3.786  45.046 -20.281  1.00  0.00     0.204 C 
ENDBRANCH   1  40
BRANCH  12  42
HETATM   42  C13 UNL     1     -10.577  46.761 -20.335  1.00  0.00    -0.010 C 
HETATM   43  C14 UNL     1     -11.891  47.568 -20.312  1.00  0.00     0.010 C 
BRANCH  42  44
HETATM   44  C15 UNL     1     -10.718  45.544 -19.392  1.00  0.00     0.031 C 
BRANCH  44  45
HETATM   45  C16 UNL     1     -11.203  45.795 -17.992  1.00  0.00    -0.027 C 
HETATM   46  C17 UNL     1     -11.744  44.851 -17.202  1.00  0.00     0.006 C 
BRANCH  46  47
HETATM   47  C18 UNL     1     -12.237  45.014 -15.782  1.00  0.00     0.068 C 
HETATM   48  C19 UNL     1     -11.995  43.815 -14.858  1.00  0.00     0.050 C 
HETATM   49  C20 UNL     1     -13.724  45.374 -15.786  1.00  0.00     0.050 C 
BRANCH  47  50
HETATM   50  O3  UNL     1     -11.526  46.128 -15.236  1.00  0.00    -0.387 OA
HETATM   51  H30 UNL     1     -10.578  45.929 -15.328  1.00  0.00     0.211 HD
ENDBRANCH  47  50
ENDBRANCH  46  47
ENDBRANCH  44  45
ENDBRANCH  42  44
ENDBRANCH  12  42
TORSDOF 13
ENDMDL
MODEL 3
REMARK minimizedAffinity -10.6387978
REMARK CNNscore 0.309873015
REMARK CNNaffinity 6.98499298
REMARK  13 active torsions:
REMARK  status: ('A' for Active; 'I' for Inactive)
REMARK    1  A    between atoms: O1_2  and  C2_3 
REMARK    2  A    between atoms: C12_14  and  C13_15 
REMARK    3  A    between atoms: C13_15  and  C15_17 
REMARK    4  A    between atoms: C15_17  and  C16_18 
REMARK    5  A    between atoms: C17_19  and  C18_20 
REMARK    6  A    between atoms: C18_20  and  O3_23 
REMARK    7  A    between atoms: C28_31  and  O4_32 
REMARK    8  A    between atoms: O4_32  and  C29_33 
REMARK    9  A    between atoms: C30_35  and  C31_36 
REMARK   10  A    between atoms: C31_36  and  O6_37 
REMARK   11  A    between atoms: C32_38  and  O7_39 
REMARK   12  A    between atoms: C33_40  and  O8_41 
REMARK   13  A    between atoms: C34_42  and  O9_43 
ROOT
HETATM    1  C2  UNL     1      -3.590  47.160 -21.365  1.00  0.00     0.270 C 
HETATM    2  O2  UNL     1      -2.616  48.223 -21.506  1.00  0.00    -0.344 OA
HETATM    3  C3  UNL     1      -3.329  49.457 -21.780  1.00  0.00     0.095 C 
HETATM    4  C4  UNL     1      -3.624  50.010 -20.394  1.00  0.00     0.008 C 
HETATM    5  C5  UNL     1      -4.643  49.565 -19.649  1.00  0.00    -0.021 C 
HETATM    6  C6  UNL     1      -5.498  48.411 -20.104  1.00  0.00     0.030 C 
HETATM    7  C7  UNL     1      -5.017  47.802 -21.502  1.00  0.00     0.024 C 
HETATM    8  C8  UNL     1      -6.026  46.726 -22.022  1.00  0.00     0.016 C 
HETATM    9  C9  UNL     1      -7.528  47.012 -21.839  1.00  0.00     0.011 C 
HETATM   10  C10 UNL     1      -7.843  47.413 -20.394  1.00  0.00    -0.032 C 
HETATM   11  C11 UNL     1      -7.486  46.203 -19.480  1.00  0.00     0.016 C 
HETATM   12  C12 UNL     1      -9.293  47.893 -20.101  1.00  0.00    -0.002 C 
HETATM   13  C21 UNL     1      -9.129  48.734 -18.806  1.00  0.00     0.006 C 
HETATM   14  C22 UNL     1      -7.620  49.066 -18.678  1.00  0.00     0.011 C 
HETATM   15  C23 UNL     1      -7.027  48.723 -20.061  1.00  0.00    -0.029 C 
HETATM   16  C24 UNL     1      -7.360  49.950 -20.976  1.00  0.00     0.016 C 
HETATM   17  C25 UNL     1      -4.604  48.938 -22.490  1.00  0.00     0.039 C 
HETATM   18  C26 UNL     1      -4.324  48.438 -23.932  1.00  0.00     0.011 C 
HETATM   19  C27 UNL     1      -2.945  48.775 -24.483  1.00  0.00     0.033 C 
HETATM   20  C28 UNL     1      -2.593  50.216 -24.179  1.00  0.00     0.136 C 
HETATM   21  C35 UNL     1      -2.457  50.463 -22.635  1.00  0.00     0.014 C 
HETATM   22  C36 UNL     1      -2.899  51.941 -22.430  1.00  0.00     0.021 C 
HETATM   23  C37 UNL     1      -0.973  50.363 -22.189  1.00  0.00     0.021 C 
ENDROOT
BRANCH  20  24
HETATM   24  O4  UNL     1      -1.377  50.622 -24.821  1.00  0.00    -0.352 OA
BRANCH  24  25
HETATM   25  C29 UNL     1      -1.276  50.337 -26.210  1.00  0.00     0.292 C 
HETATM   26  O5  UNL     1       0.074  50.397 -26.677  1.00  0.00    -0.348 OA
HETATM   27  C30 UNL     1       0.626  51.709 -26.871  1.00  0.00     0.179 C 
HETATM   28  C32 UNL     1      -0.209  52.851 -26.266  1.00  0.00     0.180 C 
HETATM   29  C33 UNL     1      -1.653  52.783 -26.784  1.00  0.00     0.183 C 
HETATM   30  C34 UNL     1      -2.145  51.340 -26.993  1.00  0.00     0.204 C 
BRANCH  27  31
HETATM   31  C31 UNL     1       2.064  51.722 -26.327  1.00  0.00     0.198 C 
BRANCH  31  32
HETATM   32  O6  UNL     1       3.032  51.532 -27.353  1.00  0.00    -0.398 OA
HETATM   33  H48 UNL     1       2.780  52.130 -28.092  1.00  0.00     0.209 HD
ENDBRANCH  31  32
ENDBRANCH  27  31
BRANCH  28  34
HETATM   34  O7  UNL     1       0.364  54.129 -26.580  1.00  0.00    -0.390 OA
HETATM   35  H50 UNL     1      -0.155  54.457 -27.349  1.00  0.00     0.210 HD
ENDBRANCH  28  34
BRANCH  29  36
HETATM   36  O8  UNL     1      -1.733  53.533 -28.017  1.00  0.00    -0.390 OA
HETATM   37  H52 UNL     1      -2.186  52.940 -28.656  1.00  0.00     0.210 HD
ENDBRANCH  29  36
BRANCH  30  38
HETATM   38  O9  UNL     1      -2.141  51.042 -28.406  1.00  0.00    -0.388 OA
HETATM   39  H54 UNL     1      -1.264  50.666 -28.619  1.00  0.00     0.210 HD
ENDBRANCH  30  38
ENDBRANCH  24  25
ENDBRANCH  20  24
BRANCH   1  40
HETATM   40  O1  UNL     1      -3.451  46.436 -20.148  1.00  0.00    -0.365 OA
HETATM   41  C1  UNL     1      -3.806  45.069 -20.298  1.00  0.00     0.204 C 
ENDBRANCH   1  40
BRANCH  12  42
HETATM   42  C13 UNL     1     -10.522  46.943 -20.198  1.00  0.00    -0.010 C 
HETATM   43  C14 UNL     1     -10.167  45.749 -21.108  1.00  0.00     0.010 C 
BRANCH  42  44
HETATM   44  C15 UNL     1     -11.926  47.466 -20.580  1.00  0.00     0.031 C 
BRANCH  44  45
HETATM   45  C16 UNL     1     -13.005  47.402 -19.537  1.00  0.00    -0.027 C 
HETATM   46  C17 UNL     1     -13.948  48.346 -19.369  1.00  0.00     0.006 C 
BRANCH  46  47
HETATM   47  C18 UNL     1     -15.075  48.350 -18.363  1.00  0.00     0.068 C 
HETATM   48  C19 UNL     1     -16.326  47.563 -18.770  1.00  0.00     0.050 C 
HETATM   49  C20 UNL     1     -15.458  49.790 -18.017  1.00  0.00     0.050 C 
BRANCH  47  50
HETATM   50  O3  UNL     1     -14.555  47.746 -17.176  1.00  0.00    -0.387 OA
HETATM   51  H30 UNL     1     -14.225  46.866 -17.429  1.00  0.00     0.211 HD
ENDBRANCH  47  50
ENDBRANCH  46  47
ENDBRANCH  44  45
ENDBRANCH  42  44
ENDBRANCH  12  42
TORSDOF 13
ENDMDL
MODEL 4
REMARK minimizedAffinity -9.73547077
REMARK CNNscore 0.299072444
REMARK CNNaffinity 7.10004473
REMARK  13 active torsions:
REMARK  status: ('A' for Active; 'I' for Inactive)
REMARK    1  A    between atoms: O1_2  and  C2_3 
REMARK    2  A    between atoms: C12_14  and  C13_15 
REMARK    3  A    between atoms: C13_15  and  C15_17 
REMARK    4  A    between atoms: C15_17  and  C16_18 
REMARK    5  A    between atoms: C17_19  and  C18_20 
REMARK    6  A    between atoms: C18_20  and  O3_23 
REMARK    7  A    between atoms: C28_31  and  O4_32 
REMARK    8  A    between atoms: O4_32  and  C29_33 
REMARK    9  A    between atoms: C30_35  and  C31_36 
REMARK   10  A    between atoms: C31_36  and  O6_37 
REMARK   11  A    between atoms: C32_38  and  O7_39 
REMARK   12  A    between atoms: C33_40  and  O8_41 
REMARK   13  A    between atoms: C34_42  and  O9_43 
ROOT
HETATM    1  C2  UNL     1      -7.045  49.590 -20.932  1.00  0.00     0.270 C 
HETATM    2  O2  UNL     1      -7.873  48.452 -21.278  1.00  0.00    -0.344 OA
HETATM    3  C3  UNL     1      -7.125  47.608 -22.191  1.00  0.00     0.095 C 
HETATM    4  C4  UNL     1      -6.359  46.677 -21.263  1.00  0.00     0.008 C 
HETATM    5  C5  UNL     1      -5.228  47.049 -20.652  1.00  0.00    -0.021 C 
HETATM    6  C6  UNL     1      -4.703  48.457 -20.768  1.00  0.00     0.030 C 
HETATM    7  C7  UNL     1      -5.656  49.399 -21.640  1.00  0.00     0.024 C 
HETATM    8  C8  UNL     1      -4.996  50.796 -21.881  1.00  0.00     0.016 C 
HETATM    9  C9  UNL     1      -3.485  50.828 -22.176  1.00  0.00     0.011 C 
HETATM   10  C10 UNL     1      -2.702  50.017 -21.137  1.00  0.00    -0.032 C 
HETATM   11  C11 UNL     1      -2.918  50.692 -19.751  1.00  0.00     0.016 C 
HETATM   12  C12 UNL     1      -1.182  49.822 -21.404  1.00  0.00    -0.002 C 
HETATM   13  C21 UNL     1      -0.840  48.555 -20.574  1.00  0.00     0.006 C 
HETATM   14  C22 UNL     1      -2.185  47.851 -20.258  1.00  0.00     0.011 C 
HETATM   15  C23 UNL     1      -3.206  48.522 -21.203  1.00  0.00    -0.029 C 
HETATM   16  C24 UNL     1      -3.010  47.826 -22.592  1.00  0.00     0.016 C 
HETATM   17  C25 UNL     1      -6.199  48.636 -22.889  1.00  0.00     0.039 C 
HETATM   18  C26 UNL     1      -6.962  49.543 -23.891  1.00  0.00     0.011 C 
HETATM   19  C27 UNL     1      -8.388  49.112 -24.206  1.00  0.00     0.033 C 
HETATM   20  C28 UNL     1      -8.445  47.619 -24.455  1.00  0.00     0.136 C 
HETATM   21  C35 UNL     1      -8.078  46.805 -23.165  1.00  0.00     0.014 C 
HETATM   22  C36 UNL     1      -7.410  45.503 -23.696  1.00  0.00     0.021 C 
HETATM   23  C37 UNL     1      -9.359  46.382 -22.396  1.00  0.00     0.021 C 
ENDROOT
BRANCH  20  24
HETATM   24  O4  UNL     1      -9.736  47.198 -24.916  1.00  0.00    -0.352 OA
BRANCH  24  25
HETATM   25  C29 UNL     1     -10.330  47.995 -25.934  1.00  0.00     0.292 C 
HETATM   26  O5  UNL     1     -11.758  47.952 -25.889  1.00  0.00    -0.348 OA
HETATM   27  C30 UNL     1     -12.378  46.764 -26.408  1.00  0.00     0.179 C 
HETATM   28  C32 UNL     1     -11.412  45.594 -26.659  1.00  0.00     0.180 C 
HETATM   29  C33 UNL     1     -10.255  46.046 -27.562  1.00  0.00     0.183 C 
HETATM   30  C34 UNL     1      -9.834  47.504 -27.307  1.00  0.00     0.204 C 
BRANCH  27  31
HETATM   31  C31 UNL     1     -13.518  46.353 -25.463  1.00  0.00     0.198 C 
BRANCH  31  32
HETATM   32  O6  UNL     1     -14.378  47.442 -25.146  1.00  0.00    -0.398 OA
HETATM   33  H48 UNL     1     -14.582  47.895 -25.995  1.00  0.00     0.209 HD
ENDBRANCH  31  32
ENDBRANCH  27  31
BRANCH  28  34
HETATM   34  O7  UNL     1     -12.094  44.483 -27.258  1.00  0.00    -0.390 OA
HETATM   35  H50 UNL     1     -11.902  44.555 -28.220  1.00  0.00     0.210 HD
ENDBRANCH  28  34
BRANCH  29  36
HETATM   36  O8  UNL     1     -10.651  45.863 -28.940  1.00  0.00    -0.390 OA
HETATM   37  H52 UNL     1     -10.447  46.713 -29.388  1.00  0.00     0.210 HD
ENDBRANCH  29  36
BRANCH  30  38
HETATM   38  O9  UNL     1     -10.344  48.334 -28.373  1.00  0.00    -0.388 OA
HETATM   39  H54 UNL     1     -11.228  48.648 -28.096  1.00  0.00     0.210 HD
ENDBRANCH  30  38
ENDBRANCH  24  25
ENDBRANCH  20  24
BRANCH   1  40
HETATM   40  O1  UNL     1      -6.903  49.768 -19.528  1.00  0.00    -0.365 OA
HETATM   41  C1  UNL     1      -7.920  49.098 -18.800  1.00  0.00     0.204 C 
ENDBRANCH   1  40
BRANCH  12  42
HETATM   42  C13 UNL     1      -0.171  51.004 -21.373  1.00  0.00    -0.010 C 
HETATM   43  C14 UNL     1      -0.114  51.583 -19.944  1.00  0.00     0.010 C 
BRANCH  42  44
HETATM   44  C15 UNL     1      -0.252  52.170 -22.385  1.00  0.00     0.031 C 
BRANCH  44  45
HETATM   45  C16 UNL     1      -0.182  51.834 -23.847  1.00  0.00    -0.027 C 
HETATM   46  C17 UNL     1       0.800  52.246 -24.669  1.00  0.00     0.006 C 
BRANCH  46  47
HETATM   47  C18 UNL     1       0.955  51.940 -26.141  1.00  0.00     0.068 C 
HETATM   48  C19 UNL     1      -0.077  50.970 -26.725  1.00  0.00     0.050 C 
HETATM   49  C20 UNL     1       2.368  51.422 -26.417  1.00  0.00     0.050 C 
BRANCH  47  50
HETATM   50  O3  UNL     1       0.811  53.185 -26.828  1.00  0.00    -0.387 OA
HETATM   51  H30 UNL     1      -0.052  53.553 -26.567  1.00  0.00     0.211 HD
ENDBRANCH  47  50
ENDBRANCH  46  47
ENDBRANCH  44  45
ENDBRANCH  42  44
ENDBRANCH  12  42
TORSDOF 13
ENDMDL
MODEL 5
REMARK minimizedAffinity -9.74806023
REMARK CNNscore 0.274734795
REMARK CNNaffinity 7.09401703
REMARK  13 active torsions:
REMARK  status: ('A' for Active; 'I' for Inactive)
REMARK    1  A    between atoms: O1_2  and  C2_3 
REMARK    2  A    between atoms: C12_14  and  C13_15 
REMARK    3  A    between atoms: C13_15  and  C15_17 
REMARK    4  A    between atoms: C15_17  and  C16_18 
REMARK    5  A    between atoms: C17_19  and  C18_20 
REMARK    6  A    between atoms: C18_20  and  O3_23 
REMARK    7  A    between atoms: C28_31  and  O4_32 
REMARK    8  A    between atoms: O4_32  and  C29_33 
REMARK    9  A    between atoms: C30_35  and  C31_36 
REMARK   10  A    between atoms: C31_36  and  O6_37 
REMARK   11  A    between atoms: C32_38  and  O7_39 
REMARK   12  A    between atoms: C33_40  and  O8_41 
REMARK   13  A    between atoms: C34_42  and  O9_43 
ROOT
HETATM    1  C2  UNL     1      -7.050  49.673 -21.083  1.00  0.00     0.270 C 
HETATM    2  O2  UNL     1      -7.872  48.530 -21.425  1.00  0.00    -0.344 OA
HETATM    3  C3  UNL     1      -7.066  47.607 -22.201  1.00  0.00     0.095 C 
HETATM    4  C4  UNL     1      -6.415  46.731 -21.142  1.00  0.00     0.008 C 
HETATM    5  C5  UNL     1      -5.336  47.123 -20.455  1.00  0.00    -0.021 C 
HETATM    6  C6  UNL     1      -4.765  48.508 -20.618  1.00  0.00     0.030 C 
HETATM    7  C7  UNL     1      -5.607  49.404 -21.641  1.00  0.00     0.024 C 
HETATM    8  C8  UNL     1      -4.890  50.766 -21.915  1.00  0.00     0.016 C 
HETATM    9  C9  UNL     1      -3.358  50.746 -22.067  1.00  0.00     0.011 C 
HETATM   10  C10 UNL     1      -2.697  49.997 -20.905  1.00  0.00    -0.032 C 
HETATM   11  C11 UNL     1      -3.022  50.774 -19.596  1.00  0.00     0.016 C 
HETATM   12  C12 UNL     1      -1.164  49.752 -21.013  1.00  0.00    -0.002 C 
HETATM   13  C21 UNL     1      -0.935  48.542 -20.067  1.00  0.00     0.006 C 
HETATM   14  C22 UNL     1      -2.322  47.890 -19.832  1.00  0.00     0.011 C 
HETATM   15  C23 UNL     1      -3.232  48.511 -20.913  1.00  0.00    -0.029 C 
HETATM   16  C24 UNL     1      -2.927  47.713 -22.226  1.00  0.00     0.016 C 
HETATM   17  C25 UNL     1      -6.052  48.563 -22.879  1.00  0.00     0.039 C 
HETATM   18  C26 UNL     1      -6.694  49.411 -24.010  1.00  0.00     0.011 C 
HETATM   19  C27 UNL     1      -8.095  48.988 -24.428  1.00  0.00     0.033 C 
HETATM   20  C28 UNL     1      -8.169  47.482 -24.576  1.00  0.00     0.136 C 
HETATM   21  C35 UNL     1      -7.945  46.756 -23.203  1.00  0.00     0.014 C 
HETATM   22  C36 UNL     1      -7.266  45.405 -23.575  1.00  0.00     0.021 C 
HETATM   23  C37 UNL     1      -9.303  46.415 -22.531  1.00  0.00     0.021 C 
ENDROOT
BRANCH  20  24
HETATM   24  O4  UNL     1      -9.423  47.055 -25.126  1.00  0.00    -0.352 OA
BRANCH  24  25
HETATM   25  C29 UNL     1      -9.354  46.094 -26.171  1.00  0.00     0.292 C 
HETATM   26  O5  UNL     1      -8.101  46.129 -26.857  1.00  0.00    -0.348 OA
HETATM   27  C30 UNL     1      -7.911  47.206 -27.789  1.00  0.00     0.179 C 
HETATM   28  C32 UNL     1      -8.960  48.328 -27.693  1.00  0.00     0.180 C 
HETATM   29  C33 UNL     1     -10.374  47.743 -27.813  1.00  0.00     0.183 C 
HETATM   30  C34 UNL     1     -10.502  46.352 -27.166  1.00  0.00     0.204 C 
BRANCH  27  31
HETATM   31  C31 UNL     1      -6.487  47.759 -27.617  1.00  0.00     0.198 C 
BRANCH  31  32
HETATM   32  O6  UNL     1      -6.061  48.514 -28.745  1.00  0.00    -0.398 OA
HETATM   33  H48 UNL     1      -6.800  49.121 -28.973  1.00  0.00     0.209 HD
ENDBRANCH  31  32
ENDBRANCH  27  31
BRANCH  28  34
HETATM   34  O7  UNL     1      -8.751  49.316 -28.712  1.00  0.00    -0.390 OA
HETATM   35  H50 UNL     1      -9.390  49.085 -29.424  1.00  0.00     0.210 HD
ENDBRANCH  28  34
BRANCH  29  36
HETATM   36  O8  UNL     1     -10.730  47.688 -29.213  1.00  0.00    -0.390 OA
HETATM   37  H52 UNL     1     -11.065  46.778 -29.364  1.00  0.00     0.210 HD
ENDBRANCH  29  36
BRANCH  30  38
HETATM   38  O9  UNL     1     -10.527  45.350 -28.206  1.00  0.00    -0.388 OA
HETATM   39  H54 UNL     1      -9.601  45.079 -28.367  1.00  0.00     0.210 HD
ENDBRANCH  30  38
ENDBRANCH  24  25
ENDBRANCH  20  24
BRANCH   1  40
HETATM   40  O1  UNL     1      -7.034  49.950 -19.687  1.00  0.00    -0.365 OA
HETATM   41  C1  UNL     1      -8.071  49.269 -18.997  1.00  0.00     0.204 C 
ENDBRANCH   1  40
BRANCH  12  42
HETATM   42  C13 UNL     1      -0.129  50.912 -20.969  1.00  0.00    -0.010 C 
HETATM   43  C14 UNL     1      -0.016  51.435 -19.521  1.00  0.00     0.010 C 
BRANCH  42  44
HETATM   44  C15 UNL     1      -0.218  52.118 -21.932  1.00  0.00     0.031 C 
BRANCH  44  45
HETATM   45  C16 UNL     1      -0.181  51.839 -23.408  1.00  0.00    -0.027 C 
HETATM   46  C17 UNL     1       0.492  52.589 -24.299  1.00  0.00     0.006 C 
BRANCH  46  47
HETATM   47  C18 UNL     1       0.597  52.369 -25.791  1.00  0.00     0.068 C 
HETATM   48  C19 UNL     1      -0.044  53.453 -26.664  1.00  0.00     0.050 C 
HETATM   49  C20 UNL     1       0.020  51.000 -26.156  1.00  0.00     0.050 C 
BRANCH  47  50
HETATM   50  O3  UNL     1       1.994  52.343 -26.095  1.00  0.00    -0.387 OA
HETATM   51  H30 UNL     1       2.369  53.180 -25.769  1.00  0.00     0.211 HD
ENDBRANCH  47  50
ENDBRANCH  46  47
ENDBRANCH  44  45
ENDBRANCH  42  44
ENDBRANCH  12  42
TORSDOF 13
ENDMDL
MODEL 6
REMARK minimizedAffinity -8.69276333
REMARK CNNscore 0.270931602
REMARK CNNaffinity 6.9838233
REMARK  13 active torsions:
REMARK  status: ('A' for Active; 'I' for Inactive)
REMARK    1  A    between atoms: O1_2  and  C2_3 
REMARK    2  A    between atoms: C12_14  and  C13_15 
REMARK    3  A    between atoms: C13_15  and  C15_17 
REMARK    4  A    between atoms: C15_17  and  C16_18 
REMARK    5  A    between atoms: C17_19  and  C18_20 
REMARK    6  A    between atoms: C18_20  and  O3_23 
REMARK    7  A    between atoms: C28_31  and  O4_32 
REMARK    8  A    between atoms: O4_32  and  C29_33 
REMARK    9  A    between atoms: C30_35  and  C31_36 
REMARK   10  A    between atoms: C31_36  and  O6_37 
REMARK   11  A    between atoms: C32_38  and  O7_39 
REMARK   12  A    between atoms: C33_40  and  O8_41 
REMARK   13  A    between atoms: C34_42  and  O9_43 
ROOT
HETATM    1  C2  UNL     1      -4.443  49.542 -20.295  1.00  0.00     0.270 C 
HETATM    2  O2  UNL     1      -4.589  50.006 -21.659  1.00  0.00    -0.344 OA
HETATM    3  C3  UNL     1      -4.224  48.920 -22.549  1.00  0.00     0.095 C 
HETATM    4  C4  UNL     1      -5.531  48.167 -22.742  1.00  0.00     0.008 C 
HETATM    5  C5  UNL     1      -5.994  47.295 -21.838  1.00  0.00    -0.021 C 
HETATM    6  C6  UNL     1      -5.292  47.088 -20.521  1.00  0.00     0.030 C 
HETATM    7  C7  UNL     1      -4.013  48.033 -20.350  1.00  0.00     0.024 C 
HETATM    8  C8  UNL     1      -3.216  47.669 -19.054  1.00  0.00     0.016 C 
HETATM    9  C9  UNL     1      -3.060  46.175 -18.710  1.00  0.00     0.011 C 
HETATM   10  C10 UNL     1      -4.413  45.456 -18.749  1.00  0.00    -0.032 C 
HETATM   11  C11 UNL     1      -5.317  46.092 -17.653  1.00  0.00     0.016 C 
HETATM   12  C12 UNL     1      -4.386  43.909 -18.586  1.00  0.00    -0.002 C 
HETATM   13  C21 UNL     1      -5.727  43.465 -19.232  1.00  0.00     0.006 C 
HETATM   14  C22 UNL     1      -6.220  44.653 -20.098  1.00  0.00     0.011 C 
HETATM   15  C23 UNL     1      -4.995  45.587 -20.210  1.00  0.00    -0.029 C 
HETATM   16  C24 UNL     1      -4.096  44.965 -21.331  1.00  0.00     0.016 C 
HETATM   17  C25 UNL     1      -3.210  48.128 -21.685  1.00  0.00     0.039 C 
HETATM   18  C26 UNL     1      -1.848  48.857 -21.543  1.00  0.00     0.011 C 
HETATM   19  C27 UNL     1      -1.650  50.056 -22.460  1.00  0.00     0.033 C 
HETATM   20  C28 UNL     1      -2.105  49.726 -23.866  1.00  0.00     0.136 C 
HETATM   21  C35 UNL     1      -3.650  49.452 -23.924  1.00  0.00     0.014 C 
HETATM   22  C36 UNL     1      -3.826  48.416 -25.072  1.00  0.00     0.021 C 
HETATM   23  C37 UNL     1      -4.422  50.733 -24.340  1.00  0.00     0.021 C 
ENDROOT
BRANCH  20  24
HETATM   24  O4  UNL     1      -1.785  50.769 -24.796  1.00  0.00    -0.352 OA
BRANCH  24  25
HETATM   25  C29 UNL     1      -1.562  50.365 -26.141  1.00  0.00     0.292 C 
HETATM   26  O5  UNL     1      -0.171  50.296 -26.460  1.00  0.00    -0.348 OA
HETATM   27  C30 UNL     1       0.496  51.548 -26.689  1.00  0.00     0.179 C 
HETATM   28  C32 UNL     1      -0.308  52.789 -26.266  1.00  0.00     0.180 C 
HETATM   29  C33 UNL     1      -1.692  52.776 -26.931  1.00  0.00     0.183 C 
HETATM   30  C34 UNL     1      -2.267  51.357 -27.086  1.00  0.00     0.204 C 
BRANCH  27  31
HETATM   31  C31 UNL     1       1.867  51.508 -25.994  1.00  0.00     0.198 C 
BRANCH  31  32
HETATM   32  O6  UNL     1       2.894  52.087 -26.790  1.00  0.00    -0.398 OA
HETATM   33  H48 UNL     1       2.540  52.938 -27.131  1.00  0.00     0.209 HD
ENDBRANCH  31  32
ENDBRANCH  27  31
BRANCH  28  34
HETATM   34  O7  UNL     1       0.389  53.996 -26.609  1.00  0.00    -0.390 OA
HETATM   35  H50 UNL     1      -0.021  54.294 -27.452  1.00  0.00     0.210 HD
ENDBRANCH  28  34
BRANCH  29  36
HETATM   36  O8  UNL     1      -1.587  53.426 -28.218  1.00  0.00    -0.390 OA
HETATM   37  H52 UNL     1      -2.014  52.815 -28.858  1.00  0.00     0.210 HD
ENDBRANCH  29  36
BRANCH  30  38
HETATM   38  O9  UNL     1      -2.140  50.945 -28.464  1.00  0.00    -0.388 OA
HETATM   39  H54 UNL     1      -1.276  50.495 -28.552  1.00  0.00     0.210 HD
ENDBRANCH  30  38
ENDBRANCH  24  25
ENDBRANCH  20  24
BRANCH   1  40
HETATM   40  O1  UNL     1      -5.618  49.729 -19.514  1.00  0.00    -0.365 OA
HETATM   41  C1  UNL     1      -6.647  50.375 -20.248  1.00  0.00     0.204 C 
ENDBRANCH   1  40
BRANCH  12  42
HETATM   42  C13 UNL     1      -3.956  43.216 -17.261  1.00  0.00    -0.010 C 
HETATM   43  C14 UNL     1      -5.193  43.046 -16.354  1.00  0.00     0.010 C 
BRANCH  42  44
HETATM   44  C15 UNL     1      -2.779  43.749 -16.410  1.00  0.00     0.031 C 
BRANCH  44  45
HETATM   45  C16 UNL     1      -1.410  43.196 -16.686  1.00  0.00    -0.027 C 
HETATM   46  C17 UNL     1      -0.381  43.267 -15.822  1.00  0.00     0.006 C 
BRANCH  46  47
HETATM   47  C18 UNL     1       1.016  42.722 -16.011  1.00  0.00     0.068 C 
HETATM   48  C19 UNL     1       1.315  42.139 -17.396  1.00  0.00     0.050 C 
HETATM   49  C20 UNL     1       1.317  41.680 -14.933  1.00  0.00     0.050 C 
BRANCH  47  50
HETATM   50  O3  UNL     1       1.906  43.822 -15.807  1.00  0.00    -0.387 OA
HETATM   51  H30 UNL     1       1.641  44.519 -16.433  1.00  0.00     0.211 HD
ENDBRANCH  47  50
ENDBRANCH  46  47
ENDBRANCH  44  45
ENDBRANCH  42  44
ENDBRANCH  12  42
TORSDOF 13
ENDMDL
MODEL 7
REMARK minimizedAffinity -8.19326687
REMARK CNNscore 0.247323215
REMARK CNNaffinity 6.5640831
REMARK  13 active torsions:
REMARK  status: ('A' for Active; 'I' for Inactive)
REMARK    1  A    between atoms: O1_2  and  C2_3 
REMARK    2  A    between atoms: C12_14  and  C13_15 
REMARK    3  A    between atoms: C13_15  and  C15_17 
REMARK    4  A    between atoms: C15_17  and  C16_18 
REMARK    5  A    between atoms: C17_19  and  C18_20 
REMARK    6  A    between atoms: C18_20  and  O3_23 
REMARK    7  A    between atoms: C28_31  and  O4_32 
REMARK    8  A    between atoms: O4_32  and  C29_33 
REMARK    9  A    between atoms: C30_35  and  C31_36 
REMARK   10  A    between atoms: C31_36  and  O6_37 
REMARK   11  A    between atoms: C32_38  and  O7_39 
REMARK   12  A    between atoms: C33_40  and  O8_41 
REMARK   13  A    between atoms: C34_42  and  O9_43 
ROOT
HETATM    1  C2  UNL     1      -5.686  46.552 -18.635  1.00  0.00     0.270 C 
HETATM    2  O2  UNL     1      -6.887  45.938 -19.165  1.00  0.00    -0.344 OA
HETATM    3  C3  UNL     1      -7.359  46.748 -20.273  1.00  0.00     0.095 C 
HETATM    4  C4  UNL     1      -6.621  46.171 -21.471  1.00  0.00     0.008 C 
HETATM    5  C5  UNL     1      -5.353  46.494 -21.753  1.00  0.00    -0.021 C 
HETATM    6  C6  UNL     1      -4.547  47.372 -20.832  1.00  0.00     0.030 C 
HETATM    7  C7  UNL     1      -5.361  47.805 -19.525  1.00  0.00     0.024 C 
HETATM    8  C8  UNL     1      -4.557  48.849 -18.683  1.00  0.00     0.016 C 
HETATM    9  C9  UNL     1      -3.791  49.943 -19.450  1.00  0.00     0.011 C 
HETATM   10  C10 UNL     1      -2.921  49.336 -20.556  1.00  0.00    -0.032 C 
HETATM   11  C11 UNL     1      -1.863  48.420 -19.875  1.00  0.00     0.016 C 
HETATM   12  C12 UNL     1      -2.219  50.335 -21.521  1.00  0.00    -0.002 C 
HETATM   13  C21 UNL     1      -1.945  49.470 -22.782  1.00  0.00     0.006 C 
HETATM   14  C22 UNL     1      -2.858  48.221 -22.674  1.00  0.00     0.011 C 
HETATM   15  C23 UNL     1      -3.870  48.574 -21.562  1.00  0.00    -0.029 C 
HETATM   16  C24 UNL     1      -4.951  49.473 -22.250  1.00  0.00     0.016 C 
HETATM   17  C25 UNL     1      -6.840  48.154 -19.883  1.00  0.00     0.039 C 
HETATM   18  C26 UNL     1      -7.635  48.780 -18.705  1.00  0.00     0.011 C 
HETATM   19  C27 UNL     1      -8.913  48.048 -18.320  1.00  0.00     0.033 C 
HETATM   20  C28 UNL     1      -9.703  47.678 -19.558  1.00  0.00     0.136 C 
HETATM   21  C35 UNL     1      -8.928  46.645 -20.450  1.00  0.00     0.014 C 
HETATM   22  C36 UNL     1      -9.375  46.965 -21.906  1.00  0.00     0.021 C 
HETATM   23  C37 UNL     1      -9.385  45.195 -20.139  1.00  0.00     0.021 C 
ENDROOT
BRANCH  20  24
HETATM   24  O4  UNL     1     -10.991  47.135 -19.235  1.00  0.00    -0.352 OA
BRANCH  24  25
HETATM   25  C29 UNL     1     -12.115  47.923 -19.603  1.00  0.00     0.292 C 
HETATM   26  O5  UNL     1     -13.103  47.971 -18.572  1.00  0.00    -0.348 OA
HETATM   27  C30 UNL     1     -13.927  46.804 -18.421  1.00  0.00     0.179 C 
HETATM   28  C32 UNL     1     -13.431  45.567 -19.187  1.00  0.00     0.180 C 
HETATM   29  C33 UNL     1     -13.232  45.907 -20.672  1.00  0.00     0.183 C 
HETATM   30  C34 UNL     1     -12.731  47.346 -20.892  1.00  0.00     0.204 C 
BRANCH  27  31
HETATM   31  C31 UNL     1     -14.083  46.505 -16.921  1.00  0.00     0.198 C 
BRANCH  31  32
HETATM   32  O6  UNL     1     -12.976  46.971 -16.158  1.00  0.00    -0.398 OA
HETATM   33  H48 UNL     1     -12.793  47.888 -16.460  1.00  0.00     0.209 HD
ENDBRANCH  31  32
ENDBRANCH  27  31
BRANCH  28  34
HETATM   34  O7  UNL     1     -14.354  44.476 -19.056  1.00  0.00    -0.390 OA
HETATM   35  H50 UNL     1     -14.890  44.495 -19.881  1.00  0.00     0.210 HD
ENDBRANCH  28  34
BRANCH  29  36
HETATM   36  O8  UNL     1     -14.482  45.691 -21.363  1.00  0.00    -0.390 OA
HETATM   37  H52 UNL     1     -14.638  46.507 -21.887  1.00  0.00     0.210 HD
ENDBRANCH  29  36
BRANCH  30  38
HETATM   38  O9  UNL     1     -13.830  48.160 -21.355  1.00  0.00    -0.388 OA
HETATM   39  H54 UNL     1     -14.262  48.540 -20.564  1.00  0.00     0.210 HD
ENDBRANCH  30  38
ENDBRANCH  24  25
ENDBRANCH  20  24
BRANCH   1  40
HETATM   40  O1  UNL     1      -4.586  45.654 -18.564  1.00  0.00    -0.365 OA
HETATM   41  C1  UNL     1      -4.313  45.250 -17.231  1.00  0.00     0.204 C 
ENDBRANCH   1  40
BRANCH  12  42
HETATM   42  C13 UNL     1      -1.097  51.303 -21.049  1.00  0.00    -0.010 C 
HETATM   43  C14 UNL     1      -1.437  51.820 -19.635  1.00  0.00     0.010 C 
BRANCH  42  44
HETATM   44  C15 UNL     1      -0.629  52.491 -21.919  1.00  0.00     0.031 C 
BRANCH  44  45
HETATM   45  C16 UNL     1       0.037  52.180 -23.230  1.00  0.00    -0.027 C 
HETATM   46  C17 UNL     1      -0.436  52.572 -24.426  1.00  0.00     0.006 C 
BRANCH  46  47
HETATM   47  C18 UNL     1       0.178  52.320 -25.784  1.00  0.00     0.068 C 
HETATM   48  C19 UNL     1      -0.285  53.259 -26.903  1.00  0.00     0.050 C 
HETATM   49  C20 UNL     1      -0.055  50.866 -26.197  1.00  0.00     0.050 C 
BRANCH  47  50
HETATM   50  O3  UNL     1       1.588  52.502 -25.627  1.00  0.00    -0.387 OA
HETATM   51  H30 UNL     1       1.718  53.398 -25.270  1.00  0.00     0.211 HD
ENDBRANCH  47  50
ENDBRANCH  46  47
ENDBRANCH  44  45
ENDBRANCH  42  44
ENDBRANCH  12  42
TORSDOF 13
ENDMDL
MODEL 8
REMARK minimizedAffinity -9.14617443
REMARK CNNscore 0.225965649
REMARK CNNaffinity 6.92346144
REMARK  13 active torsions:
REMARK  status: ('A' for Active; 'I' for Inactive)
REMARK    1  A    between atoms: O1_2  and  C2_3 
REMARK    2  A    between atoms: C12_14  and  C13_15 
REMARK    3  A    between atoms: C13_15  and  C15_17 
REMARK    4  A    between atoms: C15_17  and  C16_18 
REMARK    5  A    between atoms: C17_19  and  C18_20 
REMARK    6  A    between atoms: C18_20  and  O3_23 
REMARK    7  A    between atoms: C28_31  and  O4_32 
REMARK    8  A    between atoms: O4_32  and  C29_33 
REMARK    9  A    between atoms: C30_35  and  C31_36 
REMARK   10  A    between atoms: C31_36  and  O6_37 
REMARK   11  A    between atoms: C32_38  and  O7_39 
REMARK   12  A    between atoms: C33_40  and  O8_41 
REMARK   13  A    between atoms: C34_42  and  O9_43 
ROOT
HETATM    1  C2  UNL     1      -3.145  48.741 -21.349  1.00  0.00     0.270 C 
HETATM    2  O2  UNL     1      -2.843  50.033 -21.929  1.00  0.00    -0.344 OA
HETATM    3  C3  UNL     1      -4.005  50.478 -22.675  1.00  0.00     0.095 C 
HETATM    4  C4  UNL     1      -4.830  51.219 -21.634  1.00  0.00     0.008 C 
HETATM    5  C5  UNL     1      -5.615  50.581 -20.758  1.00  0.00    -0.021 C 
HETATM    6  C6  UNL     1      -5.643  49.076 -20.685  1.00  0.00     0.030 C 
HETATM    7  C7  UNL     1      -4.631  48.391 -21.716  1.00  0.00     0.024 C 
HETATM    8  C8  UNL     1      -4.813  46.838 -21.734  1.00  0.00     0.016 C 
HETATM    9  C9  UNL     1      -6.251  46.289 -21.662  1.00  0.00     0.011 C 
HETATM   10  C10 UNL     1      -7.028  46.925 -20.504  1.00  0.00    -0.032 C 
HETATM   11  C11 UNL     1      -6.313  46.526 -19.180  1.00  0.00     0.016 C 
HETATM   12  C12 UNL     1      -8.544  46.590 -20.413  1.00  0.00    -0.002 C 
HETATM   13  C21 UNL     1      -9.114  47.770 -19.581  1.00  0.00     0.006 C 
HETATM   14  C22 UNL     1      -8.053  48.900 -19.623  1.00  0.00     0.011 C 
HETATM   15  C23 UNL     1      -7.086  48.483 -20.752  1.00  0.00    -0.029 C 
HETATM   16  C24 UNL     1      -7.790  48.908 -22.084  1.00  0.00     0.016 C 
HETATM   17  C25 UNL     1      -4.651  49.132 -23.090  1.00  0.00     0.039 C 
HETATM   18  C26 UNL     1      -3.852  48.403 -24.203  1.00  0.00     0.011 C 
HETATM   19  C27 UNL     1      -2.755  49.227 -24.865  1.00  0.00     0.033 C 
HETATM   20  C28 UNL     1      -3.260  50.619 -25.185  1.00  0.00     0.136 C 
HETATM   21  C35 UNL     1      -3.605  51.421 -23.881  1.00  0.00     0.014 C 
HETATM   22  C36 UNL     1      -4.769  52.367 -24.295  1.00  0.00     0.021 C 
HETATM   23  C37 UNL     1      -2.413  52.320 -23.455  1.00  0.00     0.021 C 
ENDROOT
BRANCH  20  24
HETATM   24  O4  UNL     1      -2.314  51.372 -25.955  1.00  0.00    -0.352 OA
BRANCH  24  25
HETATM   25  C29 UNL     1      -1.346  52.107 -25.217  1.00  0.00     0.292 C 
HETATM   26  O5  UNL     1      -0.994  53.333 -25.861  1.00  0.00    -0.348 OA
HETATM   27  C30 UNL     1      -0.109  53.233 -26.988  1.00  0.00     0.179 C 
HETATM   28  C32 UNL     1       0.091  51.804 -27.520  1.00  0.00     0.180 C 
HETATM   29  C33 UNL     1       0.543  50.873 -26.385  1.00  0.00     0.183 C 
HETATM   30  C34 UNL     1      -0.091  51.234 -25.030  1.00  0.00     0.204 C 
BRANCH  27  31
HETATM   31  C31 UNL     1      -0.613  54.174 -28.094  1.00  0.00     0.198 C 
BRANCH  31  32
HETATM   32  O6  UNL     1      -2.016  54.057 -28.305  1.00  0.00    -0.398 OA
HETATM   33  H48 UNL     1      -2.436  54.072 -27.417  1.00  0.00     0.209 HD
ENDBRANCH  31  32
ENDBRANCH  27  31
BRANCH  28  34
HETATM   34  O7  UNL     1       1.054  51.780 -28.584  1.00  0.00    -0.390 OA
HETATM   35  H50 UNL     1       1.895  51.499 -28.159  1.00  0.00     0.210 HD
ENDBRANCH  28  34
BRANCH  29  36
HETATM   36  O8  UNL     1       1.985  50.919 -26.302  1.00  0.00    -0.390 OA
HETATM   37  H52 UNL     1       2.190  51.075 -25.354  1.00  0.00     0.210 HD
ENDBRANCH  29  36
BRANCH  30  38
HETATM   38  O9  UNL     1       0.894  51.906 -24.214  1.00  0.00    -0.388 OA
HETATM   39  H54 UNL     1       0.812  52.864 -24.393  1.00  0.00     0.210 HD
ENDBRANCH  30  38
ENDBRANCH  24  25
ENDBRANCH  20  24
BRANCH   1  40
HETATM   40  O1  UNL     1      -2.923  48.695 -19.944  1.00  0.00    -0.365 OA
HETATM   41  C1  UNL     1      -1.855  47.825 -19.602  1.00  0.00     0.204 C 
ENDBRANCH   1  40
BRANCH  12  42
HETATM   42  C13 UNL     1      -9.065  45.159 -20.093  1.00  0.00    -0.010 C 
HETATM   43  C14 UNL     1      -8.068  44.122 -20.648  1.00  0.00     0.010 C 
BRANCH  42  44
HETATM   44  C15 UNL     1     -10.502  44.718 -20.453  1.00  0.00     0.031 C 
BRANCH  44  45
HETATM   45  C16 UNL     1     -11.643  45.495 -19.860  1.00  0.00    -0.027 C 
HETATM   46  C17 UNL     1     -12.432  46.328 -20.561  1.00  0.00     0.006 C 
BRANCH  46  47
HETATM   47  C18 UNL     1     -13.607  47.130 -20.049  1.00  0.00     0.068 C 
HETATM   48  C19 UNL     1     -13.600  47.422 -18.545  1.00  0.00     0.050 C 
HETATM   49  C20 UNL     1     -14.916  46.439 -20.438  1.00  0.00     0.050 C 
BRANCH  47  50
HETATM   50  O3  UNL     1     -13.563  48.386 -20.731  1.00  0.00    -0.387 OA
HETATM   51  H30 UNL     1     -12.687  48.771 -20.555  1.00  0.00     0.211 HD
ENDBRANCH  47  50
ENDBRANCH  46  47
ENDBRANCH  44  45
ENDBRANCH  42  44
ENDBRANCH  12  42
TORSDOF 13
ENDMDL
MODEL 9
REMARK minimizedAffinity -8.42604923
REMARK CNNscore 0.220191762
REMARK CNNaffinity 6.12264872
REMARK  13 active torsions:
REMARK  status: ('A' for Active; 'I' for Inactive)
REMARK    1  A    between atoms: O1_2  and  C2_3 
REMARK    2  A    between atoms: C12_14  and  C13_15 
REMARK    3  A    between atoms: C13_15  and  C15_17 
REMARK    4  A    between atoms: C15_17  and  C16_18 
REMARK    5  A    between atoms: C17_19  and  C18_20 
REMARK    6  A    between atoms: C18_20  and  O3_23 
REMARK    7  A    between atoms: C28_31  and  O4_32 
REMARK    8  A    between atoms: O4_32  and  C29_33 
REMARK    9  A    between atoms: C30_35  and  C31_36 
REMARK   10  A    between atoms: C31_36  and  O6_37 
REMARK   11  A    between atoms: C32_38  and  O7_39 
REMARK   12  A    between atoms: C33_40  and  O8_41 
REMARK   13  A    between atoms: C34_42  and  O9_43 
ROOT
HETATM    1  C2  UNL     1     -10.823  43.997 -26.435  1.00  0.00     0.270 C 
HETATM    2  O2  UNL     1     -12.214  43.644 -26.636  1.00  0.00    -0.344 OA
HETATM    3  C3  UNL     1     -12.807  44.625 -27.525  1.00  0.00     0.095 C 
HETATM    4  C4  UNL     1     -12.537  44.055 -28.909  1.00  0.00     0.008 C 
HETATM    5  C5  UNL     1     -11.354  44.190 -29.520  1.00  0.00    -0.021 C 
HETATM    6  C6  UNL     1     -10.182  44.829 -28.821  1.00  0.00     0.030 C 
HETATM    7  C7  UNL     1     -10.521  45.260 -27.319  1.00  0.00     0.024 C 
HETATM    8  C8  UNL     1      -9.342  46.070 -26.687  1.00  0.00     0.016 C 
HETATM    9  C9  UNL     1      -8.619  47.092 -27.585  1.00  0.00     0.011 C 
HETATM   10  C10 UNL     1      -8.206  46.460 -28.919  1.00  0.00    -0.032 C 
HETATM   11  C11 UNL     1      -7.193  45.320 -28.608  1.00  0.00     0.016 C 
HETATM   12  C12 UNL     1      -7.616  47.420 -29.992  1.00  0.00    -0.002 C 
HETATM   13  C21 UNL     1      -7.855  46.649 -31.319  1.00  0.00     0.006 C 
HETATM   14  C22 UNL     1      -8.921  45.564 -31.020  1.00  0.00     0.011 C 
HETATM   15  C23 UNL     1      -9.514  45.968 -29.653  1.00  0.00    -0.029 C 
HETATM   16  C24 UNL     1     -10.554  47.097 -29.965  1.00  0.00     0.016 C 
HETATM   17  C25 UNL     1     -11.950  45.882 -27.229  1.00  0.00     0.039 C 
HETATM   18  C26 UNL     1     -12.270  46.512 -25.847  1.00  0.00     0.011 C 
HETATM   19  C27 UNL     1     -13.511  45.967 -25.153  1.00  0.00     0.033 C 
HETATM   20  C28 UNL     1     -14.659  45.856 -26.136  1.00  0.00     0.136 C 
HETATM   21  C35 UNL     1     -14.356  44.801 -27.259  1.00  0.00     0.014 C 
HETATM   22  C36 UNL     1     -15.109  45.332 -28.513  1.00  0.00     0.021 C 
HETATM   23  C37 UNL     1     -14.975  43.423 -26.902  1.00  0.00     0.021 C 
ENDROOT
BRANCH  20  24
HETATM   24  O4  UNL     1     -15.890  45.504 -25.491  1.00  0.00    -0.352 OA
BRANCH  24  25
HETATM   25  C29 UNL     1     -16.770  46.579 -25.189  1.00  0.00     0.292 C 
HETATM   26  O5  UNL     1     -16.419  47.239 -23.971  1.00  0.00    -0.348 OA
HETATM   27  C30 UNL     1     -16.772  46.564 -22.753  1.00  0.00     0.179 C 
HETATM   28  C32 UNL     1     -17.203  45.098 -22.935  1.00  0.00     0.180 C 
HETATM   29  C33 UNL     1     -18.341  45.004 -23.962  1.00  0.00     0.183 C 
HETATM   30  C34 UNL     1     -18.209  46.037 -25.095  1.00  0.00     0.204 C 
BRANCH  27  31
HETATM   31  C31 UNL     1     -15.596  46.680 -21.769  1.00  0.00     0.198 C 
BRANCH  31  32
HETATM   32  O6  UNL     1     -14.693  47.720 -22.127  1.00  0.00    -0.398 OA
HETATM   33  H48 UNL     1     -15.241  48.510 -22.334  1.00  0.00     0.209 HD
ENDBRANCH  31  32
ENDBRANCH  27  31
BRANCH  28  34
HETATM   34  O7  UNL     1     -17.622  44.526 -21.687  1.00  0.00    -0.390 OA
HETATM   35  H50 UNL     1     -18.604  44.583 -21.699  1.00  0.00     0.210 HD
ENDBRANCH  28  34
BRANCH  29  36
HETATM   36  O8  UNL     1     -19.599  45.167 -23.268  1.00  0.00    -0.390 OA
HETATM   37  H52 UNL     1     -20.095  45.845 -23.777  1.00  0.00     0.210 HD
ENDBRANCH  29  36
BRANCH  30  38
HETATM   38  O9  UNL     1     -19.155  47.105 -24.871  1.00  0.00    -0.388 OA
HETATM   39  H54 UNL     1     -18.700  47.785 -24.335  1.00  0.00     0.210 HD
ENDBRANCH  30  38
ENDBRANCH  24  25
ENDBRANCH  20  24
BRANCH   1  40
HETATM   40  O1  UNL     1      -9.931  42.927 -26.720  1.00  0.00    -0.365 OA
HETATM   41  C1  UNL     1     -10.589  41.669 -26.719  1.00  0.00     0.204 C 
ENDBRANCH   1  40
BRANCH  12  42
HETATM   42  C13 UNL     1      -6.248  48.138 -29.808  1.00  0.00    -0.010 C 
HETATM   43  C14 UNL     1      -5.660  48.470 -31.195  1.00  0.00     0.010 C 
BRANCH  42  44
HETATM   44  C15 UNL     1      -5.132  47.544 -28.918  1.00  0.00     0.031 C 
BRANCH  44  45
HETATM   45  C16 UNL     1      -4.771  48.283 -27.661  1.00  0.00    -0.027 C 
HETATM   46  C17 UNL     1      -3.535  48.733 -27.381  1.00  0.00     0.006 C 
BRANCH  46  47
HETATM   47  C18 UNL     1      -3.092  49.499 -26.155  1.00  0.00     0.068 C 
HETATM   48  C19 UNL     1      -1.703  50.141 -26.245  1.00  0.00     0.050 C 
HETATM   49  C20 UNL     1      -3.167  48.595 -24.923  1.00  0.00     0.050 C 
BRANCH  47  50
HETATM   50  O3  UNL     1      -4.041  50.552 -25.975  1.00  0.00    -0.387 OA
HETATM   51  H30 UNL     1      -4.056  51.063 -26.804  1.00  0.00     0.211 HD
ENDBRANCH  47  50
ENDBRANCH  46  47
ENDBRANCH  44  45
ENDBRANCH  42  44
ENDBRANCH  12  42
TORSDOF 13
ENDMDL
