MODEL 1
REMARK minimizedAffinity -6.99432373
REMARK CNNscore 0.450061649
REMARK CNNaffinity 5.96495581
REMARK  6 active torsions:
REMARK  status: ('A' for Active; 'I' for Inactive)
REMARK    1  A    between atoms: C9_10  and  C10_11 
REMARK    2  A    between atoms: C11_13  and  O3_14 
REMARK    3  A    between atoms: C12_15  and  C13_16 
REMARK    4  A    between atoms: C14_18  and  O5_19 
REMARK    5  A    between atoms: C16_21  and  C17_22 
REMARK    6  A    between atoms: C17_22  and  C18_23 
ROOT
HETATM    1  C1  UNL     1      12.367  63.469 -12.328  1.00  0.00     0.043 C 
HETATM    2  C2  UNL     1      12.484  64.941 -12.597  1.00  0.00    -0.087 C 
HETATM    3  C3  UNL     1      12.003  65.910 -11.793  1.00  0.00    -0.024 C 
HETATM    4  C4  UNL     1      11.130  65.791 -10.585  1.00  0.00     0.030 C 
HETATM    5  C5  UNL     1       9.622  65.585 -10.837  1.00  0.00     0.042 C 
HETATM    6  C6  UNL     1       8.899  66.272 -12.049  1.00  0.00     0.069 C 
HETATM    7  C7  UNL     1       9.251  67.777 -12.109  1.00  0.00     0.047 C 
HETATM    8  O1  UNL     1       7.490  66.258 -11.644  1.00  0.00    -0.338 OA
HETATM    9  C8  UNL     1       6.625  66.603 -12.648  1.00  0.00     0.095 A 
HETATM   10  C9  UNL     1       5.596  67.519 -12.410  1.00  0.00     0.070 A 
HETATM   11  C11 UNL     1       4.686  67.824 -13.434  1.00  0.00     0.097 A 
HETATM   12  C12 UNL     1       4.792  67.179 -14.672  1.00  0.00     0.069 A 
HETATM   13  C14 UNL     1       5.808  66.231 -14.883  1.00  0.00     0.091 A 
HETATM   14  C15 UNL     1       6.743  65.954 -13.878  1.00  0.00     0.015 A 
HETATM   15  C16 UNL     1       7.802  64.879 -13.991  1.00  0.00     0.032 C 
HETATM   16  C21 UNL     1       9.129  65.422 -13.389  1.00  0.00     0.034 C 
HETATM   17  C22 UNL     1      10.129  66.074 -14.368  1.00  0.00     0.006 A 
HETATM   18  C23 UNL     1      10.903  65.092 -15.244  1.00  0.00    -0.001 A 
HETATM   19  C24 UNL     1      12.401  64.903 -15.187  1.00  0.00     0.010 C 
HETATM   20  C25 UNL     1      13.138  65.345 -13.909  1.00  0.00     0.034 C 
HETATM   21  C26 UNL     1      10.217  66.285 -15.889  1.00  0.00    -0.039 A 
HETATM   22  C27 UNL     1       9.080  66.018 -16.838  1.00  0.00     0.015 C 
HETATM   23  C28 UNL     1      11.048  67.474 -16.331  1.00  0.00     0.015 C 
ENDROOT
BRANCH  15  24
HETATM   24  C17 UNL     1       7.254  63.612 -13.257  1.00  0.00     0.014 C 
BRANCH  24  25
HETATM   25  C18 UNL     1       5.751  63.286 -13.390  1.00  0.00    -0.022 C 
HETATM   26  C19 UNL     1       5.099  62.870 -12.078  1.00  0.00     0.009 C 
HETATM   27  C20 UNL     1       5.456  62.267 -14.491  1.00  0.00     0.009 C 
ENDBRANCH  24  25
ENDBRANCH  15  24
BRANCH  13  28
HETATM   28  O5  UNL     1       5.906  65.522 -16.053  1.00  0.00    -0.359 OA
HETATM   29  H15 UNL     1       5.194  65.825 -16.663  1.00  0.00     0.217 HD
ENDBRANCH  13  28
BRANCH  10  30
HETATM   30  C10 UNL     1       5.487  68.157 -11.085  1.00  0.00     0.275 C 
HETATM   31  O2  UNL     1       4.482  67.988 -10.398  1.00  0.00    -0.301 OA
ENDBRANCH  10  30
BRANCH  12  32
HETATM   32  C13 UNL     1       3.816  67.484 -15.738  1.00  0.00     0.275 C 
HETATM   33  O4  UNL     1       4.197  67.700 -16.887  1.00  0.00    -0.301 OA
ENDBRANCH  12  32
BRANCH  11  34
HETATM   34  O3  UNL     1       3.675  68.735 -13.251  1.00  0.00    -0.359 OA
HETATM   35  H13 UNL     1       3.729  69.088 -12.332  1.00  0.00     0.217 HD
ENDBRANCH  11  34
TORSDOF 6
ENDMDL
MODEL 2
REMARK minimizedAffinity -6.11848402
REMARK CNNscore 0.336976081
REMARK CNNaffinity 5.93991232
REMARK  6 active torsions:
REMARK  status: ('A' for Active; 'I' for Inactive)
REMARK    1  A    between atoms: C9_10  and  C10_11 
REMARK    2  A    between atoms: C11_13  and  O3_14 
REMARK    3  A    between atoms: C12_15  and  C13_16 
REMARK    4  A    between atoms: C14_18  and  O5_19 
REMARK    5  A    between atoms: C16_21  and  C17_22 
REMARK    6  A    between atoms: C17_22  and  C18_23 
ROOT
HETATM    1  C1  UNL     1       2.761  55.612  -5.288  1.00  0.00     0.043 C 
HETATM    2  C2  UNL     1       3.243  56.350  -6.502  1.00  0.00    -0.087 C 
HETATM    3  C3  UNL     1       2.465  56.713  -7.541  1.00  0.00    -0.024 C 
HETATM    4  C4  UNL     1       1.044  56.353  -7.829  1.00  0.00     0.030 C 
HETATM    5  C5  UNL     1       0.790  54.958  -8.438  1.00  0.00     0.042 C 
HETATM    6  C6  UNL     1       1.801  54.320  -9.456  1.00  0.00     0.069 C 
HETATM    7  C7  UNL     1       2.163  55.332 -10.568  1.00  0.00     0.047 C 
HETATM    8  O1  UNL     1       0.984  53.318 -10.147  1.00  0.00    -0.338 OA
HETATM    9  C8  UNL     1       1.710  52.464 -10.934  1.00  0.00     0.095 A 
HETATM   10  C9  UNL     1       1.290  52.174 -12.236  1.00  0.00     0.070 A 
HETATM   11  C11 UNL     1       2.015  51.258 -13.012  1.00  0.00     0.097 A 
HETATM   12  C12 UNL     1       3.130  50.612 -12.465  1.00  0.00     0.069 A 
HETATM   13  C14 UNL     1       3.517  50.885 -11.141  1.00  0.00     0.091 A 
HETATM   14  C15 UNL     1       2.821  51.828 -10.376  1.00  0.00     0.015 A 
HETATM   15  C16 UNL     1       3.111  52.105  -8.917  1.00  0.00     0.032 C 
HETATM   16  C21 UNL     1       3.023  53.638  -8.673  1.00  0.00     0.034 C 
HETATM   17  C22 UNL     1       4.338  54.440  -8.766  1.00  0.00     0.006 A 
HETATM   18  C23 UNL     1       5.273  54.282  -7.569  1.00  0.00    -0.001 A 
HETATM   19  C24 UNL     1       5.655  55.408  -6.636  1.00  0.00     0.010 C 
HETATM   20  C25 UNL     1       4.735  56.641  -6.576  1.00  0.00     0.034 C 
HETATM   21  C26 UNL     1       5.827  54.113  -8.974  1.00  0.00    -0.039 A 
HETATM   22  C27 UNL     1       6.337  52.755  -9.374  1.00  0.00     0.015 C 
HETATM   23  C28 UNL     1       6.655  55.226  -9.588  1.00  0.00     0.015 C 
ENDROOT
BRANCH  15  24
HETATM   24  C17 UNL     1       2.084  51.277  -8.076  1.00  0.00     0.014 C 
BRANCH  24  25
HETATM   25  C18 UNL     1       1.606  51.861  -6.729  1.00  0.00    -0.022 C 
HETATM   26  C19 UNL     1       2.516  51.515  -5.558  1.00  0.00     0.009 C 
HETATM   27  C20 UNL     1       0.152  51.511  -6.411  1.00  0.00     0.009 C 
ENDBRANCH  24  25
ENDBRANCH  15  24
BRANCH  13  28
HETATM   28  O5  UNL     1       4.556  50.223 -10.539  1.00  0.00    -0.359 OA
HETATM   29  H15 UNL     1       4.952  49.601 -11.193  1.00  0.00     0.217 HD
ENDBRANCH  13  28
BRANCH  10  30
HETATM   30  C10 UNL     1       0.092  52.842 -12.776  1.00  0.00     0.275 C 
HETATM   31  O2  UNL     1      -0.794  52.183 -13.317  1.00  0.00    -0.301 OA
ENDBRANCH  10  30
BRANCH  12  32
HETATM   32  C13 UNL     1       3.875  49.629 -13.278  1.00  0.00     0.275 C 
HETATM   33  O4  UNL     1       5.105  49.610 -13.258  1.00  0.00    -0.301 OA
ENDBRANCH  12  32
BRANCH  11  34
HETATM   34  O3  UNL     1       1.652  50.962 -14.303  1.00  0.00    -0.359 OA
HETATM   35  H13 UNL     1       0.849  51.485 -14.534  1.00  0.00     0.217 HD
ENDBRANCH  11  34
TORSDOF 6
ENDMDL
MODEL 3
REMARK minimizedAffinity -6.59179783
REMARK CNNscore 0.315388441
REMARK CNNaffinity 6.128613
REMARK  6 active torsions:
REMARK  status: ('A' for Active; 'I' for Inactive)
REMARK    1  A    between atoms: C9_10  and  C10_11 
REMARK    2  A    between atoms: C11_13  and  O3_14 
REMARK    3  A    between atoms: C12_15  and  C13_16 
REMARK    4  A    between atoms: C14_18  and  O5_19 
REMARK    5  A    between atoms: C16_21  and  C17_22 
REMARK    6  A    between atoms: C17_22  and  C18_23 
ROOT
HETATM    1  C1  UNL     1       2.993  56.137  -5.462  1.00  0.00     0.043 C 
HETATM    2  C2  UNL     1       2.534  57.020  -6.585  1.00  0.00    -0.087 C 
HETATM    3  C3  UNL     1       1.246  57.298  -6.867  1.00  0.00    -0.024 C 
HETATM    4  C4  UNL     1       0.002  56.705  -6.289  1.00  0.00     0.030 C 
HETATM    5  C5  UNL     1      -0.427  55.325  -6.832  1.00  0.00     0.042 C 
HETATM    6  C6  UNL     1      -0.210  54.942  -8.339  1.00  0.00     0.069 C 
HETATM    7  C7  UNL     1      -0.728  56.067  -9.265  1.00  0.00     0.047 C 
HETATM    8  O1  UNL     1      -1.168  53.851  -8.543  1.00  0.00    -0.338 OA
HETATM    9  C8  UNL     1      -1.006  53.190  -9.731  1.00  0.00     0.095 A 
HETATM   10  C9  UNL     1      -2.111  52.907 -10.539  1.00  0.00     0.070 A 
HETATM   11  C11 UNL     1      -1.936  52.185 -11.729  1.00  0.00     0.097 A 
HETATM   12  C12 UNL     1      -0.662  51.719 -12.079  1.00  0.00     0.069 A 
HETATM   13  C14 UNL     1       0.433  51.979 -11.236  1.00  0.00     0.091 A 
HETATM   14  C15 UNL     1       0.270  52.734 -10.069  1.00  0.00     0.015 A 
HETATM   15  C16 UNL     1       1.375  52.972  -9.061  1.00  0.00     0.032 C 
HETATM   16  C21 UNL     1       1.297  54.446  -8.575  1.00  0.00     0.034 C 
HETATM   17  C22 UNL     1       2.175  55.477  -9.316  1.00  0.00     0.006 A 
HETATM   18  C23 UNL     1       3.662  55.419  -8.973  1.00  0.00    -0.001 A 
HETATM   19  C24 UNL     1       4.420  56.539  -8.297  1.00  0.00     0.010 C 
HETATM   20  C25 UNL     1       3.614  57.579  -7.498  1.00  0.00     0.034 C 
HETATM   21  C26 UNL     1       3.234  55.437 -10.431  1.00  0.00    -0.039 A 
HETATM   22  C27 UNL     1       3.524  54.220 -11.267  1.00  0.00     0.015 C 
HETATM   23  C28 UNL     1       3.377  56.716 -11.235  1.00  0.00     0.015 C 
ENDROOT
BRANCH  15  24
HETATM   24  C17 UNL     1       1.189  51.924  -7.916  1.00  0.00     0.014 C 
BRANCH  24  25
HETATM   25  C18 UNL     1      -0.039  52.065  -6.991  1.00  0.00    -0.022 C 
HETATM   26  C19 UNL     1       0.320  52.382  -5.545  1.00  0.00     0.009 C 
HETATM   27  C20 UNL     1      -0.985  50.867  -7.066  1.00  0.00     0.009 C 
ENDBRANCH  24  25
ENDBRANCH  15  24
BRANCH  13  28
HETATM   28  O5  UNL     1       1.683  51.481 -11.500  1.00  0.00    -0.359 OA
HETATM   29  H15 UNL     1       1.649  50.981 -12.348  1.00  0.00     0.217 HD
ENDBRANCH  13  28
BRANCH  10  30
HETATM   30  C10 UNL     1      -3.447  53.379 -10.129  1.00  0.00     0.275 C 
HETATM   31  O2  UNL     1      -4.256  53.754 -10.975  1.00  0.00    -0.301 OA
ENDBRANCH  10  30
BRANCH  12  32
HETATM   32  C13 UNL     1      -0.487  50.938 -13.319  1.00  0.00     0.275 C 
HETATM   33  O4  UNL     1      -0.697  51.454 -14.415  1.00  0.00    -0.301 OA
ENDBRANCH  12  32
BRANCH  11  34
HETATM   34  O3  UNL     1      -2.989  51.905 -12.564  1.00  0.00    -0.359 OA
HETATM   35  H13 UNL     1      -3.812  52.287 -12.175  1.00  0.00     0.217 HD
ENDBRANCH  11  34
TORSDOF 6
ENDMDL
MODEL 4
REMARK minimizedAffinity -5.98746824
REMARK CNNscore 0.309494704
REMARK CNNaffinity 5.54095411
REMARK  6 active torsions:
REMARK  status: ('A' for Active; 'I' for Inactive)
REMARK    1  A    between atoms: C9_10  and  C10_11 
REMARK    2  A    between atoms: C11_13  and  O3_14 
REMARK    3  A    between atoms: C12_15  and  C13_16 
REMARK    4  A    between atoms: C14_18  and  O5_19 
REMARK    5  A    between atoms: C16_21  and  C17_22 
REMARK    6  A    between atoms: C17_22  and  C18_23 
ROOT
HETATM    1  C1  UNL     1       4.689  54.699  -9.356  1.00  0.00     0.043 C 
HETATM    2  C2  UNL     1       3.692  55.775  -9.673  1.00  0.00    -0.087 C 
HETATM    3  C3  UNL     1       3.536  56.911  -8.966  1.00  0.00    -0.024 C 
HETATM    4  C4  UNL     1       4.149  57.306  -7.662  1.00  0.00     0.030 C 
HETATM    5  C5  UNL     1       3.514  56.710  -6.388  1.00  0.00     0.042 C 
HETATM    6  C6  UNL     1       1.965  56.470  -6.289  1.00  0.00     0.069 C 
HETATM    7  C7  UNL     1       1.190  57.732  -6.734  1.00  0.00     0.047 C 
HETATM    8  O1  UNL     1       1.734  56.409  -4.842  1.00  0.00    -0.338 OA
HETATM    9  C8  UNL     1       0.480  55.975  -4.503  1.00  0.00     0.095 A 
HETATM   10  C9  UNL     1      -0.265  56.654  -3.534  1.00  0.00     0.070 A 
HETATM   11  C11 UNL     1      -1.527  56.169  -3.160  1.00  0.00     0.097 A 
HETATM   12  C12 UNL     1      -2.015  54.987  -3.732  1.00  0.00     0.069 A 
HETATM   13  C14 UNL     1      -1.237  54.295  -4.677  1.00  0.00     0.091 A 
HETATM   14  C15 UNL     1       0.005  54.797  -5.082  1.00  0.00     0.015 A 
HETATM   15  C16 UNL     1       0.943  54.063  -6.016  1.00  0.00     0.032 C 
HETATM   16  C21 UNL     1       1.570  55.089  -7.002  1.00  0.00     0.034 C 
HETATM   17  C22 UNL     1       0.864  55.279  -8.361  1.00  0.00     0.006 A 
HETATM   18  C23 UNL     1       1.086  54.148  -9.363  1.00  0.00    -0.001 A 
HETATM   19  C24 UNL     1       1.804  54.314 -10.683  1.00  0.00     0.010 C 
HETATM   20  C25 UNL     1       2.756  55.513 -10.843  1.00  0.00     0.034 C 
HETATM   21  C26 UNL     1      -0.327  54.637  -9.093  1.00  0.00    -0.039 A 
HETATM   22  C27 UNL     1      -1.293  53.682  -8.445  1.00  0.00     0.015 C 
HETATM   23  C28 UNL     1      -1.016  55.525 -10.112  1.00  0.00     0.015 C 
ENDROOT
BRANCH  15  24
HETATM   24  C17 UNL     1       1.996  53.324  -5.127  1.00  0.00     0.014 C 
BRANCH  24  25
HETATM   25  C18 UNL     1       2.866  52.230  -5.783  1.00  0.00    -0.022 C 
HETATM   26  C19 UNL     1       4.235  52.726  -6.229  1.00  0.00     0.009 C 
HETATM   27  C20 UNL     1       2.152  51.504  -6.923  1.00  0.00     0.009 C 
ENDBRANCH  24  25
ENDBRANCH  15  24
BRANCH  13  28
HETATM   28  O5  UNL     1      -1.641  53.097  -5.208  1.00  0.00    -0.359 OA
HETATM   29  H15 UNL     1      -2.527  52.873  -4.840  1.00  0.00     0.217 HD
ENDBRANCH  13  28
BRANCH  10  30
HETATM   30  C10 UNL     1       0.288  57.877  -2.922  1.00  0.00     0.275 C 
HETATM   31  O2  UNL     1      -0.327  58.939  -2.998  1.00  0.00    -0.301 OA
ENDBRANCH  10  30
BRANCH  12  32
HETATM   32  C13 UNL     1      -3.333  54.467  -3.317  1.00  0.00     0.275 C 
HETATM   33  O4  UNL     1      -4.291  54.515  -4.085  1.00  0.00    -0.301 OA
ENDBRANCH  12  32
BRANCH  11  34
HETATM   34  O3  UNL     1      -2.302  56.817  -2.230  1.00  0.00    -0.359 OA
HETATM   35  H13 UNL     1      -1.818  57.617  -1.917  1.00  0.00     0.217 HD
ENDBRANCH  11  34
TORSDOF 6
ENDMDL
MODEL 5
REMARK minimizedAffinity -6.7545166
REMARK CNNscore 0.30639112
REMARK CNNaffinity 5.82848501
REMARK  6 active torsions:
REMARK  status: ('A' for Active; 'I' for Inactive)
REMARK    1  A    between atoms: C9_10  and  C10_11 
REMARK    2  A    between atoms: C11_13  and  O3_14 
REMARK    3  A    between atoms: C12_15  and  C13_16 
REMARK    4  A    between atoms: C14_18  and  O5_19 
REMARK    5  A    between atoms: C16_21  and  C17_22 
REMARK    6  A    between atoms: C17_22  and  C18_23 
ROOT
HETATM    1  C1  UNL     1       5.531  56.459  -6.813  1.00  0.00     0.043 C 
HETATM    2  C2  UNL     1       4.587  55.983  -5.748  1.00  0.00    -0.087 C 
HETATM    3  C3  UNL     1       4.282  54.692  -5.513  1.00  0.00    -0.024 C 
HETATM    4  C4  UNL     1       4.639  53.476  -6.305  1.00  0.00     0.030 C 
HETATM    5  C5  UNL     1       3.795  53.196  -7.566  1.00  0.00     0.042 C 
HETATM    6  C6  UNL     1       2.259  53.522  -7.604  1.00  0.00     0.069 C 
HETATM    7  C7  UNL     1       1.553  52.956  -6.350  1.00  0.00     0.047 C 
HETATM    8  O1  UNL     1       1.769  52.673  -8.694  1.00  0.00    -0.338 OA
HETATM    9  C8  UNL     1       0.483  52.952  -9.075  1.00  0.00     0.095 A 
HETATM   10  C9  UNL     1      -0.439  51.918  -9.261  1.00  0.00     0.070 A 
HETATM   11  C11 UNL     1      -1.738  52.215  -9.700  1.00  0.00     0.097 A 
HETATM   12  C12 UNL     1      -2.089  53.540  -9.985  1.00  0.00     0.069 A 
HETATM   13  C14 UNL     1      -1.139  54.564  -9.830  1.00  0.00     0.091 A 
HETATM   14  C15 UNL     1       0.146  54.278  -9.353  1.00  0.00     0.015 A 
HETATM   15  C16 UNL     1       1.253  55.305  -9.254  1.00  0.00     0.032 C 
HETATM   16  C21 UNL     1       2.028  55.076  -7.926  1.00  0.00     0.034 C 
HETATM   17  C22 UNL     1       1.578  55.897  -6.699  1.00  0.00     0.006 A 
HETATM   18  C23 UNL     1       2.002  57.365  -6.718  1.00  0.00    -0.001 A 
HETATM   19  C24 UNL     1       2.944  57.988  -5.714  1.00  0.00     0.010 C 
HETATM   20  C25 UNL     1       3.885  57.056  -4.930  1.00  0.00     0.034 C 
HETATM   21  C26 UNL     1       0.554  57.012  -6.424  1.00  0.00    -0.039 A 
HETATM   22  C27 UNL     1      -0.495  57.448  -7.412  1.00  0.00     0.015 C 
HETATM   23  C28 UNL     1       0.043  57.084  -4.997  1.00  0.00     0.015 C 
ENDROOT
BRANCH  15  24
HETATM   24  C17 UNL     1       2.142  55.152 -10.532  1.00  0.00     0.014 C 
BRANCH  24  25
HETATM   25  C18 UNL     1       3.264  56.186 -10.767  1.00  0.00    -0.022 C 
HETATM   26  C19 UNL     1       4.561  55.572 -11.278  1.00  0.00     0.009 C 
HETATM   27  C20 UNL     1       3.525  57.072  -9.549  1.00  0.00     0.009 C 
ENDBRANCH  24  25
ENDBRANCH  15  24
BRANCH  13  28
HETATM   28  O5  UNL     1      -1.415  55.865 -10.166  1.00  0.00    -0.359 OA
HETATM   29  H15 UNL     1      -2.348  55.917 -10.477  1.00  0.00     0.217 HD
ENDBRANCH  13  28
BRANCH  10  30
HETATM   30  C10 UNL     1      -0.032  50.527  -8.987  1.00  0.00     0.275 C 
HETATM   31  O2  UNL     1      -0.250  49.644  -9.813  1.00  0.00    -0.301 OA
ENDBRANCH  10  30
BRANCH  12  32
HETATM   32  C13 UNL     1      -3.450  53.845 -10.471  1.00  0.00     0.275 C 
HETATM   33  O4  UNL     1      -4.260  52.940 -10.660  1.00  0.00    -0.301 OA
ENDBRANCH  12  32
BRANCH  11  34
HETATM   34  O3  UNL     1      -2.682  51.233  -9.873  1.00  0.00    -0.359 OA
HETATM   35  H13 UNL     1      -2.279  50.362  -9.644  1.00  0.00     0.217 HD
ENDBRANCH  11  34
TORSDOF 6
ENDMDL
MODEL 6
REMARK minimizedAffinity -5.48548317
REMARK CNNscore 0.293048859
REMARK CNNaffinity 5.28226995
REMARK  6 active torsions:
REMARK  status: ('A' for Active; 'I' for Inactive)
REMARK    1  A    between atoms: C9_10  and  C10_11 
REMARK    2  A    between atoms: C11_13  and  O3_14 
REMARK    3  A    between atoms: C12_15  and  C13_16 
REMARK    4  A    between atoms: C14_18  and  O5_19 
REMARK    5  A    between atoms: C16_21  and  C17_22 
REMARK    6  A    between atoms: C17_22  and  C18_23 
ROOT
HETATM    1  C1  UNL     1      -3.602  46.005 -20.958  1.00  0.00     0.043 C 
HETATM    2  C2  UNL     1      -4.036  47.408 -20.648  1.00  0.00    -0.087 C 
HETATM    3  C3  UNL     1      -4.600  47.799 -19.488  1.00  0.00    -0.024 C 
HETATM    4  C4  UNL     1      -5.078  46.969 -18.341  1.00  0.00     0.030 C 
HETATM    5  C5  UNL     1      -6.452  46.286 -18.503  1.00  0.00     0.042 C 
HETATM    6  C6  UNL     1      -7.623  46.990 -19.277  1.00  0.00     0.069 C 
HETATM    7  C7  UNL     1      -7.802  48.445 -18.784  1.00  0.00     0.047 C 
HETATM    8  O1  UNL     1      -8.814  46.300 -18.771  1.00  0.00    -0.338 OA
HETATM    9  C8  UNL     1      -9.955  46.585 -19.473  1.00  0.00     0.095 A 
HETATM   10  C9  UNL     1     -11.138  46.900 -18.800  1.00  0.00     0.070 A 
HETATM   11  C11 UNL     1     -12.312  47.139 -19.531  1.00  0.00     0.097 A 
HETATM   12  C12 UNL     1     -12.297  47.023 -20.926  1.00  0.00     0.069 A 
HETATM   13  C14 UNL     1     -11.108  46.667 -21.586  1.00  0.00     0.091 A 
HETATM   14  C15 UNL     1      -9.926  46.467 -20.864  1.00  0.00     0.015 A 
HETATM   15  C16 UNL     1      -8.633  45.986 -21.487  1.00  0.00     0.032 C 
HETATM   16  C21 UNL     1      -7.451  46.776 -20.857  1.00  0.00     0.034 C 
HETATM   17  C22 UNL     1      -6.977  48.043 -21.601  1.00  0.00     0.006 A 
HETATM   18  C23 UNL     1      -6.156  47.777 -22.861  1.00  0.00    -0.001 A 
HETATM   19  C24 UNL     1      -4.708  48.178 -23.030  1.00  0.00     0.010 C 
HETATM   20  C25 UNL     1      -3.876  48.433 -21.760  1.00  0.00     0.034 C 
HETATM   21  C26 UNL     1      -7.323  48.749 -22.923  1.00  0.00    -0.039 A 
HETATM   22  C27 UNL     1      -8.502  48.383 -23.785  1.00  0.00     0.015 C 
HETATM   23  C28 UNL     1      -7.051  50.241 -22.951  1.00  0.00     0.015 C 
ENDROOT
BRANCH  15  24
HETATM   24  C17 UNL     1      -8.551  44.442 -21.250  1.00  0.00     0.014 C 
BRANCH  24  25
HETATM   25  C18 UNL     1      -7.888  43.572 -22.339  1.00  0.00    -0.022 C 
HETATM   26  C19 UNL     1      -6.464  43.152 -22.000  1.00  0.00     0.009 C 
HETATM   27  C20 UNL     1      -7.953  44.203 -23.730  1.00  0.00     0.009 C 
ENDBRANCH  24  25
ENDBRANCH  15  24
BRANCH  13  28
HETATM   28  O5  UNL     1     -11.065  46.470 -22.942  1.00  0.00    -0.359 OA
HETATM   29  H15 UNL     1     -11.958  46.651 -23.314  1.00  0.00     0.217 HD
ENDBRANCH  13  28
BRANCH  10  30
HETATM   30  C10 UNL     1     -11.133  46.982 -17.327  1.00  0.00     0.275 C 
HETATM   31  O2  UNL     1     -11.890  47.759 -16.748  1.00  0.00    -0.301 OA
ENDBRANCH  10  30
BRANCH  12  32
HETATM   32  C13 UNL     1     -13.541  47.251 -21.689  1.00  0.00     0.275 C 
HETATM   33  O4  UNL     1     -14.276  48.198 -21.413  1.00  0.00    -0.301 OA
ENDBRANCH  12  32
BRANCH  11  34
HETATM   34  O3  UNL     1     -13.490  47.475 -18.911  1.00  0.00    -0.359 OA
HETATM   35  H13 UNL     1     -13.339  47.505 -17.937  1.00  0.00     0.217 HD
ENDBRANCH  11  34
TORSDOF 6
ENDMDL
MODEL 7
REMARK minimizedAffinity -5.47864628
REMARK CNNscore 0.265984029
REMARK CNNaffinity 4.87443399
REMARK  6 active torsions:
REMARK  status: ('A' for Active; 'I' for Inactive)
REMARK    1  A    between atoms: C9_10  and  C10_11 
REMARK    2  A    between atoms: C11_13  and  O3_14 
REMARK    3  A    between atoms: C12_15  and  C13_16 
REMARK    4  A    between atoms: C14_18  and  O5_19 
REMARK    5  A    between atoms: C16_21  and  C17_22 
REMARK    6  A    between atoms: C17_22  and  C18_23 
ROOT
HETATM    1  C1  UNL     1     -10.828  46.527 -21.831  1.00  0.00     0.043 C 
HETATM    2  C2  UNL     1     -11.159  45.406 -22.773  1.00  0.00    -0.087 C 
HETATM    3  C3  UNL     1     -11.852  45.545 -23.920  1.00  0.00    -0.024 C 
HETATM    4  C4  UNL     1     -12.581  46.738 -24.446  1.00  0.00     0.030 C 
HETATM    5  C5  UNL     1     -13.977  47.017 -23.850  1.00  0.00     0.042 C 
HETATM    6  C6  UNL     1     -14.937  45.842 -23.446  1.00  0.00     0.069 C 
HETATM    7  C7  UNL     1     -15.040  44.807 -24.591  1.00  0.00     0.047 C 
HETATM    8  O1  UNL     1     -16.256  46.483 -23.435  1.00  0.00    -0.338 OA
HETATM    9  C8  UNL     1     -17.241  45.707 -22.883  1.00  0.00     0.095 A 
HETATM   10  C9  UNL     1     -18.475  45.571 -23.525  1.00  0.00     0.070 A 
HETATM   11  C11 UNL     1     -19.492  44.815 -22.923  1.00  0.00     0.097 A 
HETATM   12  C12 UNL     1     -19.276  44.234 -21.667  1.00  0.00     0.069 A 
HETATM   13  C14 UNL     1     -18.042  44.412 -21.017  1.00  0.00     0.091 A 
HETATM   14  C15 UNL     1     -17.011  45.132 -21.632  1.00  0.00     0.015 A 
HETATM   15  C16 UNL     1     -15.694  45.453 -20.958  1.00  0.00     0.032 C 
HETATM   16  C21 UNL     1     -14.548  45.280 -21.995  1.00  0.00     0.034 C 
HETATM   17  C22 UNL     1     -13.839  43.910 -22.036  1.00  0.00     0.006 A 
HETATM   18  C23 UNL     1     -12.866  43.656 -20.887  1.00  0.00    -0.001 A 
HETATM   19  C24 UNL     1     -11.376  43.470 -21.063  1.00  0.00     0.010 C 
HETATM   20  C25 UNL     1     -10.727  44.010 -22.350  1.00  0.00     0.034 C 
HETATM   21  C26 UNL     1     -13.904  42.601 -21.230  1.00  0.00    -0.039 A 
HETATM   22  C27 UNL     1     -14.968  42.298 -20.210  1.00  0.00     0.015 C 
HETATM   23  C28 UNL     1     -13.480  41.354 -21.984  1.00  0.00     0.015 C 
ENDROOT
BRANCH  15  24
HETATM   24  C17 UNL     1     -15.808  46.904 -20.387  1.00  0.00     0.014 C 
BRANCH  24  25
HETATM   25  C18 UNL     1     -14.641  47.445 -19.533  1.00  0.00    -0.022 C 
HETATM   26  C19 UNL     1     -15.083  48.035 -18.201  1.00  0.00     0.009 C 
HETATM   27  C20 UNL     1     -13.750  48.427 -20.294  1.00  0.00     0.009 C 
ENDBRANCH  24  25
ENDBRANCH  15  24
BRANCH  13  28
HETATM   28  O5  UNL     1     -17.812  43.925 -19.756  1.00  0.00    -0.359 OA
HETATM   29  H15 UNL     1     -18.615  43.440 -19.456  1.00  0.00     0.217 HD
ENDBRANCH  13  28
BRANCH  10  30
HETATM   30  C10 UNL     1     -18.687  46.222 -24.831  1.00  0.00     0.275 C 
HETATM   31  O2  UNL     1     -19.607  47.024 -24.980  1.00  0.00    -0.301 OA
ENDBRANCH  10  30
BRANCH  12  32
HETATM   32  C13 UNL     1     -20.358  43.460 -21.027  1.00  0.00     0.275 C 
HETATM   33  O4  UNL     1     -20.652  43.658 -19.849  1.00  0.00    -0.301 OA
ENDBRANCH  12  32
BRANCH  11  34
HETATM   34  O3  UNL     1     -20.711  44.636 -23.529  1.00  0.00    -0.359 OA
HETATM   35  H13 UNL     1     -20.708  45.112 -24.393  1.00  0.00     0.217 HD
ENDBRANCH  11  34
TORSDOF 6
ENDMDL
MODEL 8
REMARK minimizedAffinity -5.71883821
REMARK CNNscore 0.226499394
REMARK CNNaffinity 5.43006754
REMARK  6 active torsions:
REMARK  status: ('A' for Active; 'I' for Inactive)
REMARK    1  A    between atoms: C9_10  and  C10_11 
REMARK    2  A    between atoms: C11_13  and  O3_14 
REMARK    3  A    between atoms: C12_15  and  C13_16 
REMARK    4  A    between atoms: C14_18  and  O5_19 
REMARK    5  A    between atoms: C16_21  and  C17_22 
REMARK    6  A    between atoms: C17_22  and  C18_23 
ROOT
HETATM    1  C1  UNL     1       3.278  53.418 -11.288  1.00  0.00     0.043 C 
HETATM    2  C2  UNL     1       4.243  53.622 -10.156  1.00  0.00    -0.087 C 
HETATM    3  C3  UNL     1       4.407  52.772  -9.124  1.00  0.00    -0.024 C 
HETATM    4  C4  UNL     1       3.607  51.565  -8.755  1.00  0.00     0.030 C 
HETATM    5  C5  UNL     1       2.270  51.814  -8.025  1.00  0.00     0.042 C 
HETATM    6  C6  UNL     1       2.114  52.989  -6.995  1.00  0.00     0.069 C 
HETATM    7  C7  UNL     1       3.284  52.983  -5.984  1.00  0.00     0.047 C 
HETATM    8  O1  UNL     1       0.958  52.573  -6.195  1.00  0.00    -0.338 OA
HETATM    9  C8  UNL     1       0.480  53.554  -5.367  1.00  0.00     0.095 A 
HETATM   10  C9  UNL     1       0.182  53.268  -4.032  1.00  0.00     0.070 A 
HETATM   11  C11 UNL     1      -0.355  54.270  -3.209  1.00  0.00     0.097 A 
HETATM   12  C12 UNL     1      -0.623  55.537  -3.742  1.00  0.00     0.069 A 
HETATM   13  C14 UNL     1      -0.353  55.798  -5.096  1.00  0.00     0.091 A 
HETATM   14  C15 UNL     1       0.219  54.814  -5.910  1.00  0.00     0.015 A 
HETATM   15  C16 UNL     1       0.447  54.982  -7.398  1.00  0.00     0.032 C 
HETATM   16  C21 UNL     1       1.827  54.367  -7.764  1.00  0.00     0.034 C 
HETATM   17  C22 UNL     1       3.039  55.323  -7.784  1.00  0.00     0.006 A 
HETATM   18  C23 UNL     1       3.105  56.248  -8.997  1.00  0.00    -0.001 A 
HETATM   19  C24 UNL     1       4.206  56.211 -10.033  1.00  0.00     0.010 C 
HETATM   20  C25 UNL     1       5.035  54.921 -10.161  1.00  0.00     0.034 C 
HETATM   21  C26 UNL     1       3.265  56.834  -7.604  1.00  0.00    -0.039 A 
HETATM   22  C27 UNL     1       2.208  57.786  -7.113  1.00  0.00     0.015 C 
HETATM   23  C28 UNL     1       4.645  57.229  -7.114  1.00  0.00     0.015 C 
ENDROOT
BRANCH  15  24
HETATM   24  C17 UNL     1      -0.756  54.301  -8.129  1.00  0.00     0.014 C 
BRANCH  24  25
HETATM   25  C18 UNL     1      -1.169  54.846  -9.514  1.00  0.00    -0.022 C 
HETATM   26  C19 UNL     1      -2.353  54.111 -10.128  1.00  0.00     0.009 C 
HETATM   27  C20 UNL     1      -0.003  54.918 -10.499  1.00  0.00     0.009 C 
ENDBRANCH  24  25
ENDBRANCH  15  24
BRANCH  13  28
HETATM   28  O5  UNL     1      -0.667  56.999  -5.679  1.00  0.00    -0.359 OA
HETATM   29  H15 UNL     1      -1.053  57.589  -4.991  1.00  0.00     0.217 HD
ENDBRANCH  13  28
BRANCH  10  30
HETATM   30  C10 UNL     1       0.442  51.915  -3.506  1.00  0.00     0.275 C 
HETATM   31  O2  UNL     1      -0.457  51.283  -2.955  1.00  0.00    -0.301 OA
ENDBRANCH  10  30
BRANCH  12  32
HETATM   32  C13 UNL     1      -1.211  56.581  -2.878  1.00  0.00     0.275 C 
HETATM   33  O4  UNL     1      -2.275  56.380  -2.296  1.00  0.00    -0.301 OA
ENDBRANCH  12  32
BRANCH  11  34
HETATM   34  O3  UNL     1      -0.641  54.039  -1.886  1.00  0.00    -0.359 OA
HETATM   35  H13 UNL     1      -0.408  53.106  -1.670  1.00  0.00     0.217 HD
ENDBRANCH  11  34
TORSDOF 6
ENDMDL
MODEL 9
REMARK minimizedAffinity -5.75533772
REMARK CNNscore 0.221360564
REMARK CNNaffinity 5.31962585
REMARK  6 active torsions:
REMARK  status: ('A' for Active; 'I' for Inactive)
REMARK    1  A    between atoms: C9_10  and  C10_11 
REMARK    2  A    between atoms: C11_13  and  O3_14 
REMARK    3  A    between atoms: C12_15  and  C13_16 
REMARK    4  A    between atoms: C14_18  and  O5_19 
REMARK    5  A    between atoms: C16_21  and  C17_22 
REMARK    6  A    between atoms: C17_22  and  C18_23 
ROOT
HETATM    1  C1  UNL     1       1.611  56.394  -7.852  1.00  0.00     0.043 C 
HETATM    2  C2  UNL     1       2.967  56.878  -8.275  1.00  0.00    -0.087 C 
HETATM    3  C3  UNL     1       3.624  56.462  -9.375  1.00  0.00    -0.024 C 
HETATM    4  C4  UNL     1       3.283  55.353 -10.318  1.00  0.00     0.030 C 
HETATM    5  C5  UNL     1       3.633  53.921  -9.860  1.00  0.00     0.042 C 
HETATM    6  C6  UNL     1       4.924  53.631  -9.016  1.00  0.00     0.069 C 
HETATM    7  C7  UNL     1       6.158  54.304  -9.662  1.00  0.00     0.047 C 
HETATM    8  O1  UNL     1       5.149  52.200  -9.239  1.00  0.00    -0.338 OA
HETATM    9  C8  UNL     1       6.098  51.656  -8.415  1.00  0.00     0.095 A 
HETATM   10  C9  UNL     1       7.092  50.823  -8.936  1.00  0.00     0.070 A 
HETATM   11  C11 UNL     1       8.027  50.232  -8.072  1.00  0.00     0.097 A 
HETATM   12  C12 UNL     1       7.934  50.451  -6.692  1.00  0.00     0.069 A 
HETATM   13  C14 UNL     1       6.905  51.261  -6.180  1.00  0.00     0.091 A 
HETATM   14  C15 UNL     1       5.995  51.884  -7.041  1.00  0.00     0.015 A 
HETATM   15  C16 UNL     1       4.803  52.687  -6.565  1.00  0.00     0.032 C 
HETATM   16  C21 UNL     1       4.657  53.945  -7.466  1.00  0.00     0.034 C 
HETATM   17  C22 UNL     1       5.334  55.243  -6.975  1.00  0.00     0.006 A 
HETATM   18  C23 UNL     1       4.611  55.951  -5.831  1.00  0.00    -0.001 A 
HETATM   19  C24 UNL     1       3.999  57.329  -5.940  1.00  0.00     0.010 C 
HETATM   20  C25 UNL     1       3.660  57.862  -7.344  1.00  0.00     0.034 C 
HETATM   21  C26 UNL     1       6.104  55.687  -5.720  1.00  0.00    -0.039 A 
HETATM   22  C27 UNL     1       6.576  54.742  -4.649  1.00  0.00     0.015 C 
HETATM   23  C28 UNL     1       7.081  56.829  -5.930  1.00  0.00     0.015 C 
ENDROOT
BRANCH  15  24
HETATM   24  C17 UNL     1       3.560  51.738  -6.607  1.00  0.00     0.014 C 
BRANCH  24  25
HETATM   25  C18 UNL     1       2.182  52.357  -6.926  1.00  0.00    -0.022 C 
HETATM   26  C19 UNL     1       1.361  52.687  -5.687  1.00  0.00     0.009 C 
HETATM   27  C20 UNL     1       1.366  51.520  -7.912  1.00  0.00     0.009 C 
ENDBRANCH  24  25
ENDBRANCH  15  24
BRANCH  13  28
HETATM   28  O5  UNL     1       6.731  51.443  -4.832  1.00  0.00    -0.359 OA
HETATM   29  H15 UNL     1       7.441  50.955  -4.355  1.00  0.00     0.217 HD
ENDBRANCH  13  28
BRANCH  10  30
HETATM   30  C10 UNL     1       7.146  50.582 -10.389  1.00  0.00     0.275 C 
HETATM   31  O2  UNL     1       7.380  49.455 -10.821  1.00  0.00    -0.301 OA
ENDBRANCH  10  30
BRANCH  12  32
HETATM   32  C13 UNL     1       8.905  49.807  -5.785  1.00  0.00     0.275 C 
HETATM   33  O4  UNL     1      10.069  50.201  -5.738  1.00  0.00    -0.301 OA
ENDBRANCH  12  32
BRANCH  11  34
HETATM   34  O3  UNL     1       9.035  49.426  -8.543  1.00  0.00    -0.359 OA
HETATM   35  H13 UNL     1       8.957  49.364  -9.525  1.00  0.00     0.217 HD
ENDBRANCH  11  34
TORSDOF 6
ENDMDL
