MODEL 1
REMARK minimizedAffinity -7.56721687
REMARK CNNscore 0.676362276
REMARK CNNaffinity 7.05638075
REMARK  4 active torsions:
REMARK  status: ('A' for Active; 'I' for Inactive)
REMARK    1  A    between atoms: C14_16  and  C15_17 
REMARK    2  A    between atoms: C15_17  and  C17_19 
REMARK    3  A    between atoms: C17_19  and  C18_20 
REMARK    4  A    between atoms: C18_20  and  C19_22 
ROOT
HETATM    1  C1  UNL     1       3.691  57.780  -8.186  1.00  0.00     0.017 C 
HETATM    2  C2  UNL     1       3.796  56.445  -8.028  1.00  0.00    -0.060 C 
HETATM    3  C3  UNL     1       5.023  55.858  -7.367  1.00  0.00     0.212 C 
HETATM    4  O1  UNL     1       5.541  54.647  -7.945  1.00  0.00    -0.317 OA
HETATM    5  C4  UNL     1       6.012  54.565  -9.212  1.00  0.00     0.259 C 
HETATM    6  O2  UNL     1       6.870  53.741  -9.517  1.00  0.00    -0.265 OA
HETATM    7  C5  UNL     1       5.375  55.449 -10.248  1.00  0.00     0.112 C 
HETATM    8  C6  UNL     1       3.983  54.961 -10.665  1.00  0.00     0.020 C 
HETATM    9  C7  UNL     1       3.076  54.456  -9.537  1.00  0.00    -0.024 A 
HETATM   10  C8  UNL     1       3.272  53.020  -9.099  1.00  0.00     0.022 A 
HETATM   11  C9  UNL     1       1.995  53.374  -9.833  1.00  0.00    -0.027 A 
HETATM   12  C10 UNL     1       1.907  52.618 -11.182  1.00  0.00     0.011 C 
HETATM   13  C11 UNL     1       0.578  52.708 -11.947  1.00  0.00     0.011 C 
HETATM   14  C12 UNL     1      -0.622  52.475 -11.021  1.00  0.00    -0.032 C 
HETATM   15  C13 UNL     1      -0.550  51.020 -10.482  1.00  0.00     0.016 C 
HETATM   16  C14 UNL     1      -2.035  52.738 -11.631  1.00  0.00    -0.002 C 
HETATM   17  C23 UNL     1      -2.896  53.129 -10.394  1.00  0.00     0.006 C 
HETATM   18  C24 UNL     1      -1.925  53.416  -9.234  1.00  0.00     0.011 C 
HETATM   19  C25 UNL     1      -0.549  53.585  -9.899  1.00  0.00    -0.032 C 
HETATM   20  C26 UNL     1      -0.485  55.050 -10.462  1.00  0.00     0.016 C 
HETATM   21  C27 UNL     1       0.691  53.348  -8.978  1.00  0.00     0.004 C 
HETATM   22  C28 UNL     1       0.655  54.255  -7.720  1.00  0.00     0.007 C 
HETATM   23  C29 UNL     1       1.951  54.931  -7.302  1.00  0.00     0.010 C 
HETATM   24  C30 UNL     1       2.681  55.529  -8.510  1.00  0.00     0.025 C 
ENDROOT
BRANCH  16  25
HETATM   25  C15 UNL     1      -2.753  51.746 -12.595  1.00  0.00    -0.007 C 
HETATM   26  C16 UNL     1      -3.529  50.580 -11.966  1.00  0.00     0.011 C 
BRANCH  25  27
HETATM   27  C17 UNL     1      -1.798  51.217 -13.684  1.00  0.00     0.087 C 
BRANCH  27  28
HETATM   28  C18 UNL     1      -2.519  50.931 -14.992  1.00  0.00     0.149 C 
HETATM   29  O3  UNL     1      -3.540  51.527 -15.324  1.00  0.00    -0.293 OA
BRANCH  28  30
HETATM   30  C19 UNL     1      -1.893  49.908 -15.882  1.00  0.00     0.052 C 
HETATM   31  C20 UNL     1      -1.646  50.078 -17.194  1.00  0.00    -0.084 C 
HETATM   32  C21 UNL     1      -1.992  51.309 -17.994  1.00  0.00     0.043 C 
HETATM   33  C22 UNL     1      -0.988  48.984 -17.995  1.00  0.00     0.043 C 
ENDBRANCH  28  30
ENDBRANCH  27  28
ENDBRANCH  25  27
ENDBRANCH  16  25
TORSDOF 4
ENDMDL
MODEL 2
REMARK minimizedAffinity -7.17635536
REMARK CNNscore 0.608256459
REMARK CNNaffinity 6.63466024
REMARK  4 active torsions:
REMARK  status: ('A' for Active; 'I' for Inactive)
REMARK    1  A    between atoms: C14_16  and  C15_17 
REMARK    2  A    between atoms: C15_17  and  C17_19 
REMARK    3  A    between atoms: C17_19  and  C18_20 
REMARK    4  A    between atoms: C18_20  and  C19_22 
ROOT
HETATM    1  C1  UNL     1       3.635  56.439 -11.007  1.00  0.00     0.017 C 
HETATM    2  C2  UNL     1       3.296  55.826  -9.855  1.00  0.00    -0.060 C 
HETATM    3  C3  UNL     1       4.200  55.933  -8.648  1.00  0.00     0.212 C 
HETATM    4  O1  UNL     1       4.364  54.737  -7.865  1.00  0.00    -0.317 OA
HETATM    5  C4  UNL     1       4.910  53.596  -8.348  1.00  0.00     0.259 C 
HETATM    6  O2  UNL     1       5.489  52.808  -7.605  1.00  0.00    -0.265 OA
HETATM    7  C5  UNL     1       4.694  53.284  -9.803  1.00  0.00     0.112 C 
HETATM    8  C6  UNL     1       3.269  52.803 -10.098  1.00  0.00     0.020 C 
HETATM    9  C7  UNL     1       2.140  53.547  -9.376  1.00  0.00    -0.024 A 
HETATM   10  C8  UNL     1       1.826  53.102  -7.964  1.00  0.00     0.022 A 
HETATM   11  C9  UNL     1       0.808  52.810  -9.047  1.00  0.00    -0.027 A 
HETATM   12  C10 UNL     1       0.622  51.284  -9.233  1.00  0.00     0.011 C 
HETATM   13  C11 UNL     1      -0.526  50.826 -10.145  1.00  0.00     0.011 C 
HETATM   14  C12 UNL     1      -1.825  51.580  -9.839  1.00  0.00    -0.032 C 
HETATM   15  C13 UNL     1      -2.272  51.220  -8.396  1.00  0.00     0.016 C 
HETATM   16  C14 UNL     1      -3.013  51.355 -10.827  1.00  0.00    -0.002 C 
HETATM   17  C23 UNL     1      -3.826  52.679 -10.723  1.00  0.00     0.006 C 
HETATM   18  C24 UNL     1      -2.937  53.706  -9.999  1.00  0.00     0.011 C 
HETATM   19  C25 UNL     1      -1.519  53.115 -10.057  1.00  0.00    -0.032 C 
HETATM   20  C26 UNL     1      -0.937  53.449 -11.477  1.00  0.00     0.016 C 
HETATM   21  C27 UNL     1      -0.517  53.630  -8.973  1.00  0.00     0.004 C 
HETATM   22  C28 UNL     1      -0.391  55.176  -8.994  1.00  0.00     0.007 C 
HETATM   23  C29 UNL     1       1.003  55.771  -8.874  1.00  0.00     0.010 C 
HETATM   24  C30 UNL     1       2.003  55.028  -9.767  1.00  0.00     0.025 C 
ENDROOT
BRANCH  16  25
HETATM   25  C15 UNL     1      -3.906  50.078 -10.820  1.00  0.00    -0.007 C 
HETATM   26  C16 UNL     1      -3.899  49.200 -12.079  1.00  0.00     0.011 C 
BRANCH  25  27
HETATM   27  C17 UNL     1      -5.356  50.397 -10.408  1.00  0.00     0.087 C 
BRANCH  27  28
HETATM   28  C18 UNL     1      -6.106  49.161  -9.935  1.00  0.00     0.149 C 
HETATM   29  O3  UNL     1      -5.597  48.329  -9.190  1.00  0.00    -0.293 OA
BRANCH  28  30
HETATM   30  C19 UNL     1      -7.521  49.031 -10.393  1.00  0.00     0.052 C 
HETATM   31  C20 UNL     1      -7.948  48.167 -11.333  1.00  0.00    -0.084 C 
HETATM   32  C21 UNL     1      -7.069  47.217 -12.108  1.00  0.00     0.043 C 
HETATM   33  C22 UNL     1      -9.407  48.102 -11.704  1.00  0.00     0.043 C 
ENDBRANCH  28  30
ENDBRANCH  27  28
ENDBRANCH  25  27
ENDBRANCH  16  25
TORSDOF 4
ENDMDL
MODEL 3
REMARK minimizedAffinity -7.31064987
REMARK CNNscore 0.534075022
REMARK CNNaffinity 6.59304571
REMARK  4 active torsions:
REMARK  status: ('A' for Active; 'I' for Inactive)
REMARK    1  A    between atoms: C14_16  and  C15_17 
REMARK    2  A    between atoms: C15_17  and  C17_19 
REMARK    3  A    between atoms: C17_19  and  C18_20 
REMARK    4  A    between atoms: C18_20  and  C19_22 
ROOT
HETATM    1  C1  UNL     1       3.836  57.798  -8.167  1.00  0.00     0.017 C 
HETATM    2  C2  UNL     1       3.955  56.473  -7.945  1.00  0.00    -0.060 C 
HETATM    3  C3  UNL     1       5.222  55.922  -7.331  1.00  0.00     0.212 C 
HETATM    4  O1  UNL     1       5.708  54.681  -7.875  1.00  0.00    -0.317 OA
HETATM    5  C4  UNL     1       6.101  54.533  -9.162  1.00  0.00     0.259 C 
HETATM    6  O2  UNL     1       6.942  53.694  -9.474  1.00  0.00    -0.265 OA
HETATM    7  C5  UNL     1       5.398  55.360 -10.202  1.00  0.00     0.112 C 
HETATM    8  C6  UNL     1       3.986  54.850 -10.506  1.00  0.00     0.020 C 
HETATM    9  C7  UNL     1       3.151  54.405  -9.300  1.00  0.00    -0.024 A 
HETATM   10  C8  UNL     1       3.379  52.995  -8.798  1.00  0.00     0.022 A 
HETATM   11  C9  UNL     1       2.058  53.309  -9.470  1.00  0.00    -0.027 A 
HETATM   12  C10 UNL     1       1.890  52.483 -10.770  1.00  0.00     0.011 C 
HETATM   13  C11 UNL     1       0.516  52.531 -11.455  1.00  0.00     0.011 C 
HETATM   14  C12 UNL     1      -0.624  52.348 -10.447  1.00  0.00    -0.032 C 
HETATM   15  C13 UNL     1      -0.514  50.924  -9.836  1.00  0.00     0.016 C 
HETATM   16  C14 UNL     1      -2.073  52.578 -10.981  1.00  0.00    -0.002 C 
HETATM   17  C23 UNL     1      -2.857  53.034  -9.716  1.00  0.00     0.006 C 
HETATM   18  C24 UNL     1      -1.819  53.383  -8.635  1.00  0.00     0.011 C 
HETATM   19  C25 UNL     1      -0.487  53.516  -9.392  1.00  0.00    -0.032 C 
HETATM   20  C26 UNL     1      -0.462  54.948 -10.034  1.00  0.00     0.016 C 
HETATM   21  C27 UNL     1       0.809  53.329  -8.537  1.00  0.00     0.004 C 
HETATM   22  C28 UNL     1       0.846  54.301  -7.329  1.00  0.00     0.007 C 
HETATM   23  C29 UNL     1       2.163  54.999  -7.028  1.00  0.00     0.010 C 
HETATM   24  C30 UNL     1       2.816  55.532  -8.308  1.00  0.00     0.025 C 
ENDROOT
BRANCH  16  25
HETATM   25  C15 UNL     1      -2.845  51.536 -11.846  1.00  0.00    -0.007 C 
HETATM   26  C16 UNL     1      -3.043  51.857 -13.335  1.00  0.00     0.011 C 
BRANCH  25  27
HETATM   27  C17 UNL     1      -4.193  51.150 -11.207  1.00  0.00     0.087 C 
BRANCH  27  28
HETATM   28  C18 UNL     1      -4.226  49.694 -10.767  1.00  0.00     0.149 C 
HETATM   29  O3  UNL     1      -3.420  49.232  -9.963  1.00  0.00    -0.293 OA
BRANCH  28  30
HETATM   30  C19 UNL     1      -5.322  48.856 -11.335  1.00  0.00     0.052 C 
HETATM   31  C20 UNL     1      -6.596  48.855 -10.897  1.00  0.00    -0.084 C 
HETATM   32  C21 UNL     1      -7.118  49.666  -9.738  1.00  0.00     0.043 C 
HETATM   33  C22 UNL     1      -7.631  47.984 -11.560  1.00  0.00     0.043 C 
ENDBRANCH  28  30
ENDBRANCH  27  28
ENDBRANCH  25  27
ENDBRANCH  16  25
TORSDOF 4
ENDMDL
MODEL 4
REMARK minimizedAffinity -7.22393465
REMARK CNNscore 0.396996409
REMARK CNNaffinity 5.70583487
REMARK  4 active torsions:
REMARK  status: ('A' for Active; 'I' for Inactive)
REMARK    1  A    between atoms: C14_16  and  C15_17 
REMARK    2  A    between atoms: C15_17  and  C17_19 
REMARK    3  A    between atoms: C17_19  and  C18_20 
REMARK    4  A    between atoms: C18_20  and  C19_22 
ROOT
HETATM    1  C1  UNL     1     -10.691  45.819 -18.907  1.00  0.00     0.017 C 
HETATM    2  C2  UNL     1     -11.799  46.528 -18.610  1.00  0.00    -0.060 C 
HETATM    3  C3  UNL     1     -11.846  47.361 -17.349  1.00  0.00     0.212 C 
HETATM    4  O1  UNL     1     -13.086  47.345 -16.620  1.00  0.00    -0.317 OA
HETATM    5  C4  UNL     1     -13.615  46.228 -16.068  1.00  0.00     0.259 C 
HETATM    6  O2  UNL     1     -14.339  46.292 -15.079  1.00  0.00    -0.265 OA
HETATM    7  C5  UNL     1     -13.366  44.922 -16.770  1.00  0.00     0.112 C 
HETATM    8  C6  UNL     1     -14.202  44.767 -18.045  1.00  0.00     0.020 C 
HETATM    9  C7  UNL     1     -14.327  46.013 -18.929  1.00  0.00    -0.024 A 
HETATM   10  C8  UNL     1     -15.392  47.017 -18.543  1.00  0.00     0.022 A 
HETATM   11  C9  UNL     1     -15.592  46.217 -19.814  1.00  0.00    -0.027 A 
HETATM   12  C10 UNL     1     -16.848  45.317 -19.707  1.00  0.00     0.011 C 
HETATM   13  C11 UNL     1     -17.306  44.602 -20.987  1.00  0.00     0.011 C 
HETATM   14  C12 UNL     1     -17.320  45.552 -22.190  1.00  0.00    -0.032 C 
HETATM   15  C13 UNL     1     -18.380  46.658 -21.929  1.00  0.00     0.016 C 
HETATM   16  C14 UNL     1     -17.571  44.905 -23.588  1.00  0.00    -0.002 C 
HETATM   17  C23 UNL     1     -16.841  45.869 -24.570  1.00  0.00     0.006 C 
HETATM   18  C24 UNL     1     -15.939  46.786 -23.724  1.00  0.00     0.011 C 
HETATM   19  C25 UNL     1     -15.845  46.096 -22.353  1.00  0.00    -0.032 C 
HETATM   20  C26 UNL     1     -14.764  44.965 -22.479  1.00  0.00     0.016 C 
HETATM   21  C27 UNL     1     -15.467  47.017 -21.147  1.00  0.00     0.004 C 
HETATM   22  C28 UNL     1     -14.135  47.771 -21.395  1.00  0.00     0.007 C 
HETATM   23  C29 UNL     1     -13.145  47.848 -20.243  1.00  0.00     0.010 C 
HETATM   24  C30 UNL     1     -13.001  46.493 -19.542  1.00  0.00     0.025 C 
ENDROOT
BRANCH  16  25
HETATM   25  C15 UNL     1     -18.978  44.461 -24.089  1.00  0.00    -0.007 C 
HETATM   26  C16 UNL     1     -19.924  43.814 -23.066  1.00  0.00     0.011 C 
BRANCH  25  27
HETATM   27  C17 UNL     1     -18.884  43.578 -25.349  1.00  0.00     0.087 C 
BRANCH  27  28
HETATM   28  C18 UNL     1     -19.338  44.312 -26.601  1.00  0.00     0.149 C 
HETATM   29  O3  UNL     1     -19.414  45.537 -26.654  1.00  0.00    -0.293 OA
BRANCH  28  30
HETATM   30  C19 UNL     1     -19.651  43.463 -27.789  1.00  0.00     0.052 C 
HETATM   31  C20 UNL     1     -18.780  43.167 -28.773  1.00  0.00    -0.084 C 
HETATM   32  C21 UNL     1     -17.363  43.672 -28.863  1.00  0.00     0.043 C 
HETATM   33  C22 UNL     1     -19.196  42.279 -29.917  1.00  0.00     0.043 C 
ENDBRANCH  28  30
ENDBRANCH  27  28
ENDBRANCH  25  27
ENDBRANCH  16  25
TORSDOF 4
ENDMDL
MODEL 5
REMARK minimizedAffinity -6.7521162
REMARK CNNscore 0.382928997
REMARK CNNaffinity 5.75699568
REMARK  4 active torsions:
REMARK  status: ('A' for Active; 'I' for Inactive)
REMARK    1  A    between atoms: C14_16  and  C15_17 
REMARK    2  A    between atoms: C15_17  and  C17_19 
REMARK    3  A    between atoms: C17_19  and  C18_20 
REMARK    4  A    between atoms: C18_20  and  C19_22 
ROOT
HETATM    1  C1  UNL     1      -6.821  45.298 -29.667  1.00  0.00     0.017 C 
HETATM    2  C2  UNL     1      -7.882  45.809 -30.323  1.00  0.00    -0.060 C 
HETATM    3  C3  UNL     1      -7.670  46.669 -31.548  1.00  0.00     0.212 C 
HETATM    4  O1  UNL     1      -8.525  47.819 -31.677  1.00  0.00    -0.317 OA
HETATM    5  C4  UNL     1      -8.541  48.842 -30.790  1.00  0.00     0.259 C 
HETATM    6  O2  UNL     1      -8.855  49.977 -31.137  1.00  0.00    -0.265 OA
HETATM    7  C5  UNL     1      -8.258  48.516 -29.349  1.00  0.00     0.112 C 
HETATM    8  C6  UNL     1      -9.434  47.816 -28.661  1.00  0.00     0.020 C 
HETATM    9  C7  UNL     1     -10.158  46.742 -29.481  1.00  0.00    -0.024 A 
HETATM   10  C8  UNL     1     -11.219  47.225 -30.447  1.00  0.00     0.022 A 
HETATM   11  C9  UNL     1     -11.666  46.451 -29.224  1.00  0.00    -0.027 A 
HETATM   12  C10 UNL     1     -12.549  47.332 -28.305  1.00  0.00     0.011 C 
HETATM   13  C11 UNL     1     -13.252  46.632 -27.133  1.00  0.00     0.011 C 
HETATM   14  C12 UNL     1     -13.921  45.325 -27.574  1.00  0.00    -0.032 C 
HETATM   15  C13 UNL     1     -15.046  45.668 -28.589  1.00  0.00     0.016 C 
HETATM   16  C14 UNL     1     -14.496  44.417 -26.442  1.00  0.00    -0.002 C 
HETATM   17  C23 UNL     1     -14.417  42.986 -27.050  1.00  0.00     0.006 C 
HETATM   18  C24 UNL     1     -13.516  43.067 -28.296  1.00  0.00     0.011 C 
HETATM   19  C25 UNL     1     -12.776  44.409 -28.164  1.00  0.00    -0.032 C 
HETATM   20  C26 UNL     1     -11.577  44.180 -27.177  1.00  0.00     0.016 C 
HETATM   21  C27 UNL     1     -12.221  45.018 -29.493  1.00  0.00     0.004 C 
HETATM   22  C28 UNL     1     -11.285  44.027 -30.233  1.00  0.00     0.007 C 
HETATM   23  C29 UNL     1      -9.996  44.581 -30.820  1.00  0.00     0.010 C 
HETATM   24  C30 UNL     1      -9.294  45.520 -29.833  1.00  0.00     0.025 C 
ENDROOT
BRANCH  16  25
HETATM   25  C15 UNL     1     -15.841  44.705 -25.710  1.00  0.00    -0.007 C 
HETATM   26  C16 UNL     1     -15.805  44.818 -24.178  1.00  0.00     0.011 C 
BRANCH  25  27
HETATM   27  C17 UNL     1     -16.947  43.721 -26.139  1.00  0.00     0.087 C 
BRANCH  27  28
HETATM   28  C18 UNL     1     -18.194  44.438 -26.634  1.00  0.00     0.149 C 
HETATM   29  O3  UNL     1     -18.386  45.635 -26.439  1.00  0.00    -0.293 OA
BRANCH  28  30
HETATM   30  C19 UNL     1     -19.164  43.614 -27.414  1.00  0.00     0.052 C 
HETATM   31  C20 UNL     1     -18.940  43.124 -28.648  1.00  0.00    -0.084 C 
HETATM   32  C21 UNL     1     -17.694  43.357 -29.464  1.00  0.00     0.043 C 
HETATM   33  C22 UNL     1     -19.983  42.283 -29.336  1.00  0.00     0.043 C 
ENDBRANCH  28  30
ENDBRANCH  27  28
ENDBRANCH  25  27
ENDBRANCH  16  25
TORSDOF 4
ENDMDL
MODEL 6
REMARK minimizedAffinity -7.04920387
REMARK CNNscore 0.287122905
REMARK CNNaffinity 6.07701063
REMARK  4 active torsions:
REMARK  status: ('A' for Active; 'I' for Inactive)
REMARK    1  A    between atoms: C14_16  and  C15_17 
REMARK    2  A    between atoms: C15_17  and  C17_19 
REMARK    3  A    between atoms: C17_19  and  C18_20 
REMARK    4  A    between atoms: C18_20  and  C19_22 
ROOT
HETATM    1  C1  UNL     1      -1.543  49.021 -11.075  1.00  0.00     0.017 C 
HETATM    2  C2  UNL     1      -2.221  50.172 -10.893  1.00  0.00    -0.060 C 
HETATM    3  C3  UNL     1      -3.598  50.341 -11.494  1.00  0.00     0.212 C 
HETATM    4  O1  UNL     1      -3.893  51.630 -12.062  1.00  0.00    -0.317 OA
HETATM    5  C4  UNL     1      -3.217  52.157 -13.110  1.00  0.00     0.259 C 
HETATM    6  O2  UNL     1      -3.755  52.953 -13.875  1.00  0.00    -0.265 OA
HETATM    7  C5  UNL     1      -1.760  51.810 -13.243  1.00  0.00     0.112 C 
HETATM    8  C6  UNL     1      -0.883  52.546 -12.224  1.00  0.00     0.020 C 
HETATM    9  C7  UNL     1      -1.441  52.650 -10.800  1.00  0.00    -0.024 A 
HETATM   10  C8  UNL     1      -2.417  53.776 -10.533  1.00  0.00     0.022 A 
HETATM   11  C9  UNL     1      -1.045  53.854  -9.895  1.00  0.00    -0.027 A 
HETATM   12  C10 UNL     1      -0.261  55.082 -10.422  1.00  0.00     0.011 C 
HETATM   13  C11 UNL     1       1.063  55.419  -9.719  1.00  0.00     0.011 C 
HETATM   14  C12 UNL     1       0.918  55.379  -8.194  1.00  0.00    -0.032 C 
HETATM   15  C13 UNL     1      -0.076  56.494  -7.767  1.00  0.00     0.016 C 
HETATM   16  C14 UNL     1       2.234  55.504  -7.363  1.00  0.00    -0.002 C 
HETATM   17  C23 UNL     1       1.906  54.740  -6.047  1.00  0.00     0.006 C 
HETATM   18  C24 UNL     1       0.617  53.936  -6.294  1.00  0.00     0.011 C 
HETATM   19  C25 UNL     1       0.447  53.917  -7.823  1.00  0.00    -0.032 C 
HETATM   20  C26 UNL     1       1.388  52.789  -8.378  1.00  0.00     0.016 C 
HETATM   21  C27 UNL     1      -1.004  53.662  -8.348  1.00  0.00     0.004 C 
HETATM   22  C28 UNL     1      -1.595  52.343  -7.785  1.00  0.00     0.007 C 
HETATM   23  C29 UNL     1      -2.351  51.443  -8.750  1.00  0.00     0.010 C 
HETATM   24  C30 UNL     1      -1.604  51.301 -10.080  1.00  0.00     0.025 C 
ENDROOT
BRANCH  16  25
HETATM   25  C15 UNL     1       2.976  56.854  -7.127  1.00  0.00    -0.007 C 
HETATM   26  C16 UNL     1       3.761  57.448  -8.306  1.00  0.00     0.011 C 
BRANCH  25  27
HETATM   27  C17 UNL     1       3.868  56.804  -5.872  1.00  0.00     0.087 C 
BRANCH  27  28
HETATM   28  C18 UNL     1       5.263  56.280  -6.177  1.00  0.00     0.149 C 
HETATM   29  O3  UNL     1       5.465  55.129  -6.554  1.00  0.00    -0.293 OA
BRANCH  28  30
HETATM   30  C19 UNL     1       6.382  57.258  -6.034  1.00  0.00     0.052 C 
HETATM   31  C20 UNL     1       6.425  58.249  -5.124  1.00  0.00    -0.084 C 
HETATM   32  C21 UNL     1       5.339  58.565  -4.127  1.00  0.00     0.043 C 
HETATM   33  C22 UNL     1       7.617  59.168  -5.053  1.00  0.00     0.043 C 
ENDBRANCH  28  30
ENDBRANCH  27  28
ENDBRANCH  25  27
ENDBRANCH  16  25
TORSDOF 4
ENDMDL
MODEL 7
REMARK minimizedAffinity -7.84698105
REMARK CNNscore 0.281547815
REMARK CNNaffinity 5.42694235
REMARK  4 active torsions:
REMARK  status: ('A' for Active; 'I' for Inactive)
REMARK    1  A    between atoms: C14_16  and  C15_17 
REMARK    2  A    between atoms: C15_17  and  C17_19 
REMARK    3  A    between atoms: C17_19  and  C18_20 
REMARK    4  A    between atoms: C18_20  and  C19_22 
ROOT
HETATM    1  C1  UNL     1      -7.531  44.590 -32.946  1.00  0.00     0.017 C 
HETATM    2  C2  UNL     1      -7.768  45.862 -32.565  1.00  0.00    -0.060 C 
HETATM    3  C3  UNL     1      -6.970  46.993 -33.172  1.00  0.00     0.212 C 
HETATM    4  O1  UNL     1      -6.565  48.043 -32.274  1.00  0.00    -0.317 OA
HETATM    5  C4  UNL     1      -5.745  47.845 -31.216  1.00  0.00     0.259 C 
HETATM    6  O2  UNL     1      -5.031  48.749 -30.791  1.00  0.00    -0.265 OA
HETATM    7  C5  UNL     1      -5.816  46.514 -30.520  1.00  0.00     0.112 C 
HETATM    8  C6  UNL     1      -7.073  46.366 -29.657  1.00  0.00     0.020 C 
HETATM    9  C7  UNL     1      -8.377  46.899 -30.261  1.00  0.00    -0.024 A 
HETATM   10  C8  UNL     1      -8.641  48.381 -30.106  1.00  0.00     0.022 A 
HETATM   11  C9  UNL     1      -9.512  47.417 -29.328  1.00  0.00    -0.027 A 
HETATM   12  C10 UNL     1      -9.325  47.613 -27.803  1.00  0.00     0.011 C 
HETATM   13  C11 UNL     1     -10.291  46.856 -26.879  1.00  0.00     0.011 C 
HETATM   14  C12 UNL     1     -11.744  46.987 -27.352  1.00  0.00    -0.032 C 
HETATM   15  C13 UNL     1     -12.158  48.481 -27.254  1.00  0.00     0.016 C 
HETATM   16  C14 UNL     1     -12.800  46.101 -26.618  1.00  0.00    -0.002 C 
HETATM   17  C23 UNL     1     -13.905  45.889 -27.695  1.00  0.00     0.006 C 
HETATM   18  C24 UNL     1     -13.316  46.328 -29.047  1.00  0.00     0.011 C 
HETATM   19  C25 UNL     1     -11.797  46.397 -28.816  1.00  0.00    -0.032 C 
HETATM   20  C26 UNL     1     -11.247  44.930 -28.927  1.00  0.00     0.016 C 
HETATM   21  C27 UNL     1     -10.994  47.308 -29.801  1.00  0.00     0.004 C 
HETATM   22  C28 UNL     1     -11.235  46.907 -31.280  1.00  0.00     0.007 C 
HETATM   23  C29 UNL     1     -10.026  46.859 -32.202  1.00  0.00     0.010 C 
HETATM   24  C30 UNL     1      -8.840  46.160 -31.527  1.00  0.00     0.025 C 
ENDROOT
BRANCH  16  25
HETATM   25  C15 UNL     1     -13.367  46.433 -25.205  1.00  0.00    -0.007 C 
HETATM   26  C16 UNL     1     -12.501  46.070 -23.990  1.00  0.00     0.011 C 
BRANCH  25  27
HETATM   27  C17 UNL     1     -14.794  45.882 -25.019  1.00  0.00     0.087 C 
BRANCH  27  28
HETATM   28  C18 UNL     1     -15.765  46.949 -24.538  1.00  0.00     0.149 C 
HETATM   29  O3  UNL     1     -15.400  47.925 -23.887  1.00  0.00    -0.293 OA
BRANCH  28  30
HETATM   30  C19 UNL     1     -17.193  46.771 -24.936  1.00  0.00     0.052 C 
HETATM   31  C20 UNL     1     -18.198  46.487 -24.086  1.00  0.00    -0.084 C 
HETATM   32  C21 UNL     1     -18.048  46.261 -22.603  1.00  0.00     0.043 C 
HETATM   33  C22 UNL     1     -19.610  46.351 -24.593  1.00  0.00     0.043 C 
ENDBRANCH  28  30
ENDBRANCH  27  28
ENDBRANCH  25  27
ENDBRANCH  16  25
TORSDOF 4
ENDMDL
MODEL 8
REMARK minimizedAffinity -6.75501442
REMARK CNNscore 0.241594627
REMARK CNNaffinity 6.12368965
REMARK  4 active torsions:
REMARK  status: ('A' for Active; 'I' for Inactive)
REMARK    1  A    between atoms: C14_16  and  C15_17 
REMARK    2  A    between atoms: C15_17  and  C17_19 
REMARK    3  A    between atoms: C17_19  and  C18_20 
REMARK    4  A    between atoms: C18_20  and  C19_22 
ROOT
HETATM    1  C1  UNL     1       0.212  52.560 -13.498  1.00  0.00     0.017 C 
HETATM    2  C2  UNL     1       0.216  52.150 -12.214  1.00  0.00    -0.060 C 
HETATM    3  C3  UNL     1      -0.902  51.274 -11.697  1.00  0.00     0.212 C 
HETATM    4  O1  UNL     1      -1.382  51.565 -10.373  1.00  0.00    -0.317 OA
HETATM    5  C4  UNL     1      -1.957  52.742 -10.028  1.00  0.00     0.259 C 
HETATM    6  O2  UNL     1      -2.778  52.803  -9.117  1.00  0.00    -0.265 OA
HETATM    7  C5  UNL     1      -1.479  53.981 -10.733  1.00  0.00     0.112 C 
HETATM    8  C6  UNL     1      -0.099  54.439 -10.250  1.00  0.00     0.020 C 
HETATM    9  C7  UNL     1       0.938  53.336 -10.016  1.00  0.00    -0.024 A 
HETATM   10  C8  UNL     1       0.884  52.625  -8.680  1.00  0.00     0.022 A 
HETATM   11  C9  UNL     1       2.062  53.536  -8.957  1.00  0.00    -0.027 A 
HETATM   12  C10 UNL     1       2.083  54.726  -7.966  1.00  0.00     0.011 C 
HETATM   13  C11 UNL     1       3.329  55.624  -7.980  1.00  0.00     0.011 C 
HETATM   14  C12 UNL     1       4.621  54.798  -7.990  1.00  0.00    -0.032 C 
HETATM   15  C13 UNL     1       4.700  53.997  -6.661  1.00  0.00     0.016 C 
HETATM   16  C14 UNL     1       5.952  55.584  -8.208  1.00  0.00    -0.002 C 
HETATM   17  C23 UNL     1       6.889  54.533  -8.871  1.00  0.00     0.006 C 
HETATM   18  C24 UNL     1       6.008  53.353  -9.320  1.00  0.00     0.011 C 
HETATM   19  C25 UNL     1       4.570  53.896  -9.286  1.00  0.00    -0.032 C 
HETATM   20  C26 UNL     1       4.351  54.707 -10.613  1.00  0.00     0.016 C 
HETATM   21  C27 UNL     1       3.436  52.826  -9.162  1.00  0.00     0.004 C 
HETATM   22  C28 UNL     1       3.520  51.766 -10.291  1.00  0.00     0.007 C 
HETATM   23  C29 UNL     1       2.222  51.350 -10.964  1.00  0.00     0.010 C 
HETATM   24  C30 UNL     1       1.346  52.567 -11.283  1.00  0.00     0.025 C 
ENDROOT
BRANCH  16  25
HETATM   25  C15 UNL     1       6.649  56.419  -7.091  1.00  0.00    -0.007 C 
HETATM   26  C16 UNL     1       7.515  55.661  -6.075  1.00  0.00     0.011 C 
BRANCH  25  27
HETATM   27  C17 UNL     1       5.651  57.333  -6.354  1.00  0.00     0.087 C 
BRANCH  27  28
HETATM   28  C18 UNL     1       6.146  57.730  -4.972  1.00  0.00     0.149 C 
HETATM   29  O3  UNL     1       5.750  57.179  -3.949  1.00  0.00    -0.293 OA
BRANCH  28  30
HETATM   30  C19 UNL     1       7.178  58.808  -4.924  1.00  0.00     0.052 C 
HETATM   31  C20 UNL     1       7.018  60.000  -4.318  1.00  0.00    -0.084 C 
HETATM   32  C21 UNL     1       5.762  60.462  -3.624  1.00  0.00     0.043 C 
HETATM   33  C22 UNL     1       8.137  61.008  -4.311  1.00  0.00     0.043 C 
ENDBRANCH  28  30
ENDBRANCH  27  28
ENDBRANCH  25  27
ENDBRANCH  16  25
TORSDOF 4
ENDMDL
MODEL 9
REMARK minimizedAffinity -7.38581514
REMARK CNNscore 0.21449472
REMARK CNNaffinity 6.06184816
REMARK  4 active torsions:
REMARK  status: ('A' for Active; 'I' for Inactive)
REMARK    1  A    between atoms: C14_16  and  C15_17 
REMARK    2  A    between atoms: C15_17  and  C17_19 
REMARK    3  A    between atoms: C17_19  and  C18_20 
REMARK    4  A    between atoms: C18_20  and  C19_22 
ROOT
HETATM    1  C1  UNL     1      -2.385  49.320 -10.713  1.00  0.00     0.017 C 
HETATM    2  C2  UNL     1      -2.756  50.574 -10.384  1.00  0.00    -0.060 C 
HETATM    3  C3  UNL     1      -4.171  51.037 -10.651  1.00  0.00     0.212 C 
HETATM    4  O1  UNL     1      -4.321  52.381 -11.142  1.00  0.00    -0.317 OA
HETATM    5  C4  UNL     1      -3.810  52.808 -12.320  1.00  0.00     0.259 C 
HETATM    6  O2  UNL     1      -4.336  53.726 -12.944  1.00  0.00    -0.265 OA
HETATM    7  C5  UNL     1      -2.523  52.186 -12.786  1.00  0.00     0.112 C 
HETATM    8  C6  UNL     1      -1.307  52.690 -12.002  1.00  0.00     0.020 C 
HETATM    9  C7  UNL     1      -1.492  52.843 -10.488  1.00  0.00    -0.024 A 
HETATM   10  C8  UNL     1      -2.132  54.127 -10.008  1.00  0.00     0.022 A 
HETATM   11  C9  UNL     1      -0.665  53.906  -9.706  1.00  0.00    -0.027 A 
HETATM   12  C10 UNL     1       0.210  54.975 -10.407  1.00  0.00     0.011 C 
HETATM   13  C11 UNL     1       1.699  55.014 -10.032  1.00  0.00     0.011 C 
HETATM   14  C12 UNL     1       1.901  54.940  -8.514  1.00  0.00    -0.032 C 
HETATM   15  C13 UNL     1       1.278  56.211  -7.874  1.00  0.00     0.016 C 
HETATM   16  C14 UNL     1       3.369  54.768  -8.012  1.00  0.00    -0.002 C 
HETATM   17  C23 UNL     1       3.203  54.029  -6.652  1.00  0.00     0.006 C 
HETATM   18  C24 UNL     1       1.756  53.507  -6.589  1.00  0.00     0.011 C 
HETATM   19  C25 UNL     1       1.242  53.586  -8.036  1.00  0.00    -0.032 C 
HETATM   20  C26 UNL     1       1.784  52.319  -8.788  1.00  0.00     0.016 C 
HETATM   21  C27 UNL     1      -0.311  53.644  -8.209  1.00  0.00     0.004 C 
HETATM   22  C28 UNL     1      -1.012  52.446  -7.518  1.00  0.00     0.007 C 
HETATM   23  C29 UNL     1      -2.134  51.755  -8.276  1.00  0.00     0.010 C 
HETATM   24  C30 UNL     1      -1.755  51.524  -9.743  1.00  0.00     0.025 C 
ENDROOT
BRANCH  16  25
HETATM   25  C15 UNL     1       4.402  55.933  -7.962  1.00  0.00    -0.007 C 
HETATM   26  C16 UNL     1       3.914  57.332  -8.367  1.00  0.00     0.011 C 
BRANCH  25  27
HETATM   27  C17 UNL     1       5.695  55.585  -8.726  1.00  0.00     0.087 C 
BRANCH  27  28
HETATM   28  C18 UNL     1       5.600  54.244  -9.437  1.00  0.00     0.149 C 
HETATM   29  O3  UNL     1       4.733  54.004 -10.273  1.00  0.00    -0.293 OA
BRANCH  28  30
HETATM   30  C19 UNL     1       6.648  53.238  -9.094  1.00  0.00     0.052 C 
HETATM   31  C20 UNL     1       6.401  51.988  -8.659  1.00  0.00    -0.084 C 
HETATM   32  C21 UNL     1       5.032  51.408  -8.406  1.00  0.00     0.043 C 
HETATM   33  C22 UNL     1       7.537  51.044  -8.363  1.00  0.00     0.043 C 
ENDBRANCH  28  30
ENDBRANCH  27  28
ENDBRANCH  25  27
ENDBRANCH  16  25
TORSDOF 4
ENDMDL
