MODEL 1
REMARK minimizedAffinity -5.92020607
REMARK CNNscore 0.507020354
REMARK CNNaffinity 4.92953634
REMARK  12 active torsions:
REMARK  status: ('A' for Active; 'I' for Inactive)
REMARK    1  A    between atoms: C3_3  and  O1_4 
REMARK    2  A    between atoms: O1_4  and  C4_5 
REMARK    3  A    between atoms: C5_7  and  C6_8 
REMARK    4  A    between atoms: C6_8  and  O3_9 
REMARK    5  A    between atoms: C7_10  and  O4_11 
REMARK    6  A    between atoms: C8_12  and  O5_13 
REMARK    7  A    between atoms: C9_14  and  O6_15 
REMARK    8  A    between atoms: C10_16  and  O7_17 
REMARK    9  A    between atoms: C15_22  and  O8_23 
REMARK   10  A    between atoms: C15_22  and  C16_24 
REMARK   11  A    between atoms: C17_25  and  C18_26 
REMARK   12  A    between atoms: C18_26  and  O9_28 
ROOT
HETATM    1  C1  UNL     1       0.192  12.836   2.832  1.00  0.00     0.016 C 
HETATM    2  C2  UNL     1      -0.235  13.843   3.910  1.00  0.00     0.052 C 
HETATM    3  C3  UNL     1      -1.528  14.584   3.524  1.00  0.00     0.160 C 
HETATM    4  C10 UNL     1      -2.076  15.378   4.749  1.00  0.00     0.148 C 
HETATM    5  C11 UNL     1      -1.034  15.682   5.836  1.00  0.00     0.046 C 
HETATM    6  C12 UNL     1       0.377  16.004   5.289  1.00  0.00    -0.010 C 
HETATM    7  C13 UNL     1       1.282  16.332   6.507  1.00  0.00     0.018 C 
HETATM    8  C14 UNL     1       0.310  17.305   4.449  1.00  0.00     0.018 C 
HETATM    9  C15 UNL     1       0.922  14.753   4.474  1.00  0.00     0.088 C 
ENDROOT
BRANCH   3  10
HETATM   10  O1  UNL     1      -1.316  15.379   2.353  1.00  0.00    -0.350 OA
BRANCH  10  11
HETATM   11  C4  UNL     1      -2.183  15.016   1.267  1.00  0.00     0.292 C 
HETATM   12  O2  UNL     1      -1.375  14.472   0.210  1.00  0.00    -0.348 OA
HETATM   13  C5  UNL     1      -1.025  15.385  -0.840  1.00  0.00     0.179 C 
HETATM   14  C7  UNL     1      -0.890  16.822  -0.320  1.00  0.00     0.180 C 
HETATM   15  C8  UNL     1      -2.289  17.296   0.078  1.00  0.00     0.183 C 
HETATM   16  C9  UNL     1      -3.060  16.232   0.875  1.00  0.00     0.204 C 
BRANCH  13  17
HETATM   17  C6  UNL     1       0.263  14.865  -1.482  1.00  0.00     0.198 C 
BRANCH  17  18
HETATM   18  O3  UNL     1       0.075  13.534  -1.961  1.00  0.00    -0.398 OA
HETATM   19  H10 UNL     1      -0.675  13.593  -2.585  1.00  0.00     0.209 HD
ENDBRANCH  17  18
ENDBRANCH  13  17
BRANCH  14  20
HETATM   20  O4  UNL     1      -0.367  17.732  -1.295  1.00  0.00    -0.390 OA
HETATM   21  H12 UNL     1       0.584  17.527  -1.380  1.00  0.00     0.210 HD
ENDBRANCH  14  20
BRANCH  15  22
HETATM   22  O5  UNL     1      -2.195  18.526   0.810  1.00  0.00    -0.390 OA
HETATM   23  H14 UNL     1      -1.633  19.106   0.260  1.00  0.00     0.210 HD
ENDBRANCH  15  22
BRANCH  16  24
HETATM   24  O6  UNL     1      -4.165  15.778   0.060  1.00  0.00    -0.388 OA
HETATM   25  H16 UNL     1      -4.835  16.485   0.098  1.00  0.00     0.210 HD
ENDBRANCH  16  24
ENDBRANCH  10  11
ENDBRANCH   3  10
BRANCH   4  26
HETATM   26  O7  UNL     1      -2.740  16.582   4.356  1.00  0.00    -0.393 OA
HETATM   27  H18 UNL     1      -3.060  17.021   5.164  1.00  0.00     0.210 HD
ENDBRANCH   4  26
BRANCH   9  28
HETATM   28  O8  UNL     1       1.550  13.862   5.439  1.00  0.00    -0.385 OA
HETATM   29  H27 UNL     1       2.123  13.254   4.939  1.00  0.00     0.211 HD
ENDBRANCH   9  28
BRANCH   9  30
HETATM   30  C16 UNL     1       2.080  15.156   3.579  1.00  0.00     0.010 C 
HETATM   31  C17 UNL     1       2.730  14.421   2.660  1.00  0.00     0.003 C 
BRANCH  31  32
HETATM   32  C18 UNL     1       3.866  14.878   1.787  1.00  0.00     0.136 C 
HETATM   33  C19 UNL     1       4.754  15.875   2.518  1.00  0.00     0.043 C 
BRANCH  32  34
HETATM   34  O9  UNL     1       4.649  13.768   1.366  1.00  0.00    -0.392 OA
HETATM   35  H34 UNL     1       5.383  14.118   0.835  1.00  0.00     0.210 HD
ENDBRANCH  32  34
ENDBRANCH  31  32
ENDBRANCH   9  30
TORSDOF 12
ENDMDL
MODEL 2
REMARK minimizedAffinity -6.96545029
REMARK CNNscore 0.481730372
REMARK CNNaffinity 4.98736525
REMARK  12 active torsions:
REMARK  status: ('A' for Active; 'I' for Inactive)
REMARK    1  A    between atoms: C3_3  and  O1_4 
REMARK    2  A    between atoms: O1_4  and  C4_5 
REMARK    3  A    between atoms: C5_7  and  C6_8 
REMARK    4  A    between atoms: C6_8  and  O3_9 
REMARK    5  A    between atoms: C7_10  and  O4_11 
REMARK    6  A    between atoms: C8_12  and  O5_13 
REMARK    7  A    between atoms: C9_14  and  O6_15 
REMARK    8  A    between atoms: C10_16  and  O7_17 
REMARK    9  A    between atoms: C15_22  and  O8_23 
REMARK   10  A    between atoms: C15_22  and  C16_24 
REMARK   11  A    between atoms: C17_25  and  C18_26 
REMARK   12  A    between atoms: C18_26  and  O9_28 
ROOT
HETATM    1  C1  UNL     1      -1.080   8.284  16.285  1.00  0.00     0.016 C 
HETATM    2  C2  UNL     1      -2.378   7.678  15.730  1.00  0.00     0.052 C 
HETATM    3  C3  UNL     1      -2.100   6.602  14.665  1.00  0.00     0.160 C 
HETATM    4  C10 UNL     1      -3.410   5.823  14.337  1.00  0.00     0.148 C 
HETATM    5  C11 UNL     1      -4.706   6.567  14.695  1.00  0.00     0.046 C 
HETATM    6  C12 UNL     1      -4.647   8.094  14.456  1.00  0.00    -0.010 C 
HETATM    7  C13 UNL     1      -6.041   8.674  14.819  1.00  0.00     0.018 C 
HETATM    8  C14 UNL     1      -4.459   8.363  12.941  1.00  0.00     0.018 C 
HETATM    9  C15 UNL     1      -3.498   8.723  15.357  1.00  0.00     0.088 C 
ENDROOT
BRANCH   3  10
HETATM   10  O1  UNL     1      -1.457   7.181  13.525  1.00  0.00    -0.350 OA
BRANCH  10  11
HETATM   11  C4  UNL     1      -0.044   7.359  13.712  1.00  0.00     0.292 C 
HETATM   12  O2  UNL     1       0.451   8.177  12.638  1.00  0.00    -0.348 OA
HETATM   13  C5  UNL     1       1.043   7.471  11.538  1.00  0.00     0.179 C 
HETATM   14  C7  UNL     1       0.391   6.099  11.330  1.00  0.00     0.180 C 
HETATM   15  C8  UNL     1       0.774   5.226  12.527  1.00  0.00     0.183 C 
HETATM   16  C9  UNL     1       0.638   5.975  13.862  1.00  0.00     0.204 C 
BRANCH  13  17
HETATM   17  C6  UNL     1       0.928   8.374  10.307  1.00  0.00     0.198 C 
BRANCH  17  18
HETATM   18  O3  UNL     1      -0.093   7.893   9.435  1.00  0.00    -0.398 OA
HETATM   19  H10 UNL     1      -0.904   7.874   9.980  1.00  0.00     0.209 HD
ENDBRANCH  17  18
ENDBRANCH  13  17
BRANCH  14  20
HETATM   20  O4  UNL     1       0.826   5.438  10.135  1.00  0.00    -0.390 OA
HETATM   21  H12 UNL     1       0.399   5.907   9.392  1.00  0.00     0.210 HD
ENDBRANCH  14  20
BRANCH  15  22
HETATM   22  O5  UNL     1      -0.011   4.025  12.523  1.00  0.00    -0.390 OA
HETATM   23  H14 UNL     1       0.082   3.664  11.620  1.00  0.00     0.210 HD
ENDBRANCH  15  22
BRANCH  16  24
HETATM   24  O6  UNL     1       1.963   6.155  14.409  1.00  0.00    -0.388 OA
HETATM   25  H16 UNL     1       2.226   5.288  14.770  1.00  0.00     0.210 HD
ENDBRANCH  16  24
ENDBRANCH  10  11
ENDBRANCH   3  10
BRANCH   4  26
HETATM   26  O7  UNL     1      -3.453   5.393  12.974  1.00  0.00    -0.393 OA
HETATM   27  H18 UNL     1      -4.289   4.912  12.841  1.00  0.00     0.210 HD
ENDBRANCH   4  26
BRANCH   9  28
HETATM   28  O8  UNL     1      -4.087   8.996  16.661  1.00  0.00    -0.385 OA
HETATM   29  H27 UNL     1      -3.499   9.624  17.116  1.00  0.00     0.211 HD
ENDBRANCH   9  28
BRANCH   9  30
HETATM   30  C16 UNL     1      -3.118  10.105  14.859  1.00  0.00     0.010 C 
HETATM   31  C17 UNL     1      -3.085  11.265  15.537  1.00  0.00     0.003 C 
BRANCH  31  32
HETATM   32  C18 UNL     1      -2.684  12.610  14.994  1.00  0.00     0.136 C 
HETATM   33  C19 UNL     1      -2.144  13.508  16.099  1.00  0.00     0.043 C 
BRANCH  32  34
HETATM   34  O9  UNL     1      -1.698  12.464  13.980  1.00  0.00    -0.392 OA
HETATM   35  H34 UNL     1      -1.452  13.357  13.688  1.00  0.00     0.210 HD
ENDBRANCH  32  34
ENDBRANCH  31  32
ENDBRANCH   9  30
TORSDOF 12
ENDMDL
MODEL 3
REMARK minimizedAffinity -5.91334009
REMARK CNNscore 0.43580094
REMARK CNNaffinity 4.5030241
REMARK  12 active torsions:
REMARK  status: ('A' for Active; 'I' for Inactive)
REMARK    1  A    between atoms: C3_3  and  O1_4 
REMARK    2  A    between atoms: O1_4  and  C4_5 
REMARK    3  A    between atoms: C5_7  and  C6_8 
REMARK    4  A    between atoms: C6_8  and  O3_9 
REMARK    5  A    between atoms: C7_10  and  O4_11 
REMARK    6  A    between atoms: C8_12  and  O5_13 
REMARK    7  A    between atoms: C9_14  and  O6_15 
REMARK    8  A    between atoms: C10_16  and  O7_17 
REMARK    9  A    between atoms: C15_22  and  O8_23 
REMARK   10  A    between atoms: C15_22  and  C16_24 
REMARK   11  A    between atoms: C17_25  and  C18_26 
REMARK   12  A    between atoms: C18_26  and  O9_28 
ROOT
HETATM    1  C1  UNL     1       1.089  17.233   1.445  1.00  0.00     0.016 C 
HETATM    2  C2  UNL     1       0.497  16.289   2.503  1.00  0.00     0.052 C 
HETATM    3  C3  UNL     1       1.581  15.714   3.430  1.00  0.00     0.160 C 
HETATM    4  C10 UNL     1       0.920  14.996   4.646  1.00  0.00     0.148 C 
HETATM    5  C11 UNL     1      -0.539  14.567   4.423  1.00  0.00     0.046 C 
HETATM    6  C12 UNL     1      -0.841  14.071   2.990  1.00  0.00    -0.010 C 
HETATM    7  C13 UNL     1      -2.331  13.636   2.954  1.00  0.00     0.018 C 
HETATM    8  C14 UNL     1      -0.019  12.787   2.713  1.00  0.00     0.018 C 
HETATM    9  C15 UNL     1      -0.549  15.243   1.956  1.00  0.00     0.088 C 
ENDROOT
BRANCH   3  10
HETATM   10  O1  UNL     1       2.492  14.896   2.687  1.00  0.00    -0.350 OA
BRANCH  10  11
HETATM   11  C4  UNL     1       3.858  15.076   3.089  1.00  0.00     0.292 C 
HETATM   12  O2  UNL     1       4.175  16.475   2.989  1.00  0.00    -0.348 OA
HETATM   13  C5  UNL     1       4.844  16.879   1.786  1.00  0.00     0.179 C 
HETATM   14  C7  UNL     1       4.429  16.015   0.590  1.00  0.00     0.180 C 
HETATM   15  C8  UNL     1       4.990  14.610   0.824  1.00  0.00     0.183 C 
HETATM   16  C9  UNL     1       4.769  14.129   2.267  1.00  0.00     0.204 C 
BRANCH  13  17
HETATM   17  C6  UNL     1       4.541  18.364   1.577  1.00  0.00     0.198 C 
BRANCH  17  18
HETATM   18  O3  UNL     1       5.735  19.135   1.700  1.00  0.00    -0.398 OA
HETATM   19  H10 UNL     1       6.345  18.765   1.032  1.00  0.00     0.209 HD
ENDBRANCH  17  18
ENDBRANCH  13  17
BRANCH  14  20
HETATM   20  O4  UNL     1       4.933  16.497  -0.662  1.00  0.00    -0.390 OA
HETATM   21  H12 UNL     1       4.410  17.293  -0.880  1.00  0.00     0.210 HD
ENDBRANCH  14  20
BRANCH  15  22
HETATM   22  O5  UNL     1       4.420  13.695  -0.122  1.00  0.00    -0.390 OA
HETATM   23  H14 UNL     1       4.546  14.120  -0.993  1.00  0.00     0.210 HD
ENDBRANCH  15  22
BRANCH  16  24
HETATM   24  O6  UNL     1       6.061  14.036   2.908  1.00  0.00    -0.388 OA
HETATM   25  H16 UNL     1       6.478  13.227   2.560  1.00  0.00     0.210 HD
ENDBRANCH  16  24
ENDBRANCH  10  11
ENDBRANCH   3  10
BRANCH   4  26
HETATM   26  O7  UNL     1       1.693  13.883   5.101  1.00  0.00    -0.393 OA
HETATM   27  H18 UNL     1       1.228  13.489   5.860  1.00  0.00     0.210 HD
ENDBRANCH   4  26
BRANCH   9  28
HETATM   28  O8  UNL     1      -1.758  16.051   1.882  1.00  0.00    -0.385 OA
HETATM   29  H27 UNL     1      -1.700  16.583   1.069  1.00  0.00     0.211 HD
ENDBRANCH   9  28
BRANCH   9  30
HETATM   30  C16 UNL     1      -0.417  14.698   0.546  1.00  0.00     0.010 C 
HETATM   31  C17 UNL     1       0.177  15.258  -0.522  1.00  0.00     0.003 C 
BRANCH  31  32
HETATM   32  C18 UNL     1       0.292  14.664  -1.899  1.00  0.00     0.136 C 
HETATM   33  C19 UNL     1       1.749  14.454  -2.286  1.00  0.00     0.043 C 
BRANCH  32  34
HETATM   34  O9  UNL     1      -0.398  13.423  -1.966  1.00  0.00    -0.392 OA
HETATM   35  H34 UNL     1      -0.266  13.068  -2.860  1.00  0.00     0.210 HD
ENDBRANCH  32  34
ENDBRANCH  31  32
ENDBRANCH   9  30
TORSDOF 12
ENDMDL
MODEL 4
REMARK minimizedAffinity -6.60724354
REMARK CNNscore 0.29047057
REMARK CNNaffinity 4.16892576
REMARK  12 active torsions:
REMARK  status: ('A' for Active; 'I' for Inactive)
REMARK    1  A    between atoms: C3_3  and  O1_4 
REMARK    2  A    between atoms: O1_4  and  C4_5 
REMARK    3  A    between atoms: C5_7  and  C6_8 
REMARK    4  A    between atoms: C6_8  and  O3_9 
REMARK    5  A    between atoms: C7_10  and  O4_11 
REMARK    6  A    between atoms: C8_12  and  O5_13 
REMARK    7  A    between atoms: C9_14  and  O6_15 
REMARK    8  A    between atoms: C10_16  and  O7_17 
REMARK    9  A    between atoms: C15_22  and  O8_23 
REMARK   10  A    between atoms: C15_22  and  C16_24 
REMARK   11  A    between atoms: C17_25  and  C18_26 
REMARK   12  A    between atoms: C18_26  and  O9_28 
ROOT
HETATM    1  C1  UNL     1       5.627  14.038   2.138  1.00  0.00     0.016 C 
HETATM    2  C2  UNL     1       5.122  15.296   1.416  1.00  0.00     0.052 C 
HETATM    3  C3  UNL     1       3.796  15.805   2.009  1.00  0.00     0.160 C 
HETATM    4  C10 UNL     1       3.467  17.221   1.445  1.00  0.00     0.148 C 
HETATM    5  C11 UNL     1       4.173  17.567   0.126  1.00  0.00     0.046 C 
HETATM    6  C12 UNL     1       4.314  16.375  -0.849  1.00  0.00    -0.010 C 
HETATM    7  C13 UNL     1       4.998  16.907  -2.138  1.00  0.00     0.018 C 
HETATM    8  C14 UNL     1       2.903  15.903  -1.283  1.00  0.00     0.018 C 
HETATM    9  C15 UNL     1       5.178  15.232  -0.159  1.00  0.00     0.088 C 
ENDROOT
BRANCH   3  10
HETATM   10  O1  UNL     1       2.758  14.838   1.815  1.00  0.00    -0.350 OA
BRANCH  10  11
HETATM   11  C4  UNL     1       2.545  14.010   2.968  1.00  0.00     0.292 C 
HETATM   12  O2  UNL     1       1.436  13.137   2.695  1.00  0.00    -0.348 OA
HETATM   13  C5  UNL     1       0.164  13.565   3.204  1.00  0.00     0.179 C 
HETATM   14  C7  UNL     1       0.054  15.095   3.237  1.00  0.00     0.180 C 
HETATM   15  C8  UNL     1       1.025  15.599   4.307  1.00  0.00     0.183 C 
HETATM   16  C9  UNL     1       2.393  14.903   4.226  1.00  0.00     0.204 C 
BRANCH  13  17
HETATM   17  C6  UNL     1      -0.914  12.913   2.336  1.00  0.00     0.198 C 
BRANCH  17  18
HETATM   18  O3  UNL     1      -1.340  11.682   2.918  1.00  0.00    -0.398 OA
HETATM   19  H10 UNL     1      -1.652  11.921   3.814  1.00  0.00     0.209 HD
ENDBRANCH  17  18
ENDBRANCH  13  17
BRANCH  14  20
HETATM   20  O4  UNL     1      -1.260  15.563   3.567  1.00  0.00    -0.390 OA
HETATM   21  H12 UNL     1      -1.814  15.402   2.779  1.00  0.00     0.210 HD
ENDBRANCH  14  20
BRANCH  15  22
HETATM   22  O5  UNL     1       1.161  17.024   4.207  1.00  0.00    -0.390 OA
HETATM   23  H14 UNL     1       0.245  17.365   4.195  1.00  0.00     0.210 HD
ENDBRANCH  15  22
BRANCH  16  24
HETATM   24  O6  UNL     1       2.549  14.088   5.410  1.00  0.00    -0.388 OA
HETATM   25  H16 UNL     1       2.756  14.704   6.136  1.00  0.00     0.210 HD
ENDBRANCH  16  24
ENDBRANCH  10  11
ENDBRANCH   3  10
BRANCH   4  26
HETATM   26  O7  UNL     1       2.059  17.437   1.320  1.00  0.00    -0.393 OA
HETATM   27  H18 UNL     1       1.927  18.336   0.971  1.00  0.00     0.210 HD
ENDBRANCH   4  26
BRANCH   9  28
HETATM   28  O8  UNL     1       6.576  15.547  -0.414  1.00  0.00    -0.385 OA
HETATM   29  H27 UNL     1       7.088  14.735  -0.254  1.00  0.00     0.211 HD
ENDBRANCH   9  28
BRANCH   9  30
HETATM   30  C16 UNL     1       4.991  13.907  -0.876  1.00  0.00     0.010 C 
HETATM   31  C17 UNL     1       4.848  13.675  -2.192  1.00  0.00     0.003 C 
BRANCH  31  32
HETATM   32  C18 UNL     1       4.680  12.335  -2.853  1.00  0.00     0.136 C 
HETATM   33  C19 UNL     1       4.909  12.431  -4.355  1.00  0.00     0.043 C 
BRANCH  32  34
HETATM   34  O9  UNL     1       5.583  11.388  -2.297  1.00  0.00    -0.392 OA
HETATM   35  H34 UNL     1       5.457  10.553  -2.778  1.00  0.00     0.210 HD
ENDBRANCH  32  34
ENDBRANCH  31  32
ENDBRANCH   9  30
TORSDOF 12
ENDMDL
MODEL 5
REMARK minimizedAffinity -6.45309353
REMARK CNNscore 0.289788991
REMARK CNNaffinity 4.11974192
REMARK  12 active torsions:
REMARK  status: ('A' for Active; 'I' for Inactive)
REMARK    1  A    between atoms: C3_3  and  O1_4 
REMARK    2  A    between atoms: O1_4  and  C4_5 
REMARK    3  A    between atoms: C5_7  and  C6_8 
REMARK    4  A    between atoms: C6_8  and  O3_9 
REMARK    5  A    between atoms: C7_10  and  O4_11 
REMARK    6  A    between atoms: C8_12  and  O5_13 
REMARK    7  A    between atoms: C9_14  and  O6_15 
REMARK    8  A    between atoms: C10_16  and  O7_17 
REMARK    9  A    between atoms: C15_22  and  O8_23 
REMARK   10  A    between atoms: C15_22  and  C16_24 
REMARK   11  A    between atoms: C17_25  and  C18_26 
REMARK   12  A    between atoms: C18_26  and  O9_28 
ROOT
HETATM    1  C1  UNL     1      -2.189  10.274  18.343  1.00  0.00     0.016 C 
HETATM    2  C2  UNL     1      -1.907  11.508  17.474  1.00  0.00     0.052 C 
HETATM    3  C3  UNL     1      -2.124  11.219  15.978  1.00  0.00     0.160 C 
HETATM    4  C10 UNL     1      -2.103  12.550  15.166  1.00  0.00     0.148 C 
HETATM    5  C11 UNL     1      -1.396  13.719  15.868  1.00  0.00     0.046 C 
HETATM    6  C12 UNL     1      -0.149  13.306  16.685  1.00  0.00    -0.010 C 
HETATM    7  C13 UNL     1       0.466  14.603  17.280  1.00  0.00     0.018 C 
HETATM    8  C14 UNL     1       0.922  12.734  15.722  1.00  0.00     0.018 C 
HETATM    9  C15 UNL     1      -0.582  12.287  17.826  1.00  0.00     0.088 C 
ENDROOT
BRANCH   3  10
HETATM   10  O1  UNL     1      -1.190  10.235  15.519  1.00  0.00    -0.350 OA
BRANCH  10  11
HETATM   11  C4  UNL     1      -1.631   9.559  14.332  1.00  0.00     0.292 C 
HETATM   12  O2  UNL     1      -3.065   9.468  14.373  1.00  0.00    -0.348 OA
HETATM   13  C5  UNL     1      -3.598   8.226  14.853  1.00  0.00     0.179 C 
HETATM   14  C7  UNL     1      -2.676   7.578  15.893  1.00  0.00     0.180 C 
HETATM   15  C8  UNL     1      -1.406   7.133  15.163  1.00  0.00     0.183 C 
HETATM   16  C9  UNL     1      -0.883   8.208  14.197  1.00  0.00     0.204 C 
BRANCH  13  17
HETATM   17  C6  UNL     1      -4.997   8.515  15.401  1.00  0.00     0.198 C 
BRANCH  17  18
HETATM   18  O3  UNL     1      -5.317   9.896  15.237  1.00  0.00    -0.398 OA
HETATM   19  H10 UNL     1      -5.232  10.063  14.278  1.00  0.00     0.209 HD
ENDBRANCH  17  18
ENDBRANCH  13  17
BRANCH  14  20
HETATM   20  O4  UNL     1      -3.253   6.432  16.530  1.00  0.00    -0.390 OA
HETATM   21  H12 UNL     1      -3.934   6.772  17.142  1.00  0.00     0.210 HD
ENDBRANCH  14  20
BRANCH  15  22
HETATM   22  O5  UNL     1      -0.402   6.760  16.118  1.00  0.00    -0.390 OA
HETATM   23  H14 UNL     1      -0.848   6.136  16.724  1.00  0.00     0.210 HD
ENDBRANCH  15  22
BRANCH  16  24
HETATM   24  O6  UNL     1      -1.040   7.709  12.849  1.00  0.00    -0.388 OA
HETATM   25  H16 UNL     1      -0.329   7.056  12.719  1.00  0.00     0.210 HD
ENDBRANCH  16  24
ENDBRANCH  10  11
ENDBRANCH   3  10
BRANCH   4  26
HETATM   26  O7  UNL     1      -1.569  12.372  13.852  1.00  0.00    -0.393 OA
HETATM   27  H18 UNL     1      -1.592  13.235  13.403  1.00  0.00     0.210 HD
ENDBRANCH   4  26
BRANCH   9  28
HETATM   28  O8  UNL     1      -1.007  13.086  18.966  1.00  0.00    -0.385 OA
HETATM   29  H27 UNL     1      -1.001  12.503  19.745  1.00  0.00     0.211 HD
ENDBRANCH   9  28
BRANCH   9  30
HETATM   30  C16 UNL     1       0.623  11.538  18.366  1.00  0.00     0.010 C 
HETATM   31  C17 UNL     1       0.999  11.357  19.643  1.00  0.00     0.003 C 
BRANCH  31  32
HETATM   32  C18 UNL     1       2.200  10.590  20.125  1.00  0.00     0.136 C 
HETATM   33  C19 UNL     1       1.910   9.889  21.445  1.00  0.00     0.043 C 
BRANCH  32  34
HETATM   34  O9  UNL     1       2.598   9.628  19.157  1.00  0.00    -0.392 OA
HETATM   35  H34 UNL     1       3.352   9.141  19.528  1.00  0.00     0.210 HD
ENDBRANCH  32  34
ENDBRANCH  31  32
ENDBRANCH   9  30
TORSDOF 12
ENDMDL
MODEL 6
REMARK minimizedAffinity -5.48987389
REMARK CNNscore 0.275164604
REMARK CNNaffinity 4.0007472
REMARK  12 active torsions:
REMARK  status: ('A' for Active; 'I' for Inactive)
REMARK    1  A    between atoms: C3_3  and  O1_4 
REMARK    2  A    between atoms: O1_4  and  C4_5 
REMARK    3  A    between atoms: C5_7  and  C6_8 
REMARK    4  A    between atoms: C6_8  and  O3_9 
REMARK    5  A    between atoms: C7_10  and  O4_11 
REMARK    6  A    between atoms: C8_12  and  O5_13 
REMARK    7  A    between atoms: C9_14  and  O6_15 
REMARK    8  A    between atoms: C10_16  and  O7_17 
REMARK    9  A    between atoms: C15_22  and  O8_23 
REMARK   10  A    between atoms: C15_22  and  C16_24 
REMARK   11  A    between atoms: C17_25  and  C18_26 
REMARK   12  A    between atoms: C18_26  and  O9_28 
ROOT
HETATM    1  C1  UNL     1      -0.107  17.574   2.794  1.00  0.00     0.016 C 
HETATM    2  C2  UNL     1       0.016  17.323   4.304  1.00  0.00     0.052 C 
HETATM    3  C3  UNL     1       0.341  15.852   4.617  1.00  0.00     0.160 C 
HETATM    4  C10 UNL     1       0.732  15.698   6.119  1.00  0.00     0.148 C 
HETATM    5  C11 UNL     1       0.236  16.831   7.031  1.00  0.00     0.046 C 
HETATM    6  C12 UNL     1      -1.163  17.376   6.660  1.00  0.00    -0.010 C 
HETATM    7  C13 UNL     1      -1.526  18.468   7.703  1.00  0.00     0.018 C 
HETATM    8  C14 UNL     1      -2.212  16.249   6.845  1.00  0.00     0.018 C 
HETATM    9  C15 UNL     1      -1.123  17.965   5.185  1.00  0.00     0.088 C 
ENDROOT
BRANCH   3  10
HETATM   10  O1  UNL     1      -0.733  15.003   4.198  1.00  0.00    -0.350 OA
BRANCH  10  11
HETATM   11  C4  UNL     1      -0.309  13.657   3.932  1.00  0.00     0.292 C 
HETATM   12  O2  UNL     1       1.119  13.660   3.770  1.00  0.00    -0.348 OA
HETATM   13  C5  UNL     1       1.593  13.701   2.417  1.00  0.00     0.179 C 
HETATM   14  C7  UNL     1       0.633  14.474   1.504  1.00  0.00     0.180 C 
HETATM   15  C8  UNL     1      -0.647  13.643   1.380  1.00  0.00     0.183 C 
HETATM   16  C9  UNL     1      -1.113  13.087   2.735  1.00  0.00     0.204 C 
BRANCH  13  17
HETATM   17  C6  UNL     1       2.998  14.309   2.447  1.00  0.00     0.198 C 
BRANCH  17  18
HETATM   18  O3  UNL     1       3.788  13.782   1.383  1.00  0.00    -0.398 OA
HETATM   19  H10 UNL     1       3.290  13.994   0.569  1.00  0.00     0.209 HD
ENDBRANCH  17  18
ENDBRANCH  13  17
BRANCH  14  20
HETATM   20  O4  UNL     1       1.154  14.694   0.187  1.00  0.00    -0.390 OA
HETATM   21  H12 UNL     1       1.842  15.382   0.276  1.00  0.00     0.210 HD
ENDBRANCH  14  20
BRANCH  15  22
HETATM   22  O5  UNL     1      -1.676  14.426   0.758  1.00  0.00    -0.390 OA
HETATM   23  H14 UNL     1      -1.263  14.790  -0.050  1.00  0.00     0.210 HD
ENDBRANCH  15  22
BRANCH  16  24
HETATM   24  O6  UNL     1      -0.963  11.650   2.703  1.00  0.00    -0.388 OA
HETATM   25  H16 UNL     1      -1.700  11.314   2.161  1.00  0.00     0.210 HD
ENDBRANCH  16  24
ENDBRANCH  10  11
ENDBRANCH   3  10
BRANCH   4  26
HETATM   26  O7  UNL     1       0.336  14.431   6.651  1.00  0.00    -0.393 OA
HETATM   27  H18 UNL     1       0.615  14.401   7.583  1.00  0.00     0.210 HD
ENDBRANCH   4  26
BRANCH   9  28
HETATM   28  O8  UNL     1      -0.666  19.343   5.293  1.00  0.00    -0.385 OA
HETATM   29  H27 UNL     1      -0.904  19.792   4.463  1.00  0.00     0.211 HD
ENDBRANCH   9  28
BRANCH   9  30
HETATM   30  C16 UNL     1      -2.527  18.116   4.626  1.00  0.00     0.010 C 
HETATM   31  C17 UNL     1      -3.270  17.213   3.962  1.00  0.00     0.003 C 
BRANCH  31  32
HETATM   32  C18 UNL     1      -4.667  17.411   3.442  1.00  0.00     0.136 C 
HETATM   33  C19 UNL     1      -4.746  18.628   2.531  1.00  0.00     0.043 C 
BRANCH  32  34
HETATM   34  O9  UNL     1      -5.102  16.260   2.731  1.00  0.00    -0.392 OA
HETATM   35  H34 UNL     1      -5.992  16.450   2.390  1.00  0.00     0.210 HD
ENDBRANCH  32  34
ENDBRANCH  31  32
ENDBRANCH   9  30
TORSDOF 12
ENDMDL
MODEL 7
REMARK minimizedAffinity -5.24172068
REMARK CNNscore 0.245951831
REMARK CNNaffinity 3.59129548
REMARK  12 active torsions:
REMARK  status: ('A' for Active; 'I' for Inactive)
REMARK    1  A    between atoms: C3_3  and  O1_4 
REMARK    2  A    between atoms: O1_4  and  C4_5 
REMARK    3  A    between atoms: C5_7  and  C6_8 
REMARK    4  A    between atoms: C6_8  and  O3_9 
REMARK    5  A    between atoms: C7_10  and  O4_11 
REMARK    6  A    between atoms: C8_12  and  O5_13 
REMARK    7  A    between atoms: C9_14  and  O6_15 
REMARK    8  A    between atoms: C10_16  and  O7_17 
REMARK    9  A    between atoms: C15_22  and  O8_23 
REMARK   10  A    between atoms: C15_22  and  C16_24 
REMARK   11  A    between atoms: C17_25  and  C18_26 
REMARK   12  A    between atoms: C18_26  and  O9_28 
ROOT
HETATM    1  C1  UNL     1     -13.387  -2.948  14.935  1.00  0.00     0.016 C 
HETATM    2  C2  UNL     1     -13.585  -3.632  13.573  1.00  0.00     0.052 C 
HETATM    3  C3  UNL     1     -14.116  -2.653  12.511  1.00  0.00     0.160 C 
HETATM    4  C10 UNL     1     -14.035  -3.303  11.096  1.00  0.00     0.148 C 
HETATM    5  C11 UNL     1     -13.964  -4.838  11.098  1.00  0.00     0.046 C 
HETATM    6  C12 UNL     1     -14.819  -5.511  12.197  1.00  0.00    -0.010 C 
HETATM    7  C13 UNL     1     -14.671  -7.047  12.025  1.00  0.00     0.018 C 
HETATM    8  C14 UNL     1     -16.315  -5.198  11.940  1.00  0.00     0.018 C 
HETATM    9  C15 UNL     1     -14.310  -5.031  13.625  1.00  0.00     0.088 C 
ENDROOT
BRANCH   3  10
HETATM   10  O1  UNL     1     -15.420  -2.184  12.871  1.00  0.00    -0.350 OA
BRANCH  10  11
HETATM   11  C4  UNL     1     -15.789  -0.980  12.183  1.00  0.00     0.292 C 
HETATM   12  O2  UNL     1     -15.114   0.122  12.812  1.00  0.00    -0.348 OA
HETATM   13  C5  UNL     1     -15.882   0.857  13.776  1.00  0.00     0.179 C 
HETATM   14  C7  UNL     1     -16.895  -0.042  14.496  1.00  0.00     0.180 C 
HETATM   15  C8  UNL     1     -17.955  -0.449  13.469  1.00  0.00     0.183 C 
HETATM   16  C9  UNL     1     -17.334  -0.867  12.127  1.00  0.00     0.204 C 
BRANCH  13  17
HETATM   17  C6  UNL     1     -14.890   1.518  14.736  1.00  0.00     0.198 C 
BRANCH  17  18
HETATM   18  O3  UNL     1     -14.366   0.554  15.647  1.00  0.00    -0.398 OA
HETATM   19  H10 UNL     1     -13.961  -0.134  15.082  1.00  0.00     0.209 HD
ENDBRANCH  17  18
ENDBRANCH  13  17
BRANCH  14  20
HETATM   20  O4  UNL     1     -17.555   0.608  15.589  1.00  0.00    -0.390 OA
HETATM   21  H12 UNL     1     -16.896   0.674  16.307  1.00  0.00     0.210 HD
ENDBRANCH  14  20
BRANCH  15  22
HETATM   22  O5  UNL     1     -18.779  -1.492  14.009  1.00  0.00    -0.390 OA
HETATM   23  H14 UNL     1     -19.063  -1.163  14.884  1.00  0.00     0.210 HD
ENDBRANCH  15  22
BRANCH  16  24
HETATM   24  O6  UNL     1     -17.704   0.120  11.138  1.00  0.00    -0.388 OA
HETATM   25  H16 UNL     1     -18.636  -0.058  10.915  1.00  0.00     0.210 HD
ENDBRANCH  16  24
ENDBRANCH  10  11
ENDBRANCH   3  10
BRANCH   4  26
HETATM   26  O7  UNL     1     -15.092  -2.862  10.240  1.00  0.00    -0.393 OA
HETATM   27  H18 UNL     1     -14.978  -3.300   9.378  1.00  0.00     0.210 HD
ENDBRANCH   4  26
BRANCH   9  28
HETATM   28  O8  UNL     1     -13.215  -5.913  14.001  1.00  0.00    -0.385 OA
HETATM   29  H27 UNL     1     -13.087  -5.821  14.961  1.00  0.00     0.211 HD
ENDBRANCH   9  28
BRANCH   9  30
HETATM   30  C16 UNL     1     -15.354  -5.310  14.691  1.00  0.00     0.010 C 
HETATM   31  C17 UNL     1     -15.218  -5.291  16.028  1.00  0.00     0.003 C 
BRANCH  31  32
HETATM   32  C18 UNL     1     -16.295  -5.562  17.043  1.00  0.00     0.136 C 
HETATM   33  C19 UNL     1     -17.211  -6.688  16.584  1.00  0.00     0.043 C 
BRANCH  32  34
HETATM   34  O9  UNL     1     -15.722  -5.902  18.299  1.00  0.00    -0.392 OA
HETATM   35  H34 UNL     1     -16.454  -6.098  18.906  1.00  0.00     0.210 HD
ENDBRANCH  32  34
ENDBRANCH  31  32
ENDBRANCH   9  30
TORSDOF 12
ENDMDL
MODEL 8
REMARK minimizedAffinity -6.39364576
REMARK CNNscore 0.241781712
REMARK CNNaffinity 5.17460585
REMARK  12 active torsions:
REMARK  status: ('A' for Active; 'I' for Inactive)
REMARK    1  A    between atoms: C3_3  and  O1_4 
REMARK    2  A    between atoms: O1_4  and  C4_5 
REMARK    3  A    between atoms: C5_7  and  C6_8 
REMARK    4  A    between atoms: C6_8  and  O3_9 
REMARK    5  A    between atoms: C7_10  and  O4_11 
REMARK    6  A    between atoms: C8_12  and  O5_13 
REMARK    7  A    between atoms: C9_14  and  O6_15 
REMARK    8  A    between atoms: C10_16  and  O7_17 
REMARK    9  A    between atoms: C15_22  and  O8_23 
REMARK   10  A    between atoms: C15_22  and  C16_24 
REMARK   11  A    between atoms: C17_25  and  C18_26 
REMARK   12  A    between atoms: C18_26  and  O9_28 
ROOT
HETATM    1  C1  UNL     1      -4.037  -9.331   8.212  1.00  0.00     0.016 C 
HETATM    2  C2  UNL     1      -5.042  -9.410   7.053  1.00  0.00     0.052 C 
HETATM    3  C3  UNL     1      -6.497  -9.425   7.555  1.00  0.00     0.160 C 
HETATM    4  C10 UNL     1      -7.478  -9.223   6.360  1.00  0.00     0.148 C 
HETATM    5  C11 UNL     1      -6.890  -9.563   4.982  1.00  0.00     0.046 C 
HETATM    6  C12 UNL     1      -5.932 -10.778   4.984  1.00  0.00    -0.010 C 
HETATM    7  C13 UNL     1      -5.474 -11.009   3.518  1.00  0.00     0.018 C 
HETATM    8  C14 UNL     1      -6.725 -12.048   5.385  1.00  0.00     0.018 C 
HETATM    9  C15 UNL     1      -4.700 -10.474   5.941  1.00  0.00     0.088 C 
ENDROOT
BRANCH   3  10
HETATM   10  O1  UNL     1      -6.746 -10.604   8.328  1.00  0.00    -0.350 OA
BRANCH  10  11
HETATM   11  C4  UNL     1      -7.830 -10.444   9.256  1.00  0.00     0.292 C 
HETATM   12  O2  UNL     1      -8.062  -9.037   9.437  1.00  0.00    -0.348 OA
HETATM   13  C5  UNL     1      -7.451  -8.448  10.594  1.00  0.00     0.179 C 
HETATM   14  C7  UNL     1      -6.134  -9.146  10.956  1.00  0.00     0.180 C 
HETATM   15  C8  UNL     1      -6.483 -10.553  11.447  1.00  0.00     0.183 C 
HETATM   16  C9  UNL     1      -7.526 -11.240  10.551  1.00  0.00     0.204 C 
BRANCH  13  17
HETATM   17  C6  UNL     1      -7.269  -6.957  10.301  1.00  0.00     0.198 C 
BRANCH  17  18
HETATM   18  O3  UNL     1      -6.946  -6.253  11.498  1.00  0.00    -0.398 OA
HETATM   19  H10 UNL     1      -6.136  -6.685  11.835  1.00  0.00     0.209 HD
ENDBRANCH  17  18
ENDBRANCH  13  17
BRANCH  14  20
HETATM   20  O4  UNL     1      -5.402  -8.478  11.991  1.00  0.00    -0.390 OA
HETATM   21  H12 UNL     1      -5.024  -7.674  11.584  1.00  0.00     0.210 HD
ENDBRANCH  14  20
BRANCH  15  22
HETATM   22  O5  UNL     1      -5.288 -11.341  11.551  1.00  0.00    -0.390 OA
HETATM   23  H14 UNL     1      -4.669 -10.794  12.072  1.00  0.00     0.210 HD
ENDBRANCH  15  22
BRANCH  16  24
HETATM   24  O6  UNL     1      -8.743 -11.386  11.317  1.00  0.00    -0.388 OA
HETATM   25  H16 UNL     1      -8.588 -12.126  11.932  1.00  0.00     0.210 HD
ENDBRANCH  16  24
ENDBRANCH  10  11
ENDBRANCH   3  10
BRANCH   4  26
HETATM   26  O7  UNL     1      -8.712  -9.920   6.552  1.00  0.00    -0.393 OA
HETATM   27  H18 UNL     1      -9.274  -9.746   5.777  1.00  0.00     0.210 HD
ENDBRANCH   4  26
BRANCH   9  28
HETATM   28  O8  UNL     1      -3.714  -9.757   5.145  1.00  0.00    -0.385 OA
HETATM   29  H27 UNL     1      -2.865  -9.815   5.617  1.00  0.00     0.211 HD
ENDBRANCH   9  28
BRANCH   9  30
HETATM   30  C16 UNL     1      -3.974 -11.755   6.308  1.00  0.00     0.010 C 
HETATM   31  C17 UNL     1      -2.664 -12.038   6.212  1.00  0.00     0.003 C 
BRANCH  31  32
HETATM   32  C18 UNL     1      -1.992 -13.325   6.607  1.00  0.00     0.136 C 
HETATM   33  C19 UNL     1      -2.687 -14.523   5.974  1.00  0.00     0.043 C 
BRANCH  32  34
HETATM   34  O9  UNL     1      -0.625 -13.313   6.220  1.00  0.00    -0.392 OA
HETATM   35  H34 UNL     1      -0.248 -14.174   6.467  1.00  0.00     0.210 HD
ENDBRANCH  32  34
ENDBRANCH  31  32
ENDBRANCH   9  30
TORSDOF 12
ENDMDL
MODEL 9
REMARK minimizedAffinity -5.47516298
REMARK CNNscore 0.240651861
REMARK CNNaffinity 3.63881302
REMARK  12 active torsions:
REMARK  status: ('A' for Active; 'I' for Inactive)
REMARK    1  A    between atoms: C3_3  and  O1_4 
REMARK    2  A    between atoms: O1_4  and  C4_5 
REMARK    3  A    between atoms: C5_7  and  C6_8 
REMARK    4  A    between atoms: C6_8  and  O3_9 
REMARK    5  A    between atoms: C7_10  and  O4_11 
REMARK    6  A    between atoms: C8_12  and  O5_13 
REMARK    7  A    between atoms: C9_14  and  O6_15 
REMARK    8  A    between atoms: C10_16  and  O7_17 
REMARK    9  A    between atoms: C15_22  and  O8_23 
REMARK   10  A    between atoms: C15_22  and  C16_24 
REMARK   11  A    between atoms: C17_25  and  C18_26 
REMARK   12  A    between atoms: C18_26  and  O9_28 
ROOT
HETATM    1  C1  UNL     1      -2.962  10.188  19.022  1.00  0.00     0.016 C 
HETATM    2  C2  UNL     1      -3.533  11.384  18.245  1.00  0.00     0.052 C 
HETATM    3  C3  UNL     1      -3.644  11.090  16.739  1.00  0.00     0.160 C 
HETATM    4  C10 UNL     1      -4.478  12.203  16.036  1.00  0.00     0.148 C 
HETATM    5  C11 UNL     1      -4.556  13.530  16.806  1.00  0.00     0.046 C 
HETATM    6  C12 UNL     1      -3.253  13.910  17.548  1.00  0.00    -0.010 C 
HETATM    7  C13 UNL     1      -3.488  15.287  18.224  1.00  0.00     0.018 C 
HETATM    8  C14 UNL     1      -2.125  14.136  16.509  1.00  0.00     0.018 C 
HETATM    9  C15 UNL     1      -2.910  12.784  18.617  1.00  0.00     0.088 C 
ENDROOT
BRANCH   3  10
HETATM   10  O1  UNL     1      -2.345  10.882  16.174  1.00  0.00    -0.350 OA
BRANCH  10  11
HETATM   11  C4  UNL     1      -2.393  10.302  14.862  1.00  0.00     0.292 C 
HETATM   12  O2  UNL     1      -3.131   9.071  14.941  1.00  0.00    -0.348 OA
HETATM   13  C5  UNL     1      -2.343   7.878  15.055  1.00  0.00     0.179 C 
HETATM   14  C7  UNL     1      -1.033   8.134  15.810  1.00  0.00     0.180 C 
HETATM   15  C8  UNL     1      -0.160   9.023  14.921  1.00  0.00     0.183 C 
HETATM   16  C9  UNL     1      -0.955  10.180  14.295  1.00  0.00     0.204 C 
BRANCH  13  17
HETATM   17  C6  UNL     1      -3.218   6.819  15.730  1.00  0.00     0.198 C 
BRANCH  17  18
HETATM   18  O3  UNL     1      -3.441   5.723  14.844  1.00  0.00    -0.398 OA
HETATM   19  H10 UNL     1      -2.549   5.400  14.612  1.00  0.00     0.209 HD
ENDBRANCH  17  18
ENDBRANCH  13  17
BRANCH  14  20
HETATM   20  O4  UNL     1      -0.302   6.936  16.103  1.00  0.00    -0.390 OA
HETATM   21  H12 UNL     1      -0.789   6.487  16.821  1.00  0.00     0.210 HD
ENDBRANCH  14  20
BRANCH  15  22
HETATM   22  O5  UNL     1       0.961   9.511  15.674  1.00  0.00    -0.390 OA
HETATM   23  H14 UNL     1       1.353   8.717  16.086  1.00  0.00     0.210 HD
ENDBRANCH  15  22
BRANCH  16  24
HETATM   24  O6  UNL     1      -1.023   9.953  12.869  1.00  0.00    -0.388 OA
HETATM   25  H16 UNL     1      -0.146  10.189  12.517  1.00  0.00     0.210 HD
ENDBRANCH  16  24
ENDBRANCH  10  11
ENDBRANCH   3  10
BRANCH   4  26
HETATM   26  O7  UNL     1      -4.040  12.439  14.695  1.00  0.00    -0.393 OA
HETATM   27  H18 UNL     1      -4.605  13.137  14.318  1.00  0.00     0.210 HD
ENDBRANCH   4  26
BRANCH   9  28
HETATM   28  O8  UNL     1      -3.643  13.117  19.830  1.00  0.00    -0.385 OA
HETATM   29  H27 UNL     1      -3.235  12.618  20.559  1.00  0.00     0.211 HD
ENDBRANCH   9  28
BRANCH   9  30
HETATM   30  C16 UNL     1      -1.461  12.881  19.057  1.00  0.00     0.010 C 
HETATM   31  C17 UNL     1      -0.593  11.890  19.324  1.00  0.00     0.003 C 
BRANCH  31  32
HETATM   32  C18 UNL     1       0.843  12.044  19.744  1.00  0.00     0.136 C 
HETATM   33  C19 UNL     1       1.318  10.830  20.530  1.00  0.00     0.043 C 
BRANCH  32  34
HETATM   34  O9  UNL     1       1.678  12.227  18.608  1.00  0.00    -0.392 OA
HETATM   35  H34 UNL     1       2.592  12.289  18.930  1.00  0.00     0.210 HD
ENDBRANCH  32  34
ENDBRANCH  31  32
ENDBRANCH   9  30
TORSDOF 12
ENDMDL
