MODEL 1
REMARK minimizedAffinity -8.85755539
REMARK CNNscore 0.283987999
REMARK CNNaffinity 6.91537666
REMARK  10 active torsions:
REMARK  status: ('A' for Active; 'I' for Inactive)
REMARK    1  A    between atoms: C2_2  and  C4_4 
REMARK    2  A    between atoms: C7_7  and  C8_8 
REMARK    3  A    between atoms: C8_8  and  O2_10 
REMARK    4  A    between atoms: C21_23  and  O3_24 
REMARK    5  A    between atoms: O3_24  and  C22_25 
REMARK    6  A    between atoms: C24_28  and  O5_29 
REMARK    7  A    between atoms: C25_30  and  O6_31 
REMARK    8  A    between atoms: C26_32  and  O7_33 
REMARK    9  A    between atoms: C27_34  and  C29_36 
REMARK   10  A    between atoms: C29_36  and  O8_37 
ROOT
HETATM    1  C4  UNL     1      -5.794   4.314  13.405  1.00  0.00     0.019 C 
HETATM    2  C5  UNL     1      -4.276   4.124  13.265  1.00  0.00     0.011 C 
HETATM    3  C6  UNL     1      -3.651   5.308  13.992  1.00  0.00     0.021 C 
HETATM    4  C7  UNL     1      -4.730   6.424  14.049  1.00  0.00     0.050 C 
HETATM    5  C9  UNL     1      -5.055   6.760  15.521  1.00  0.00     0.022 C 
HETATM    6  C10 UNL     1      -6.332   7.583  15.691  1.00  0.00     0.011 C 
HETATM    7  C11 UNL     1      -7.597   6.884  15.114  1.00  0.00    -0.032 C 
HETATM    8  C12 UNL     1      -7.829   5.576  15.930  1.00  0.00     0.016 C 
HETATM    9  C13 UNL     1      -7.298   6.563  13.604  1.00  0.00     0.000 C 
HETATM   10  C14 UNL     1      -8.515   5.973  12.890  1.00  0.00     0.006 C 
HETATM   11  C15 UNL     1      -9.755   6.857  13.012  1.00  0.00     0.006 C 
HETATM   12  C16 UNL     1     -10.129   7.131  14.484  1.00  0.00     0.003 C 
HETATM   13  C17 UNL     1     -11.605   7.700  14.691  1.00  0.00    -0.035 C 
HETATM   14  C18 UNL     1     -12.550   6.489  14.368  1.00  0.00     0.016 C 
HETATM   15  C19 UNL     1     -11.947   8.835  13.694  1.00  0.00     0.012 C 
HETATM   16  C20 UNL     1     -13.311   9.491  13.919  1.00  0.00     0.034 C 
HETATM   17  C21 UNL     1     -13.482  10.035  15.338  1.00  0.00     0.135 C 
HETATM   18  C27 UNL     1     -13.230   8.957  16.438  1.00  0.00     0.008 C 
HETATM   19  C28 UNL     1     -13.214   9.663  17.827  1.00  0.00     0.020 C 
HETATM   20  C30 UNL     1     -11.868   8.149  16.191  1.00  0.00     0.007 C 
HETATM   21  C31 UNL     1     -10.647   8.866  16.813  1.00  0.00     0.007 C 
HETATM   22  C32 UNL     1      -9.346   8.083  16.676  1.00  0.00     0.011 C 
HETATM   23  C33 UNL     1      -8.924   7.844  15.210  1.00  0.00    -0.032 C 
HETATM   24  C34 UNL     1      -8.610   9.251  14.613  1.00  0.00     0.016 C 
HETATM   25  C35 UNL     1      -5.951   5.847  13.267  1.00  0.00     0.017 C 
ENDROOT
BRANCH  17  26
HETATM   26  O3  UNL     1     -12.579  11.140  15.482  1.00  0.00    -0.352 OA
BRANCH  26  27
HETATM   27  C22 UNL     1     -12.742  12.154  14.486  1.00  0.00     0.291 C 
HETATM   28  O4  UNL     1     -14.054  12.725  14.592  1.00  0.00    -0.356 OA
HETATM   29  C23 UNL     1     -14.111  13.841  15.486  1.00  0.00     0.205 C 
HETATM   30  C24 UNL     1     -13.294  15.023  14.934  1.00  0.00     0.173 C 
HETATM   31  C25 UNL     1     -12.122  14.530  14.074  1.00  0.00     0.182 C 
HETATM   32  C26 UNL     1     -11.605  13.199  14.615  1.00  0.00     0.204 C 
BRANCH  30  33
HETATM   33  O5  UNL     1     -14.138  15.862  14.130  1.00  0.00    -0.391 OA
HETATM   34  H37 UNL     1     -13.620  16.651  13.884  1.00  0.00     0.210 HD
ENDBRANCH  30  33
BRANCH  31  35
HETATM   35  O6  UNL     1     -11.058  15.500  14.069  1.00  0.00    -0.390 OA
HETATM   36  H39 UNL     1     -11.232  16.103  13.322  1.00  0.00     0.210 HD
ENDBRANCH  31  35
BRANCH  32  37
HETATM   37  O7  UNL     1     -10.447  12.799  13.864  1.00  0.00    -0.388 OA
HETATM   38  H41 UNL     1      -9.896  13.608  13.806  1.00  0.00     0.210 HD
ENDBRANCH  32  37
ENDBRANCH  26  27
ENDBRANCH  17  26
BRANCH  18  39
HETATM   39  C29 UNL     1     -14.487   8.029  16.495  1.00  0.00     0.176 C 
BRANCH  39  40
HETATM   40  O8  UNL     1     -14.563   7.269  17.694  1.00  0.00    -0.400 OA
HETATM   41  H47 UNL     1     -13.964   6.510  17.604  1.00  0.00     0.209 HD
ENDBRANCH  39  40
ENDBRANCH  18  39
BRANCH   1  42
HETATM   42  C2  UNL     1      -6.550   3.413  12.444  1.00  0.00    -0.088 C 
HETATM   43  C1  UNL     1      -7.681   2.792  12.829  1.00  0.00     0.014 C 
HETATM   44  C3  UNL     1      -6.006   3.185  11.059  1.00  0.00     0.043 C 
ENDBRANCH   1  42
BRANCH   4  45
HETATM   45  C8  UNL     1      -4.184   7.672  13.349  1.00  0.00     0.149 C 
HETATM   46  O1  UNL     1      -4.828   8.580  12.848  1.00  0.00    -0.649 OA
BRANCH  45  47
HETATM   47  O2  UNL     1      -2.837   7.717  13.323  1.00  0.00    -0.776 OA
HETATM   48  H11 UNL     1      -2.642   8.556  12.858  1.00  0.00     0.167 HD
ENDBRANCH  45  47
ENDBRANCH   4  45
TORSDOF 10
ENDMDL
MODEL 2
REMARK minimizedAffinity -8.32276154
REMARK CNNscore 0.277253181
REMARK CNNaffinity 6.06315947
REMARK  10 active torsions:
REMARK  status: ('A' for Active; 'I' for Inactive)
REMARK    1  A    between atoms: C2_2  and  C4_4 
REMARK    2  A    between atoms: C7_7  and  C8_8 
REMARK    3  A    between atoms: C8_8  and  O2_10 
REMARK    4  A    between atoms: C21_23  and  O3_24 
REMARK    5  A    between atoms: O3_24  and  C22_25 
REMARK    6  A    between atoms: C24_28  and  O5_29 
REMARK    7  A    between atoms: C25_30  and  O6_31 
REMARK    8  A    between atoms: C26_32  and  O7_33 
REMARK    9  A    between atoms: C27_34  and  C29_36 
REMARK   10  A    between atoms: C29_36  and  O8_37 
ROOT
HETATM    1  C4  UNL     1      -5.051  14.815  19.951  1.00  0.00     0.019 C 
HETATM    2  C5  UNL     1      -4.854  16.111  20.750  1.00  0.00     0.011 C 
HETATM    3  C6  UNL     1      -3.546  16.705  20.243  1.00  0.00     0.021 C 
HETATM    4  C7  UNL     1      -2.737  15.540  19.609  1.00  0.00     0.050 C 
HETATM    5  C9  UNL     1      -2.484  15.836  18.114  1.00  0.00     0.022 C 
HETATM    6  C10 UNL     1      -2.008  14.616  17.324  1.00  0.00     0.011 C 
HETATM    7  C11 UNL     1      -3.007  13.424  17.370  1.00  0.00    -0.032 C 
HETATM    8  C12 UNL     1      -4.325  13.883  16.678  1.00  0.00     0.016 C 
HETATM    9  C13 UNL     1      -3.252  13.086  18.886  1.00  0.00     0.000 C 
HETATM   10  C14 UNL     1      -4.134  11.849  19.064  1.00  0.00     0.006 C 
HETATM   11  C15 UNL     1      -3.589  10.627  18.326  1.00  0.00     0.006 C 
HETATM   12  C16 UNL     1      -3.409  10.894  16.818  1.00  0.00     0.003 C 
HETATM   13  C17 UNL     1      -3.228   9.576  15.935  1.00  0.00    -0.035 C 
HETATM   14  C18 UNL     1      -4.640   8.891  15.946  1.00  0.00     0.016 C 
HETATM   15  C19 UNL     1      -2.223   8.578  16.561  1.00  0.00     0.012 C 
HETATM   16  C20 UNL     1      -1.929   7.347  15.702  1.00  0.00     0.034 C 
HETATM   17  C21 UNL     1      -1.437   7.704  14.298  1.00  0.00     0.135 C 
HETATM   18  C27 UNL     1      -2.409   8.657  13.536  1.00  0.00     0.008 C 
HETATM   19  C28 UNL     1      -1.713   9.125  12.223  1.00  0.00     0.020 C 
HETATM   20  C30 UNL     1      -2.850   9.912  14.429  1.00  0.00     0.007 C 
HETATM   21  C31 UNL     1      -1.845  11.082  14.323  1.00  0.00     0.007 C 
HETATM   22  C32 UNL     1      -2.276  12.328  15.089  1.00  0.00     0.011 C 
HETATM   23  C33 UNL     1      -2.410  12.097  16.610  1.00  0.00    -0.032 C 
HETATM   24  C34 UNL     1      -0.974  11.784  17.131  1.00  0.00     0.016 C 
HETATM   25  C35 UNL     1      -3.608  14.267  19.845  1.00  0.00     0.017 C 
ENDROOT
BRANCH  17  26
HETATM   26  O3  UNL     1      -0.139   8.298  14.442  1.00  0.00    -0.352 OA
BRANCH  26  27
HETATM   27  C22 UNL     1       0.939   7.364  14.339  1.00  0.00     0.291 C 
HETATM   28  O4  UNL     1       1.343   7.246  12.967  1.00  0.00    -0.356 OA
HETATM   29  C23 UNL     1       2.354   8.187  12.594  1.00  0.00     0.205 C 
HETATM   30  C24 UNL     1       3.669   7.895  13.338  1.00  0.00     0.173 C 
HETATM   31  C25 UNL     1       3.400   7.254  14.707  1.00  0.00     0.182 C 
HETATM   32  C26 UNL     1       2.092   7.792  15.283  1.00  0.00     0.204 C 
BRANCH  30  33
HETATM   33  O5  UNL     1       4.478   7.000  12.559  1.00  0.00    -0.391 OA
HETATM   34  H37 UNL     1       5.342   6.919  13.005  1.00  0.00     0.210 HD
ENDBRANCH  30  33
BRANCH  31  35
HETATM   35  O6  UNL     1       4.482   7.532  15.615  1.00  0.00    -0.390 OA
HETATM   36  H39 UNL     1       5.130   6.809  15.508  1.00  0.00     0.210 HD
ENDBRANCH  31  35
BRANCH  32  37
HETATM   37  O7  UNL     1       1.902   7.261  16.605  1.00  0.00    -0.388 OA
HETATM   38  H41 UNL     1       2.771   7.373  17.045  1.00  0.00     0.210 HD
ENDBRANCH  32  37
ENDBRANCH  26  27
ENDBRANCH  17  26
BRANCH  18  39
HETATM   39  C29 UNL     1      -3.624   7.805  13.042  1.00  0.00     0.176 C 
BRANCH  39  40
HETATM   40  O8  UNL     1      -4.774   8.590  12.758  1.00  0.00    -0.400 OA
HETATM   41  H47 UNL     1      -5.214   8.789  13.602  1.00  0.00     0.209 HD
ENDBRANCH  39  40
ENDBRANCH  18  39
BRANCH   1  42
HETATM   42  C2  UNL     1      -6.119  13.939  20.582  1.00  0.00    -0.088 C 
HETATM   43  C1  UNL     1      -7.293  13.727  19.956  1.00  0.00     0.014 C 
HETATM   44  C3  UNL     1      -5.875  13.332  21.938  1.00  0.00     0.043 C 
ENDBRANCH   1  42
BRANCH   4  45
HETATM   45  C8  UNL     1      -1.396  15.418  20.339  1.00  0.00     0.149 C 
HETATM   46  O1  UNL     1      -0.362  14.935  19.908  1.00  0.00    -0.649 OA
BRANCH  45  47
HETATM   47  O2  UNL     1      -1.426  15.925  21.588  1.00  0.00    -0.776 OA
HETATM   48  H11 UNL     1      -0.515  15.781  21.918  1.00  0.00     0.167 HD
ENDBRANCH  45  47
ENDBRANCH   4  45
TORSDOF 10
ENDMDL
MODEL 3
REMARK minimizedAffinity -7.49704599
REMARK CNNscore 0.2111139
REMARK CNNaffinity 6.43058729
REMARK  10 active torsions:
REMARK  status: ('A' for Active; 'I' for Inactive)
REMARK    1  A    between atoms: C2_2  and  C4_4 
REMARK    2  A    between atoms: C7_7  and  C8_8 
REMARK    3  A    between atoms: C8_8  and  O2_10 
REMARK    4  A    between atoms: C21_23  and  O3_24 
REMARK    5  A    between atoms: O3_24  and  C22_25 
REMARK    6  A    between atoms: C24_28  and  O5_29 
REMARK    7  A    between atoms: C25_30  and  O6_31 
REMARK    8  A    between atoms: C26_32  and  O7_33 
REMARK    9  A    between atoms: C27_34  and  C29_36 
REMARK   10  A    between atoms: C29_36  and  O8_37 
ROOT
HETATM    1  C4  UNL     1       0.670   7.667  11.369  1.00  0.00     0.019 C 
HETATM    2  C5  UNL     1      -0.282   7.213  10.253  1.00  0.00     0.011 C 
HETATM    3  C6  UNL     1       0.619   6.714   9.131  1.00  0.00     0.021 C 
HETATM    4  C7  UNL     1       2.009   7.374   9.340  1.00  0.00     0.050 C 
HETATM    5  C9  UNL     1       3.077   6.279   9.557  1.00  0.00     0.022 C 
HETATM    6  C10 UNL     1       4.397   6.817  10.111  1.00  0.00     0.011 C 
HETATM    7  C11 UNL     1       4.240   7.550  11.474  1.00  0.00    -0.032 C 
HETATM    8  C12 UNL     1       3.742   6.506  12.518  1.00  0.00     0.016 C 
HETATM    9  C13 UNL     1       3.179   8.691  11.265  1.00  0.00     0.000 C 
HETATM   10  C14 UNL     1       3.019   9.563  12.511  1.00  0.00     0.006 C 
HETATM   11  C15 UNL     1       4.346  10.150  12.994  1.00  0.00     0.006 C 
HETATM   12  C16 UNL     1       5.391   9.053  13.286  1.00  0.00     0.003 C 
HETATM   13  C17 UNL     1       6.636   9.549  14.153  1.00  0.00    -0.035 C 
HETATM   14  C18 UNL     1       6.053   9.790  15.590  1.00  0.00     0.016 C 
HETATM   15  C19 UNL     1       7.207  10.898  13.651  1.00  0.00     0.012 C 
HETATM   16  C20 UNL     1       8.470  11.366  14.378  1.00  0.00     0.034 C 
HETATM   17  C21 UNL     1       9.594  10.329  14.344  1.00  0.00     0.135 C 
HETATM   18  C27 UNL     1       9.156   8.936  14.895  1.00  0.00     0.008 C 
HETATM   19  C28 UNL     1      10.295   7.912  14.612  1.00  0.00     0.020 C 
HETATM   20  C30 UNL     1       7.771   8.443  14.257  1.00  0.00     0.007 C 
HETATM   21  C31 UNL     1       7.982   7.690  12.922  1.00  0.00     0.007 C 
HETATM   22  C32 UNL     1       6.695   7.127  12.330  1.00  0.00     0.011 C 
HETATM   23  C33 UNL     1       5.655   8.212  11.978  1.00  0.00    -0.032 C 
HETATM   24  C34 UNL     1       6.284   9.064  10.833  1.00  0.00     0.016 C 
HETATM   25  C35 UNL     1       1.830   8.311  10.575  1.00  0.00     0.017 C 
ENDROOT
BRANCH  17  26
HETATM   26  O3  UNL     1      10.039  10.229  12.984  1.00  0.00    -0.352 OA
BRANCH  26  27
HETATM   27  C22 UNL     1      11.438  10.468  12.813  1.00  0.00     0.291 C 
HETATM   28  O4  UNL     1      11.687  10.942  11.482  1.00  0.00    -0.356 OA
HETATM   29  C23 UNL     1      11.608  12.366  11.367  1.00  0.00     0.205 C 
HETATM   30  C24 UNL     1      12.743  13.039  12.160  1.00  0.00     0.173 C 
HETATM   31  C25 UNL     1      13.155  12.186  13.368  1.00  0.00     0.182 C 
HETATM   32  C26 UNL     1      11.939  11.439  13.913  1.00  0.00     0.204 C 
BRANCH  30  33
HETATM   33  O5  UNL     1      13.886  13.220  11.310  1.00  0.00    -0.391 OA
HETATM   34  H37 UNL     1      14.544  13.739  11.808  1.00  0.00     0.210 HD
ENDBRANCH  30  33
BRANCH  31  35
HETATM   35  O6  UNL     1      13.720  13.015  14.400  1.00  0.00    -0.390 OA
HETATM   36  H39 UNL     1      14.679  13.064  14.226  1.00  0.00     0.210 HD
ENDBRANCH  31  35
BRANCH  32  37
HETATM   37  O7  UNL     1      12.316  10.723  15.102  1.00  0.00    -0.388 OA
HETATM   38  H41 UNL     1      12.832  11.370  15.628  1.00  0.00     0.210 HD
ENDBRANCH  32  37
ENDBRANCH  26  27
ENDBRANCH  17  26
BRANCH  18  39
HETATM   39  C29 UNL     1       9.107   9.034  16.455  1.00  0.00     0.176 C 
BRANCH  39  40
HETATM   40  O8  UNL     1       8.980   7.766  17.087  1.00  0.00    -0.400 OA
HETATM   41  H47 UNL     1       8.047   7.502  17.040  1.00  0.00     0.209 HD
ENDBRANCH  39  40
ENDBRANCH  18  39
BRANCH   1  42
HETATM   42  C2  UNL     1      -0.060   8.505  12.405  1.00  0.00    -0.088 C 
HETATM   43  C1  UNL     1       0.395   8.584  13.670  1.00  0.00     0.014 C 
HETATM   44  C3  UNL     1      -1.325   9.225  12.018  1.00  0.00     0.043 C 
ENDBRANCH   1  42
BRANCH   4  45
HETATM   45  C8  UNL     1       2.360   8.189   8.092  1.00  0.00     0.149 C 
HETATM   46  O1  UNL     1       3.165   9.102   8.008  1.00  0.00    -0.649 OA
BRANCH  45  47
HETATM   47  O2  UNL     1       1.675   7.802   6.997  1.00  0.00    -0.776 OA
HETATM   48  H11 UNL     1       2.004   8.399   6.295  1.00  0.00     0.167 HD
ENDBRANCH  45  47
ENDBRANCH   4  45
TORSDOF 10
ENDMDL
MODEL 4
REMARK minimizedAffinity -7.26275969
REMARK CNNscore 0.179624185
REMARK CNNaffinity 4.58848143
REMARK  10 active torsions:
REMARK  status: ('A' for Active; 'I' for Inactive)
REMARK    1  A    between atoms: C2_2  and  C4_4 
REMARK    2  A    between atoms: C7_7  and  C8_8 
REMARK    3  A    between atoms: C8_8  and  O2_10 
REMARK    4  A    between atoms: C21_23  and  O3_24 
REMARK    5  A    between atoms: O3_24  and  C22_25 
REMARK    6  A    between atoms: C24_28  and  O5_29 
REMARK    7  A    between atoms: C25_30  and  O6_31 
REMARK    8  A    between atoms: C26_32  and  O7_33 
REMARK    9  A    between atoms: C27_34  and  C29_36 
REMARK   10  A    between atoms: C29_36  and  O8_37 
ROOT
HETATM    1  C4  UNL     1       6.825  12.286  20.817  1.00  0.00     0.019 C 
HETATM    2  C5  UNL     1       7.748  12.715  21.967  1.00  0.00     0.011 C 
HETATM    3  C6  UNL     1       6.818  13.060  23.124  1.00  0.00     0.021 C 
HETATM    4  C7  UNL     1       5.427  13.375  22.507  1.00  0.00     0.050 C 
HETATM    5  C9  UNL     1       4.379  12.382  23.056  1.00  0.00     0.022 C 
HETATM    6  C10 UNL     1       3.071  12.378  22.264  1.00  0.00     0.011 C 
HETATM    7  C11 UNL     1       3.261  12.026  20.760  1.00  0.00    -0.032 C 
HETATM    8  C12 UNL     1       3.803  10.567  20.680  1.00  0.00     0.016 C 
HETATM    9  C13 UNL     1       4.302  13.049  20.175  1.00  0.00     0.000 C 
HETATM   10  C14 UNL     1       4.491  12.879  18.667  1.00  0.00     0.006 C 
HETATM   11  C15 UNL     1       3.173  12.959  17.897  1.00  0.00     0.006 C 
HETATM   12  C16 UNL     1       2.150  11.915  18.390  1.00  0.00     0.003 C 
HETATM   13  C17 UNL     1       0.926  11.674  17.393  1.00  0.00    -0.035 C 
HETATM   14  C18 UNL     1       1.551  10.918  16.168  1.00  0.00     0.016 C 
HETATM   15  C19 UNL     1       0.325  12.999  16.864  1.00  0.00     0.012 C 
HETATM   16  C20 UNL     1      -0.920  12.831  15.991  1.00  0.00     0.034 C 
HETATM   17  C21 UNL     1      -2.033  12.046  16.687  1.00  0.00     0.135 C 
HETATM   18  C27 UNL     1      -1.562  10.652  17.206  1.00  0.00     0.008 C 
HETATM   19  C28 UNL     1      -2.698  10.040  18.080  1.00  0.00     0.020 C 
HETATM   20  C30 UNL     1      -0.192  10.746  18.032  1.00  0.00     0.007 C 
HETATM   21  C31 UNL     1      -0.436  11.062  19.527  1.00  0.00     0.007 C 
HETATM   22  C32 UNL     1       0.839  11.072  20.363  1.00  0.00     0.011 C 
HETATM   23  C33 UNL     1       1.856  12.146  19.922  1.00  0.00    -0.032 C 
HETATM   24  C34 UNL     1       1.182  13.525  20.203  1.00  0.00     0.016 C 
HETATM   25  C35 UNL     1       5.634  13.261  20.965  1.00  0.00     0.017 C 
ENDROOT
BRANCH  17  26
HETATM   26  O3  UNL     1      -2.518  12.861  17.763  1.00  0.00    -0.352 OA
BRANCH  26  27
HETATM   27  C22 UNL     1      -3.867  13.302  17.592  1.00  0.00     0.291 C 
HETATM   28  O4  UNL     1      -4.018  14.616  18.147  1.00  0.00    -0.356 OA
HETATM   29  C23 UNL     1      -3.743  15.659  17.207  1.00  0.00     0.205 C 
HETATM   30  C24 UNL     1      -4.794  15.668  16.083  1.00  0.00     0.173 C 
HETATM   31  C25 UNL     1      -5.346  14.258  15.831  1.00  0.00     0.182 C 
HETATM   32  C26 UNL     1      -4.256  13.220  16.094  1.00  0.00     0.204 C 
BRANCH  30  33
HETATM   33  O5  UNL     1      -5.881  16.534  16.443  1.00  0.00    -0.391 OA
HETATM   34  H37 UNL     1      -6.474  16.599  15.671  1.00  0.00     0.210 HD
ENDBRANCH  30  33
BRANCH  31  35
HETATM   35  O6  UNL     1      -5.817  14.136  14.476  1.00  0.00    -0.390 OA
HETATM   36  H39 UNL     1      -6.756  14.402  14.482  1.00  0.00     0.210 HD
ENDBRANCH  31  35
BRANCH  32  37
HETATM   37  O7  UNL     1      -4.756  11.914  15.760  1.00  0.00    -0.388 OA
HETATM   38  H41 UNL     1      -5.191  12.029  14.889  1.00  0.00     0.210 HD
ENDBRANCH  32  37
ENDBRANCH  26  27
ENDBRANCH  17  26
BRANCH  18  39
HETATM   39  C29 UNL     1      -1.466   9.691  15.976  1.00  0.00     0.176 C 
BRANCH  39  40
HETATM   40  O8  UNL     1      -1.894   8.367  16.270  1.00  0.00    -0.400 OA
HETATM   41  H47 UNL     1      -1.165   7.913  16.725  1.00  0.00     0.209 HD
ENDBRANCH  39  40
ENDBRANCH  18  39
BRANCH   1  42
HETATM   42  C2  UNL     1       7.577  12.247  19.497  1.00  0.00    -0.088 C 
HETATM   43  C1  UNL     1       8.190  13.347  19.022  1.00  0.00     0.014 C 
HETATM   44  C3  UNL     1       7.602  10.972  18.696  1.00  0.00     0.043 C 
ENDBRANCH   1  42
BRANCH   4  45
HETATM   45  C8  UNL     1       5.029  14.802  22.894  1.00  0.00     0.149 C 
HETATM   46  O1  UNL     1       4.286  15.142  23.800  1.00  0.00    -0.649 OA
BRANCH  45  47
HETATM   47  O2  UNL     1       5.602  15.741  22.113  1.00  0.00    -0.776 OA
HETATM   48  H11 UNL     1       5.262  16.583  22.478  1.00  0.00     0.167 HD
ENDBRANCH  45  47
ENDBRANCH   4  45
TORSDOF 10
ENDMDL
MODEL 5
REMARK minimizedAffinity -8.86109829
REMARK CNNscore 0.164530993
REMARK CNNaffinity 6.31787109
REMARK  10 active torsions:
REMARK  status: ('A' for Active; 'I' for Inactive)
REMARK    1  A    between atoms: C2_2  and  C4_4 
REMARK    2  A    between atoms: C7_7  and  C8_8 
REMARK    3  A    between atoms: C8_8  and  O2_10 
REMARK    4  A    between atoms: C21_23  and  O3_24 
REMARK    5  A    between atoms: O3_24  and  C22_25 
REMARK    6  A    between atoms: C24_28  and  O5_29 
REMARK    7  A    between atoms: C25_30  and  O6_31 
REMARK    8  A    between atoms: C26_32  and  O7_33 
REMARK    9  A    between atoms: C27_34  and  C29_36 
REMARK   10  A    between atoms: C29_36  and  O8_37 
ROOT
HETATM    1  C4  UNL     1      -2.552   4.106  12.313  1.00  0.00     0.019 C 
HETATM    2  C5  UNL     1      -1.859   3.059  11.430  1.00  0.00     0.011 C 
HETATM    3  C6  UNL     1      -0.375   3.400  11.487  1.00  0.00     0.021 C 
HETATM    4  C7  UNL     1      -0.270   4.893  11.901  1.00  0.00     0.050 C 
HETATM    5  C9  UNL     1       0.505   5.010  13.232  1.00  0.00     0.022 C 
HETATM    6  C10 UNL     1       0.366   6.379  13.899  1.00  0.00     0.011 C 
HETATM    7  C11 UNL     1      -1.108   6.764  14.216  1.00  0.00    -0.032 C 
HETATM    8  C12 UNL     1      -1.653   5.736  15.253  1.00  0.00     0.016 C 
HETATM    9  C13 UNL     1      -1.907   6.682  12.865  1.00  0.00     0.000 C 
HETATM   10  C14 UNL     1      -3.354   7.151  13.023  1.00  0.00     0.006 C 
HETATM   11  C15 UNL     1      -3.456   8.555  13.619  1.00  0.00     0.006 C 
HETATM   12  C16 UNL     1      -2.750   8.655  14.987  1.00  0.00     0.003 C 
HETATM   13  C17 UNL     1      -3.146   9.948  15.837  1.00  0.00    -0.035 C 
HETATM   14  C18 UNL     1      -4.627   9.691  16.288  1.00  0.00     0.016 C 
HETATM   15  C19 UNL     1      -3.137  11.241  14.985  1.00  0.00     0.012 C 
HETATM   16  C20 UNL     1      -3.403  12.525  15.773  1.00  0.00     0.034 C 
HETATM   17  C21 UNL     1      -2.435  12.717  16.941  1.00  0.00     0.135 C 
HETATM   18  C27 UNL     1      -2.407  11.498  17.916  1.00  0.00     0.008 C 
HETATM   19  C28 UNL     1      -1.243  11.703  18.931  1.00  0.00     0.020 C 
HETATM   20  C30 UNL     1      -2.249  10.106  17.138  1.00  0.00     0.007 C 
HETATM   21  C31 UNL     1      -0.767   9.751  16.877  1.00  0.00     0.007 C 
HETATM   22  C32 UNL     1      -0.573   8.390  16.218  1.00  0.00     0.011 C 
HETATM   23  C33 UNL     1      -1.225   8.284  14.823  1.00  0.00    -0.032 C 
HETATM   24  C34 UNL     1      -0.459   9.286  13.906  1.00  0.00     0.016 C 
HETATM   25  C35 UNL     1      -1.746   5.389  12.003  1.00  0.00     0.017 C 
ENDROOT
BRANCH  17  26
HETATM   26  O3  UNL     1      -1.136  12.960  16.382  1.00  0.00    -0.352 OA
BRANCH  26  27
HETATM   27  C22 UNL     1      -1.025  14.212  15.701  1.00  0.00     0.291 C 
HETATM   28  O4  UNL     1      -0.331  15.152  16.534  1.00  0.00    -0.356 OA
HETATM   29  C23 UNL     1       1.088  15.126  16.351  1.00  0.00     0.205 C 
HETATM   30  C24 UNL     1       1.463  15.615  14.941  1.00  0.00     0.173 C 
HETATM   31  C25 UNL     1       0.351  15.298  13.931  1.00  0.00     0.182 C 
HETATM   32  C26 UNL     1      -0.349  13.998  14.323  1.00  0.00     0.204 C 
BRANCH  30  33
HETATM   33  O5  UNL     1       1.680  17.034  14.961  1.00  0.00    -0.391 OA
HETATM   34  H37 UNL     1       2.016  17.294  14.084  1.00  0.00     0.210 HD
ENDBRANCH  30  33
BRANCH  31  35
HETATM   35  O6  UNL     1       0.895  15.178  12.604  1.00  0.00    -0.390 OA
HETATM   36  H39 UNL     1       0.871  16.070  12.210  1.00  0.00     0.210 HD
ENDBRANCH  31  35
BRANCH  32  37
HETATM   37  O7  UNL     1      -1.320  13.661  13.318  1.00  0.00    -0.388 OA
HETATM   38  H41 UNL     1      -0.850  13.785  12.466  1.00  0.00     0.210 HD
ENDBRANCH  32  37
ENDBRANCH  26  27
ENDBRANCH  17  26
BRANCH  18  39
HETATM   39  C29 UNL     1      -3.698  11.561  18.796  1.00  0.00     0.176 C 
BRANCH  39  40
HETATM   40  O8  UNL     1      -3.960  12.861  19.307  1.00  0.00    -0.400 OA
HETATM   41  H47 UNL     1      -3.386  12.999  20.079  1.00  0.00     0.209 HD
ENDBRANCH  39  40
ENDBRANCH  18  39
BRANCH   1  42
HETATM   42  C2  UNL     1      -4.053   4.113  12.080  1.00  0.00    -0.088 C 
HETATM   43  C1  UNL     1      -4.898   4.514  13.049  1.00  0.00     0.014 C 
HETATM   44  C3  UNL     1      -4.601   3.630  10.763  1.00  0.00     0.043 C 
ENDBRANCH   1  42
BRANCH   4  45
HETATM   45  C8  UNL     1       0.480   5.656  10.805  1.00  0.00     0.149 C 
HETATM   46  O1  UNL     1       0.182   6.736  10.321  1.00  0.00    -0.649 OA
BRANCH  45  47
HETATM   47  O2  UNL     1       1.585   5.014  10.375  1.00  0.00    -0.776 OA
HETATM   48  H11 UNL     1       1.951   5.615   9.694  1.00  0.00     0.167 HD
ENDBRANCH  45  47
ENDBRANCH   4  45
TORSDOF 10
ENDMDL
MODEL 6
REMARK minimizedAffinity -7.40075541
REMARK CNNscore 0.161890045
REMARK CNNaffinity 5.71205282
REMARK  10 active torsions:
REMARK  status: ('A' for Active; 'I' for Inactive)
REMARK    1  A    between atoms: C2_2  and  C4_4 
REMARK    2  A    between atoms: C7_7  and  C8_8 
REMARK    3  A    between atoms: C8_8  and  O2_10 
REMARK    4  A    between atoms: C21_23  and  O3_24 
REMARK    5  A    between atoms: O3_24  and  C22_25 
REMARK    6  A    between atoms: C24_28  and  O5_29 
REMARK    7  A    between atoms: C25_30  and  O6_31 
REMARK    8  A    between atoms: C26_32  and  O7_33 
REMARK    9  A    between atoms: C27_34  and  C29_36 
REMARK   10  A    between atoms: C29_36  and  O8_37 
ROOT
HETATM    1  C4  UNL     1       4.761  14.189  22.101  1.00  0.00     0.019 C 
HETATM    2  C5  UNL     1       5.833  13.724  23.096  1.00  0.00     0.011 C 
HETATM    3  C6  UNL     1       5.956  12.220  22.885  1.00  0.00     0.021 C 
HETATM    4  C7  UNL     1       4.632  11.747  22.224  1.00  0.00     0.050 C 
HETATM    5  C9  UNL     1       4.934  11.125  20.843  1.00  0.00     0.022 C 
HETATM    6  C10 UNL     1       3.692  10.947  19.970  1.00  0.00     0.011 C 
HETATM    7  C11 UNL     1       2.937  12.279  19.693  1.00  0.00    -0.032 C 
HETATM    8  C12 UNL     1       3.891  13.203  18.879  1.00  0.00     0.016 C 
HETATM    9  C13 UNL     1       2.591  12.912  21.090  1.00  0.00     0.000 C 
HETATM   10  C14 UNL     1       1.743  14.178  20.954  1.00  0.00     0.006 C 
HETATM   11  C15 UNL     1       0.468  13.947  20.143  1.00  0.00     0.006 C 
HETATM   12  C16 UNL     1       0.771  13.399  18.733  1.00  0.00     0.003 C 
HETATM   13  C17 UNL     1      -0.450  13.508  17.711  1.00  0.00    -0.035 C 
HETATM   14  C18 UNL     1      -0.583  15.042  17.408  1.00  0.00     0.016 C 
HETATM   15  C19 UNL     1      -1.788  13.041  18.335  1.00  0.00     0.012 C 
HETATM   16  C20 UNL     1      -2.972  13.022  17.366  1.00  0.00     0.034 C 
HETATM   17  C21 UNL     1      -2.706  12.176  16.120  1.00  0.00     0.135 C 
HETATM   18  C27 UNL     1      -1.411  12.601  15.360  1.00  0.00     0.008 C 
HETATM   19  C28 UNL     1      -1.121  11.547  14.249  1.00  0.00     0.020 C 
HETATM   20  C30 UNL     1      -0.156  12.755  16.344  1.00  0.00     0.007 C 
HETATM   21  C31 UNL     1       0.581  11.412  16.560  1.00  0.00     0.007 C 
HETATM   22  C32 UNL     1       1.834  11.536  17.420  1.00  0.00     0.011 C 
HETATM   23  C33 UNL     1       1.549  12.032  18.853  1.00  0.00    -0.032 C 
HETATM   24  C34 UNL     1       0.701  10.917  19.539  1.00  0.00     0.016 C 
HETATM   25  C35 UNL     1       3.742  13.026  22.140  1.00  0.00     0.017 C 
ENDROOT
BRANCH  17  26
HETATM   26  O3  UNL     1      -2.630  10.808  16.543  1.00  0.00    -0.352 OA
BRANCH  26  27
HETATM   27  C22 UNL     1      -3.011   9.868  15.535  1.00  0.00     0.291 C 
HETATM   28  O4  UNL     1      -1.993   8.865  15.403  1.00  0.00    -0.356 OA
HETATM   29  C23 UNL     1      -2.189   7.746  16.273  1.00  0.00     0.205 C 
HETATM   30  C24 UNL     1      -3.455   6.966  15.877  1.00  0.00     0.173 C 
HETATM   31  C25 UNL     1      -4.501   7.893  15.242  1.00  0.00     0.182 C 
HETATM   32  C26 UNL     1      -4.408   9.284  15.867  1.00  0.00     0.204 C 
BRANCH  30  33
HETATM   33  O5  UNL     1      -3.116   5.937  14.935  1.00  0.00    -0.391 OA
HETATM   34  H37 UNL     1      -3.915   5.398  14.786  1.00  0.00     0.210 HD
ENDBRANCH  30  33
BRANCH  31  35
HETATM   35  O6  UNL     1      -5.826   7.363  15.429  1.00  0.00    -0.390 OA
HETATM   36  H39 UNL     1      -6.007   6.786  14.663  1.00  0.00     0.210 HD
ENDBRANCH  31  35
BRANCH  32  37
HETATM   37  O7  UNL     1      -5.454  10.113  15.336  1.00  0.00    -0.388 OA
HETATM   38  H41 UNL     1      -6.260   9.556  15.379  1.00  0.00     0.210 HD
ENDBRANCH  32  37
ENDBRANCH  26  27
ENDBRANCH  17  26
BRANCH  18  39
HETATM   39  C29 UNL     1      -1.729  13.912  14.569  1.00  0.00     0.176 C 
BRANCH  39  40
HETATM   40  O8  UNL     1      -1.291  13.867  13.218  1.00  0.00    -0.400 OA
HETATM   41  H47 UNL     1      -0.337  14.052  13.208  1.00  0.00     0.209 HD
ENDBRANCH  39  40
ENDBRANCH  18  39
BRANCH   1  42
HETATM   42  C2  UNL     1       4.279  15.592  22.430  1.00  0.00    -0.088 C 
HETATM   43  C1  UNL     1       3.730  15.868  23.627  1.00  0.00     0.014 C 
HETATM   44  C3  UNL     1       4.385  16.675  21.389  1.00  0.00     0.043 C 
ENDBRANCH   1  42
BRANCH   4  45
HETATM   45  C8  UNL     1       3.981  10.695  23.126  1.00  0.00     0.149 C 
HETATM   46  O1  UNL     1       2.885  10.756  23.659  1.00  0.00    -0.649 OA
BRANCH  45  47
HETATM   47  O2  UNL     1       4.750   9.602  23.306  1.00  0.00    -0.776 OA
HETATM   48  H11 UNL     1       4.209   9.032  23.889  1.00  0.00     0.167 HD
ENDBRANCH  45  47
ENDBRANCH   4  45
TORSDOF 10
ENDMDL
MODEL 7
REMARK minimizedAffinity -7.57891035
REMARK CNNscore 0.154296547
REMARK CNNaffinity 5.64584494
REMARK  10 active torsions:
REMARK  status: ('A' for Active; 'I' for Inactive)
REMARK    1  A    between atoms: C2_2  and  C4_4 
REMARK    2  A    between atoms: C7_7  and  C8_8 
REMARK    3  A    between atoms: C8_8  and  O2_10 
REMARK    4  A    between atoms: C21_23  and  O3_24 
REMARK    5  A    between atoms: O3_24  and  C22_25 
REMARK    6  A    between atoms: C24_28  and  O5_29 
REMARK    7  A    between atoms: C25_30  and  O6_31 
REMARK    8  A    between atoms: C26_32  and  O7_33 
REMARK    9  A    between atoms: C27_34  and  C29_36 
REMARK   10  A    between atoms: C29_36  and  O8_37 
ROOT
HETATM    1  C4  UNL     1      -0.237  13.372  19.567  1.00  0.00     0.019 C 
HETATM    2  C5  UNL     1      -1.418  12.531  19.062  1.00  0.00     0.011 C 
HETATM    3  C6  UNL     1      -0.924  11.090  19.077  1.00  0.00     0.021 C 
HETATM    4  C7  UNL     1       0.628  11.144  19.035  1.00  0.00     0.050 C 
HETATM    5  C9  UNL     1       1.206  10.478  20.303  1.00  0.00     0.022 C 
HETATM    6  C10 UNL     1       2.688  10.781  20.529  1.00  0.00     0.011 C 
HETATM    7  C11 UNL     1       2.994  12.301  20.657  1.00  0.00    -0.032 C 
HETATM    8  C12 UNL     1       2.260  12.826  21.928  1.00  0.00     0.016 C 
HETATM    9  C13 UNL     1       2.441  12.994  19.358  1.00  0.00     0.000 C 
HETATM   10  C14 UNL     1       2.783  14.484  19.311  1.00  0.00     0.006 C 
HETATM   11  C15 UNL     1       4.280  14.749  19.460  1.00  0.00     0.006 C 
HETATM   12  C16 UNL     1       4.847  14.151  20.765  1.00  0.00     0.003 C 
HETATM   13  C17 UNL     1       6.281  14.717  21.177  1.00  0.00    -0.035 C 
HETATM   14  C18 UNL     1       6.015  16.198  21.623  1.00  0.00     0.016 C 
HETATM   15  C19 UNL     1       7.265  14.761  19.982  1.00  0.00     0.012 C 
HETATM   16  C20 UNL     1       8.688  15.191  20.343  1.00  0.00     0.034 C 
HETATM   17  C21 UNL     1       9.310  14.328  21.442  1.00  0.00     0.135 C 
HETATM   18  C27 UNL     1       8.437  14.262  22.733  1.00  0.00     0.008 C 
HETATM   19  C28 UNL     1       9.047  13.195  23.690  1.00  0.00     0.020 C 
HETATM   20  C30 UNL     1       6.903  13.931  22.409  1.00  0.00     0.007 C 
HETATM   21  C31 UNL     1       6.643  12.408  22.327  1.00  0.00     0.007 C 
HETATM   22  C32 UNL     1       5.177  12.051  22.109  1.00  0.00     0.011 C 
HETATM   23  C33 UNL     1       4.604  12.593  20.782  1.00  0.00    -0.032 C 
HETATM   24  C34 UNL     1       5.370  11.853  19.642  1.00  0.00     0.016 C 
HETATM   25  C35 UNL     1       0.977  12.661  18.925  1.00  0.00     0.017 C 
ENDROOT
BRANCH  17  26
HETATM   26  O3  UNL     1       9.513  13.019  20.890  1.00  0.00    -0.352 OA
BRANCH  26  27
HETATM   27  C22 UNL     1      10.252  13.016  19.666  1.00  0.00     0.291 C 
HETATM   28  O4  UNL     1      11.658  12.994  19.953  1.00  0.00    -0.356 OA
HETATM   29  C23 UNL     1      12.187  11.669  20.071  1.00  0.00     0.205 C 
HETATM   30  C24 UNL     1      12.128  10.937  18.719  1.00  0.00     0.173 C 
HETATM   31  C25 UNL     1      10.950  11.437  17.870  1.00  0.00     0.182 C 
HETATM   32  C26 UNL     1       9.788  11.832  18.779  1.00  0.00     0.204 C 
BRANCH  30  33
HETATM   33  O5  UNL     1      13.348  11.159  17.994  1.00  0.00    -0.391 OA
HETATM   34  H37 UNL     1      13.322  10.601  17.195  1.00  0.00     0.210 HD
ENDBRANCH  30  33
BRANCH  31  35
HETATM   35  O6  UNL     1      10.523  10.416  16.950  1.00  0.00    -0.390 OA
HETATM   36  H39 UNL     1      11.043  10.539  16.134  1.00  0.00     0.210 HD
ENDBRANCH  31  35
BRANCH  32  37
HETATM   37  O7  UNL     1       8.659  12.204  17.971  1.00  0.00    -0.388 OA
HETATM   38  H41 UNL     1       8.597  11.499  17.292  1.00  0.00     0.210 HD
ENDBRANCH  32  37
ENDBRANCH  26  27
ENDBRANCH  17  26
BRANCH  18  39
HETATM   39  C29 UNL     1       8.618  15.612  23.502  1.00  0.00     0.176 C 
BRANCH  39  40
HETATM   40  O8  UNL     1       9.057  15.434  24.842  1.00  0.00    -0.400 OA
HETATM   41  H47 UNL     1       8.284  15.194  25.379  1.00  0.00     0.209 HD
ENDBRANCH  39  40
ENDBRANCH  18  39
BRANCH   1  42
HETATM   42  C2  UNL     1      -0.454  14.848  19.281  1.00  0.00    -0.088 C 
HETATM   43  C1  UNL     1      -0.587  15.291  18.016  1.00  0.00     0.014 C 
HETATM   44  C3  UNL     1      -0.483  15.829  20.423  1.00  0.00     0.043 C 
ENDBRANCH   1  42
BRANCH   4  45
HETATM   45  C8  UNL     1       1.114  10.388  17.795  1.00  0.00     0.149 C 
HETATM   46  O1  UNL     1       0.626  10.415  16.676  1.00  0.00    -0.649 OA
BRANCH  45  47
HETATM   47  O2  UNL     1       2.207   9.634  18.029  1.00  0.00    -0.776 OA
HETATM   48  H11 UNL     1       2.395   9.225  17.160  1.00  0.00     0.167 HD
ENDBRANCH  45  47
ENDBRANCH   4  45
TORSDOF 10
ENDMDL
MODEL 8
REMARK minimizedAffinity -6.7470336
REMARK CNNscore 0.149173319
REMARK CNNaffinity 5.40056419
REMARK  10 active torsions:
REMARK  status: ('A' for Active; 'I' for Inactive)
REMARK    1  A    between atoms: C2_2  and  C4_4 
REMARK    2  A    between atoms: C7_7  and  C8_8 
REMARK    3  A    between atoms: C8_8  and  O2_10 
REMARK    4  A    between atoms: C21_23  and  O3_24 
REMARK    5  A    between atoms: O3_24  and  C22_25 
REMARK    6  A    between atoms: C24_28  and  O5_29 
REMARK    7  A    between atoms: C25_30  and  O6_31 
REMARK    8  A    between atoms: C26_32  and  O7_33 
REMARK    9  A    between atoms: C27_34  and  C29_36 
REMARK   10  A    between atoms: C29_36  and  O8_37 
ROOT
HETATM    1  C4  UNL     1       5.364  12.741  21.637  1.00  0.00     0.019 C 
HETATM    2  C5  UNL     1       5.553  13.325  23.045  1.00  0.00     0.011 C 
HETATM    3  C6  UNL     1       6.720  14.296  22.927  1.00  0.00     0.021 C 
HETATM    4  C7  UNL     1       7.534  13.874  21.673  1.00  0.00     0.050 C 
HETATM    5  C9  UNL     1       7.551  15.032  20.650  1.00  0.00     0.022 C 
HETATM    6  C10 UNL     1       8.019  14.608  19.258  1.00  0.00     0.011 C 
HETATM    7  C11 UNL     1       7.147  13.482  18.630  1.00  0.00    -0.032 C 
HETATM    8  C12 UNL     1       5.710  14.052  18.433  1.00  0.00     0.016 C 
HETATM    9  C13 UNL     1       7.145  12.281  19.644  1.00  0.00     0.000 C 
HETATM   10  C14 UNL     1       6.409  11.060  19.088  1.00  0.00     0.006 C 
HETATM   11  C15 UNL     1       6.953  10.613  17.731  1.00  0.00     0.006 C 
HETATM   12  C16 UNL     1       6.899  11.745  16.684  1.00  0.00     0.003 C 
HETATM   13  C17 UNL     1       7.072  11.252  15.176  1.00  0.00    -0.035 C 
HETATM   14  C18 UNL     1       5.742  10.485  14.850  1.00  0.00     0.016 C 
HETATM   15  C19 UNL     1       8.239  10.247  15.012  1.00  0.00     0.012 C 
HETATM   16  C20 UNL     1       8.520   9.826  13.568  1.00  0.00     0.034 C 
HETATM   17  C21 UNL     1       8.780  11.015  12.641  1.00  0.00     0.135 C 
HETATM   18  C27 UNL     1       7.630  12.070  12.667  1.00  0.00     0.008 C 
HETATM   19  C28 UNL     1       8.094  13.325  11.868  1.00  0.00     0.020 C 
HETATM   20  C30 UNL     1       7.207  12.466  14.161  1.00  0.00     0.007 C 
HETATM   21  C31 UNL     1       8.080  13.611  14.728  1.00  0.00     0.007 C 
HETATM   22  C32 UNL     1       7.650  14.077  16.114  1.00  0.00     0.011 C 
HETATM   23  C33 UNL     1       7.748  12.974  17.190  1.00  0.00    -0.032 C 
HETATM   24  C34 UNL     1       9.265  12.639  17.333  1.00  0.00     0.016 C 
HETATM   25  C35 UNL     1       6.821  12.593  21.140  1.00  0.00     0.017 C 
ENDROOT
BRANCH  17  26
HETATM   26  O3  UNL     1      10.027  11.600  13.041  1.00  0.00    -0.352 OA
BRANCH  26  27
HETATM   27  C22 UNL     1      11.128  10.688  13.018  1.00  0.00     0.291 C 
HETATM   28  O4  UNL     1      11.717  10.678  11.710  1.00  0.00    -0.356 OA
HETATM   29  C23 UNL     1      12.750  11.655  11.550  1.00  0.00     0.205 C 
HETATM   30  C24 UNL     1      13.957  11.320  12.443  1.00  0.00     0.173 C 
HETATM   31  C25 UNL     1      13.518  10.575  13.711  1.00  0.00     0.182 C 
HETATM   32  C26 UNL     1      12.132  11.055  14.140  1.00  0.00     0.204 C 
BRANCH  30  33
HETATM   33  O5  UNL     1      14.883  10.495  11.719  1.00  0.00    -0.391 OA
HETATM   34  H37 UNL     1      15.679  10.389  12.272  1.00  0.00     0.210 HD
ENDBRANCH  30  33
BRANCH  31  35
HETATM   35  O6  UNL     1      14.460  10.794  14.777  1.00  0.00    -0.390 OA
HETATM   36  H39 UNL     1      15.131  10.089  14.707  1.00  0.00     0.210 HD
ENDBRANCH  31  35
BRANCH  32  37
HETATM   37  O7  UNL     1      11.775  10.423  15.381  1.00  0.00    -0.388 OA
HETATM   38  H41 UNL     1      12.573  10.510  15.943  1.00  0.00     0.210 HD
ENDBRANCH  32  37
ENDBRANCH  26  27
ENDBRANCH  17  26
BRANCH  18  39
HETATM   39  C29 UNL     1       6.440  11.501  11.828  1.00  0.00     0.176 C 
BRANCH  39  40
HETATM   40  O8  UNL     1       5.316  12.371  11.797  1.00  0.00    -0.400 OA
HETATM   41  H47 UNL     1       4.828  12.258  12.629  1.00  0.00     0.209 HD
ENDBRANCH  39  40
ENDBRANCH  18  39
BRANCH   1  42
HETATM   42  C2  UNL     1       4.475  11.510  21.669  1.00  0.00    -0.088 C 
HETATM   43  C1  UNL     1       3.455  11.375  20.801  1.00  0.00     0.014 C 
HETATM   44  C3  UNL     1       4.717  10.448  22.709  1.00  0.00     0.043 C 
ENDBRANCH   1  42
BRANCH   4  45
HETATM   45  C8  UNL     1       8.969  13.553  22.103  1.00  0.00     0.149 C 
HETATM   46  O1  UNL     1       9.429  12.456  22.376  1.00  0.00    -0.649 OA
BRANCH  45  47
HETATM   47  O2  UNL     1       9.761  14.642  22.159  1.00  0.00    -0.776 OA
HETATM   48  H11 UNL     1      10.628  14.283  22.438  1.00  0.00     0.167 HD
ENDBRANCH  45  47
ENDBRANCH   4  45
TORSDOF 10
ENDMDL
MODEL 9
REMARK minimizedAffinity -7.72586918
REMARK CNNscore 0.143418059
REMARK CNNaffinity 6.44841957
REMARK  10 active torsions:
REMARK  status: ('A' for Active; 'I' for Inactive)
REMARK    1  A    between atoms: C2_2  and  C4_4 
REMARK    2  A    between atoms: C7_7  and  C8_8 
REMARK    3  A    between atoms: C8_8  and  O2_10 
REMARK    4  A    between atoms: C21_23  and  O3_24 
REMARK    5  A    between atoms: O3_24  and  C22_25 
REMARK    6  A    between atoms: C24_28  and  O5_29 
REMARK    7  A    between atoms: C25_30  and  O6_31 
REMARK    8  A    between atoms: C26_32  and  O7_33 
REMARK    9  A    between atoms: C27_34  and  C29_36 
REMARK   10  A    between atoms: C29_36  and  O8_37 
ROOT
HETATM    1  C4  UNL     1      -6.142   4.558  13.067  1.00  0.00     0.019 C 
HETATM    2  C5  UNL     1      -6.213   3.239  12.284  1.00  0.00     0.011 C 
HETATM    3  C6  UNL     1      -4.772   2.758  12.171  1.00  0.00     0.021 C 
HETATM    4  C7  UNL     1      -3.864   4.003  12.363  1.00  0.00     0.050 C 
HETATM    5  C9  UNL     1      -2.957   3.799  13.597  1.00  0.00     0.022 C 
HETATM    6  C10 UNL     1      -2.282   5.085  14.076  1.00  0.00     0.011 C 
HETATM    7  C11 UNL     1      -3.292   6.207  14.456  1.00  0.00    -0.032 C 
HETATM    8  C12 UNL     1      -4.130   5.698  15.667  1.00  0.00     0.016 C 
HETATM    9  C13 UNL     1      -4.204   6.452  13.199  1.00  0.00     0.000 C 
HETATM   10  C14 UNL     1      -5.171   7.618  13.408  1.00  0.00     0.006 C 
HETATM   11  C15 UNL     1      -4.457   8.909  13.809  1.00  0.00     0.006 C 
HETATM   12  C16 UNL     1      -3.612   8.730  15.087  1.00  0.00     0.003 C 
HETATM   13  C17 UNL     1      -3.168  10.099  15.777  1.00  0.00    -0.035 C 
HETATM   14  C18 UNL     1      -4.491  10.690  16.380  1.00  0.00     0.016 C 
HETATM   15  C19 UNL     1      -2.624  11.127  14.755  1.00  0.00     0.012 C 
HETATM   16  C20 UNL     1      -2.082  12.417  15.376  1.00  0.00     0.034 C 
HETATM   17  C21 UNL     1      -0.997  12.164  16.423  1.00  0.00     0.135 C 
HETATM   18  C27 UNL     1      -1.455  11.189  17.552  1.00  0.00     0.008 C 
HETATM   19  C28 UNL     1      -0.218  10.833  18.430  1.00  0.00     0.020 C 
HETATM   20  C30 UNL     1      -2.141   9.865  16.966  1.00  0.00     0.007 C 
HETATM   21  C31 UNL     1      -1.101   8.769  16.637  1.00  0.00     0.007 C 
HETATM   22  C32 UNL     1      -1.724   7.461  16.160  1.00  0.00     0.011 C 
HETATM   23  C33 UNL     1      -2.530   7.606  14.852  1.00  0.00    -0.032 C 
HETATM   24  C34 UNL     1      -1.500   7.985  13.745  1.00  0.00     0.016 C 
HETATM   25  C35 UNL     1      -4.849   5.203  12.516  1.00  0.00     0.017 C 
ENDROOT
BRANCH  17  26
HETATM   26  O3  UNL     1       0.149  11.649  15.731  1.00  0.00    -0.352 OA
BRANCH  26  27
HETATM   27  C22 UNL     1       1.236  12.574  15.642  1.00  0.00     0.291 C 
HETATM   28  O4  UNL     1       1.238  13.190  14.346  1.00  0.00    -0.356 OA
HETATM   29  C23 UNL     1       0.449  14.382  14.288  1.00  0.00     0.205 C 
HETATM   30  C24 UNL     1       1.066  15.486  15.165  1.00  0.00     0.173 C 
HETATM   31  C25 UNL     1       1.827  14.886  16.355  1.00  0.00     0.182 C 
HETATM   32  C26 UNL     1       1.148  13.594  16.806  1.00  0.00     0.204 C 
BRANCH  30  33
HETATM   33  O5  UNL     1       1.976  16.274  14.383  1.00  0.00    -0.391 OA
HETATM   34  H37 UNL     1       2.268  17.023  14.935  1.00  0.00     0.210 HD
ENDBRANCH  30  33
BRANCH  31  35
HETATM   35  O6  UNL     1       1.869  15.821  17.449  1.00  0.00    -0.390 OA
HETATM   36  H39 UNL     1       2.673  16.360  17.326  1.00  0.00     0.210 HD
ENDBRANCH  31  35
BRANCH  32  37
HETATM   37  O7  UNL     1       1.810  13.096  17.981  1.00  0.00    -0.388 OA
HETATM   38  H41 UNL     1       1.914  13.880  18.560  1.00  0.00     0.210 HD
ENDBRANCH  32  37
ENDBRANCH  26  27
ENDBRANCH  17  26
BRANCH  18  39
HETATM   39  C29 UNL     1      -2.393  11.984  18.518  1.00  0.00     0.176 C 
BRANCH  39  40
HETATM   40  O8  UNL     1      -1.866  13.252  18.886  1.00  0.00    -0.400 OA
HETATM   41  H47 UNL     1      -1.209  13.110  19.587  1.00  0.00     0.209 HD
ENDBRANCH  39  40
ENDBRANCH  18  39
BRANCH   1  42
HETATM   42  C2  UNL     1      -7.446   5.331  12.959  1.00  0.00    -0.088 C 
HETATM   43  C1  UNL     1      -8.070   5.464  11.773  1.00  0.00     0.014 C 
HETATM   44  C3  UNL     1      -8.024   5.985  14.186  1.00  0.00     0.043 C 
ENDBRANCH   1  42
BRANCH   4  45
HETATM   45  C8  UNL     1      -2.994   4.175  11.114  1.00  0.00     0.149 C 
HETATM   46  O1  UNL     1      -1.914   4.737  11.038  1.00  0.00    -0.649 OA
BRANCH  45  47
HETATM   47  O2  UNL     1      -3.535   3.615  10.012  1.00  0.00    -0.776 OA
HETATM   48  H11 UNL     1      -2.876   3.800   9.313  1.00  0.00     0.167 HD
ENDBRANCH  45  47
ENDBRANCH   4  45
TORSDOF 10
ENDMDL
