MODEL 1
REMARK minimizedAffinity -7.63582468
REMARK CNNscore 0.68130374
REMARK CNNaffinity 7.15714455
REMARK  20 active torsions:
REMARK  status: ('A' for Active; 'I' for Inactive)
REMARK    1  A    between atoms: C2_2  and  O2_4 
REMARK    2  A    between atoms: O2_4  and  C3_5 
REMARK    3  A    between atoms: C5_7  and  O3_8 
REMARK    4  A    between atoms: C11_14  and  O4_15 
REMARK    5  A    between atoms: O4_15  and  C12_16 
REMARK    6  A    between atoms: C12_16  and  C13_18 
REMARK    7  A    between atoms: C13_18  and  C14_19 
REMARK    8  A    between atoms: C14_19  and  C15_20 
REMARK    9  A    between atoms: C15_20  and  C16_21 
REMARK   10  A    between atoms: C16_21  and  C17_22 
REMARK   11  A    between atoms: C17_22  and  C18_23 
REMARK   12  A    between atoms: C18_23  and  C19_24 
REMARK       I    between atoms: C19_24  and  N1_26 
REMARK   13  A    between atoms: N1_26  and  C20_27 
REMARK   14  A    between atoms: C20_27  and  C21_28 
REMARK   15  A    between atoms: C20_27  and  C25_36 
REMARK   16  A    between atoms: C21_28  and  C22_29 
REMARK   17  A    between atoms: C22_29  and  C23_30 
REMARK   18  A    between atoms: C23_30  and  N2_31 
REMARK       I    between atoms: C24_33  and  N3_34 
REMARK       I    between atoms: C24_33  and  N4_35 
REMARK   19  A    between atoms: C25_36  and  O8_38 
REMARK   20  A    between atoms: C35_48  and  C36_49 
ROOT
HETATM    1  C3  UNL     1       2.305   8.316  10.229  1.00  0.00     0.144 C 
HETATM    2  C4  UNL     1       0.833   8.599  10.516  1.00  0.00     0.072 C 
HETATM    3  C5  UNL     1       0.369   7.554  11.575  1.00  0.00     0.072 C 
HETATM    4  C6  UNL     1      -0.397   8.298  12.733  1.00  0.00     0.026 C 
HETATM    5  C7  UNL     1      -1.649   9.028  12.237  1.00  0.00     0.008 C 
HETATM    6  C8  UNL     1      -2.853   8.130  12.027  1.00  0.00     0.006 C 
HETATM    7  C9  UNL     1      -3.069   7.030  13.089  1.00  0.00    -0.004 C 
HETATM    8  C10 UNL     1      -4.576   6.938  13.423  1.00  0.00     0.038 C 
HETATM    9  C11 UNL     1      -5.050   8.135  14.250  1.00  0.00     0.132 C 
HETATM   10  C26 UNL     1      -4.241   8.267  15.539  1.00  0.00     0.033 C 
HETATM   11  C27 UNL     1      -2.737   8.328  15.272  1.00  0.00     0.012 C 
HETATM   12  C28 UNL     1      -2.195   7.171  14.371  1.00  0.00    -0.036 C 
HETATM   13  C29 UNL     1      -2.323   5.867  15.211  1.00  0.00     0.016 C 
HETATM   14  C30 UNL     1      -0.679   7.457  14.016  1.00  0.00     0.001 C 
HETATM   15  C31 UNL     1       0.257   6.237  14.074  1.00  0.00     0.007 C 
HETATM   16  C32 UNL     1       1.656   6.592  13.574  1.00  0.00     0.013 C 
HETATM   17  C33 UNL     1       1.673   6.799  12.043  1.00  0.00    -0.002 C 
HETATM   18  C34 UNL     1       1.821   5.390  11.406  1.00  0.00     0.019 C 
HETATM   19  C35 UNL     1       2.825   7.760  11.582  1.00  0.00     0.059 C 
ENDROOT
BRANCH   9  20
HETATM   20  O4  UNL     1      -6.436   7.938  14.591  1.00  0.00    -0.316 OA
BRANCH  20  21
HETATM   21  C12 UNL     1      -6.688   6.851  15.376  1.00  0.00     0.259 C 
HETATM   22  O5  UNL     1      -6.408   5.690  15.103  1.00  0.00    -0.265 OA
BRANCH  21  23
HETATM   23  C13 UNL     1      -7.458   7.250  16.609  1.00  0.00     0.111 C 
BRANCH  23  24
HETATM   24  C14 UNL     1      -8.930   7.505  16.297  1.00  0.00     0.010 C 
BRANCH  24  25
HETATM   25  C15 UNL     1      -9.581   6.524  15.314  1.00  0.00     0.000 C 
BRANCH  25  26
HETATM   26  C16 UNL     1     -10.206   7.147  14.063  1.00  0.00     0.000 C 
BRANCH  26  27
HETATM   27  C17 UNL     1     -11.111   8.355  14.302  1.00  0.00     0.009 C 
BRANCH  27  28
HETATM   28  C18 UNL     1     -11.763   8.877  13.025  1.00  0.00     0.103 C 
BRANCH  28  29
HETATM   29  C19 UNL     1     -13.250   9.133  13.199  1.00  0.00     0.218 C 
HETATM   30  O6  UNL     1     -13.878   8.862  14.215  1.00  0.00    -0.274 OA
HETATM   31  N1  UNL     1     -13.828   9.655  12.060  1.00  0.00    -0.347 N 
HETATM   32  H29 UNL     1     -13.212  10.188  11.455  1.00  0.00     0.163 HD
BRANCH  31  33
HETATM   33  C20 UNL     1     -15.238  10.075  12.050  1.00  0.00     0.182 C 
BRANCH  33  34
HETATM   34  C21 UNL     1     -15.472  10.967  13.277  1.00  0.00     0.038 C 
BRANCH  34  35
HETATM   35  C22 UNL     1     -16.443  12.132  13.046  1.00  0.00     0.022 C 
BRANCH  35  36
HETATM   36  C23 UNL     1     -16.524  12.648  11.611  1.00  0.00     0.121 C 
BRANCH  36  37
HETATM   37  N2  UNL     1     -17.894  12.495  11.137  1.00  0.00    -0.372 N 
HETATM   38  C24 UNL     1     -18.291  13.191  10.141  1.00  0.00     0.121 C 
HETATM   39  N3  UNL     1     -19.573  13.096   9.723  1.00  0.00    -0.279 NA
HETATM   40  N4  UNL     1     -17.628  14.089   9.375  1.00  0.00    -0.279 NA
HETATM   41  H37 UNL     1     -20.109  12.549  10.389  1.00  0.00     0.126 HD
HETATM   42  H38 UNL     1     -19.994  14.009   9.591  1.00  0.00     0.126 HD
HETATM   43  H39 UNL     1     -16.618  14.030   9.460  1.00  0.00     0.126 HD
HETATM   44  H40 UNL     1     -17.906  14.014   8.402  1.00  0.00     0.126 HD
ATOM     45  H2  UNL     1     -18.529  11.841  11.594  1.00  0.00     0.161 HD
ENDBRANCH  36  37
ENDBRANCH  35  36
ENDBRANCH  34  35
ENDBRANCH  33  34
BRANCH  33  46
HETATM   46  C25 UNL     1     -16.139   8.831  12.053  1.00  0.00     0.163 C 
HETATM   47  O7  UNL     1     -16.900   8.485  12.944  1.00  0.00    -0.648 OA
BRANCH  46  48
HETATM   48  O8  UNL     1     -15.990   8.044  10.962  1.00  0.00    -0.775 OA
HETATM   49  H41 UNL     1     -16.604   7.299  11.152  1.00  0.00     0.167 HD
ENDBRANCH  46  48
ENDBRANCH  33  46
ENDBRANCH  31  33
ENDBRANCH  28  29
ENDBRANCH  27  28
ENDBRANCH  26  27
ENDBRANCH  25  26
ENDBRANCH  24  25
ENDBRANCH  23  24
ENDBRANCH  21  23
ENDBRANCH  20  21
ENDBRANCH   9  20
BRANCH   3  50
HETATM   50  O3  UNL     1      -0.540   6.638  10.967  1.00  0.00    -0.389 OA
HETATM   51  H7  UNL     1      -0.186   6.377  10.097  1.00  0.00     0.210 HD
ENDBRANCH   3  50
BRANCH   1  52
HETATM   52  O2  UNL     1       2.392   7.356   9.163  1.00  0.00    -0.316 OA
BRANCH  52  53
HETATM   53  C2  UNL     1       2.536   7.879   7.908  1.00  0.00     0.255 C 
HETATM   54  C1  UNL     1       1.936   6.949   6.899  1.00  0.00     0.126 C 
HETATM   55  O1  UNL     1       3.077   8.943   7.641  1.00  0.00    -0.266 OA
ENDBRANCH  52  53
ENDBRANCH   1  52
BRANCH  19  56
HETATM   56  C36 UNL     1       4.267   7.244  11.624  1.00  0.00    -0.043 A 
HETATM   57  C37 UNL     1       5.175   7.556  12.560  1.00  0.00     0.090 A 
HETATM   58  C38 UNL     1       6.541   6.986  12.578  1.00  0.00     0.287 A 
HETATM   59  O9  UNL     1       7.326   7.302  13.461  1.00  0.00    -0.260 OA
HETATM   60  O10 UNL     1       6.863   6.097  11.590  1.00  0.00    -0.288 OA
HETATM   61  C39 UNL     1       5.891   5.754  10.650  1.00  0.00     0.146 A 
HETATM   62  C40 UNL     1       4.656   6.258  10.635  1.00  0.00     0.032 A 
ENDBRANCH  19  56
TORSDOF 20
ENDMDL
MODEL 2
REMARK minimizedAffinity -8.52892685
REMARK CNNscore 0.636353493
REMARK CNNaffinity 8.25405598
REMARK  20 active torsions:
REMARK  status: ('A' for Active; 'I' for Inactive)
REMARK    1  A    between atoms: C2_2  and  O2_4 
REMARK    2  A    between atoms: O2_4  and  C3_5 
REMARK    3  A    between atoms: C5_7  and  O3_8 
REMARK    4  A    between atoms: C11_14  and  O4_15 
REMARK    5  A    between atoms: O4_15  and  C12_16 
REMARK    6  A    between atoms: C12_16  and  C13_18 
REMARK    7  A    between atoms: C13_18  and  C14_19 
REMARK    8  A    between atoms: C14_19  and  C15_20 
REMARK    9  A    between atoms: C15_20  and  C16_21 
REMARK   10  A    between atoms: C16_21  and  C17_22 
REMARK   11  A    between atoms: C17_22  and  C18_23 
REMARK   12  A    between atoms: C18_23  and  C19_24 
REMARK       I    between atoms: C19_24  and  N1_26 
REMARK   13  A    between atoms: N1_26  and  C20_27 
REMARK   14  A    between atoms: C20_27  and  C21_28 
REMARK   15  A    between atoms: C20_27  and  C25_36 
REMARK   16  A    between atoms: C21_28  and  C22_29 
REMARK   17  A    between atoms: C22_29  and  C23_30 
REMARK   18  A    between atoms: C23_30  and  N2_31 
REMARK       I    between atoms: C24_33  and  N3_34 
REMARK       I    between atoms: C24_33  and  N4_35 
REMARK   19  A    between atoms: C25_36  and  O8_38 
REMARK   20  A    between atoms: C35_48  and  C36_49 
ROOT
HETATM    1  C3  UNL     1      -7.314   5.537  12.891  1.00  0.00     0.144 C 
HETATM    2  C4  UNL     1      -8.819   5.782  12.825  1.00  0.00     0.072 C 
HETATM    3  C5  UNL     1      -9.195   6.632  14.075  1.00  0.00     0.072 C 
HETATM    4  C6  UNL     1     -10.088   7.849  13.622  1.00  0.00     0.026 C 
HETATM    5  C7  UNL     1     -11.398   7.406  12.964  1.00  0.00     0.008 C 
HETATM    6  C8  UNL     1     -12.478   6.987  13.942  1.00  0.00     0.006 C 
HETATM    7  C9  UNL     1     -12.602   7.845  15.220  1.00  0.00    -0.004 C 
HETATM    8  C10 UNL     1     -14.099   8.075  15.532  1.00  0.00     0.038 C 
HETATM    9  C11 UNL     1     -14.742   9.054  14.549  1.00  0.00     0.132 C 
HETATM   10  C26 UNL     1     -14.004  10.392  14.543  1.00  0.00     0.033 C 
HETATM   11  C27 UNL     1     -12.509  10.223  14.273  1.00  0.00     0.012 C 
HETATM   12  C28 UNL     1     -11.800   9.180  15.198  1.00  0.00    -0.036 C 
HETATM   13  C29 UNL     1     -11.804   9.793  16.629  1.00  0.00     0.016 C 
HETATM   14  C30 UNL     1     -10.316   8.962  14.691  1.00  0.00     0.001 C 
HETATM   15  C31 UNL     1      -9.245   8.878  15.792  1.00  0.00     0.007 C 
HETATM   16  C32 UNL     1      -7.880   8.520  15.206  1.00  0.00     0.013 C 
HETATM   17  C33 UNL     1      -7.829   7.046  14.748  1.00  0.00    -0.002 C 
HETATM   18  C34 UNL     1      -7.492   6.201  16.007  1.00  0.00     0.019 C 
HETATM   19  C35 UNL     1      -6.783   6.811  13.602  1.00  0.00     0.059 C 
ENDROOT
BRANCH   9  20
HETATM   20  O4  UNL     1     -16.107   9.280  14.952  1.00  0.00    -0.316 OA
BRANCH  20  21
HETATM   21  C12 UNL     1     -17.049   8.749  14.119  1.00  0.00     0.259 C 
HETATM   22  O5  UNL     1     -17.678   9.362  13.267  1.00  0.00    -0.265 OA
BRANCH  21  23
HETATM   23  C13 UNL     1     -17.296   7.298  14.450  1.00  0.00     0.111 C 
BRANCH  23  24
HETATM   24  C14 UNL     1     -16.849   6.379  13.317  1.00  0.00     0.010 C 
BRANCH  24  25
HETATM   25  C15 UNL     1     -17.094   4.881  13.538  1.00  0.00     0.000 C 
BRANCH  25  26
HETATM   26  C16 UNL     1     -16.482   4.285  14.809  1.00  0.00     0.000 C 
BRANCH  26  27
HETATM   27  C17 UNL     1     -16.275   2.770  14.800  1.00  0.00     0.009 C 
BRANCH  27  28
HETATM   28  C18 UNL     1     -16.817   2.084  16.051  1.00  0.00     0.103 C 
BRANCH  28  29
HETATM   29  C19 UNL     1     -15.978   0.887  16.463  1.00  0.00     0.218 C 
HETATM   30  O6  UNL     1     -14.779   0.943  16.709  1.00  0.00    -0.274 OA
HETATM   31  N1  UNL     1     -16.708  -0.284  16.477  1.00  0.00    -0.347 N 
HETATM   32  H29 UNL     1     -17.702  -0.183  16.646  1.00  0.00     0.163 HD
BRANCH  31  33
HETATM   33  C20 UNL     1     -16.111  -1.543  16.951  1.00  0.00     0.182 C 
BRANCH  33  34
HETATM   34  C21 UNL     1     -16.105  -2.532  15.778  1.00  0.00     0.038 C 
BRANCH  34  35
HETATM   35  C22 UNL     1     -15.067  -2.228  14.690  1.00  0.00     0.022 C 
BRANCH  35  36
HETATM   36  C23 UNL     1     -14.914  -3.295  13.609  1.00  0.00     0.121 C 
BRANCH  36  37
HETATM   37  N2  UNL     1     -14.094  -2.754  12.532  1.00  0.00    -0.372 N 
HETATM   38  C24 UNL     1     -14.664  -2.291  11.485  1.00  0.00     0.121 C 
HETATM   39  N3  UNL     1     -13.913  -1.833  10.458  1.00  0.00    -0.279 NA
HETATM   40  N4  UNL     1     -15.976  -2.179  11.175  1.00  0.00    -0.279 NA
HETATM   41  H37 UNL     1     -12.938  -2.061  10.621  1.00  0.00     0.126 HD
HETATM   42  H38 UNL     1     -14.225  -2.208   9.569  1.00  0.00     0.126 HD
HETATM   43  H39 UNL     1     -16.594  -2.264  11.977  1.00  0.00     0.126 HD
HETATM   44  H40 UNL     1     -16.161  -1.315  10.676  1.00  0.00     0.126 HD
ATOM     45  H2  UNL     1     -13.077  -2.745  12.611  1.00  0.00     0.161 HD
ENDBRANCH  36  37
ENDBRANCH  35  36
ENDBRANCH  34  35
ENDBRANCH  33  34
BRANCH  33  46
HETATM   46  C25 UNL     1     -16.917  -2.066  18.150  1.00  0.00     0.163 C 
HETATM   47  O7  UNL     1     -18.133  -2.102  18.250  1.00  0.00    -0.648 OA
BRANCH  46  48
HETATM   48  O8  UNL     1     -16.150  -2.458  19.195  1.00  0.00    -0.775 OA
HETATM   49  H41 UNL     1     -16.823  -2.722  19.863  1.00  0.00     0.167 HD
ENDBRANCH  46  48
ENDBRANCH  33  46
ENDBRANCH  31  33
ENDBRANCH  28  29
ENDBRANCH  27  28
ENDBRANCH  26  27
ENDBRANCH  25  26
ENDBRANCH  24  25
ENDBRANCH  23  24
ENDBRANCH  21  23
ENDBRANCH  20  21
ENDBRANCH   9  20
BRANCH   3  50
HETATM   50  O3  UNL     1      -9.966   5.834  14.973  1.00  0.00    -0.389 OA
HETATM   51  H7  UNL     1      -9.551   4.956  15.045  1.00  0.00     0.210 HD
ENDBRANCH   3  50
BRANCH   1  52
HETATM   52  O2  UNL     1      -7.074   4.338  13.646  1.00  0.00    -0.316 OA
BRANCH  52  53
HETATM   53  C2  UNL     1      -7.072   3.177  12.924  1.00  0.00     0.255 C 
HETATM   54  C1  UNL     1      -5.792   3.058  12.157  1.00  0.00     0.126 C 
HETATM   55  O1  UNL     1      -7.980   2.357  12.899  1.00  0.00    -0.266 OA
ENDBRANCH  52  53
ENDBRANCH   1  52
BRANCH  19  56
HETATM   56  C36 UNL     1      -5.293   6.851  13.956  1.00  0.00    -0.043 A 
HETATM   57  C37 UNL     1      -4.330   7.396  13.197  1.00  0.00     0.090 A 
HETATM   58  C38 UNL     1      -2.911   7.450  13.614  1.00  0.00     0.287 A 
HETATM   59  O9  UNL     1      -2.077   7.966  12.883  1.00  0.00    -0.260 OA
HETATM   60  O10 UNL     1      -2.596   6.924  14.835  1.00  0.00    -0.288 OA
HETATM   61  C39 UNL     1      -3.617   6.399  15.627  1.00  0.00     0.146 A 
HETATM   62  C40 UNL     1      -4.899   6.356  15.260  1.00  0.00     0.032 A 
ENDBRANCH  19  56
TORSDOF 20
ENDMDL
MODEL 3
REMARK minimizedAffinity -7.80008554
REMARK CNNscore 0.560604751
REMARK CNNaffinity 8.21556759
REMARK  20 active torsions:
REMARK  status: ('A' for Active; 'I' for Inactive)
REMARK    1  A    between atoms: C2_2  and  O2_4 
REMARK    2  A    between atoms: O2_4  and  C3_5 
REMARK    3  A    between atoms: C5_7  and  O3_8 
REMARK    4  A    between atoms: C11_14  and  O4_15 
REMARK    5  A    between atoms: O4_15  and  C12_16 
REMARK    6  A    between atoms: C12_16  and  C13_18 
REMARK    7  A    between atoms: C13_18  and  C14_19 
REMARK    8  A    between atoms: C14_19  and  C15_20 
REMARK    9  A    between atoms: C15_20  and  C16_21 
REMARK   10  A    between atoms: C16_21  and  C17_22 
REMARK   11  A    between atoms: C17_22  and  C18_23 
REMARK   12  A    between atoms: C18_23  and  C19_24 
REMARK       I    between atoms: C19_24  and  N1_26 
REMARK   13  A    between atoms: N1_26  and  C20_27 
REMARK   14  A    between atoms: C20_27  and  C21_28 
REMARK   15  A    between atoms: C20_27  and  C25_36 
REMARK   16  A    between atoms: C21_28  and  C22_29 
REMARK   17  A    between atoms: C22_29  and  C23_30 
REMARK   18  A    between atoms: C23_30  and  N2_31 
REMARK       I    between atoms: C24_33  and  N3_34 
REMARK       I    between atoms: C24_33  and  N4_35 
REMARK   19  A    between atoms: C25_36  and  O8_38 
REMARK   20  A    between atoms: C35_48  and  C36_49 
ROOT
HETATM    1  C3  UNL     1      -7.439   5.847  13.165  1.00  0.00     0.144 C 
HETATM    2  C4  UNL     1      -8.918   6.006  12.826  1.00  0.00     0.072 C 
HETATM    3  C5  UNL     1      -9.560   6.841  13.975  1.00  0.00     0.072 C 
HETATM    4  C6  UNL     1     -10.422   8.001  13.349  1.00  0.00     0.026 C 
HETATM    5  C7  UNL     1     -11.565   7.481  12.473  1.00  0.00     0.008 C 
HETATM    6  C8  UNL     1     -12.780   7.007  13.249  1.00  0.00     0.006 C 
HETATM    7  C9  UNL     1     -13.179   7.865  14.470  1.00  0.00    -0.004 C 
HETATM    8  C10 UNL     1     -14.718   8.010  14.504  1.00  0.00     0.038 C 
HETATM    9  C11 UNL     1     -15.226   8.945  13.406  1.00  0.00     0.132 C 
HETATM   10  C26 UNL     1     -14.573  10.323  13.511  1.00  0.00     0.033 C 
HETATM   11  C27 UNL     1     -13.048  10.238  13.517  1.00  0.00     0.012 C 
HETATM   12  C28 UNL     1     -12.461   9.243  14.570  1.00  0.00    -0.036 C 
HETATM   13  C29 UNL     1     -12.756   9.863  15.967  1.00  0.00     0.016 C 
HETATM   14  C30 UNL     1     -10.900   9.107  14.341  1.00  0.00     0.001 C 
HETATM   15  C31 UNL     1     -10.041   9.090  15.618  1.00  0.00     0.007 C 
HETATM   16  C32 UNL     1      -8.575   8.807  15.293  1.00  0.00     0.013 C 
HETATM   17  C33 UNL     1      -8.362   7.335  14.875  1.00  0.00    -0.002 C 
HETATM   18  C34 UNL     1      -8.211   6.519  16.188  1.00  0.00     0.019 C 
HETATM   19  C35 UNL     1      -7.115   7.153  13.940  1.00  0.00     0.059 C 
ENDROOT
BRANCH   9  20
HETATM   20  O4  UNL     1     -16.652   9.095  13.554  1.00  0.00    -0.316 OA
BRANCH  20  21
HETATM   21  C12 UNL     1     -17.402   8.212  12.833  1.00  0.00     0.259 C 
HETATM   22  O5  UNL     1     -17.297   7.995  11.633  1.00  0.00    -0.265 OA
BRANCH  21  23
HETATM   23  C13 UNL     1     -18.468   7.587  13.699  1.00  0.00     0.111 C 
BRANCH  23  24
HETATM   24  C14 UNL     1     -17.889   6.519  14.622  1.00  0.00     0.010 C 
BRANCH  24  25
HETATM   25  C15 UNL     1     -17.278   5.297  13.925  1.00  0.00     0.000 C 
BRANCH  25  26
HETATM   26  C16 UNL     1     -16.005   4.732  14.562  1.00  0.00     0.000 C 
BRANCH  26  27
HETATM   27  C17 UNL     1     -16.176   3.436  15.355  1.00  0.00     0.009 C 
BRANCH  27  28
HETATM   28  C18 UNL     1     -17.630   2.980  15.450  1.00  0.00     0.103 C 
BRANCH  28  29
HETATM   29  C19 UNL     1     -17.874   1.672  14.718  1.00  0.00     0.218 C 
HETATM   30  O6  UNL     1     -18.089   0.604  15.277  1.00  0.00    -0.274 OA
HETATM   31  N1  UNL     1     -17.771   1.812  13.349  1.00  0.00    -0.347 N 
HETATM   32  H29 UNL     1     -17.981   2.733  12.981  1.00  0.00     0.163 HD
BRANCH  31  33
HETATM   33  C20 UNL     1     -18.077   0.689  12.448  1.00  0.00     0.182 C 
BRANCH  33  34
HETATM   34  C21 UNL     1     -16.761   0.226  11.809  1.00  0.00     0.038 C 
BRANCH  34  35
HETATM   35  C22 UNL     1     -15.679  -0.200  12.810  1.00  0.00     0.022 C 
BRANCH  35  36
HETATM   36  C23 UNL     1     -15.688  -1.676  13.201  1.00  0.00     0.121 C 
BRANCH  36  37
HETATM   37  N2  UNL     1     -16.137  -1.790  14.584  1.00  0.00    -0.372 N 
HETATM   38  C24 UNL     1     -15.298  -2.133  15.485  1.00  0.00     0.121 C 
HETATM   39  N3  UNL     1     -15.713  -2.292  16.763  1.00  0.00    -0.279 NA
HETATM   40  N4  UNL     1     -13.976  -2.408  15.399  1.00  0.00    -0.279 NA
HETATM   41  H37 UNL     1     -16.726  -2.242  16.801  1.00  0.00     0.126 HD
HETATM   42  H38 UNL     1     -15.382  -3.164  17.159  1.00  0.00     0.126 HD
HETATM   43  H39 UNL     1     -13.546  -2.073  14.542  1.00  0.00     0.126 HD
HETATM   44  H40 UNL     1     -13.476  -2.054  16.208  1.00  0.00     0.126 HD
ATOM     45  H2  UNL     1     -17.108  -1.599  14.829  1.00  0.00     0.161 HD
ENDBRANCH  36  37
ENDBRANCH  35  36
ENDBRANCH  34  35
ENDBRANCH  33  34
BRANCH  33  46
HETATM   46  C25 UNL     1     -19.104   1.144  11.400  1.00  0.00     0.163 C 
HETATM   47  O7  UNL     1     -19.449   0.528  10.403  1.00  0.00    -0.648 OA
BRANCH  46  48
HETATM   48  O8  UNL     1     -19.598   2.385  11.620  1.00  0.00    -0.775 OA
HETATM   49  H41 UNL     1     -20.196   2.514  10.850  1.00  0.00     0.167 HD
ENDBRANCH  46  48
ENDBRANCH  33  46
ENDBRANCH  31  33
ENDBRANCH  28  29
ENDBRANCH  27  28
ENDBRANCH  26  27
ENDBRANCH  25  26
ENDBRANCH  24  25
ENDBRANCH  23  24
ENDBRANCH  21  23
ENDBRANCH  20  21
ENDBRANCH   9  20
BRANCH   3  50
HETATM   50  O3  UNL     1     -10.435   6.005  14.732  1.00  0.00    -0.389 OA
HETATM   51  H7  UNL     1      -9.992   5.152  14.892  1.00  0.00     0.210 HD
ENDBRANCH   3  50
BRANCH   1  52
HETATM   52  O2  UNL     1      -7.273   4.668  13.970  1.00  0.00    -0.316 OA
BRANCH  52  53
HETATM   53  C2  UNL     1      -7.142   3.496  13.280  1.00  0.00     0.255 C 
HETATM   54  C1  UNL     1      -5.857   3.501  12.510  1.00  0.00     0.126 C 
HETATM   55  O1  UNL     1      -7.951   2.579  13.280  1.00  0.00    -0.266 OA
ENDBRANCH  52  53
ENDBRANCH   1  52
BRANCH  19  56
HETATM   56  C36 UNL     1      -5.718   7.281  14.555  1.00  0.00    -0.043 A 
HETATM   57  C37 UNL     1      -4.807   6.298  14.621  1.00  0.00     0.090 A 
HETATM   58  C38 UNL     1      -3.452   6.494  15.183  1.00  0.00     0.287 A 
HETATM   59  O9  UNL     1      -2.660   5.562  15.211  1.00  0.00    -0.260 OA
HETATM   60  O10 UNL     1      -3.136   7.743  15.639  1.00  0.00    -0.288 OA
HETATM   61  C39 UNL     1      -4.082   8.762  15.523  1.00  0.00     0.146 A 
HETATM   62  C40 UNL     1      -5.303   8.593  15.010  1.00  0.00     0.032 A 
ENDBRANCH  19  56
TORSDOF 20
ENDMDL
MODEL 4
REMARK minimizedAffinity -8.57057381
REMARK CNNscore 0.488378584
REMARK CNNaffinity 7.32659531
REMARK  20 active torsions:
REMARK  status: ('A' for Active; 'I' for Inactive)
REMARK    1  A    between atoms: C2_2  and  O2_4 
REMARK    2  A    between atoms: O2_4  and  C3_5 
REMARK    3  A    between atoms: C5_7  and  O3_8 
REMARK    4  A    between atoms: C11_14  and  O4_15 
REMARK    5  A    between atoms: O4_15  and  C12_16 
REMARK    6  A    between atoms: C12_16  and  C13_18 
REMARK    7  A    between atoms: C13_18  and  C14_19 
REMARK    8  A    between atoms: C14_19  and  C15_20 
REMARK    9  A    between atoms: C15_20  and  C16_21 
REMARK   10  A    between atoms: C16_21  and  C17_22 
REMARK   11  A    between atoms: C17_22  and  C18_23 
REMARK   12  A    between atoms: C18_23  and  C19_24 
REMARK       I    between atoms: C19_24  and  N1_26 
REMARK   13  A    between atoms: N1_26  and  C20_27 
REMARK   14  A    between atoms: C20_27  and  C21_28 
REMARK   15  A    between atoms: C20_27  and  C25_36 
REMARK   16  A    between atoms: C21_28  and  C22_29 
REMARK   17  A    between atoms: C22_29  and  C23_30 
REMARK   18  A    between atoms: C23_30  and  N2_31 
REMARK       I    between atoms: C24_33  and  N3_34 
REMARK       I    between atoms: C24_33  and  N4_35 
REMARK   19  A    between atoms: C25_36  and  O8_38 
REMARK   20  A    between atoms: C35_48  and  C36_49 
ROOT
HETATM    1  C3  UNL     1      -3.673   5.195  13.935  1.00  0.00     0.144 C 
HETATM    2  C4  UNL     1      -2.598   6.036  14.616  1.00  0.00     0.072 C 
HETATM    3  C5  UNL     1      -3.161   7.484  14.734  1.00  0.00     0.072 C 
HETATM    4  C6  UNL     1      -2.945   8.003  16.205  1.00  0.00     0.026 C 
HETATM    5  C7  UNL     1      -1.466   8.058  16.601  1.00  0.00     0.008 C 
HETATM    6  C8  UNL     1      -0.724   9.271  16.072  1.00  0.00     0.006 C 
HETATM    7  C9  UNL     1      -1.499  10.605  16.105  1.00  0.00    -0.004 C 
HETATM    8  C10 UNL     1      -0.546  11.732  16.569  1.00  0.00     0.038 C 
HETATM    9  C11 UNL     1      -0.226  11.628  18.062  1.00  0.00     0.132 C 
HETATM   10  C26 UNL     1      -1.503  11.651  18.900  1.00  0.00     0.033 C 
HETATM   11  C27 UNL     1      -2.500  10.579  18.462  1.00  0.00     0.012 C 
HETATM   12  C28 UNL     1      -2.819  10.581  16.932  1.00  0.00    -0.036 C 
HETATM   13  C29 UNL     1      -3.610  11.892  16.653  1.00  0.00     0.016 C 
HETATM   14  C30 UNL     1      -3.702   9.314  16.584  1.00  0.00     0.001 C 
HETATM   15  C31 UNL     1      -4.865   9.563  15.608  1.00  0.00     0.007 C 
HETATM   16  C32 UNL     1      -5.556   8.255  15.228  1.00  0.00     0.013 C 
HETATM   17  C33 UNL     1      -4.673   7.400  14.292  1.00  0.00    -0.002 C 
HETATM   18  C34 UNL     1      -4.915   7.927  12.851  1.00  0.00     0.019 C 
HETATM   19  C35 UNL     1      -4.992   5.867  14.403  1.00  0.00     0.059 C 
ENDROOT
BRANCH   9  20
HETATM   20  O4  UNL     1       0.594  12.752  18.435  1.00  0.00    -0.316 OA
BRANCH  20  21
HETATM   21  C12 UNL     1       1.744  12.432  19.096  1.00  0.00     0.259 C 
HETATM   22  O5  UNL     1       2.878  12.516  18.642  1.00  0.00    -0.265 OA
BRANCH  21  23
HETATM   23  C13 UNL     1       1.436  11.859  20.457  1.00  0.00     0.111 C 
BRANCH  23  24
HETATM   24  C14 UNL     1       2.651  11.165  21.064  1.00  0.00     0.010 C 
BRANCH  24  25
HETATM   25  C15 UNL     1       3.507  12.022  22.004  1.00  0.00     0.000 C 
BRANCH  25  26
HETATM   26  C16 UNL     1       4.832  11.401  22.455  1.00  0.00     0.000 C 
BRANCH  26  27
HETATM   27  C17 UNL     1       5.851  12.369  23.056  1.00  0.00     0.009 C 
BRANCH  27  28
HETATM   28  C18 UNL     1       7.261  11.789  23.123  1.00  0.00     0.103 C 
BRANCH  28  29
HETATM   29  C19 UNL     1       8.331  12.865  23.074  1.00  0.00     0.218 C 
HETATM   30  O6  UNL     1       9.373  12.825  23.718  1.00  0.00    -0.274 OA
HETATM   31  N1  UNL     1       7.974  13.922  22.263  1.00  0.00    -0.347 N 
HETATM   32  H29 UNL     1       7.333  13.703  21.508  1.00  0.00     0.163 HD
BRANCH  31  33
HETATM   33  C20 UNL     1       8.915  15.021  21.992  1.00  0.00     0.182 C 
BRANCH  33  34
HETATM   34  C21 UNL     1       8.096  16.305  21.801  1.00  0.00     0.038 C 
BRANCH  34  35
HETATM   35  C22 UNL     1       6.827  16.388  22.659  1.00  0.00     0.022 C 
BRANCH  35  36
HETATM   36  C23 UNL     1       7.056  16.590  24.155  1.00  0.00     0.121 C 
BRANCH  36  37
HETATM   37  N2  UNL     1       8.179  17.502  24.337  1.00  0.00    -0.372 N 
HETATM   38  C24 UNL     1       9.168  17.136  25.060  1.00  0.00     0.121 C 
HETATM   39  N3  UNL     1      10.193  17.991  25.277  1.00  0.00    -0.279 NA
HETATM   40  N4  UNL     1       9.397  15.974  25.714  1.00  0.00    -0.279 NA
HETATM   41  H37 UNL     1       9.952  18.910  24.922  1.00  0.00     0.126 HD
HETATM   42  H38 UNL     1      10.438  18.040  26.260  1.00  0.00     0.126 HD
HETATM   43  H39 UNL     1       8.810  15.207  25.402  1.00  0.00     0.126 HD
HETATM   44  H40 UNL     1      10.377  15.714  25.664  1.00  0.00     0.126 HD
ATOM     45  H2  UNL     1       8.176  18.420  23.894  1.00  0.00     0.161 HD
ENDBRANCH  36  37
ENDBRANCH  35  36
ENDBRANCH  34  35
ENDBRANCH  33  34
BRANCH  33  46
HETATM   46  C25 UNL     1       9.755  14.677  20.753  1.00  0.00     0.163 C 
HETATM   47  O7  UNL     1       9.723  13.634  20.118  1.00  0.00    -0.648 OA
BRANCH  46  48
HETATM   48  O8  UNL     1      10.647  15.637  20.412  1.00  0.00    -0.775 OA
HETATM   49  H41 UNL     1      11.105  15.236  19.640  1.00  0.00     0.167 HD
ENDBRANCH  46  48
ENDBRANCH  33  46
ENDBRANCH  31  33
ENDBRANCH  28  29
ENDBRANCH  27  28
ENDBRANCH  26  27
ENDBRANCH  25  26
ENDBRANCH  24  25
ENDBRANCH  23  24
ENDBRANCH  21  23
ENDBRANCH  20  21
ENDBRANCH   9  20
BRANCH   3  50
HETATM   50  O3  UNL     1      -2.437   8.344  13.856  1.00  0.00    -0.389 OA
HETATM   51  H7  UNL     1      -2.328   7.895  12.998  1.00  0.00     0.210 HD
ENDBRANCH   3  50
BRANCH   1  52
HETATM   52  O2  UNL     1      -3.486   5.268  12.512  1.00  0.00    -0.316 OA
BRANCH  52  53
HETATM   53  C2  UNL     1      -3.005   4.134  11.921  1.00  0.00     0.255 C 
HETATM   54  C1  UNL     1      -4.059   3.532  11.044  1.00  0.00     0.126 C 
HETATM   55  O1  UNL     1      -1.885   3.670  12.084  1.00  0.00    -0.266 OA
ENDBRANCH  52  53
ENDBRANCH   1  52
BRANCH  19  56
HETATM   56  C36 UNL     1      -6.301   5.349  13.799  1.00  0.00    -0.043 A 
HETATM   57  C37 UNL     1      -6.595   4.060  13.576  1.00  0.00     0.090 A 
HETATM   58  C38 UNL     1      -7.898   3.614  13.034  1.00  0.00     0.287 A 
HETATM   59  O9  UNL     1      -8.113   2.423  12.858  1.00  0.00    -0.260 OA
HETATM   60  O10 UNL     1      -8.830   4.578  12.768  1.00  0.00    -0.288 OA
HETATM   61  C39 UNL     1      -8.521   5.909  13.046  1.00  0.00     0.146 A 
HETATM   62  C40 UNL     1      -7.350   6.316  13.542  1.00  0.00     0.032 A 
ENDBRANCH  19  56
TORSDOF 20
ENDMDL
MODEL 5
REMARK minimizedAffinity -7.82639647
REMARK CNNscore 0.415121377
REMARK CNNaffinity 7.40887594
REMARK  20 active torsions:
REMARK  status: ('A' for Active; 'I' for Inactive)
REMARK    1  A    between atoms: C2_2  and  O2_4 
REMARK    2  A    between atoms: O2_4  and  C3_5 
REMARK    3  A    between atoms: C5_7  and  O3_8 
REMARK    4  A    between atoms: C11_14  and  O4_15 
REMARK    5  A    between atoms: O4_15  and  C12_16 
REMARK    6  A    between atoms: C12_16  and  C13_18 
REMARK    7  A    between atoms: C13_18  and  C14_19 
REMARK    8  A    between atoms: C14_19  and  C15_20 
REMARK    9  A    between atoms: C15_20  and  C16_21 
REMARK   10  A    between atoms: C16_21  and  C17_22 
REMARK   11  A    between atoms: C17_22  and  C18_23 
REMARK   12  A    between atoms: C18_23  and  C19_24 
REMARK       I    between atoms: C19_24  and  N1_26 
REMARK   13  A    between atoms: N1_26  and  C20_27 
REMARK   14  A    between atoms: C20_27  and  C21_28 
REMARK   15  A    between atoms: C20_27  and  C25_36 
REMARK   16  A    between atoms: C21_28  and  C22_29 
REMARK   17  A    between atoms: C22_29  and  C23_30 
REMARK   18  A    between atoms: C23_30  and  N2_31 
REMARK       I    between atoms: C24_33  and  N3_34 
REMARK       I    between atoms: C24_33  and  N4_35 
REMARK   19  A    between atoms: C25_36  and  O8_38 
REMARK   20  A    between atoms: C35_48  and  C36_49 
ROOT
HETATM    1  C3  UNL     1      -5.778   6.757  13.556  1.00  0.00     0.144 C 
HETATM    2  C4  UNL     1      -5.332   8.074  14.184  1.00  0.00     0.072 C 
HETATM    3  C5  UNL     1      -3.917   7.831  14.790  1.00  0.00     0.072 C 
HETATM    4  C6  UNL     1      -2.955   8.992  14.333  1.00  0.00     0.026 C 
HETATM    5  C7  UNL     1      -3.423  10.369  14.812  1.00  0.00     0.008 C 
HETATM    6  C8  UNL     1      -3.090  10.673  16.260  1.00  0.00     0.006 C 
HETATM    7  C9  UNL     1      -1.701  10.208  16.746  1.00  0.00    -0.004 C 
HETATM    8  C10 UNL     1      -1.080  11.312  17.633  1.00  0.00     0.038 C 
HETATM    9  C11 UNL     1      -0.629  12.519  16.809  1.00  0.00     0.132 C 
HETATM   10  C26 UNL     1       0.366  12.104  15.725  1.00  0.00     0.033 C 
HETATM   11  C27 UNL     1      -0.182  10.988  14.837  1.00  0.00     0.012 C 
HETATM   12  C28 UNL     1      -0.728   9.750  15.620  1.00  0.00    -0.036 C 
HETATM   13  C29 UNL     1       0.509   9.067  16.272  1.00  0.00     0.016 C 
HETATM   14  C30 UNL     1      -1.435   8.764  14.603  1.00  0.00     0.001 C 
HETATM   15  C31 UNL     1      -1.147   7.268  14.820  1.00  0.00     0.007 C 
HETATM   16  C32 UNL     1      -1.990   6.403  13.884  1.00  0.00     0.013 C 
HETATM   17  C33 UNL     1      -3.476   6.396  14.306  1.00  0.00    -0.002 C 
HETATM   18  C34 UNL     1      -3.619   5.312  15.410  1.00  0.00     0.019 C 
HETATM   19  C35 UNL     1      -4.440   6.116  13.099  1.00  0.00     0.059 C 
ENDROOT
BRANCH   9  20
HETATM   20  O4  UNL     1       0.011  13.464  17.688  1.00  0.00    -0.316 OA
BRANCH  20  21
HETATM   21  C12 UNL     1      -0.838  14.174  18.487  1.00  0.00     0.259 C 
HETATM   22  O5  UNL     1      -1.922  14.633  18.150  1.00  0.00    -0.265 OA
BRANCH  21  23
HETATM   23  C13 UNL     1      -0.221  14.414  19.842  1.00  0.00     0.111 C 
BRANCH  23  24
HETATM   24  C14 UNL     1       1.229  13.942  19.892  1.00  0.00     0.010 C 
BRANCH  24  25
HETATM   25  C15 UNL     1       1.743  13.514  21.272  1.00  0.00     0.000 C 
BRANCH  25  26
HETATM   26  C16 UNL     1       3.205  13.064  21.330  1.00  0.00     0.000 C 
BRANCH  26  27
HETATM   27  C17 UNL     1       3.449  11.669  21.905  1.00  0.00     0.009 C 
BRANCH  27  28
HETATM   28  C18 UNL     1       4.800  11.537  22.604  1.00  0.00     0.103 C 
BRANCH  28  29
HETATM   29  C19 UNL     1       5.932  12.140  21.793  1.00  0.00     0.218 C 
HETATM   30  O6  UNL     1       6.229  11.782  20.659  1.00  0.00    -0.274 OA
HETATM   31  N1  UNL     1       6.627  13.102  22.497  1.00  0.00    -0.347 N 
HETATM   32  H29 UNL     1       6.103  13.587  23.217  1.00  0.00     0.163 HD
BRANCH  31  33
HETATM   33  C20 UNL     1       7.695  13.886  21.858  1.00  0.00     0.182 C 
BRANCH  33  34
HETATM   34  C21 UNL     1       8.389  12.985  20.828  1.00  0.00     0.038 C 
BRANCH  34  35
HETATM   35  C22 UNL     1       9.070  13.735  19.676  1.00  0.00     0.022 C 
BRANCH  35  36
HETATM   36  C23 UNL     1      10.583  13.557  19.577  1.00  0.00     0.121 C 
BRANCH  36  37
HETATM   37  N2  UNL     1      10.865  12.201  19.123  1.00  0.00    -0.372 N 
HETATM   38  C24 UNL     1      11.758  11.514  19.726  1.00  0.00     0.121 C 
HETATM   39  N3  UNL     1      12.065  10.274  19.283  1.00  0.00    -0.279 NA
HETATM   40  N4  UNL     1      12.529  11.819  20.796  1.00  0.00    -0.279 NA
HETATM   41  H37 UNL     1      11.606  10.106  18.394  1.00  0.00     0.126 HD
HETATM   42  H38 UNL     1      13.067  10.142  19.199  1.00  0.00     0.126 HD
HETATM   43  H39 UNL     1      12.190  12.613  21.330  1.00  0.00     0.126 HD
HETATM   44  H40 UNL     1      12.651  11.012  21.399  1.00  0.00     0.126 HD
ATOM     45  H2  UNL     1      10.357  11.805  18.332  1.00  0.00     0.161 HD
ENDBRANCH  36  37
ENDBRANCH  35  36
ENDBRANCH  34  35
ENDBRANCH  33  34
BRANCH  33  46
HETATM   46  C25 UNL     1       8.666  14.395  22.934  1.00  0.00     0.163 C 
HETATM   47  O7  UNL     1       9.143  15.517  23.013  1.00  0.00    -0.648 OA
BRANCH  46  48
HETATM   48  O8  UNL     1       9.044  13.446  23.823  1.00  0.00    -0.775 OA
HETATM   49  H41 UNL     1       9.675  13.935  24.398  1.00  0.00     0.167 HD
ENDBRANCH  46  48
ENDBRANCH  33  46
ENDBRANCH  31  33
ENDBRANCH  28  29
ENDBRANCH  27  28
ENDBRANCH  26  27
ENDBRANCH  25  26
ENDBRANCH  24  25
ENDBRANCH  23  24
ENDBRANCH  21  23
ENDBRANCH  20  21
ENDBRANCH   9  20
BRANCH   3  50
HETATM   50  O3  UNL     1      -4.002   7.868  16.214  1.00  0.00    -0.389 OA
HETATM   51  H7  UNL     1      -4.783   7.358  16.494  1.00  0.00     0.210 HD
ENDBRANCH   3  50
BRANCH   1  52
HETATM   52  O2  UNL     1      -6.457   5.975  14.553  1.00  0.00    -0.316 OA
BRANCH  52  53
HETATM   53  C2  UNL     1      -7.777   6.275  14.741  1.00  0.00     0.255 C 
HETATM   54  C1  UNL     1      -8.037   6.534  16.193  1.00  0.00     0.126 C 
HETATM   55  O1  UNL     1      -8.625   6.321  13.861  1.00  0.00    -0.266 OA
ENDBRANCH  52  53
ENDBRANCH   1  52
BRANCH  19  56
HETATM   56  C36 UNL     1      -4.497   4.696  12.526  1.00  0.00    -0.043 A 
HETATM   57  C37 UNL     1      -3.432   3.945  12.207  1.00  0.00     0.090 A 
HETATM   58  C38 UNL     1      -3.547   2.559  11.702  1.00  0.00     0.287 A 
HETATM   59  O9  UNL     1      -2.540   1.918  11.435  1.00  0.00    -0.260 OA
HETATM   60  O10 UNL     1      -4.806   2.041  11.574  1.00  0.00    -0.288 OA
HETATM   61  C39 UNL     1      -5.898   2.822  11.950  1.00  0.00     0.146 A 
HETATM   62  C40 UNL     1      -5.799   4.070  12.413  1.00  0.00     0.032 A 
ENDBRANCH  19  56
TORSDOF 20
ENDMDL
MODEL 6
REMARK minimizedAffinity -8.16376495
REMARK CNNscore 0.400565237
REMARK CNNaffinity 7.07614946
REMARK  20 active torsions:
REMARK  status: ('A' for Active; 'I' for Inactive)
REMARK    1  A    between atoms: C2_2  and  O2_4 
REMARK    2  A    between atoms: O2_4  and  C3_5 
REMARK    3  A    between atoms: C5_7  and  O3_8 
REMARK    4  A    between atoms: C11_14  and  O4_15 
REMARK    5  A    between atoms: O4_15  and  C12_16 
REMARK    6  A    between atoms: C12_16  and  C13_18 
REMARK    7  A    between atoms: C13_18  and  C14_19 
REMARK    8  A    between atoms: C14_19  and  C15_20 
REMARK    9  A    between atoms: C15_20  and  C16_21 
REMARK   10  A    between atoms: C16_21  and  C17_22 
REMARK   11  A    between atoms: C17_22  and  C18_23 
REMARK   12  A    between atoms: C18_23  and  C19_24 
REMARK       I    between atoms: C19_24  and  N1_26 
REMARK   13  A    between atoms: N1_26  and  C20_27 
REMARK   14  A    between atoms: C20_27  and  C21_28 
REMARK   15  A    between atoms: C20_27  and  C25_36 
REMARK   16  A    between atoms: C21_28  and  C22_29 
REMARK   17  A    between atoms: C22_29  and  C23_30 
REMARK   18  A    between atoms: C23_30  and  N2_31 
REMARK       I    between atoms: C24_33  and  N3_34 
REMARK       I    between atoms: C24_33  and  N4_35 
REMARK   19  A    between atoms: C25_36  and  O8_38 
REMARK   20  A    between atoms: C35_48  and  C36_49 
ROOT
HETATM    1  C3  UNL     1      -3.554   5.214  13.798  1.00  0.00     0.144 C 
HETATM    2  C4  UNL     1      -2.409   5.997  14.434  1.00  0.00     0.072 C 
HETATM    3  C5  UNL     1      -2.917   7.457  14.637  1.00  0.00     0.072 C 
HETATM    4  C6  UNL     1      -2.589   7.917  16.107  1.00  0.00     0.026 C 
HETATM    5  C7  UNL     1      -1.086   7.913  16.406  1.00  0.00     0.008 C 
HETATM    6  C8  UNL     1      -0.341   9.120  15.870  1.00  0.00     0.006 C 
HETATM    7  C9  UNL     1      -1.068  10.476  15.999  1.00  0.00    -0.004 C 
HETATM    8  C10 UNL     1      -0.051  11.556  16.437  1.00  0.00     0.038 C 
HETATM    9  C11 UNL     1       0.361  11.390  17.900  1.00  0.00     0.132 C 
HETATM   10  C26 UNL     1      -0.857  11.422  18.822  1.00  0.00     0.033 C 
HETATM   11  C27 UNL     1      -1.914  10.397  18.415  1.00  0.00     0.012 C 
HETATM   12  C28 UNL     1      -2.331  10.463  16.909  1.00  0.00    -0.036 C 
HETATM   13  C29 UNL     1      -3.096  11.806  16.728  1.00  0.00     0.016 C 
HETATM   14  C30 UNL     1      -3.276   9.236  16.579  1.00  0.00     0.001 C 
HETATM   15  C31 UNL     1      -4.491   9.555  15.690  1.00  0.00     0.007 C 
HETATM   16  C32 UNL     1      -5.248   8.283  15.313  1.00  0.00     0.013 C 
HETATM   17  C33 UNL     1      -4.456   7.435  14.293  1.00  0.00    -0.002 C 
HETATM   18  C34 UNL     1      -4.774   8.020  12.889  1.00  0.00     0.019 C 
HETATM   19  C35 UNL     1      -4.817   5.910  14.374  1.00  0.00     0.059 C 
ENDROOT
BRANCH   9  20
HETATM   20  O4  UNL     1       1.241  12.474  18.256  1.00  0.00    -0.316 OA
BRANCH  20  21
HETATM   21  C12 UNL     1       2.547  12.122  18.436  1.00  0.00     0.259 C 
HETATM   22  O5  UNL     1       3.204  11.405  17.693  1.00  0.00    -0.265 OA
BRANCH  21  23
HETATM   23  C13 UNL     1       3.069  12.661  19.745  1.00  0.00     0.111 C 
BRANCH  23  24
HETATM   24  C14 UNL     1       4.569  12.930  19.684  1.00  0.00     0.010 C 
BRANCH  24  25
HETATM   25  C15 UNL     1       5.454  11.952  20.467  1.00  0.00     0.000 C 
BRANCH  25  26
HETATM   26  C16 UNL     1       4.996  11.631  21.893  1.00  0.00     0.000 C 
BRANCH  26  27
HETATM   27  C17 UNL     1       6.072  11.724  22.974  1.00  0.00     0.009 C 
BRANCH  27  28
HETATM   28  C18 UNL     1       6.650  13.128  23.125  1.00  0.00     0.103 C 
BRANCH  28  29
HETATM   29  C19 UNL     1       8.145  13.169  22.860  1.00  0.00     0.218 C 
HETATM   30  O6  UNL     1       8.995  13.247  23.739  1.00  0.00    -0.274 OA
HETATM   31  N1  UNL     1       8.438  13.165  21.511  1.00  0.00    -0.347 N 
HETATM   32  H29 UNL     1       7.751  12.721  20.911  1.00  0.00     0.163 HD
BRANCH  31  33
HETATM   33  C20 UNL     1       9.830  13.094  21.038  1.00  0.00     0.182 C 
BRANCH  33  34
HETATM   34  C21 UNL     1      10.096  14.330  20.170  1.00  0.00     0.038 C 
BRANCH  34  35
HETATM   35  C22 UNL     1       9.029  15.428  20.275  1.00  0.00     0.022 C 
BRANCH  35  36
HETATM   36  C23 UNL     1       9.289  16.501  21.330  1.00  0.00     0.121 C 
BRANCH  36  37
HETATM   37  N2  UNL     1      10.366  17.365  20.861  1.00  0.00    -0.372 N 
HETATM   38  C24 UNL     1      11.270  17.737  21.684  1.00  0.00     0.121 C 
HETATM   39  N3  UNL     1      12.245  18.580  21.274  1.00  0.00    -0.279 NA
HETATM   40  N4  UNL     1      11.443  17.442  22.993  1.00  0.00    -0.279 NA
HETATM   41  H37 UNL     1      12.029  18.926  20.345  1.00  0.00     0.126 HD
HETATM   42  H38 UNL     1      12.372  19.350  21.921  1.00  0.00     0.126 HD
HETATM   43  H39 UNL     1      10.912  16.635  23.303  1.00  0.00     0.126 HD
HETATM   44  H40 UNL     1      12.427  17.326  23.213  1.00  0.00     0.126 HD
ATOM     45  H2  UNL     1      10.397  17.670  19.888  1.00  0.00     0.161 HD
ENDBRANCH  36  37
ENDBRANCH  35  36
ENDBRANCH  34  35
ENDBRANCH  33  34
BRANCH  33  46
HETATM   46  C25 UNL     1      10.036  11.783  20.264  1.00  0.00     0.163 C 
HETATM   47  O7  UNL     1      11.063  11.125  20.207  1.00  0.00    -0.648 OA
BRANCH  46  48
HETATM   48  O8  UNL     1       8.957  11.398  19.542  1.00  0.00    -0.775 OA
HETATM   49  H41 UNL     1       9.280  10.581  19.099  1.00  0.00     0.167 HD
ENDBRANCH  46  48
ENDBRANCH  33  46
ENDBRANCH  31  33
ENDBRANCH  28  29
ENDBRANCH  27  28
ENDBRANCH  26  27
ENDBRANCH  25  26
ENDBRANCH  24  25
ENDBRANCH  23  24
ENDBRANCH  21  23
ENDBRANCH  20  21
ENDBRANCH   9  20
BRANCH   3  50
HETATM   50  O3  UNL     1      -2.223   8.326  13.742  1.00  0.00    -0.389 OA
HETATM   51  H7  UNL     1      -2.185   7.904  12.864  1.00  0.00     0.210 HD
ENDBRANCH   3  50
BRANCH   1  52
HETATM   52  O2  UNL     1      -3.457   5.332  12.369  1.00  0.00    -0.316 OA
BRANCH  52  53
HETATM   53  C2  UNL     1      -2.821   4.303  11.733  1.00  0.00     0.255 C 
HETATM   54  C1  UNL     1      -3.749   3.665  10.746  1.00  0.00     0.126 C 
HETATM   55  O1  UNL     1      -1.669   3.947  11.939  1.00  0.00    -0.266 OA
ENDBRANCH  52  53
ENDBRANCH   1  52
BRANCH  19  56
HETATM   56  C36 UNL     1      -6.179   5.453  13.840  1.00  0.00    -0.043 A 
HETATM   57  C37 UNL     1      -7.281   6.215  13.776  1.00  0.00     0.090 A 
HETATM   58  C38 UNL     1      -8.558   5.734  13.204  1.00  0.00     0.287 A 
HETATM   59  O9  UNL     1      -9.530   6.476  13.165  1.00  0.00    -0.260 OA
HETATM   60  O10 UNL     1      -8.587   4.457  12.717  1.00  0.00    -0.288 OA
HETATM   61  C39 UNL     1      -7.419   3.695  12.755  1.00  0.00     0.146 A 
HETATM   62  C40 UNL     1      -6.262   4.127  13.263  1.00  0.00     0.032 A 
ENDBRANCH  19  56
TORSDOF 20
ENDMDL
MODEL 7
REMARK minimizedAffinity -8.68118763
REMARK CNNscore 0.373054594
REMARK CNNaffinity 7.44586706
REMARK  20 active torsions:
REMARK  status: ('A' for Active; 'I' for Inactive)
REMARK    1  A    between atoms: C2_2  and  O2_4 
REMARK    2  A    between atoms: O2_4  and  C3_5 
REMARK    3  A    between atoms: C5_7  and  O3_8 
REMARK    4  A    between atoms: C11_14  and  O4_15 
REMARK    5  A    between atoms: O4_15  and  C12_16 
REMARK    6  A    between atoms: C12_16  and  C13_18 
REMARK    7  A    between atoms: C13_18  and  C14_19 
REMARK    8  A    between atoms: C14_19  and  C15_20 
REMARK    9  A    between atoms: C15_20  and  C16_21 
REMARK   10  A    between atoms: C16_21  and  C17_22 
REMARK   11  A    between atoms: C17_22  and  C18_23 
REMARK   12  A    between atoms: C18_23  and  C19_24 
REMARK       I    between atoms: C19_24  and  N1_26 
REMARK   13  A    between atoms: N1_26  and  C20_27 
REMARK   14  A    between atoms: C20_27  and  C21_28 
REMARK   15  A    between atoms: C20_27  and  C25_36 
REMARK   16  A    between atoms: C21_28  and  C22_29 
REMARK   17  A    between atoms: C22_29  and  C23_30 
REMARK   18  A    between atoms: C23_30  and  N2_31 
REMARK       I    between atoms: C24_33  and  N3_34 
REMARK       I    between atoms: C24_33  and  N4_35 
REMARK   19  A    between atoms: C25_36  and  O8_38 
REMARK   20  A    between atoms: C35_48  and  C36_49 
ROOT
HETATM    1  C3  UNL     1      -3.633   5.192  13.830  1.00  0.00     0.144 C 
HETATM    2  C4  UNL     1      -2.517   5.992  14.493  1.00  0.00     0.072 C 
HETATM    3  C5  UNL     1      -3.049   7.445  14.678  1.00  0.00     0.072 C 
HETATM    4  C6  UNL     1      -2.767   7.914  16.156  1.00  0.00     0.026 C 
HETATM    5  C7  UNL     1      -1.273   7.931  16.493  1.00  0.00     0.008 C 
HETATM    6  C8  UNL     1      -0.530   9.147  15.973  1.00  0.00     0.006 C 
HETATM    7  C9  UNL     1      -1.279  10.493  16.079  1.00  0.00    -0.004 C 
HETATM    8  C10 UNL     1      -0.288  11.588  16.540  1.00  0.00     0.038 C 
HETATM    9  C11 UNL     1       0.087  11.431  18.015  1.00  0.00     0.132 C 
HETATM   10  C26 UNL     1      -1.155  11.449  18.904  1.00  0.00     0.033 C 
HETATM   11  C27 UNL     1      -2.187  10.408  18.472  1.00  0.00     0.012 C 
HETATM   12  C28 UNL     1      -2.565  10.464  16.956  1.00  0.00    -0.036 C 
HETATM   13  C29 UNL     1      -3.344  11.797  16.751  1.00  0.00     0.016 C 
HETATM   14  C30 UNL     1      -3.484   9.224  16.605  1.00  0.00     0.001 C 
HETATM   15  C31 UNL     1      -4.680   9.524  15.684  1.00  0.00     0.007 C 
HETATM   16  C32 UNL     1      -5.409   8.240  15.291  1.00  0.00     0.013 C 
HETATM   17  C33 UNL     1      -4.579   7.401  14.294  1.00  0.00    -0.002 C 
HETATM   18  C34 UNL     1      -4.867   7.977  12.881  1.00  0.00     0.019 C 
HETATM   19  C35 UNL     1      -4.920   5.871  14.370  1.00  0.00     0.059 C 
ENDROOT
BRANCH   9  20
HETATM   20  O4  UNL     1       0.942  12.529  18.390  1.00  0.00    -0.316 OA
BRANCH  20  21
HETATM   21  C12 UNL     1       2.032  12.183  19.134  1.00  0.00     0.259 C 
HETATM   22  O5  UNL     1       3.124  11.849  18.691  1.00  0.00    -0.265 OA
BRANCH  21  23
HETATM   23  C13 UNL     1       1.694  12.170  20.603  1.00  0.00     0.111 C 
BRANCH  23  24
HETATM   24  C14 UNL     1       2.818  11.557  21.434  1.00  0.00     0.010 C 
BRANCH  24  25
HETATM   25  C15 UNL     1       3.639  12.543  22.274  1.00  0.00     0.000 C 
BRANCH  25  26
HETATM   26  C16 UNL     1       4.964  12.010  22.825  1.00  0.00     0.000 C 
BRANCH  26  27
HETATM   27  C17 UNL     1       6.171  12.934  22.664  1.00  0.00     0.009 C 
BRANCH  27  28
HETATM   28  C18 UNL     1       7.475  12.306  23.148  1.00  0.00     0.103 C 
BRANCH  28  29
HETATM   29  C19 UNL     1       8.479  12.119  22.023  1.00  0.00     0.218 C 
HETATM   30  O6  UNL     1       9.684  11.982  22.197  1.00  0.00    -0.274 OA
HETATM   31  N1  UNL     1       7.888  12.178  20.778  1.00  0.00    -0.347 N 
HETATM   32  H29 UNL     1       6.912  11.905  20.739  1.00  0.00     0.163 HD
BRANCH  31  33
HETATM   33  C20 UNL     1       8.665  11.915  19.557  1.00  0.00     0.182 C 
BRANCH  33  34
HETATM   34  C21 UNL     1       8.741  13.222  18.757  1.00  0.00     0.038 C 
BRANCH  34  35
HETATM   35  C22 UNL     1      10.022  14.036  18.981  1.00  0.00     0.022 C 
BRANCH  35  36
HETATM   36  C23 UNL     1      11.242  13.235  19.427  1.00  0.00     0.121 C 
BRANCH  36  37
HETATM   37  N2  UNL     1      11.970  12.795  18.243  1.00  0.00    -0.372 N 
HETATM   38  C24 UNL     1      12.265  11.557  18.116  1.00  0.00     0.121 C 
HETATM   39  N3  UNL     1      12.984  11.144  17.048  1.00  0.00    -0.279 NA
HETATM   40  N4  UNL     1      11.991  10.501  18.917  1.00  0.00    -0.279 NA
HETATM   41  H37 UNL     1      13.324  11.950  16.533  1.00  0.00     0.126 HD
HETATM   42  H38 UNL     1      13.754  10.545  17.322  1.00  0.00     0.126 HD
HETATM   43  H39 UNL     1      11.256  10.682  19.593  1.00  0.00     0.126 HD
HETATM   44  H40 UNL     1      11.774   9.675  18.369  1.00  0.00     0.126 HD
ATOM     45  H2  UNL     1      12.241  13.466  17.524  1.00  0.00     0.161 HD
ENDBRANCH  36  37
ENDBRANCH  35  36
ENDBRANCH  34  35
ENDBRANCH  33  34
BRANCH  33  46
HETATM   46  C25 UNL     1       7.995  10.784  18.762  1.00  0.00     0.163 C 
HETATM   47  O7  UNL     1       6.801  10.531  18.721  1.00  0.00    -0.648 OA
BRANCH  46  48
HETATM   48  O8  UNL     1       8.869   9.982  18.109  1.00  0.00    -0.775 OA
HETATM   49  H41 UNL     1       8.275   9.314  17.696  1.00  0.00     0.167 HD
ENDBRANCH  46  48
ENDBRANCH  33  46
ENDBRANCH  31  33
ENDBRANCH  28  29
ENDBRANCH  27  28
ENDBRANCH  26  27
ENDBRANCH  25  26
ENDBRANCH  24  25
ENDBRANCH  23  24
ENDBRANCH  21  23
ENDBRANCH  20  21
ENDBRANCH   9  20
BRANCH   3  50
HETATM   50  O3  UNL     1      -2.344   8.321  13.799  1.00  0.00    -0.389 OA
HETATM   51  H7  UNL     1      -2.277   7.897  12.924  1.00  0.00     0.210 HD
ENDBRANCH   3  50
BRANCH   1  52
HETATM   52  O2  UNL     1      -3.501   5.307  12.403  1.00  0.00    -0.316 OA
BRANCH  52  53
HETATM   53  C2  UNL     1      -3.003   4.206  11.765  1.00  0.00     0.255 C 
HETATM   54  C1  UNL     1      -4.080   3.564  10.946  1.00  0.00     0.126 C 
HETATM   55  O1  UNL     1      -1.853   3.796  11.851  1.00  0.00    -0.266 OA
ENDBRANCH  52  53
ENDBRANCH   1  52
BRANCH  19  56
HETATM   56  C36 UNL     1      -6.262   5.394  13.802  1.00  0.00    -0.043 A 
HETATM   57  C37 UNL     1      -6.573   4.122  13.515  1.00  0.00     0.090 A 
HETATM   58  C38 UNL     1      -7.905   3.713  13.014  1.00  0.00     0.287 A 
HETATM   59  O9  UNL     1      -8.135   2.536  12.776  1.00  0.00    -0.260 OA
HETATM   60  O10 UNL     1      -8.843   4.694  12.856  1.00  0.00    -0.288 OA
HETATM   61  C39 UNL     1      -8.513   6.005  13.199  1.00  0.00     0.146 A 
HETATM   62  C40 UNL     1      -7.316   6.377  13.659  1.00  0.00     0.032 A 
ENDBRANCH  19  56
TORSDOF 20
ENDMDL
MODEL 8
REMARK minimizedAffinity -7.40795851
REMARK CNNscore 0.347704858
REMARK CNNaffinity 6.29357386
REMARK  20 active torsions:
REMARK  status: ('A' for Active; 'I' for Inactive)
REMARK    1  A    between atoms: C2_2  and  O2_4 
REMARK    2  A    between atoms: O2_4  and  C3_5 
REMARK    3  A    between atoms: C5_7  and  O3_8 
REMARK    4  A    between atoms: C11_14  and  O4_15 
REMARK    5  A    between atoms: O4_15  and  C12_16 
REMARK    6  A    between atoms: C12_16  and  C13_18 
REMARK    7  A    between atoms: C13_18  and  C14_19 
REMARK    8  A    between atoms: C14_19  and  C15_20 
REMARK    9  A    between atoms: C15_20  and  C16_21 
REMARK   10  A    between atoms: C16_21  and  C17_22 
REMARK   11  A    between atoms: C17_22  and  C18_23 
REMARK   12  A    between atoms: C18_23  and  C19_24 
REMARK       I    between atoms: C19_24  and  N1_26 
REMARK   13  A    between atoms: N1_26  and  C20_27 
REMARK   14  A    between atoms: C20_27  and  C21_28 
REMARK   15  A    between atoms: C20_27  and  C25_36 
REMARK   16  A    between atoms: C21_28  and  C22_29 
REMARK   17  A    between atoms: C22_29  and  C23_30 
REMARK   18  A    between atoms: C23_30  and  N2_31 
REMARK       I    between atoms: C24_33  and  N3_34 
REMARK       I    between atoms: C24_33  and  N4_35 
REMARK   19  A    between atoms: C25_36  and  O8_38 
REMARK   20  A    between atoms: C35_48  and  C36_49 
ROOT
HETATM    1  C3  UNL     1      -0.693   6.359  11.972  1.00  0.00     0.144 C 
HETATM    2  C4  UNL     1      -1.607   7.080  12.958  1.00  0.00     0.072 C 
HETATM    3  C5  UNL     1      -0.684   7.817  13.975  1.00  0.00     0.072 C 
HETATM    4  C6  UNL     1      -1.171   9.307  14.128  1.00  0.00     0.026 C 
HETATM    5  C7  UNL     1      -2.604   9.407  14.660  1.00  0.00     0.008 C 
HETATM    6  C8  UNL     1      -2.727   9.221  16.161  1.00  0.00     0.006 C 
HETATM    7  C9  UNL     1      -1.624   9.880  17.016  1.00  0.00    -0.004 C 
HETATM    8  C10 UNL     1      -2.271  10.529  18.262  1.00  0.00     0.038 C 
HETATM    9  C11 UNL     1      -3.053  11.794  17.903  1.00  0.00     0.132 C 
HETATM   10  C26 UNL     1      -2.159  12.811  17.194  1.00  0.00     0.033 C 
HETATM   11  C27 UNL     1      -1.465  12.213  15.971  1.00  0.00     0.012 C 
HETATM   12  C28 UNL     1      -0.703  10.876  16.251  1.00  0.00    -0.036 C 
HETATM   13  C29 UNL     1       0.504  11.245  17.162  1.00  0.00     0.016 C 
HETATM   14  C30 UNL     1      -0.199  10.269  14.879  1.00  0.00     0.001 C 
HETATM   15  C31 UNL     1       1.226   9.688  14.894  1.00  0.00     0.007 C 
HETATM   16  C32 UNL     1       1.554   9.001  13.570  1.00  0.00     0.013 C 
HETATM   17  C33 UNL     1       0.784   7.670  13.417  1.00  0.00    -0.002 C 
HETATM   18  C34 UNL     1       1.613   6.590  14.165  1.00  0.00     0.019 C 
HETATM   19  C35 UNL     1       0.556   7.279  11.914  1.00  0.00     0.059 C 
ENDROOT
BRANCH   9  20
HETATM   20  O4  UNL     1      -3.553  12.385  19.119  1.00  0.00    -0.316 OA
BRANCH  20  21
HETATM   21  C12 UNL     1      -4.661  13.167  18.966  1.00  0.00     0.259 C 
HETATM   22  O5  UNL     1      -5.297  13.313  17.930  1.00  0.00    -0.265 OA
BRANCH  21  23
HETATM   23  C13 UNL     1      -4.961  13.923  20.236  1.00  0.00     0.111 C 
BRANCH  23  24
HETATM   24  C14 UNL     1      -5.599  13.022  21.290  1.00  0.00     0.010 C 
BRANCH  24  25
HETATM   25  C15 UNL     1      -7.043  13.368  21.674  1.00  0.00     0.000 C 
BRANCH  25  26
HETATM   26  C16 UNL     1      -7.221  14.122  22.995  1.00  0.00     0.000 C 
BRANCH  26  27
HETATM   27  C17 UNL     1      -8.662  14.290  23.476  1.00  0.00     0.009 C 
BRANCH  27  28
HETATM   28  C18 UNL     1      -9.065  13.263  24.532  1.00  0.00     0.103 C 
BRANCH  28  29
HETATM   29  C19 UNL     1     -10.026  12.222  23.987  1.00  0.00     0.218 C 
HETATM   30  O6  UNL     1      -9.870  11.635  22.924  1.00  0.00    -0.274 OA
HETATM   31  N1  UNL     1     -11.127  12.050  24.801  1.00  0.00    -0.347 N 
HETATM   32  H29 UNL     1     -10.988  12.257  25.784  1.00  0.00     0.163 HD
BRANCH  31  33
HETATM   33  C20 UNL     1     -12.129  11.011  24.512  1.00  0.00     0.182 C 
BRANCH  33  34
HETATM   34  C21 UNL     1     -11.394   9.669  24.392  1.00  0.00     0.038 C 
BRANCH  34  35
HETATM   35  C22 UNL     1     -12.274   8.434  24.619  1.00  0.00     0.022 C 
BRANCH  35  36
HETATM   36  C23 UNL     1     -11.935   7.217  23.762  1.00  0.00     0.121 C 
BRANCH  36  37
HETATM   37  N2  UNL     1     -13.070   6.928  22.893  1.00  0.00    -0.372 N 
HETATM   38  C24 UNL     1     -13.810   5.918  23.148  1.00  0.00     0.121 C 
HETATM   39  N3  UNL     1     -14.835   5.610  22.320  1.00  0.00    -0.279 NA
HETATM   40  N4  UNL     1     -13.752   5.016  24.155  1.00  0.00    -0.279 NA
HETATM   41  H37 UNL     1     -14.783   6.185  21.486  1.00  0.00     0.126 HD
HETATM   42  H38 UNL     1     -14.838   4.626  22.077  1.00  0.00     0.126 HD
HETATM   43  H39 UNL     1     -13.182   5.317  24.939  1.00  0.00     0.126 HD
HETATM   44  H40 UNL     1     -14.682   4.761  24.470  1.00  0.00     0.126 HD
ATOM     45  H2  UNL     1     -13.270   7.524  22.090  1.00  0.00     0.161 HD
ENDBRANCH  36  37
ENDBRANCH  35  36
ENDBRANCH  34  35
ENDBRANCH  33  34
BRANCH  33  46
HETATM   46  C25 UNL     1     -12.885  11.378  23.226  1.00  0.00     0.163 C 
HETATM   47  O7  UNL     1     -13.789  12.192  23.120  1.00  0.00    -0.648 OA
BRANCH  46  48
HETATM   48  O8  UNL     1     -12.512  10.652  22.146  1.00  0.00    -0.775 OA
HETATM   49  H41 UNL     1     -13.112  10.993  21.445  1.00  0.00     0.167 HD
ENDBRANCH  46  48
ENDBRANCH  33  46
ENDBRANCH  31  33
ENDBRANCH  28  29
ENDBRANCH  27  28
ENDBRANCH  26  27
ENDBRANCH  25  26
ENDBRANCH  24  25
ENDBRANCH  23  24
ENDBRANCH  21  23
ENDBRANCH  20  21
ENDBRANCH   9  20
BRANCH   3  50
HETATM   50  O3  UNL     1      -0.793   7.188  15.252  1.00  0.00    -0.389 OA
HETATM   51  H7  UNL     1      -0.765   6.222  15.127  1.00  0.00     0.210 HD
ENDBRANCH   3  50
BRANCH   1  52
HETATM   52  O2  UNL     1      -0.397   5.051  12.487  1.00  0.00    -0.316 OA
BRANCH  52  53
HETATM   53  C2  UNL     1      -0.616   4.013  11.625  1.00  0.00     0.255 C 
HETATM   54  C1  UNL     1      -1.977   4.141  11.013  1.00  0.00     0.126 C 
HETATM   55  O1  UNL     1       0.174   3.109  11.388  1.00  0.00    -0.266 OA
ENDBRANCH  52  53
ENDBRANCH   1  52
BRANCH  19  56
HETATM   56  C36 UNL     1       1.757   6.789  11.098  1.00  0.00    -0.043 A 
HETATM   57  C37 UNL     1       1.698   6.295   9.853  1.00  0.00     0.090 A 
HETATM   58  C38 UNL     1       2.899   5.882   9.093  1.00  0.00     0.287 A 
HETATM   59  O9  UNL     1       2.785   5.445   7.956  1.00  0.00    -0.260 OA
HETATM   60  O10 UNL     1       4.111   6.030   9.707  1.00  0.00    -0.288 OA
HETATM   61  C39 UNL     1       4.155   6.583  10.987  1.00  0.00     0.146 A 
HETATM   62  C40 UNL     1       3.075   6.965  11.673  1.00  0.00     0.032 A 
ENDBRANCH  19  56
TORSDOF 20
ENDMDL
MODEL 9
REMARK minimizedAffinity -7.88173056
REMARK CNNscore 0.341715187
REMARK CNNaffinity 7.19475365
REMARK  20 active torsions:
REMARK  status: ('A' for Active; 'I' for Inactive)
REMARK    1  A    between atoms: C2_2  and  O2_4 
REMARK    2  A    between atoms: O2_4  and  C3_5 
REMARK    3  A    between atoms: C5_7  and  O3_8 
REMARK    4  A    between atoms: C11_14  and  O4_15 
REMARK    5  A    between atoms: O4_15  and  C12_16 
REMARK    6  A    between atoms: C12_16  and  C13_18 
REMARK    7  A    between atoms: C13_18  and  C14_19 
REMARK    8  A    between atoms: C14_19  and  C15_20 
REMARK    9  A    between atoms: C15_20  and  C16_21 
REMARK   10  A    between atoms: C16_21  and  C17_22 
REMARK   11  A    between atoms: C17_22  and  C18_23 
REMARK   12  A    between atoms: C18_23  and  C19_24 
REMARK       I    between atoms: C19_24  and  N1_26 
REMARK   13  A    between atoms: N1_26  and  C20_27 
REMARK   14  A    between atoms: C20_27  and  C21_28 
REMARK   15  A    between atoms: C20_27  and  C25_36 
REMARK   16  A    between atoms: C21_28  and  C22_29 
REMARK   17  A    between atoms: C22_29  and  C23_30 
REMARK   18  A    between atoms: C23_30  and  N2_31 
REMARK       I    between atoms: C24_33  and  N3_34 
REMARK       I    between atoms: C24_33  and  N4_35 
REMARK   19  A    between atoms: C25_36  and  O8_38 
REMARK   20  A    between atoms: C35_48  and  C36_49 
ROOT
HETATM    1  C3  UNL     1      -4.950   7.126  13.991  1.00  0.00     0.144 C 
HETATM    2  C4  UNL     1      -3.816   8.139  14.113  1.00  0.00     0.072 C 
HETATM    3  C5  UNL     1      -2.482   7.341  14.005  1.00  0.00     0.072 C 
HETATM    4  C6  UNL     1      -1.535   8.055  12.968  1.00  0.00     0.026 C 
HETATM    5  C7  UNL     1      -1.176   9.484  13.384  1.00  0.00     0.008 C 
HETATM    6  C8  UNL     1      -0.083   9.573  14.432  1.00  0.00     0.006 C 
HETATM    7  C9  UNL     1       1.092   8.585  14.268  1.00  0.00    -0.004 C 
HETATM    8  C10 UNL     1       2.418   9.323  14.566  1.00  0.00     0.038 C 
HETATM    9  C11 UNL     1       2.793  10.294  13.445  1.00  0.00     0.132 C 
HETATM   10  C26 UNL     1       2.892   9.571  12.102  1.00  0.00     0.033 C 
HETATM   11  C27 UNL     1       1.618   8.795  11.771  1.00  0.00     0.012 C 
HETATM   12  C28 UNL     1       1.136   7.833  12.905  1.00  0.00    -0.036 C 
HETATM   13  C29 UNL     1       2.195   6.696  12.993  1.00  0.00     0.016 C 
HETATM   14  C30 UNL     1      -0.281   7.243  12.518  1.00  0.00     0.001 C 
HETATM   15  C31 UNL     1      -0.479   5.745  12.808  1.00  0.00     0.007 C 
HETATM   16  C32 UNL     1      -1.919   5.316  12.536  1.00  0.00     0.013 C 
HETATM   17  C33 UNL     1      -2.886   5.869  13.607  1.00  0.00    -0.002 C 
HETATM   18  C34 UNL     1      -2.835   4.879  14.804  1.00  0.00     0.019 C 
HETATM   19  C35 UNL     1      -4.349   6.036  13.064  1.00  0.00     0.059 C 
ENDROOT
BRANCH   9  20
HETATM   20  O4  UNL     1       4.074  10.878  13.752  1.00  0.00    -0.316 OA
BRANCH  20  21
HETATM   21  C12 UNL     1       4.309  12.091  13.172  1.00  0.00     0.259 C 
HETATM   22  O5  UNL     1       4.901  12.277  12.117  1.00  0.00    -0.265 OA
BRANCH  21  23
HETATM   23  C13 UNL     1       3.820  13.209  14.058  1.00  0.00     0.111 C 
BRANCH  23  24
HETATM   24  C14 UNL     1       4.821  13.529  15.164  1.00  0.00     0.010 C 
BRANCH  24  25
HETATM   25  C15 UNL     1       4.294  13.396  16.598  1.00  0.00     0.000 C 
BRANCH  25  26
HETATM   26  C16 UNL     1       5.127  12.520  17.538  1.00  0.00     0.000 C 
BRANCH  26  27
HETATM   27  C17 UNL     1       6.402  13.158  18.089  1.00  0.00     0.009 C 
BRANCH  27  28
HETATM   28  C18 UNL     1       6.129  14.359  18.990  1.00  0.00     0.103 C 
BRANCH  28  29
HETATM   29  C19 UNL     1       6.467  14.080  20.444  1.00  0.00     0.218 C 
HETATM   30  O6  UNL     1       6.044  14.740  21.385  1.00  0.00    -0.274 OA
HETATM   31  N1  UNL     1       7.352  13.030  20.583  1.00  0.00    -0.347 N 
HETATM   32  H29 UNL     1       7.332  12.335  19.845  1.00  0.00     0.163 HD
BRANCH  31  33
HETATM   33  C20 UNL     1       7.727  12.527  21.914  1.00  0.00     0.182 C 
BRANCH  33  34
HETATM   34  C21 UNL     1       6.484  12.595  22.811  1.00  0.00     0.038 C 
BRANCH  34  35
HETATM   35  C22 UNL     1       5.694  11.284  22.910  1.00  0.00     0.022 C 
BRANCH  35  36
HETATM   36  C23 UNL     1       4.188  11.435  23.106  1.00  0.00     0.121 C 
BRANCH  36  37
HETATM   37  N2  UNL     1       3.507  10.449  22.274  1.00  0.00    -0.372 N 
HETATM   38  C24 UNL     1       2.844   9.512  22.835  1.00  0.00     0.121 C 
HETATM   39  N3  UNL     1       2.251   8.562  22.076  1.00  0.00    -0.279 NA
HETATM   40  N4  UNL     1       2.617   9.255  24.144  1.00  0.00    -0.279 NA
HETATM   41  H37 UNL     1       2.549   8.661  21.111  1.00  0.00     0.126 HD
HETATM   42  H38 UNL     1       2.450   7.629  22.418  1.00  0.00     0.126 HD
HETATM   43  H39 UNL     1       2.810  10.045  24.753  1.00  0.00     0.126 HD
HETATM   44  H40 UNL     1       1.672   8.917  24.291  1.00  0.00     0.126 HD
ATOM     45  H2  UNL     1       3.561  10.507  21.257  1.00  0.00     0.161 HD
ENDBRANCH  36  37
ENDBRANCH  35  36
ENDBRANCH  34  35
ENDBRANCH  33  34
BRANCH  33  46
HETATM   46  C25 UNL     1       8.890  13.366  22.465  1.00  0.00     0.163 C 
HETATM   47  O7  UNL     1       9.913  13.671  21.872  1.00  0.00    -0.648 OA
BRANCH  46  48
HETATM   48  O8  UNL     1       8.739  13.726  23.762  1.00  0.00    -0.775 OA
HETATM   49  H41 UNL     1       9.573  14.213  23.944  1.00  0.00     0.167 HD
ENDBRANCH  46  48
ENDBRANCH  33  46
ENDBRANCH  31  33
ENDBRANCH  28  29
ENDBRANCH  27  28
ENDBRANCH  26  27
ENDBRANCH  25  26
ENDBRANCH  24  25
ENDBRANCH  23  24
ENDBRANCH  21  23
ENDBRANCH  20  21
ENDBRANCH   9  20
BRANCH   3  50
HETATM   50  O3  UNL     1      -1.826   7.347  15.273  1.00  0.00    -0.389 OA
HETATM   51  H7  UNL     1      -2.486   7.169  15.967  1.00  0.00     0.210 HD
ENDBRANCH   3  50
BRANCH   1  52
HETATM   52  O2  UNL     1      -5.268   6.628  15.301  1.00  0.00    -0.316 OA
BRANCH  52  53
HETATM   53  C2  UNL     1      -6.503   6.968  15.779  1.00  0.00     0.255 C 
HETATM   54  C1  UNL     1      -7.023   8.160  15.036  1.00  0.00     0.126 C 
HETATM   55  O1  UNL     1      -7.097   6.394  16.681  1.00  0.00    -0.266 OA
ENDBRANCH  52  53
ENDBRANCH   1  52
BRANCH  19  56
HETATM   56  C36 UNL     1      -5.186   4.775  12.822  1.00  0.00    -0.043 A 
HETATM   57  C37 UNL     1      -6.414   4.555  13.312  1.00  0.00     0.090 A 
HETATM   58  C38 UNL     1      -7.197   3.337  13.003  1.00  0.00     0.287 A 
HETATM   59  O9  UNL     1      -8.317   3.192  13.473  1.00  0.00    -0.260 OA
HETATM   60  O10 UNL     1      -6.622   2.416  12.171  1.00  0.00    -0.288 OA
HETATM   61  C39 UNL     1      -5.361   2.683  11.639  1.00  0.00     0.146 A 
HETATM   62  C40 UNL     1      -4.655   3.784  11.908  1.00  0.00     0.032 A 
ENDBRANCH  19  56
TORSDOF 20
ENDMDL
