MODEL 1
REMARK minimizedAffinity -7.75789833
REMARK CNNscore 0.407913327
REMARK CNNaffinity 6.41942167
REMARK  9 active torsions:
REMARK  status: ('A' for Active; 'I' for Inactive)
REMARK    1  A    between atoms: O1_2  and  C2_3 
REMARK    2  A    between atoms: C2_3  and  C3_4 
REMARK    3  A    between atoms: C3_4  and  N1_5 
REMARK       I    between atoms: N1_5  and  C4_6 
REMARK    4  A    between atoms: C4_6  and  C5_8 
REMARK    5  A    between atoms: C5_8  and  C7_10 
REMARK    6  A    between atoms: C15_20  and  C16_21 
REMARK    7  A    between atoms: C16_21  and  O3_22 
REMARK    8  A    between atoms: O3_22  and  C17_23 
REMARK    9  A    between atoms: C26_34  and  O4_35 
ROOT
HETATM    1  C7  UNL     1      -3.153   8.933  15.098  1.00  0.00     0.027 C 
HETATM    2  C8  UNL     1      -4.202   9.775  15.836  1.00  0.00     0.009 C 
HETATM    3  C9  UNL     1      -3.538  10.958  16.535  1.00  0.00     0.010 C 
HETATM    4  C10 UNL     1      -2.444  10.569  17.563  1.00  0.00    -0.033 C 
HETATM    5  C11 UNL     1      -3.150   9.963  18.809  1.00  0.00     0.016 C 
HETATM    6  C12 UNL     1      -1.756  11.903  18.052  1.00  0.00     0.058 C 
HETATM    7  C13 UNL     1      -0.275  11.795  18.127  1.00  0.00     0.008 A 
HETATM    8  C14 UNL     1       0.493  10.972  17.342  1.00  0.00     0.027 A 
HETATM    9  N2  UNL     1       1.850  11.035  17.560  1.00  0.00    -0.354 N 
ATOM     10  H2  UNL     1       2.550  10.470  17.079  1.00  0.00     0.166 HD
HETATM   11  C15 UNL     1       2.105  11.941  18.487  1.00  0.00     0.076 A 
HETATM   12  S1  UNL     1       0.711  12.707  19.165  1.00  0.00    -0.077 SA
HETATM   13  C23 UNL     1      -0.119  10.038  16.347  1.00  0.00     0.040 C 
HETATM   14  C24 UNL     1      -0.247  10.715  14.986  1.00  0.00     0.017 C 
HETATM   15  C25 UNL     1      -1.439   9.478  16.977  1.00  0.00     0.033 C 
HETATM   16  C26 UNL     1      -2.106   8.389  16.094  1.00  0.00     0.128 C 
ENDROOT
BRANCH   1  17
HETATM   17  C5  UNL     1      -3.828   7.869  14.178  1.00  0.00     0.080 C 
HETATM   18  C6  UNL     1      -4.859   8.407  13.185  1.00  0.00     0.020 C 
BRANCH  17  19
HETATM   19  C4  UNL     1      -4.423   6.723  15.006  1.00  0.00     0.222 C 
HETATM   20  N1  UNL     1      -5.630   7.025  15.602  1.00  0.00    -0.359 N 
HETATM   21  H8  UNL     1      -6.149   7.811  15.230  1.00  0.00     0.162 HD
HETATM   22  O2  UNL     1      -3.897   5.618  15.111  1.00  0.00    -0.273 OA
BRANCH  20  23
HETATM   23  C3  UNL     1      -6.415   5.996  16.262  1.00  0.00     0.148 C 
BRANCH  23  24
HETATM   24  C2  UNL     1      -7.813   5.876  15.647  1.00  0.00     0.186 C 
BRANCH  24  25
HETATM   25  O1  UNL     1      -7.791   5.047  14.476  1.00  0.00    -0.394 OA
HETATM   26  C1  UNL     1      -7.952   5.785  13.272  1.00  0.00     0.201 C 
ENDBRANCH  24  25
ENDBRANCH  23  24
ENDBRANCH  20  23
ENDBRANCH  17  19
ENDBRANCH   1  17
BRANCH  16  27
HETATM   27  O4  UNL     1      -2.739   7.449  16.969  1.00  0.00    -0.395 OA
HETATM   28  H35 UNL     1      -2.033   6.976  17.442  1.00  0.00     0.210 HD
ENDBRANCH  16  27
BRANCH  11  29
HETATM   29  C16 UNL     1       3.478  12.284  18.983  1.00  0.00     0.240 C 
BRANCH  29  30
HETATM   30  O3  UNL     1       4.116  11.088  19.438  1.00  0.00    -0.345 OA
BRANCH  30  31
HETATM   31  C17 UNL     1       4.108  10.763  20.763  1.00  0.00     0.070 A 
HETATM   32  C18 UNL     1       4.905  11.315  21.767  1.00  0.00     0.037 A 
HETATM   33  C19 UNL     1       4.783  10.870  23.088  1.00  0.00     0.004 A 
HETATM   34  C20 UNL     1       3.865   9.872  23.413  1.00  0.00     0.024 A 
HETATM   35  C21 UNL     1       3.071   9.321  22.412  1.00  0.00     0.036 A 
HETATM   36 CL1  UNL     1       1.936   8.088  22.805  1.00  0.00    -0.084 Cl
HETATM   37  C22 UNL     1       3.191   9.761  21.096  1.00  0.00     0.060 A 
ENDBRANCH  30  31
ENDBRANCH  29  30
ENDBRANCH  11  29
TORSDOF 9
ENDMDL
MODEL 2
REMARK minimizedAffinity -8.42607117
REMARK CNNscore 0.357067406
REMARK CNNaffinity 7.12565994
REMARK  9 active torsions:
REMARK  status: ('A' for Active; 'I' for Inactive)
REMARK    1  A    between atoms: O1_2  and  C2_3 
REMARK    2  A    between atoms: C2_3  and  C3_4 
REMARK    3  A    between atoms: C3_4  and  N1_5 
REMARK       I    between atoms: N1_5  and  C4_6 
REMARK    4  A    between atoms: C4_6  and  C5_8 
REMARK    5  A    between atoms: C5_8  and  C7_10 
REMARK    6  A    between atoms: C15_20  and  C16_21 
REMARK    7  A    between atoms: C16_21  and  O3_22 
REMARK    8  A    between atoms: O3_22  and  C17_23 
REMARK    9  A    between atoms: C26_34  and  O4_35 
ROOT
HETATM    1  C7  UNL     1      -6.104   5.965  13.994  1.00  0.00     0.027 C 
HETATM    2  C8  UNL     1      -6.487   7.442  13.837  1.00  0.00     0.009 C 
HETATM    3  C9  UNL     1      -5.318   8.236  13.263  1.00  0.00     0.010 C 
HETATM    4  C10 UNL     1      -4.019   8.177  14.109  1.00  0.00    -0.033 C 
HETATM    5  C11 UNL     1      -4.241   9.034  15.389  1.00  0.00     0.016 C 
HETATM    6  C12 UNL     1      -2.883   8.901  13.287  1.00  0.00     0.058 C 
HETATM    7  C13 UNL     1      -1.593   8.162  13.312  1.00  0.00     0.008 A 
HETATM    8  C14 UNL     1      -1.469   6.802  13.445  1.00  0.00     0.027 A 
HETATM    9  N2  UNL     1      -0.183   6.315  13.427  1.00  0.00    -0.354 N 
ATOM     10  H2  UNL     1       0.078   5.335  13.541  1.00  0.00     0.166 HD
HETATM   11  C15 UNL     1       0.663   7.313  13.240  1.00  0.00     0.076 A 
HETATM   12  S1  UNL     1      -0.064   8.878  13.134  1.00  0.00    -0.077 SA
HETATM   13  C23 UNL     1      -2.660   5.919  13.640  1.00  0.00     0.040 C 
HETATM   14  C24 UNL     1      -3.194   5.435  12.295  1.00  0.00     0.017 C 
HETATM   15  C25 UNL     1      -3.670   6.687  14.558  1.00  0.00     0.033 C 
HETATM   16  C26 UNL     1      -4.899   5.822  14.948  1.00  0.00     0.128 C 
ENDROOT
BRANCH   1  17
HETATM   17  C5  UNL     1      -7.349   5.092  14.341  1.00  0.00     0.080 C 
HETATM   18  C6  UNL     1      -7.286   3.632  13.891  1.00  0.00     0.020 C 
BRANCH  17  19
HETATM   19  C4  UNL     1      -8.642   5.754  13.846  1.00  0.00     0.222 C 
HETATM   20  N1  UNL     1      -9.415   6.301  14.849  1.00  0.00    -0.359 N 
HETATM   21  H8  UNL     1      -8.963   6.487  15.736  1.00  0.00     0.162 HD
HETATM   22  O2  UNL     1      -8.957   5.824  12.661  1.00  0.00    -0.273 OA
BRANCH  20  23
HETATM   23  C3  UNL     1     -10.570   7.125  14.536  1.00  0.00     0.148 C 
BRANCH  23  24
HETATM   24  C2  UNL     1     -10.797   7.223  13.024  1.00  0.00     0.186 C 
BRANCH  24  25
HETATM   25  O1  UNL     1     -12.012   7.929  12.731  1.00  0.00    -0.394 OA
HETATM   26  C1  UNL     1     -11.882   9.337  12.874  1.00  0.00     0.201 C 
ENDBRANCH  24  25
ENDBRANCH  23  24
ENDBRANCH  20  23
ENDBRANCH  17  19
ENDBRANCH   1  17
BRANCH  16  27
HETATM   27  O4  UNL     1      -5.301   6.208  16.267  1.00  0.00    -0.395 OA
HETATM   28  H35 UNL     1      -4.600   5.919  16.877  1.00  0.00     0.210 HD
ENDBRANCH  16  27
BRANCH  11  29
HETATM   29  C16 UNL     1       2.153   7.159  13.164  1.00  0.00     0.240 C 
BRANCH  29  30
HETATM   30  O3  UNL     1       2.481   6.426  11.982  1.00  0.00    -0.345 OA
BRANCH  30  31
HETATM   31  C17 UNL     1       2.592   7.066  10.781  1.00  0.00     0.070 A 
HETATM   32  C18 UNL     1       3.765   7.520  10.179  1.00  0.00     0.037 A 
HETATM   33  C19 UNL     1       3.716   8.168   8.939  1.00  0.00     0.004 A 
HETATM   34  C20 UNL     1       2.495   8.364   8.296  1.00  0.00     0.024 A 
HETATM   35  C21 UNL     1       1.324   7.912   8.897  1.00  0.00     0.036 A 
HETATM   36 CL1  UNL     1      -0.187   8.153   8.110  1.00  0.00    -0.084 Cl
HETATM   37  C22 UNL     1       1.370   7.269  10.132  1.00  0.00     0.060 A 
ENDBRANCH  30  31
ENDBRANCH  29  30
ENDBRANCH  11  29
TORSDOF 9
ENDMDL
MODEL 3
REMARK minimizedAffinity -7.92731857
REMARK CNNscore 0.296837062
REMARK CNNaffinity 6.87517738
REMARK  9 active torsions:
REMARK  status: ('A' for Active; 'I' for Inactive)
REMARK    1  A    between atoms: O1_2  and  C2_3 
REMARK    2  A    between atoms: C2_3  and  C3_4 
REMARK    3  A    between atoms: C3_4  and  N1_5 
REMARK       I    between atoms: N1_5  and  C4_6 
REMARK    4  A    between atoms: C4_6  and  C5_8 
REMARK    5  A    between atoms: C5_8  and  C7_10 
REMARK    6  A    between atoms: C15_20  and  C16_21 
REMARK    7  A    between atoms: C16_21  and  O3_22 
REMARK    8  A    between atoms: O3_22  and  C17_23 
REMARK    9  A    between atoms: C26_34  and  O4_35 
ROOT
HETATM    1  C7  UNL     1      -8.052   6.808  14.861  1.00  0.00     0.027 C 
HETATM    2  C8  UNL     1      -7.599   5.461  15.439  1.00  0.00     0.009 C 
HETATM    3  C9  UNL     1      -6.077   5.404  15.525  1.00  0.00     0.010 C 
HETATM    4  C10 UNL     1      -5.346   5.602  14.171  1.00  0.00    -0.033 C 
HETATM    5  C11 UNL     1      -5.552   4.315  13.323  1.00  0.00     0.016 C 
HETATM    6  C12 UNL     1      -3.799   5.686  14.475  1.00  0.00     0.058 C 
HETATM    7  C13 UNL     1      -3.119   6.767  13.714  1.00  0.00     0.008 A 
HETATM    8  C14 UNL     1      -3.718   7.931  13.300  1.00  0.00     0.027 A 
HETATM    9  N2  UNL     1      -2.906   8.811  12.623  1.00  0.00    -0.354 N 
ATOM     10  H2  UNL     1      -3.204   9.703  12.228  1.00  0.00     0.166 HD
HETATM   11  C15 UNL     1      -1.679   8.322  12.563  1.00  0.00     0.076 A 
HETATM   12  S1  UNL     1      -1.479   6.759  13.275  1.00  0.00    -0.077 SA
HETATM   13  C23 UNL     1      -5.171   8.196  13.536  1.00  0.00     0.040 C 
HETATM   14  C24 UNL     1      -5.374   8.920  14.864  1.00  0.00     0.017 C 
HETATM   15  C25 UNL     1      -5.932   6.840  13.355  1.00  0.00     0.033 C 
HETATM   16  C26 UNL     1      -7.473   7.005  13.443  1.00  0.00     0.128 C 
ENDROOT
BRANCH   1  17
HETATM   17  C5  UNL     1      -9.596   6.989  14.993  1.00  0.00     0.080 C 
HETATM   18  C6  UNL     1     -10.409   6.711  13.727  1.00  0.00     0.020 C 
BRANCH  17  19
HETATM   19  C4  UNL     1      -9.942   8.370  15.564  1.00  0.00     0.222 C 
HETATM   20  N1  UNL     1     -10.380   9.276  14.621  1.00  0.00    -0.359 N 
HETATM   21  H8  UNL     1     -10.712   8.907  13.738  1.00  0.00     0.162 HD
HETATM   22  O2  UNL     1      -9.871   8.647  16.759  1.00  0.00    -0.273 OA
BRANCH  20  23
HETATM   23  C3  UNL     1     -10.925  10.563  15.019  1.00  0.00     0.148 C 
BRANCH  23  24
HETATM   24  C2  UNL     1     -12.362  10.743  14.520  1.00  0.00     0.186 C 
BRANCH  24  25
HETATM   25  O1  UNL     1     -12.761   9.641  13.691  1.00  0.00    -0.394 OA
HETATM   26  C1  UNL     1     -13.146  10.043  12.384  1.00  0.00     0.201 C 
ENDBRANCH  24  25
ENDBRANCH  23  24
ENDBRANCH  20  23
ENDBRANCH  17  19
ENDBRANCH   1  17
BRANCH  16  27
HETATM   27  O4  UNL     1      -8.064   6.044  12.562  1.00  0.00    -0.395 OA
HETATM   28  H35 UNL     1      -7.845   6.315  11.653  1.00  0.00     0.210 HD
ENDBRANCH  16  27
BRANCH  11  29
HETATM   29  C16 UNL     1      -0.524   9.010  11.900  1.00  0.00     0.240 C 
BRANCH  29  30
HETATM   30  O3  UNL     1      -0.473   8.608  10.529  1.00  0.00    -0.345 OA
BRANCH  30  31
HETATM   31  C17 UNL     1       0.656   8.038  10.018  1.00  0.00     0.070 A 
HETATM   32  C18 UNL     1       1.760   7.575  10.734  1.00  0.00     0.037 A 
HETATM   33  C19 UNL     1       2.853   7.016  10.062  1.00  0.00     0.004 A 
HETATM   34  C20 UNL     1       2.848   6.917   8.671  1.00  0.00     0.024 A 
HETATM   35  C21 UNL     1       1.748   7.381   7.956  1.00  0.00     0.036 A 
HETATM   36 CL1  UNL     1       1.735   7.264   6.239  1.00  0.00    -0.084 Cl
HETATM   37  C22 UNL     1       0.659   7.939   8.622  1.00  0.00     0.060 A 
ENDBRANCH  30  31
ENDBRANCH  29  30
ENDBRANCH  11  29
TORSDOF 9
ENDMDL
MODEL 4
REMARK minimizedAffinity -7.98052931
REMARK CNNscore 0.290241182
REMARK CNNaffinity 6.79501295
REMARK  9 active torsions:
REMARK  status: ('A' for Active; 'I' for Inactive)
REMARK    1  A    between atoms: O1_2  and  C2_3 
REMARK    2  A    between atoms: C2_3  and  C3_4 
REMARK    3  A    between atoms: C3_4  and  N1_5 
REMARK       I    between atoms: N1_5  and  C4_6 
REMARK    4  A    between atoms: C4_6  and  C5_8 
REMARK    5  A    between atoms: C5_8  and  C7_10 
REMARK    6  A    between atoms: C15_20  and  C16_21 
REMARK    7  A    between atoms: C16_21  and  O3_22 
REMARK    8  A    between atoms: O3_22  and  C17_23 
REMARK    9  A    between atoms: C26_34  and  O4_35 
ROOT
HETATM    1  C7  UNL     1      -0.483   7.229  13.825  1.00  0.00     0.027 C 
HETATM    2  C8  UNL     1      -0.758   6.371  12.583  1.00  0.00     0.009 C 
HETATM    3  C9  UNL     1      -2.252   6.339  12.280  1.00  0.00     0.010 C 
HETATM    4  C10 UNL     1      -3.133   5.789  13.432  1.00  0.00    -0.033 C 
HETATM    5  C11 UNL     1      -2.907   4.252  13.517  1.00  0.00     0.016 C 
HETATM    6  C12 UNL     1      -4.642   5.989  13.013  1.00  0.00     0.058 C 
HETATM    7  C13 UNL     1      -5.486   6.503  14.124  1.00  0.00     0.008 A 
HETATM    8  C14 UNL     1      -5.035   7.292  15.153  1.00  0.00     0.027 A 
HETATM    9  N2  UNL     1      -5.984   7.675  16.072  1.00  0.00    -0.354 N 
ATOM     10  H2  UNL     1      -5.805   8.236  16.904  1.00  0.00     0.166 HD
HETATM   11  C15 UNL     1      -7.164   7.203  15.708  1.00  0.00     0.076 A 
HETATM   12  S1  UNL     1      -7.156   6.237  14.275  1.00  0.00    -0.077 SA
HETATM   13  C23 UNL     1      -3.593   7.669  15.281  1.00  0.00     0.040 C 
HETATM   14  C24 UNL     1      -3.316   8.982  14.555  1.00  0.00     0.017 C 
HETATM   15  C25 UNL     1      -2.742   6.432  14.838  1.00  0.00     0.033 C 
HETATM   16  C26 UNL     1      -1.219   6.647  15.052  1.00  0.00     0.128 C 
ENDROOT
BRANCH   1  17
HETATM   17  C5  UNL     1       1.045   7.481  14.011  1.00  0.00     0.080 C 
HETATM   18  C6  UNL     1       1.422   8.627  14.951  1.00  0.00     0.020 C 
BRANCH  17  19
HETATM   19  C4  UNL     1       1.746   7.643  12.656  1.00  0.00     0.222 C 
HETATM   20  N1  UNL     1       2.669   6.656  12.377  1.00  0.00    -0.359 N 
HETATM   21  H8  UNL     1       2.603   5.794  12.904  1.00  0.00     0.162 HD
HETATM   22  O2  UNL     1       1.494   8.549  11.866  1.00  0.00    -0.273 OA
BRANCH  20  23
HETATM   23  C3  UNL     1       3.282   6.556  11.064  1.00  0.00     0.148 C 
BRANCH  23  24
HETATM   24  C2  UNL     1       2.737   5.358  10.280  1.00  0.00     0.186 C 
BRANCH  24  25
HETATM   25  O1  UNL     1       2.433   5.723   8.926  1.00  0.00    -0.394 OA
HETATM   26  C1  UNL     1       2.779   7.068   8.625  1.00  0.00     0.201 C 
ENDBRANCH  24  25
ENDBRANCH  23  24
ENDBRANCH  20  23
ENDBRANCH  17  19
ENDBRANCH   1  17
BRANCH  16  27
HETATM   27  O4  UNL     1      -0.643   5.379  15.382  1.00  0.00    -0.395 OA
HETATM   28  H35 UNL     1      -0.977   5.133  16.263  1.00  0.00     0.210 HD
ENDBRANCH  16  27
BRANCH  11  29
HETATM   29  C16 UNL     1      -8.436   7.422  16.472  1.00  0.00     0.240 C 
BRANCH  29  30
HETATM   30  O3  UNL     1      -9.524   6.881  15.719  1.00  0.00    -0.345 OA
BRANCH  30  31
HETATM   31  C17 UNL     1     -10.336   7.702  14.992  1.00  0.00     0.070 A 
HETATM   32  C18 UNL     1     -10.203   9.081  14.825  1.00  0.00     0.037 A 
HETATM   33  C19 UNL     1     -11.126   9.789  14.047  1.00  0.00     0.004 A 
HETATM   34  C20 UNL     1     -12.186   9.124  13.433  1.00  0.00     0.024 A 
HETATM   35  C21 UNL     1     -12.320   7.748  13.600  1.00  0.00     0.036 A 
HETATM   36 CL1  UNL     1     -13.627   6.920  12.847  1.00  0.00    -0.084 Cl
HETATM   37  C22 UNL     1     -11.404   7.041  14.375  1.00  0.00     0.060 A 
ENDBRANCH  30  31
ENDBRANCH  29  30
ENDBRANCH  11  29
TORSDOF 9
ENDMDL
MODEL 5
REMARK minimizedAffinity -7.41164064
REMARK CNNscore 0.279871464
REMARK CNNaffinity 6.70371485
REMARK  9 active torsions:
REMARK  status: ('A' for Active; 'I' for Inactive)
REMARK    1  A    between atoms: O1_2  and  C2_3 
REMARK    2  A    between atoms: C2_3  and  C3_4 
REMARK    3  A    between atoms: C3_4  and  N1_5 
REMARK       I    between atoms: N1_5  and  C4_6 
REMARK    4  A    between atoms: C4_6  and  C5_8 
REMARK    5  A    between atoms: C5_8  and  C7_10 
REMARK    6  A    between atoms: C15_20  and  C16_21 
REMARK    7  A    between atoms: C16_21  and  O3_22 
REMARK    8  A    between atoms: O3_22  and  C17_23 
REMARK    9  A    between atoms: C26_34  and  O4_35 
ROOT
HETATM    1  C7  UNL     1     -13.775  10.031  14.124  1.00  0.00     0.027 C 
HETATM    2  C8  UNL     1     -13.080  11.235  14.771  1.00  0.00     0.009 C 
HETATM    3  C9  UNL     1     -11.568  11.033  14.782  1.00  0.00     0.010 C 
HETATM    4  C10 UNL     1     -11.092   9.761  15.531  1.00  0.00    -0.033 C 
HETATM    5  C11 UNL     1     -11.278  10.004  17.056  1.00  0.00     0.016 C 
HETATM    6  C12 UNL     1      -9.537   9.624  15.294  1.00  0.00     0.058 C 
HETATM    7  C13 UNL     1      -9.121   8.230  14.985  1.00  0.00     0.008 A 
HETATM    8  C14 UNL     1      -9.911   7.293  14.367  1.00  0.00     0.027 A 
HETATM    9  N2  UNL     1      -9.328   6.065  14.159  1.00  0.00    -0.354 N 
ATOM     10  H2  UNL     1      -9.789   5.258  13.738  1.00  0.00     0.166 HD
HETATM   11  C15 UNL     1      -8.078   6.093  14.587  1.00  0.00     0.076 A 
HETATM   12  S1  UNL     1      -7.583   7.585  15.305  1.00  0.00    -0.077 SA
HETATM   13  C23 UNL     1     -11.328   7.585  13.989  1.00  0.00     0.040 C 
HETATM   14  C24 UNL     1     -11.400   8.141  12.569  1.00  0.00     0.017 C 
HETATM   15  C25 UNL     1     -11.944   8.477  15.120  1.00  0.00     0.033 C 
HETATM   16  C26 UNL     1     -13.459   8.742  14.913  1.00  0.00     0.128 C 
ENDROOT
BRANCH   1  17
HETATM   17  C5  UNL     1     -15.288  10.318  13.876  1.00  0.00     0.080 C 
HETATM   18  C6  UNL     1     -16.199  10.190  15.098  1.00  0.00     0.020 C 
BRANCH  17  19
HETATM   19  C4  UNL     1     -15.826   9.475  12.712  1.00  0.00     0.222 C 
HETATM   20  N1  UNL     1     -17.170   9.179  12.806  1.00  0.00    -0.359 N 
HETATM   21  H8  UNL     1     -17.732   9.751  13.424  1.00  0.00     0.162 HD
HETATM   22  O2  UNL     1     -15.139   9.116  11.760  1.00  0.00    -0.273 OA
BRANCH  20  23
HETATM   23  C3  UNL     1     -17.875   8.552  11.700  1.00  0.00     0.148 C 
BRANCH  23  24
HETATM   24  C2  UNL     1     -18.075   9.528  10.536  1.00  0.00     0.186 C 
BRANCH  24  25
HETATM   25  O1  UNL     1     -18.734   8.887   9.434  1.00  0.00    -0.394 OA
HETATM   26  C1  UNL     1     -19.623   9.753   8.742  1.00  0.00     0.201 C 
ENDBRANCH  24  25
ENDBRANCH  23  24
ENDBRANCH  20  23
ENDBRANCH  17  19
ENDBRANCH   1  17
BRANCH  16  27
HETATM   27  O4  UNL     1     -14.066   8.827  16.207  1.00  0.00    -0.395 OA
HETATM   28  H35 UNL     1     -14.029   7.938  16.600  1.00  0.00     0.210 HD
ENDBRANCH  16  27
BRANCH  11  29
HETATM   29  C16 UNL     1      -7.134   4.930  14.521  1.00  0.00     0.240 C 
BRANCH  29  30
HETATM   30  O3  UNL     1      -5.870   5.390  14.037  1.00  0.00    -0.345 OA
BRANCH  30  31
HETATM   31  C17 UNL     1      -5.184   4.670  13.102  1.00  0.00     0.070 A 
HETATM   32  C18 UNL     1      -3.908   4.939  12.606  1.00  0.00     0.037 A 
HETATM   33  C19 UNL     1      -3.337   4.104  11.639  1.00  0.00     0.004 A 
HETATM   34  C20 UNL     1      -4.038   2.997  11.163  1.00  0.00     0.024 A 
HETATM   35  C21 UNL     1      -5.312   2.729  11.656  1.00  0.00     0.036 A 
HETATM   36 CL1  UNL     1      -6.184   1.365  11.072  1.00  0.00    -0.084 Cl
HETATM   37  C22 UNL     1      -5.883   3.559  12.618  1.00  0.00     0.060 A 
ENDBRANCH  30  31
ENDBRANCH  29  30
ENDBRANCH  11  29
TORSDOF 9
ENDMDL
MODEL 6
REMARK minimizedAffinity -7.41853094
REMARK CNNscore 0.257375032
REMARK CNNaffinity 6.10985708
REMARK  9 active torsions:
REMARK  status: ('A' for Active; 'I' for Inactive)
REMARK    1  A    between atoms: O1_2  and  C2_3 
REMARK    2  A    between atoms: C2_3  and  C3_4 
REMARK    3  A    between atoms: C3_4  and  N1_5 
REMARK       I    between atoms: N1_5  and  C4_6 
REMARK    4  A    between atoms: C4_6  and  C5_8 
REMARK    5  A    between atoms: C5_8  and  C7_10 
REMARK    6  A    between atoms: C15_20  and  C16_21 
REMARK    7  A    between atoms: C16_21  and  O3_22 
REMARK    8  A    between atoms: O3_22  and  C17_23 
REMARK    9  A    between atoms: C26_34  and  O4_35 
ROOT
HETATM    1  C7  UNL     1      -2.369   8.224  14.377  1.00  0.00     0.027 C 
HETATM    2  C8  UNL     1      -3.546   9.194  14.532  1.00  0.00     0.009 C 
HETATM    3  C9  UNL     1      -3.064  10.529  15.092  1.00  0.00     0.010 C 
HETATM    4  C10 UNL     1      -2.352  10.434  16.466  1.00  0.00    -0.033 C 
HETATM    5  C11 UNL     1      -3.432  10.136  17.546  1.00  0.00     0.016 C 
HETATM    6  C12 UNL     1      -1.776  11.865  16.803  1.00  0.00     0.058 C 
HETATM    7  C13 UNL     1      -0.395  11.816  17.350  1.00  0.00     0.008 A 
HETATM    8  C14 UNL     1       0.531  10.845  17.060  1.00  0.00     0.027 A 
HETATM    9  N2  UNL     1       1.760  10.995  17.659  1.00  0.00    -0.354 N 
ATOM     10  H2  UNL     1       2.543  10.348  17.567  1.00  0.00     0.166 HD
HETATM   11  C15 UNL     1       1.770  12.108  18.372  1.00  0.00     0.076 A 
HETATM   12  S1  UNL     1       0.278  12.981  18.386  1.00  0.00    -0.077 SA
HETATM   13  C23 UNL     1       0.200   9.679  16.184  1.00  0.00     0.040 C 
HETATM   14  C24 UNL     1       0.524   9.997  14.727  1.00  0.00     0.017 C 
HETATM   15  C25 UNL     1      -1.275   9.259  16.497  1.00  0.00     0.033 C 
HETATM   16  C26 UNL     1      -1.700   7.968  15.745  1.00  0.00     0.128 C 
ENDROOT
BRANCH   1  17
HETATM   17  C5  UNL     1      -2.789   6.949  13.581  1.00  0.00     0.080 C 
HETATM   18  C6  UNL     1      -3.507   5.867  14.389  1.00  0.00     0.020 C 
BRANCH  17  19
HETATM   19  C4  UNL     1      -1.595   6.353  12.824  1.00  0.00     0.222 C 
HETATM   20  N1  UNL     1      -1.230   5.093  13.250  1.00  0.00    -0.359 N 
HETATM   21  H8  UNL     1      -1.912   4.563  13.778  1.00  0.00     0.162 HD
HETATM   22  O2  UNL     1      -1.025   6.925  11.898  1.00  0.00    -0.273 OA
BRANCH  20  23
HETATM   23  C3  UNL     1      -0.245   4.314  12.519  1.00  0.00     0.148 C 
BRANCH  23  24
HETATM   24  C2  UNL     1      -0.910   3.384  11.499  1.00  0.00     0.186 C 
BRANCH  24  25
HETATM   25  O1  UNL     1      -0.211   2.133  11.411  1.00  0.00    -0.394 OA
HETATM   26  C1  UNL     1      -0.957   1.129  10.737  1.00  0.00     0.201 C 
ENDBRANCH  24  25
ENDBRANCH  23  24
ENDBRANCH  20  23
ENDBRANCH  17  19
ENDBRANCH   1  17
BRANCH  16  27
HETATM   27  O4  UNL     1      -2.615   7.258  16.585  1.00  0.00    -0.395 OA
HETATM   28  H35 UNL     1      -2.110   6.933  17.351  1.00  0.00     0.210 HD
ENDBRANCH  16  27
BRANCH  11  29
HETATM   29  C16 UNL     1       2.946  12.597  19.163  1.00  0.00     0.240 C 
BRANCH  29  30
HETATM   30  O3  UNL     1       2.591  12.624  20.548  1.00  0.00    -0.345 OA
BRANCH  30  31
HETATM   31  C17 UNL     1       3.147  11.734  21.420  1.00  0.00     0.070 A 
HETATM   32  C18 UNL     1       4.324  11.900  22.151  1.00  0.00     0.037 A 
HETATM   33  C19 UNL     1       4.771  10.888  23.007  1.00  0.00     0.004 A 
HETATM   34  C20 UNL     1       4.045   9.705  23.138  1.00  0.00     0.024 A 
HETATM   35  C21 UNL     1       2.872   9.538  22.407  1.00  0.00     0.036 A 
HETATM   36 CL1  UNL     1       1.971   8.079  22.561  1.00  0.00    -0.084 Cl
HETATM   37  C22 UNL     1       2.425  10.543  21.553  1.00  0.00     0.060 A 
ENDBRANCH  30  31
ENDBRANCH  29  30
ENDBRANCH  11  29
TORSDOF 9
ENDMDL
MODEL 7
REMARK minimizedAffinity -7.050951
REMARK CNNscore 0.236266628
REMARK CNNaffinity 6.55358553
REMARK  9 active torsions:
REMARK  status: ('A' for Active; 'I' for Inactive)
REMARK    1  A    between atoms: O1_2  and  C2_3 
REMARK    2  A    between atoms: C2_3  and  C3_4 
REMARK    3  A    between atoms: C3_4  and  N1_5 
REMARK       I    between atoms: N1_5  and  C4_6 
REMARK    4  A    between atoms: C4_6  and  C5_8 
REMARK    5  A    between atoms: C5_8  and  C7_10 
REMARK    6  A    between atoms: C15_20  and  C16_21 
REMARK    7  A    between atoms: C16_21  and  O3_22 
REMARK    8  A    between atoms: O3_22  and  C17_23 
REMARK    9  A    between atoms: C26_34  and  O4_35 
ROOT
HETATM    1  C7  UNL     1     -13.971   9.223  14.364  1.00  0.00     0.027 C 
HETATM    2  C8  UNL     1     -13.440  10.598  14.789  1.00  0.00     0.009 C 
HETATM    3  C9  UNL     1     -11.921  10.646  14.657  1.00  0.00     0.010 C 
HETATM    4  C10 UNL     1     -11.167   9.577  15.489  1.00  0.00    -0.033 C 
HETATM    5  C11 UNL     1     -11.256   9.985  16.988  1.00  0.00     0.016 C 
HETATM    6  C12 UNL     1      -9.640   9.662  15.100  1.00  0.00     0.058 C 
HETATM    7  C13 UNL     1      -9.017   8.325  14.910  1.00  0.00     0.008 A 
HETATM    8  C14 UNL     1      -9.684   7.200  14.493  1.00  0.00     0.027 A 
HETATM    9  N2  UNL     1      -8.918   6.066  14.364  1.00  0.00    -0.354 N 
ATOM     10  H2  UNL     1      -9.268   5.147  14.092  1.00  0.00     0.166 HD
HETATM   11  C15 UNL     1      -7.659   6.350  14.647  1.00  0.00     0.076 A 
HETATM   12  S1  UNL     1      -7.369   7.984  15.131  1.00  0.00    -0.077 SA
HETATM   13  C23 UNL     1     -11.159   7.208  14.243  1.00  0.00     0.040 C 
HETATM   14  C24 UNL     1     -11.452   7.553  12.785  1.00  0.00     0.017 C 
HETATM   15  C25 UNL     1     -11.816   8.129  15.325  1.00  0.00     0.033 C 
HETATM   16  C26 UNL     1     -13.367   8.117  15.256  1.00  0.00     0.128 C 
ENDROOT
BRANCH   1  17
HETATM   17  C5  UNL     1     -15.527   9.228  14.253  1.00  0.00     0.080 C 
HETATM   18  C6  UNL     1     -16.247  10.330  15.031  1.00  0.00     0.020 C 
BRANCH  17  19
HETATM   19  C4  UNL     1     -16.109   7.852  14.604  1.00  0.00     0.222 C 
HETATM   20  N1  UNL     1     -15.989   6.916  13.598  1.00  0.00    -0.359 N 
HETATM   21  H8  UNL     1     -15.304   7.096  12.873  1.00  0.00     0.162 HD
HETATM   22  O2  UNL     1     -16.612   7.586  15.692  1.00  0.00    -0.273 OA
BRANCH  20  23
HETATM   23  C3  UNL     1     -16.317   5.520  13.833  1.00  0.00     0.148 C 
BRANCH  23  24
HETATM   24  C2  UNL     1     -15.191   4.797  14.580  1.00  0.00     0.186 C 
BRANCH  24  25
HETATM   25  O1  UNL     1     -15.609   3.489  14.997  1.00  0.00    -0.394 OA
HETATM   26  C1  UNL     1     -16.708   2.993  14.246  1.00  0.00     0.201 C 
ENDBRANCH  24  25
ENDBRANCH  23  24
ENDBRANCH  20  23
ENDBRANCH  17  19
ENDBRANCH   1  17
BRANCH  16  27
HETATM   27  O4  UNL     1     -13.862   8.273  16.591  1.00  0.00    -0.395 OA
HETATM   28  H35 UNL     1     -13.637   7.460  17.077  1.00  0.00     0.210 HD
ENDBRANCH  16  27
BRANCH  11  29
HETATM   29  C16 UNL     1      -6.537   5.357  14.611  1.00  0.00     0.240 C 
BRANCH  29  30
HETATM   30  O3  UNL     1      -5.593   5.762  13.616  1.00  0.00    -0.345 OA
BRANCH  30  31
HETATM   31  C17 UNL     1      -4.909   4.830  12.892  1.00  0.00     0.070 A 
HETATM   32  C18 UNL     1      -3.572   4.890  12.498  1.00  0.00     0.037 A 
HETATM   33  C19 UNL     1      -3.011   3.850  11.748  1.00  0.00     0.004 A 
HETATM   34  C20 UNL     1      -3.782   2.745  11.389  1.00  0.00     0.024 A 
HETATM   35  C21 UNL     1      -5.116   2.686  11.781  1.00  0.00     0.036 A 
HETATM   36 CL1  UNL     1      -6.075   1.326  11.341  1.00  0.00    -0.084 Cl
HETATM   37  C22 UNL     1      -5.678   3.720  12.526  1.00  0.00     0.060 A 
ENDBRANCH  30  31
ENDBRANCH  29  30
ENDBRANCH  11  29
TORSDOF 9
ENDMDL
MODEL 8
REMARK minimizedAffinity -6.89150953
REMARK CNNscore 0.232184544
REMARK CNNaffinity 5.94677496
REMARK  9 active torsions:
REMARK  status: ('A' for Active; 'I' for Inactive)
REMARK    1  A    between atoms: O1_2  and  C2_3 
REMARK    2  A    between atoms: C2_3  and  C3_4 
REMARK    3  A    between atoms: C3_4  and  N1_5 
REMARK       I    between atoms: N1_5  and  C4_6 
REMARK    4  A    between atoms: C4_6  and  C5_8 
REMARK    5  A    between atoms: C5_8  and  C7_10 
REMARK    6  A    between atoms: C15_20  and  C16_21 
REMARK    7  A    between atoms: C16_21  and  O3_22 
REMARK    8  A    between atoms: O3_22  and  C17_23 
REMARK    9  A    between atoms: C26_34  and  O4_35 
ROOT
HETATM    1  C7  UNL     1      -2.750   8.954  14.927  1.00  0.00     0.027 C 
HETATM    2  C8  UNL     1      -3.974   9.774  15.354  1.00  0.00     0.009 C 
HETATM    3  C9  UNL     1      -3.537  11.062  16.043  1.00  0.00     0.010 C 
HETATM    4  C10 UNL     1      -2.652  10.854  17.300  1.00  0.00    -0.033 C 
HETATM    5  C11 UNL     1      -3.559  10.309  18.440  1.00  0.00     0.016 C 
HETATM    6  C12 UNL     1      -2.158  12.277  17.773  1.00  0.00     0.058 C 
HETATM    7  C13 UNL     1      -0.719  12.292  18.148  1.00  0.00     0.008 A 
HETATM    8  C14 UNL     1       0.240  11.465  17.617  1.00  0.00     0.027 A 
HETATM    9  N2  UNL     1       1.518  11.654  18.089  1.00  0.00    -0.354 N 
ATOM     10  H2  UNL     1       2.334  11.105  17.816  1.00  0.00     0.166 HD
HETATM   11  C15 UNL     1       1.526  12.657  18.950  1.00  0.00     0.076 A 
HETATM   12  S1  UNL     1      -0.019  13.368  19.259  1.00  0.00    -0.077 SA
HETATM   13  C23 UNL     1      -0.102  10.400  16.624  1.00  0.00     0.040 C 
HETATM   14  C24 UNL     1       0.008  10.941  15.201  1.00  0.00     0.017 C 
HETATM   15  C25 UNL     1      -1.487   9.798  17.037  1.00  0.00     0.033 C 
HETATM   16  C26 UNL     1      -1.896   8.585  16.159  1.00  0.00     0.128 C 
ENDROOT
BRANCH   1  17
HETATM   17  C5  UNL     1      -3.160   7.762  14.007  1.00  0.00     0.080 C 
HETATM   18  C6  UNL     1      -3.492   6.452  14.723  1.00  0.00     0.020 C 
BRANCH  17  19
HETATM   19  C4  UNL     1      -2.115   7.527  12.910  1.00  0.00     0.222 C 
HETATM   20  N1  UNL     1      -1.518   8.680  12.443  1.00  0.00    -0.359 N 
HETATM   21  H8  UNL     1      -1.581   9.506  13.026  1.00  0.00     0.162 HD
HETATM   22  O2  UNL     1      -1.804   6.413  12.496  1.00  0.00    -0.273 OA
BRANCH  20  23
HETATM   23  C3  UNL     1      -0.380   8.621  11.542  1.00  0.00     0.148 C 
BRANCH  23  24
HETATM   24  C2  UNL     1       0.945   8.720  12.305  1.00  0.00     0.186 C 
BRANCH  24  25
HETATM   25  O1  UNL     1       2.061   8.513  11.427  1.00  0.00    -0.394 OA
HETATM   26  C1  UNL     1       2.769   7.312  11.705  1.00  0.00     0.201 C 
ENDBRANCH  24  25
ENDBRANCH  23  24
ENDBRANCH  20  23
ENDBRANCH  17  19
ENDBRANCH   1  17
BRANCH  16  27
HETATM   27  O4  UNL     1      -2.636   7.680  16.985  1.00  0.00    -0.395 OA
HETATM   28  H35 UNL     1      -2.014   7.308  17.634  1.00  0.00     0.210 HD
ENDBRANCH  16  27
BRANCH  11  29
HETATM   29  C16 UNL     1       2.748  13.149  19.666  1.00  0.00     0.240 C 
BRANCH  29  30
HETATM   30  O3  UNL     1       2.557  12.981  21.073  1.00  0.00    -0.345 OA
BRANCH  30  31
HETATM   31  C17 UNL     1       3.206  11.986  21.744  1.00  0.00     0.070 A 
HETATM   32  C18 UNL     1       4.485  12.045  22.299  1.00  0.00     0.037 A 
HETATM   33  C19 UNL     1       5.020  10.932  22.958  1.00  0.00     0.004 A 
HETATM   34  C20 UNL     1       4.280   9.755  23.065  1.00  0.00     0.024 A 
HETATM   35  C21 UNL     1       3.004   9.696  22.510  1.00  0.00     0.036 A 
HETATM   36 CL1  UNL     1       2.085   8.246  22.636  1.00  0.00    -0.084 Cl
HETATM   37  C22 UNL     1       2.470  10.802  21.853  1.00  0.00     0.060 A 
ENDBRANCH  30  31
ENDBRANCH  29  30
ENDBRANCH  11  29
TORSDOF 9
ENDMDL
MODEL 9
REMARK minimizedAffinity -7.153584
REMARK CNNscore 0.231089786
REMARK CNNaffinity 6.75829506
REMARK  9 active torsions:
REMARK  status: ('A' for Active; 'I' for Inactive)
REMARK    1  A    between atoms: O1_2  and  C2_3 
REMARK    2  A    between atoms: C2_3  and  C3_4 
REMARK    3  A    between atoms: C3_4  and  N1_5 
REMARK       I    between atoms: N1_5  and  C4_6 
REMARK    4  A    between atoms: C4_6  and  C5_8 
REMARK    5  A    between atoms: C5_8  and  C7_10 
REMARK    6  A    between atoms: C15_20  and  C16_21 
REMARK    7  A    between atoms: C16_21  and  O3_22 
REMARK    8  A    between atoms: O3_22  and  C17_23 
REMARK    9  A    between atoms: C26_34  and  O4_35 
ROOT
HETATM    1  C7  UNL     1     -12.881   9.444  14.021  1.00  0.00     0.027 C 
HETATM    2  C8  UNL     1     -12.054  10.519  14.737  1.00  0.00     0.009 C 
HETATM    3  C9  UNL     1     -10.567  10.188  14.656  1.00  0.00     0.010 C 
HETATM    4  C10 UNL     1     -10.177   8.815  15.264  1.00  0.00    -0.033 C 
HETATM    5  C11 UNL     1     -10.277   8.931  16.812  1.00  0.00     0.016 C 
HETATM    6  C12 UNL     1      -8.652   8.568  14.940  1.00  0.00     0.058 C 
HETATM    7  C13 UNL     1      -8.376   7.178  14.489  1.00  0.00     0.008 A 
HETATM    8  C14 UNL     1      -9.272   6.374  13.830  1.00  0.00     0.027 A 
HETATM    9  N2  UNL     1      -8.811   5.125  13.485  1.00  0.00    -0.354 N 
ATOM     10  H2  UNL     1      -9.360   4.403  13.018  1.00  0.00     0.166 HD
HETATM   11  C15 UNL     1      -7.548   5.005  13.852  1.00  0.00     0.076 A 
HETATM   12  S1  UNL     1      -6.891   6.377  14.674  1.00  0.00    -0.077 SA
HETATM   13  C23 UNL     1     -10.672   6.820  13.549  1.00  0.00     0.040 C 
HETATM   14  C24 UNL     1     -10.751   7.509  12.190  1.00  0.00     0.017 C 
HETATM   15  C25 UNL     1     -11.157   7.653  14.784  1.00  0.00     0.033 C 
HETATM   16  C26 UNL     1     -12.650   8.065  14.676  1.00  0.00     0.128 C 
ENDROOT
BRANCH   1  17
HETATM   17  C5  UNL     1     -14.371   9.882  13.874  1.00  0.00     0.080 C 
HETATM   18  C6  UNL     1     -15.086  10.254  15.174  1.00  0.00     0.020 C 
BRANCH  17  19
HETATM   19  C4  UNL     1     -15.179   8.837  13.095  1.00  0.00     0.222 C 
HETATM   20  N1  UNL     1     -16.112   8.163  13.855  1.00  0.00    -0.359 N 
HETATM   21  H8  UNL     1     -16.392   8.587  14.731  1.00  0.00     0.162 HD
HETATM   22  O2  UNL     1     -15.038   8.630  11.892  1.00  0.00    -0.273 OA
BRANCH  20  23
HETATM   23  C3  UNL     1     -17.084   7.279  13.235  1.00  0.00     0.148 C 
BRANCH  23  24
HETATM   24  C2  UNL     1     -17.786   6.398  14.274  1.00  0.00     0.186 C 
BRANCH  24  25
HETATM   25  O1  UNL     1     -18.999   5.845  13.744  1.00  0.00    -0.394 OA
HETATM   26  C1  UNL     1     -19.064   4.431  13.871  1.00  0.00     0.201 C 
ENDBRANCH  24  25
ENDBRANCH  23  24
ENDBRANCH  20  23
ENDBRANCH  17  19
ENDBRANCH   1  17
BRANCH  16  27
HETATM   27  O4  UNL     1     -13.192   8.082  16.001  1.00  0.00    -0.395 OA
HETATM   28  H35 UNL     1     -13.220   7.160  16.312  1.00  0.00     0.210 HD
ENDBRANCH  16  27
BRANCH  11  29
HETATM   29  C16 UNL     1      -6.715   3.777  13.636  1.00  0.00     0.240 C 
BRANCH  29  30
HETATM   30  O3  UNL     1      -6.306   3.731  12.267  1.00  0.00    -0.345 OA
BRANCH  30  31
HETATM   31  C17 UNL     1      -4.985   3.816  11.938  1.00  0.00     0.070 A 
HETATM   32  C18 UNL     1      -4.381   3.354  10.768  1.00  0.00     0.037 A 
HETATM   33  C19 UNL     1      -3.003   3.511  10.577  1.00  0.00     0.004 A 
HETATM   34  C20 UNL     1      -2.223   4.130  11.552  1.00  0.00     0.024 A 
HETATM   35  C21 UNL     1      -2.825   4.590  12.720  1.00  0.00     0.036 A 
HETATM   36 CL1  UNL     1      -1.869   5.353  13.930  1.00  0.00    -0.084 Cl
HETATM   37  C22 UNL     1      -4.196   4.434  12.914  1.00  0.00     0.060 A 
ENDBRANCH  30  31
ENDBRANCH  29  30
ENDBRANCH  11  29
TORSDOF 9
ENDMDL
