MODEL 1
REMARK minimizedAffinity -9.35338402
REMARK CNNscore 0.624207616
REMARK CNNaffinity 7.6949172
REMARK  14 active torsions:
REMARK  status: ('A' for Active; 'I' for Inactive)
REMARK    1  A    between atoms: C19_20  and  O2_21 
REMARK    2  A    between atoms: C19_20  and  C20_22 
REMARK    3  A    between atoms: C20_22  and  C21_24 
REMARK    4  A    between atoms: C21_24  and  O4_25 
REMARK    5  A    between atoms: O4_25  and  C22_26 
REMARK    6  A    between atoms: C22_26  and  C23_28 
REMARK    7  A    between atoms: C23_28  and  C24_29 
REMARK    8  A    between atoms: C24_29  and  C25_30 
REMARK       I    between atoms: C25_30  and  N1_32 
REMARK    9  A    between atoms: N1_32  and  C26_33 
REMARK   10  A    between atoms: C26_33  and  C27_34 
REMARK   11  A    between atoms: C27_34  and  C28_35 
REMARK   12  A    between atoms: C27_34  and  C30_39 
REMARK   13  A    between atoms: C28_35  and  C29_36 
REMARK   14  A    between atoms: C29_36  and  O8_38 
ROOT
HETATM    1  C20 UNL     1      -5.767   4.744  13.640  1.00  0.00     0.185 C 
HETATM    2  O3  UNL     1      -6.012   3.747  12.943  1.00  0.00    -0.292 OA
ENDROOT
BRANCH   1   3
HETATM    3  C19 UNL     1      -6.833   5.228  14.641  1.00  0.00     0.128 C 
HETATM    4  C14 UNL     1      -7.871   6.233  14.050  1.00  0.00    -0.002 C 
HETATM    5  C13 UNL     1      -8.946   5.646  13.120  1.00  0.00     0.013 C 
HETATM    6  C15 UNL     1      -7.147   7.398  13.325  1.00  0.00     0.019 C 
HETATM    7  C16 UNL     1      -8.582   6.670  15.354  1.00  0.00     0.002 C 
HETATM    8  C12 UNL     1     -10.092   6.642  12.852  1.00  0.00     0.007 C 
HETATM    9  C11 UNL     1     -10.728   7.209  14.146  1.00  0.00     0.002 C 
HETATM   10  C2  UNL     1     -11.876   8.258  13.907  1.00  0.00    -0.016 C 
HETATM   11  C10 UNL     1      -9.634   7.761  15.129  1.00  0.00    -0.004 C 
HETATM   12  C1  UNL     1     -11.355   9.526  13.182  1.00  0.00     0.020 C 
HETATM   13  C3  UNL     1     -13.032   7.719  13.015  1.00  0.00     0.022 C 
HETATM   14  C7  UNL     1     -12.412   8.619  15.302  1.00  0.00    -0.068 C 
HETATM   15  C4  UNL     1     -13.965   6.763  13.736  1.00  0.00     0.084 C 
HETATM   16  C5  UNL     1     -14.552   7.458  14.939  1.00  0.00     0.149 C 
HETATM   17  O1  UNL     1     -15.709   7.282  15.309  1.00  0.00    -0.293 OA
HETATM   18  C6  UNL     1     -13.644   8.309  15.744  1.00  0.00     0.053 C 
HETATM   19  C8  UNL     1     -11.404   9.225  16.246  1.00  0.00     0.035 C 
HETATM   20  C9  UNL     1     -10.257   8.235  16.458  1.00  0.00     0.010 C 
HETATM   21  C17 UNL     1      -7.430   6.949  16.314  1.00  0.00     0.009 C 
HETATM   22  C18 UNL     1      -6.335   5.934  15.923  1.00  0.00     0.047 C 
BRANCH   3  23
HETATM   23  O2  UNL     1      -7.515   4.034  15.075  1.00  0.00    -0.381 OA
HETATM   24  H27 UNL     1      -7.590   3.461  14.285  1.00  0.00     0.211 HD
ENDBRANCH   3  23
ENDBRANCH   1   3
BRANCH   1  25
HETATM   25  C21 UNL     1      -4.453   5.510  13.516  1.00  0.00     0.260 C 
BRANCH  25  26
HETATM   26  O4  UNL     1      -3.321   4.636  13.538  1.00  0.00    -0.314 OA
BRANCH  26  27
HETATM   27  C22 UNL     1      -2.179   5.186  13.039  1.00  0.00     0.259 C 
HETATM   28  O5  UNL     1      -1.602   6.157  13.514  1.00  0.00    -0.265 OA
BRANCH  27  29
HETATM   29  C23 UNL     1      -1.715   4.410  11.831  1.00  0.00     0.120 C 
BRANCH  29  30
HETATM   30  C24 UNL     1      -0.827   5.268  10.937  1.00  0.00     0.112 C 
BRANCH  30  31
HETATM   31  C25 UNL     1       0.641   5.091  11.271  1.00  0.00     0.218 C 
HETATM   32  O6  UNL     1       1.185   3.994  11.347  1.00  0.00    -0.274 OA
HETATM   33  N1  UNL     1       1.291   6.282  11.511  1.00  0.00    -0.360 N 
HETATM   34  H34 UNL     1       0.730   7.119  11.629  1.00  0.00     0.162 HD
BRANCH  33  35
HETATM   35  C26 UNL     1       2.695   6.348  11.862  1.00  0.00     0.132 C 
BRANCH  35  36
HETATM   36  C27 UNL     1       3.670   6.400  10.659  1.00  0.00     0.046 C 
BRANCH  36  37
HETATM   37  C28 UNL     1       5.003   7.096  11.004  1.00  0.00     0.120 C 
BRANCH  37  38
HETATM   38  C29 UNL     1       6.287   6.311  10.904  1.00  0.00     0.140 C 
HETATM   39  O7  UNL     1       7.399   6.802  11.051  1.00  0.00    -0.650 OA
BRANCH  38  40
HETATM   40  O8  UNL     1       6.181   4.996  10.649  1.00  0.00    -0.776 OA
HETATM   41  H40 UNL     1       7.107   4.679  10.729  1.00  0.00     0.167 HD
ENDBRANCH  38  40
ENDBRANCH  37  38
ENDBRANCH  36  37
BRANCH  36  42
HETATM   42  C30 UNL     1       3.093   6.796   9.299  1.00  0.00    -0.052 A 
HETATM   43  C31 UNL     1       2.892   5.796   8.329  1.00  0.00     0.007 A 
HETATM   44  C32 UNL     1       2.355   6.099   7.075  1.00  0.00     0.001 A 
HETATM   45  C33 UNL     1       2.000   7.409   6.770  1.00  0.00     0.000 A 
HETATM   46  C34 UNL     1       2.184   8.412   7.717  1.00  0.00     0.001 A 
HETATM   47  C35 UNL     1       2.722   8.108   8.972  1.00  0.00     0.007 A 
ENDBRANCH  36  42
ENDBRANCH  35  36
ENDBRANCH  33  35
ENDBRANCH  30  31
ENDBRANCH  29  30
ENDBRANCH  27  29
ENDBRANCH  26  27
ENDBRANCH  25  26
ENDBRANCH   1  25
TORSDOF 14
ENDMDL
MODEL 2
REMARK minimizedAffinity -9.15400314
REMARK CNNscore 0.574409962
REMARK CNNaffinity 7.88637495
REMARK  14 active torsions:
REMARK  status: ('A' for Active; 'I' for Inactive)
REMARK    1  A    between atoms: C19_20  and  O2_21 
REMARK    2  A    between atoms: C19_20  and  C20_22 
REMARK    3  A    between atoms: C20_22  and  C21_24 
REMARK    4  A    between atoms: C21_24  and  O4_25 
REMARK    5  A    between atoms: O4_25  and  C22_26 
REMARK    6  A    between atoms: C22_26  and  C23_28 
REMARK    7  A    between atoms: C23_28  and  C24_29 
REMARK    8  A    between atoms: C24_29  and  C25_30 
REMARK       I    between atoms: C25_30  and  N1_32 
REMARK    9  A    between atoms: N1_32  and  C26_33 
REMARK   10  A    between atoms: C26_33  and  C27_34 
REMARK   11  A    between atoms: C27_34  and  C28_35 
REMARK   12  A    between atoms: C27_34  and  C30_39 
REMARK   13  A    between atoms: C28_35  and  C29_36 
REMARK   14  A    between atoms: C29_36  and  O8_38 
ROOT
HETATM    1  C20 UNL     1      -5.996   4.811  13.878  1.00  0.00     0.185 C 
HETATM    2  O3  UNL     1      -4.848   5.277  13.926  1.00  0.00    -0.292 OA
ENDROOT
BRANCH   1   3
HETATM    3  C19 UNL     1      -7.040   5.308  14.897  1.00  0.00     0.128 C 
HETATM    4  C14 UNL     1      -8.026   6.385  14.346  1.00  0.00    -0.002 C 
HETATM    5  C13 UNL     1      -9.126   5.890  13.392  1.00  0.00     0.013 C 
HETATM    6  C15 UNL     1      -7.243   7.541  13.669  1.00  0.00     0.019 C 
HETATM    7  C16 UNL     1      -8.718   6.804  15.666  1.00  0.00     0.002 C 
HETATM    8  C12 UNL     1     -10.221   6.950  13.163  1.00  0.00     0.007 C 
HETATM    9  C11 UNL     1     -10.832   7.496  14.478  1.00  0.00     0.002 C 
HETATM   10  C2  UNL     1     -11.925   8.609  14.280  1.00  0.00    -0.016 C 
HETATM   11  C10 UNL     1      -9.715   7.954  15.484  1.00  0.00    -0.004 C 
HETATM   12  C1  UNL     1     -11.341   9.878  13.607  1.00  0.00     0.020 C 
HETATM   13  C3  UNL     1     -13.104   8.164  13.366  1.00  0.00     0.022 C 
HETATM   14  C7  UNL     1     -12.447   8.940  15.688  1.00  0.00    -0.068 C 
HETATM   15  C4  UNL     1     -14.086   7.227  14.047  1.00  0.00     0.084 C 
HETATM   16  C5  UNL     1     -14.641   7.902  15.276  1.00  0.00     0.149 C 
HETATM   17  O1  UNL     1     -15.807   7.768  15.637  1.00  0.00    -0.293 OA
HETATM   18  C6  UNL     1     -13.695   8.674  16.115  1.00  0.00     0.053 C 
HETATM   19  C8  UNL     1     -11.413   9.457  16.657  1.00  0.00     0.035 C 
HETATM   20  C9  UNL     1     -10.317   8.404  16.830  1.00  0.00     0.010 C 
HETATM   21  C17 UNL     1      -7.557   6.988  16.637  1.00  0.00     0.009 C 
HETATM   22  C18 UNL     1      -6.512   5.936  16.206  1.00  0.00     0.047 C 
BRANCH   3  23
HETATM   23  O2  UNL     1      -7.781   4.132  15.282  1.00  0.00    -0.381 OA
HETATM   24  H27 UNL     1      -7.883   3.595  14.470  1.00  0.00     0.211 HD
ENDBRANCH   3  23
ENDBRANCH   1   3
BRANCH   1  25
HETATM   25  C21 UNL     1      -6.394   3.751  12.855  1.00  0.00     0.260 C 
BRANCH  25  26
HETATM   26  O4  UNL     1      -5.265   3.009  12.387  1.00  0.00    -0.314 OA
BRANCH  26  27
HETATM   27  C22 UNL     1      -5.100   3.034  11.035  1.00  0.00     0.259 C 
HETATM   28  O5  UNL     1      -5.951   2.702  10.219  1.00  0.00    -0.265 OA
BRANCH  27  29
HETATM   29  C23 UNL     1      -3.726   3.552  10.690  1.00  0.00     0.120 C 
BRANCH  29  30
HETATM   30  C24 UNL     1      -2.765   3.381  11.861  1.00  0.00     0.112 C 
BRANCH  30  31
HETATM   31  C25 UNL     1      -1.319   3.377  11.404  1.00  0.00     0.218 C 
HETATM   32  O6  UNL     1      -0.849   2.512  10.672  1.00  0.00    -0.274 OA
HETATM   33  N1  UNL     1      -0.585   4.421  11.920  1.00  0.00    -0.360 N 
HETATM   34  H34 UNL     1      -0.990   4.969  12.673  1.00  0.00     0.162 HD
BRANCH  33  35
HETATM   35  C26 UNL     1       0.823   4.605  11.627  1.00  0.00     0.132 C 
BRANCH  35  36
HETATM   36  C27 UNL     1       1.277   6.079  11.488  1.00  0.00     0.046 C 
BRANCH  36  37
HETATM   37  C28 UNL     1       0.529   7.025  12.451  1.00  0.00     0.120 C 
BRANCH  37  38
HETATM   38  C29 UNL     1       1.074   7.237  13.841  1.00  0.00     0.140 C 
HETATM   39  O7  UNL     1       0.815   8.215  14.532  1.00  0.00    -0.650 OA
BRANCH  38  40
HETATM   40  O8  UNL     1       1.879   6.282  14.334  1.00  0.00    -0.776 OA
HETATM   41  H40 UNL     1       2.026   6.572  15.260  1.00  0.00     0.167 HD
ENDBRANCH  38  40
ENDBRANCH  37  38
ENDBRANCH  36  37
BRANCH  36  42
HETATM   42  C30 UNL     1       1.447   6.636  10.074  1.00  0.00    -0.052 A 
HETATM   43  C31 UNL     1       2.399   6.045   9.221  1.00  0.00     0.007 A 
HETATM   44  C32 UNL     1       2.587   6.504   7.915  1.00  0.00     0.001 A 
HETATM   45  C33 UNL     1       1.819   7.560   7.433  1.00  0.00     0.000 A 
HETATM   46  C34 UNL     1       0.868   8.154   8.257  1.00  0.00     0.001 A 
HETATM   47  C35 UNL     1       0.681   7.694   9.565  1.00  0.00     0.007 A 
ENDBRANCH  36  42
ENDBRANCH  35  36
ENDBRANCH  33  35
ENDBRANCH  30  31
ENDBRANCH  29  30
ENDBRANCH  27  29
ENDBRANCH  26  27
ENDBRANCH  25  26
ENDBRANCH   1  25
TORSDOF 14
ENDMDL
MODEL 3
REMARK minimizedAffinity -8.75412083
REMARK CNNscore 0.557614088
REMARK CNNaffinity 7.29318476
REMARK  14 active torsions:
REMARK  status: ('A' for Active; 'I' for Inactive)
REMARK    1  A    between atoms: C19_20  and  O2_21 
REMARK    2  A    between atoms: C19_20  and  C20_22 
REMARK    3  A    between atoms: C20_22  and  C21_24 
REMARK    4  A    between atoms: C21_24  and  O4_25 
REMARK    5  A    between atoms: O4_25  and  C22_26 
REMARK    6  A    between atoms: C22_26  and  C23_28 
REMARK    7  A    between atoms: C23_28  and  C24_29 
REMARK    8  A    between atoms: C24_29  and  C25_30 
REMARK       I    between atoms: C25_30  and  N1_32 
REMARK    9  A    between atoms: N1_32  and  C26_33 
REMARK   10  A    between atoms: C26_33  and  C27_34 
REMARK   11  A    between atoms: C27_34  and  C28_35 
REMARK   12  A    between atoms: C27_34  and  C30_39 
REMARK   13  A    between atoms: C28_35  and  C29_36 
REMARK   14  A    between atoms: C29_36  and  O8_38 
ROOT
HETATM    1  C20 UNL     1      -0.995   8.078  14.565  1.00  0.00     0.185 C 
HETATM    2  O3  UNL     1      -1.293   8.942  15.404  1.00  0.00    -0.292 OA
ENDROOT
BRANCH   1   3
HETATM    3  C19 UNL     1      -2.110   7.488  13.681  1.00  0.00     0.128 C 
HETATM    4  C14 UNL     1      -3.371   7.003  14.462  1.00  0.00    -0.002 C 
HETATM    5  C13 UNL     1      -4.312   8.095  14.998  1.00  0.00     0.013 C 
HETATM    6  C15 UNL     1      -2.960   6.063  15.627  1.00  0.00     0.019 C 
HETATM    7  C16 UNL     1      -4.119   6.272  13.320  1.00  0.00     0.002 C 
HETATM    8  C12 UNL     1      -5.665   7.522  15.463  1.00  0.00     0.007 C 
HETATM    9  C11 UNL     1      -6.371   6.661  14.385  1.00  0.00     0.002 C 
HETATM   10  C2  UNL     1      -7.737   6.030  14.842  1.00  0.00    -0.016 C 
HETATM   11  C10 UNL     1      -5.402   5.577  13.790  1.00  0.00    -0.004 C 
HETATM   12  C1  UNL     1      -7.548   5.038  16.019  1.00  0.00     0.020 C 
HETATM   13  C3  UNL     1      -8.767   7.081  15.349  1.00  0.00     0.022 C 
HETATM   14  C7  UNL     1      -8.295   5.300  13.609  1.00  0.00    -0.068 C 
HETATM   15  C4  UNL     1      -9.430   7.874  14.237  1.00  0.00     0.084 C 
HETATM   16  C5  UNL     1     -10.121   6.921  13.295  1.00  0.00     0.149 C 
HETATM   17  O1  UNL     1     -11.193   7.181  12.756  1.00  0.00    -0.293 OA
HETATM   18  C6  UNL     1      -9.407   5.669  12.949  1.00  0.00     0.053 C 
HETATM   19  C8  UNL     1      -7.423   4.198  13.059  1.00  0.00     0.035 C 
HETATM   20  C9  UNL     1      -6.072   4.787  12.649  1.00  0.00     0.010 C 
HETATM   21  C17 UNL     1      -3.031   5.433  12.658  1.00  0.00     0.009 C 
HETATM   22  C18 UNL     1      -1.746   6.276  12.793  1.00  0.00     0.047 C 
BRANCH   3  23
HETATM   23  O2  UNL     1      -2.482   8.551  12.781  1.00  0.00    -0.381 OA
HETATM   24  H27 UNL     1      -2.449   9.377  13.306  1.00  0.00     0.211 HD
ENDBRANCH   3  23
ENDBRANCH   1   3
BRANCH   1  25
HETATM   25  C21 UNL     1       0.436   7.575  14.401  1.00  0.00     0.260 C 
BRANCH  25  26
HETATM   26  O4  UNL     1       1.367   8.649  14.242  1.00  0.00    -0.314 OA
BRANCH  26  27
HETATM   27  C22 UNL     1       2.023   8.996  15.384  1.00  0.00     0.259 C 
HETATM   28  O5  UNL     1       1.702   9.919  16.124  1.00  0.00    -0.265 OA
BRANCH  27  29
HETATM   29  C23 UNL     1       3.185   8.064  15.619  1.00  0.00     0.120 C 
BRANCH  29  30
HETATM   30  C24 UNL     1       4.475   8.643  15.048  1.00  0.00     0.112 C 
BRANCH  30  31
HETATM   31  C25 UNL     1       4.993   7.817  13.886  1.00  0.00     0.218 C 
HETATM   32  O6  UNL     1       6.151   7.419  13.810  1.00  0.00    -0.274 OA
HETATM   33  N1  UNL     1       4.043   7.589  12.916  1.00  0.00    -0.360 N 
HETATM   34  H34 UNL     1       3.179   8.119  12.955  1.00  0.00     0.162 HD
BRANCH  33  35
HETATM   35  C26 UNL     1       4.325   6.834  11.711  1.00  0.00     0.132 C 
BRANCH  35  36
HETATM   36  C27 UNL     1       4.290   7.657  10.399  1.00  0.00     0.046 C 
BRANCH  36  37
HETATM   37  C28 UNL     1       5.151   8.935  10.476  1.00  0.00     0.120 C 
BRANCH  37  38
HETATM   38  C29 UNL     1       6.654   8.808  10.489  1.00  0.00     0.140 C 
HETATM   39  O7  UNL     1       7.419   9.756  10.360  1.00  0.00    -0.650 OA
BRANCH  38  40
HETATM   40  O8  UNL     1       7.161   7.577  10.665  1.00  0.00    -0.776 OA
HETATM   41  H40 UNL     1       8.126   7.743  10.741  1.00  0.00     0.167 HD
ENDBRANCH  38  40
ENDBRANCH  37  38
ENDBRANCH  36  37
BRANCH  36  42
HETATM   42  C30 UNL     1       2.932   7.859   9.727  1.00  0.00    -0.052 A 
HETATM   43  C31 UNL     1       2.874   7.932   8.322  1.00  0.00     0.007 A 
HETATM   44  C32 UNL     1       1.658   8.102   7.655  1.00  0.00     0.001 A 
HETATM   45  C33 UNL     1       0.474   8.194   8.380  1.00  0.00     0.000 A 
HETATM   46  C34 UNL     1       0.509   8.116   9.770  1.00  0.00     0.001 A 
HETATM   47  C35 UNL     1       1.727   7.946  10.437  1.00  0.00     0.007 A 
ENDBRANCH  36  42
ENDBRANCH  35  36
ENDBRANCH  33  35
ENDBRANCH  30  31
ENDBRANCH  29  30
ENDBRANCH  27  29
ENDBRANCH  26  27
ENDBRANCH  25  26
ENDBRANCH   1  25
TORSDOF 14
ENDMDL
MODEL 4
REMARK minimizedAffinity -9.49294376
REMARK CNNscore 0.472803295
REMARK CNNaffinity 7.18898058
REMARK  14 active torsions:
REMARK  status: ('A' for Active; 'I' for Inactive)
REMARK    1  A    between atoms: C19_20  and  O2_21 
REMARK    2  A    between atoms: C19_20  and  C20_22 
REMARK    3  A    between atoms: C20_22  and  C21_24 
REMARK    4  A    between atoms: C21_24  and  O4_25 
REMARK    5  A    between atoms: O4_25  and  C22_26 
REMARK    6  A    between atoms: C22_26  and  C23_28 
REMARK    7  A    between atoms: C23_28  and  C24_29 
REMARK    8  A    between atoms: C24_29  and  C25_30 
REMARK       I    between atoms: C25_30  and  N1_32 
REMARK    9  A    between atoms: N1_32  and  C26_33 
REMARK   10  A    between atoms: C26_33  and  C27_34 
REMARK   11  A    between atoms: C27_34  and  C28_35 
REMARK   12  A    between atoms: C27_34  and  C30_39 
REMARK   13  A    between atoms: C28_35  and  C29_36 
REMARK   14  A    between atoms: C29_36  and  O8_38 
ROOT
HETATM    1  C20 UNL     1      -1.355   8.398  15.136  1.00  0.00     0.185 C 
HETATM    2  O3  UNL     1      -1.608   9.423  15.788  1.00  0.00    -0.292 OA
ENDROOT
BRANCH   1   3
HETATM    3  C19 UNL     1      -2.401   7.883  14.128  1.00  0.00     0.128 C 
HETATM    4  C14 UNL     1      -3.673   7.254  14.776  1.00  0.00    -0.002 C 
HETATM    5  C13 UNL     1      -4.686   8.231  15.397  1.00  0.00     0.013 C 
HETATM    6  C15 UNL     1      -3.274   6.189  15.832  1.00  0.00     0.019 C 
HETATM    7  C16 UNL     1      -4.335   6.648  13.515  1.00  0.00     0.002 C 
HETATM    8  C12 UNL     1      -6.032   7.552  15.717  1.00  0.00     0.007 C 
HETATM    9  C11 UNL     1      -6.649   6.810  14.503  1.00  0.00     0.002 C 
HETATM   10  C2  UNL     1      -8.005   6.072  14.807  1.00  0.00    -0.016 C 
HETATM   11  C10 UNL     1      -5.606   5.849  13.827  1.00  0.00    -0.004 C 
HETATM   12  C1  UNL     1      -7.825   4.946  15.857  1.00  0.00     0.020 C 
HETATM   13  C3  UNL     1      -9.102   7.009  15.390  1.00  0.00     0.022 C 
HETATM   14  C7  UNL     1      -8.472   5.486  13.465  1.00  0.00    -0.068 C 
HETATM   15  C4  UNL     1      -9.749   7.912  14.355  1.00  0.00     0.084 C 
HETATM   16  C5  UNL     1     -10.352   7.062  13.265  1.00  0.00     0.149 C 
HETATM   17  O1  UNL     1     -11.409   7.348  12.709  1.00  0.00    -0.293 OA
HETATM   18  C6  UNL     1      -9.568   5.893  12.801  1.00  0.00     0.053 C 
HETATM   19  C8  UNL     1      -7.528   4.499  12.826  1.00  0.00     0.035 C 
HETATM   20  C9  UNL     1      -6.187   5.187  12.562  1.00  0.00     0.010 C 
HETATM   21  C17 UNL     1      -3.182   5.943  12.808  1.00  0.00     0.009 C 
HETATM   22  C18 UNL     1      -1.943   6.811  13.114  1.00  0.00     0.047 C 
BRANCH   3  23
HETATM   23  O2  UNL     1      -2.779   9.038  13.352  1.00  0.00    -0.381 OA
HETATM   24  H27 UNL     1      -2.807   9.791  13.978  1.00  0.00     0.211 HD
ENDBRANCH   3  23
ENDBRANCH   1   3
BRANCH   1  25
HETATM   25  C21 UNL     1      -0.050   7.628  15.319  1.00  0.00     0.260 C 
BRANCH  25  26
HETATM   26  O4  UNL     1       0.802   8.244  16.289  1.00  0.00    -0.314 OA
BRANCH  26  27
HETATM   27  C22 UNL     1       2.055   8.525  15.836  1.00  0.00     0.259 C 
HETATM   28  O5  UNL     1       3.059   7.874  16.101  1.00  0.00    -0.265 OA
BRANCH  27  29
HETATM   29  C23 UNL     1       2.023   9.739  14.941  1.00  0.00     0.120 C 
BRANCH  29  30
HETATM   30  C24 UNL     1       3.060   9.626  13.828  1.00  0.00     0.112 C 
BRANCH  30  31
HETATM   31  C25 UNL     1       2.629   8.640  12.759  1.00  0.00     0.218 C 
HETATM   32  O6  UNL     1       1.674   8.835  12.013  1.00  0.00    -0.274 OA
HETATM   33  N1  UNL     1       3.395   7.496  12.735  1.00  0.00    -0.360 N 
HETATM   34  H34 UNL     1       4.026   7.324  13.511  1.00  0.00     0.162 HD
BRANCH  33  35
HETATM   35  C26 UNL     1       3.151   6.414  11.802  1.00  0.00     0.132 C 
BRANCH  35  36
HETATM   36  C27 UNL     1       4.012   6.451  10.515  1.00  0.00     0.046 C 
BRANCH  36  37
HETATM   37  C28 UNL     1       5.339   7.214  10.710  1.00  0.00     0.120 C 
BRANCH  37  38
HETATM   38  C29 UNL     1       6.591   6.437  11.030  1.00  0.00     0.140 C 
HETATM   39  O7  UNL     1       6.776   5.273  10.696  1.00  0.00    -0.650 OA
BRANCH  38  40
HETATM   40  O8  UNL     1       7.552   7.081  11.713  1.00  0.00    -0.776 OA
HETATM   41  H40 UNL     1       8.292   6.436  11.718  1.00  0.00     0.167 HD
ENDBRANCH  38  40
ENDBRANCH  37  38
ENDBRANCH  36  37
BRANCH  36  42
HETATM   42  C30 UNL     1       3.301   6.762   9.198  1.00  0.00    -0.052 A 
HETATM   43  C31 UNL     1       3.024   8.105   8.876  1.00  0.00     0.007 A 
HETATM   44  C32 UNL     1       2.389   8.447   7.680  1.00  0.00     0.001 A 
HETATM   45  C33 UNL     1       2.026   7.453   6.776  1.00  0.00     0.000 A 
HETATM   46  C34 UNL     1       2.297   6.120   7.072  1.00  0.00     0.001 A 
HETATM   47  C35 UNL     1       2.933   5.778   8.270  1.00  0.00     0.007 A 
ENDBRANCH  36  42
ENDBRANCH  35  36
ENDBRANCH  33  35
ENDBRANCH  30  31
ENDBRANCH  29  30
ENDBRANCH  27  29
ENDBRANCH  26  27
ENDBRANCH  25  26
ENDBRANCH   1  25
TORSDOF 14
ENDMDL
MODEL 5
REMARK minimizedAffinity -8.57553673
REMARK CNNscore 0.434949845
REMARK CNNaffinity 7.26563454
REMARK  14 active torsions:
REMARK  status: ('A' for Active; 'I' for Inactive)
REMARK    1  A    between atoms: C19_20  and  O2_21 
REMARK    2  A    between atoms: C19_20  and  C20_22 
REMARK    3  A    between atoms: C20_22  and  C21_24 
REMARK    4  A    between atoms: C21_24  and  O4_25 
REMARK    5  A    between atoms: O4_25  and  C22_26 
REMARK    6  A    between atoms: C22_26  and  C23_28 
REMARK    7  A    between atoms: C23_28  and  C24_29 
REMARK    8  A    between atoms: C24_29  and  C25_30 
REMARK       I    between atoms: C25_30  and  N1_32 
REMARK    9  A    between atoms: N1_32  and  C26_33 
REMARK   10  A    between atoms: C26_33  and  C27_34 
REMARK   11  A    between atoms: C27_34  and  C28_35 
REMARK   12  A    between atoms: C27_34  and  C30_39 
REMARK   13  A    between atoms: C28_35  and  C29_36 
REMARK   14  A    between atoms: C29_36  and  O8_38 
ROOT
HETATM    1  C20 UNL     1      -6.017   4.713  13.591  1.00  0.00     0.185 C 
HETATM    2  O3  UNL     1      -6.389   3.729  12.934  1.00  0.00    -0.292 OA
ENDROOT
BRANCH   1   3
HETATM    3  C19 UNL     1      -6.944   5.265  14.690  1.00  0.00     0.128 C 
HETATM    4  C14 UNL     1      -7.940   6.366  14.209  1.00  0.00    -0.002 C 
HETATM    5  C13 UNL     1      -9.140   5.891  13.371  1.00  0.00     0.013 C 
HETATM    6  C15 UNL     1      -7.186   7.481  13.437  1.00  0.00     0.019 C 
HETATM    7  C16 UNL     1      -8.493   6.834  15.577  1.00  0.00     0.002 C 
HETATM    8  C12 UNL     1     -10.216   6.984  13.221  1.00  0.00     0.007 C 
HETATM    9  C11 UNL     1     -10.684   7.577  14.575  1.00  0.00     0.002 C 
HETATM   10  C2  UNL     1     -11.754   8.723  14.454  1.00  0.00    -0.016 C 
HETATM   11  C10 UNL     1      -9.464   8.014  15.462  1.00  0.00    -0.004 C 
HETATM   12  C1  UNL     1     -11.193   9.958  13.702  1.00  0.00     0.020 C 
HETATM   13  C3  UNL     1     -13.026   8.301  13.663  1.00  0.00     0.022 C 
HETATM   14  C7  UNL     1     -12.131   9.098  15.896  1.00  0.00    -0.068 C 
HETATM   15  C4  UNL     1     -13.971   7.413  14.453  1.00  0.00     0.084 C 
HETATM   16  C5  UNL     1     -14.387   8.130  15.712  1.00  0.00     0.149 C 
HETATM   17  O1  UNL     1     -15.517   8.043  16.183  1.00  0.00    -0.293 OA
HETATM   18  C6  UNL     1     -13.341   8.885  16.443  1.00  0.00     0.053 C 
HETATM   19  C8  UNL     1     -10.995   9.598  16.753  1.00  0.00     0.035 C 
HETATM   20  C9  UNL     1      -9.923   8.511  16.848  1.00  0.00     0.010 C 
HETATM   21  C17 UNL     1      -7.240   6.995  16.433  1.00  0.00     0.009 C 
HETATM   22  C18 UNL     1      -6.276   5.900  15.931  1.00  0.00     0.047 C 
BRANCH   3  23
HETATM   23  O2  UNL     1      -7.684   4.124  15.169  1.00  0.00    -0.381 OA
HETATM   24  H27 UNL     1      -7.878   3.575  14.381  1.00  0.00     0.211 HD
ENDBRANCH   3  23
ENDBRANCH   1   3
BRANCH   1  25
HETATM   25  C21 UNL     1      -4.680   5.400  13.325  1.00  0.00     0.260 C 
BRANCH  25  26
HETATM   26  O4  UNL     1      -3.973   4.793  12.240  1.00  0.00    -0.314 OA
BRANCH  26  27
HETATM   27  C22 UNL     1      -2.646   4.598  12.474  1.00  0.00     0.259 C 
HETATM   28  O5  UNL     1      -2.044   3.550  12.268  1.00  0.00    -0.265 OA
BRANCH  27  29
HETATM   29  C23 UNL     1      -2.020   5.866  13.000  1.00  0.00     0.120 C 
BRANCH  29  30
HETATM   30  C24 UNL     1      -0.505   5.730  13.093  1.00  0.00     0.112 C 
BRANCH  30  31
HETATM   31  C25 UNL     1       0.149   5.797  11.726  1.00  0.00     0.218 C 
HETATM   32  O6  UNL     1      -0.467   6.068  10.700  1.00  0.00    -0.274 OA
HETATM   33  N1  UNL     1       1.491   5.491  11.751  1.00  0.00    -0.360 N 
HETATM   34  H34 UNL     1       1.876   5.082  12.596  1.00  0.00     0.162 HD
BRANCH  33  35
HETATM   35  C26 UNL     1       2.311   5.480  10.555  1.00  0.00     0.132 C 
BRANCH  35  36
HETATM   36  C27 UNL     1       2.908   6.852  10.156  1.00  0.00     0.046 C 
BRANCH  36  37
HETATM   37  C28 UNL     1       2.900   7.082   8.630  1.00  0.00     0.120 C 
BRANCH  37  38
HETATM   38  C29 UNL     1       2.483   8.429   8.094  1.00  0.00     0.140 C 
HETATM   39  O7  UNL     1       3.241   9.194   7.510  1.00  0.00    -0.650 OA
BRANCH  38  40
HETATM   40  O8  UNL     1       1.200   8.785   8.268  1.00  0.00    -0.776 OA
HETATM   41  H40 UNL     1       1.133   9.625   7.764  1.00  0.00     0.167 HD
ENDBRANCH  38  40
ENDBRANCH  37  38
ENDBRANCH  36  37
BRANCH  36  42
HETATM   42  C30 UNL     1       4.200   7.288  10.846  1.00  0.00    -0.052 A 
HETATM   43  C31 UNL     1       5.168   6.313  11.155  1.00  0.00     0.007 A 
HETATM   44  C32 UNL     1       6.373   6.658  11.773  1.00  0.00     0.001 A 
HETATM   45  C33 UNL     1       6.638   7.988  12.087  1.00  0.00     0.000 A 
HETATM   46  C34 UNL     1       5.698   8.968  11.783  1.00  0.00     0.001 A 
HETATM   47  C35 UNL     1       4.491   8.622  11.165  1.00  0.00     0.007 A 
ENDBRANCH  36  42
ENDBRANCH  35  36
ENDBRANCH  33  35
ENDBRANCH  30  31
ENDBRANCH  29  30
ENDBRANCH  27  29
ENDBRANCH  26  27
ENDBRANCH  25  26
ENDBRANCH   1  25
TORSDOF 14
ENDMDL
MODEL 6
REMARK minimizedAffinity -8.71413612
REMARK CNNscore 0.340939134
REMARK CNNaffinity 7.1457305
REMARK  14 active torsions:
REMARK  status: ('A' for Active; 'I' for Inactive)
REMARK    1  A    between atoms: C19_20  and  O2_21 
REMARK    2  A    between atoms: C19_20  and  C20_22 
REMARK    3  A    between atoms: C20_22  and  C21_24 
REMARK    4  A    between atoms: C21_24  and  O4_25 
REMARK    5  A    between atoms: O4_25  and  C22_26 
REMARK    6  A    between atoms: C22_26  and  C23_28 
REMARK    7  A    between atoms: C23_28  and  C24_29 
REMARK    8  A    between atoms: C24_29  and  C25_30 
REMARK       I    between atoms: C25_30  and  N1_32 
REMARK    9  A    between atoms: N1_32  and  C26_33 
REMARK   10  A    between atoms: C26_33  and  C27_34 
REMARK   11  A    between atoms: C27_34  and  C28_35 
REMARK   12  A    between atoms: C27_34  and  C30_39 
REMARK   13  A    between atoms: C28_35  and  C29_36 
REMARK   14  A    between atoms: C29_36  and  O8_38 
ROOT
HETATM    1  C20 UNL     1      -6.176   4.451  13.570  1.00  0.00     0.185 C 
HETATM    2  O3  UNL     1      -6.699   3.684  12.747  1.00  0.00    -0.292 OA
ENDROOT
BRANCH   1   3
HETATM    3  C19 UNL     1      -7.053   5.048  14.688  1.00  0.00     0.128 C 
HETATM    4  C14 UNL     1      -8.015   6.185  14.222  1.00  0.00    -0.002 C 
HETATM    5  C13 UNL     1      -9.254   5.753  13.419  1.00  0.00     0.013 C 
HETATM    6  C15 UNL     1      -7.236   7.263  13.423  1.00  0.00     0.019 C 
HETATM    7  C16 UNL     1      -8.514   6.684  15.600  1.00  0.00     0.002 C 
HETATM    8  C12 UNL     1     -10.288   6.889  13.286  1.00  0.00     0.007 C 
HETATM    9  C11 UNL     1     -10.697   7.509  14.647  1.00  0.00     0.002 C 
HETATM   10  C2  UNL     1     -11.723   8.697  14.543  1.00  0.00    -0.016 C 
HETATM   11  C10 UNL     1      -9.439   7.903  15.500  1.00  0.00    -0.004 C 
HETATM   12  C1  UNL     1     -11.131   9.903  13.767  1.00  0.00     0.020 C 
HETATM   13  C3  UNL     1     -13.031   8.322  13.787  1.00  0.00     0.022 C 
HETATM   14  C7  UNL     1     -12.048   9.097  15.991  1.00  0.00    -0.068 C 
HETATM   15  C4  UNL     1     -13.990   7.478  14.607  1.00  0.00     0.084 C 
HETATM   16  C5  UNL     1     -14.345   8.220  15.871  1.00  0.00     0.149 C 
HETATM   17  O1  UNL     1     -15.466   8.183  16.370  1.00  0.00    -0.293 OA
HETATM   18  C6  UNL     1     -13.252   8.937  16.569  1.00  0.00     0.053 C 
HETATM   19  C8  UNL     1     -10.872   9.556  16.816  1.00  0.00     0.035 C 
HETATM   20  C9  UNL     1      -9.842   8.427  16.892  1.00  0.00     0.010 C 
HETATM   21  C17 UNL     1      -7.235   6.801  16.423  1.00  0.00     0.009 C 
HETATM   22  C18 UNL     1      -6.329   5.664  15.906  1.00  0.00     0.047 C 
BRANCH   3  23
HETATM   23  O2  UNL     1      -7.826   3.941  15.193  1.00  0.00    -0.381 OA
HETATM   24  H27 UNL     1      -8.062   3.395  14.415  1.00  0.00     0.211 HD
ENDBRANCH   3  23
ENDBRANCH   1   3
BRANCH   1  25
HETATM   25  C21 UNL     1      -4.701   4.833  13.491  1.00  0.00     0.260 C 
BRANCH  25  26
HETATM   26  O4  UNL     1      -3.850   3.683  13.486  1.00  0.00    -0.314 OA
BRANCH  26  27
HETATM   27  C22 UNL     1      -2.967   3.644  12.451  1.00  0.00     0.259 C 
HETATM   28  O5  UNL     1      -2.901   2.746  11.618  1.00  0.00    -0.265 OA
BRANCH  27  29
HETATM   29  C23 UNL     1      -2.099   4.877  12.462  1.00  0.00     0.120 C 
BRANCH  29  30
HETATM   30  C24 UNL     1      -1.206   4.930  11.228  1.00  0.00     0.112 C 
BRANCH  30  31
HETATM   31  C25 UNL     1       0.167   5.487  11.552  1.00  0.00     0.218 C 
HETATM   32  O6  UNL     1       0.688   5.384  12.658  1.00  0.00    -0.274 OA
HETATM   33  N1  UNL     1       0.749   6.147  10.493  1.00  0.00    -0.360 N 
HETATM   34  H34 UNL     1       0.173   6.365   9.687  1.00  0.00     0.162 HD
BRANCH  33  35
HETATM   35  C26 UNL     1       2.055   6.770  10.584  1.00  0.00     0.132 C 
BRANCH  35  36
HETATM   36  C27 UNL     1       2.777   6.979   9.230  1.00  0.00     0.046 C 
BRANCH  36  37
HETATM   37  C28 UNL     1       2.124   8.083   8.373  1.00  0.00     0.120 C 
BRANCH  37  38
HETATM   38  C29 UNL     1       0.649   8.357   8.529  1.00  0.00     0.140 C 
HETATM   39  O7  UNL     1      -0.185   8.113   7.666  1.00  0.00    -0.650 OA
BRANCH  38  40
HETATM   40  O8  UNL     1       0.247   8.890   9.694  1.00  0.00    -0.776 OA
HETATM   41  H40 UNL     1      -0.732   8.886   9.615  1.00  0.00     0.167 HD
ENDBRANCH  38  40
ENDBRANCH  37  38
ENDBRANCH  36  37
BRANCH  36  42
HETATM   42  C30 UNL     1       3.177   5.732   8.442  1.00  0.00    -0.052 A 
HETATM   43  C31 UNL     1       2.861   5.663   7.072  1.00  0.00     0.007 A 
HETATM   44  C32 UNL     1       3.215   4.553   6.301  1.00  0.00     0.001 A 
HETATM   45  C33 UNL     1       3.901   3.493   6.883  1.00  0.00     0.000 A 
HETATM   46  C34 UNL     1       4.232   3.544   8.235  1.00  0.00     0.001 A 
HETATM   47  C35 UNL     1       3.876   4.655   9.007  1.00  0.00     0.007 A 
ENDBRANCH  36  42
ENDBRANCH  35  36
ENDBRANCH  33  35
ENDBRANCH  30  31
ENDBRANCH  29  30
ENDBRANCH  27  29
ENDBRANCH  26  27
ENDBRANCH  25  26
ENDBRANCH   1  25
TORSDOF 14
ENDMDL
MODEL 7
REMARK minimizedAffinity -7.99977255
REMARK CNNscore 0.317277044
REMARK CNNaffinity 6.01361227
REMARK  14 active torsions:
REMARK  status: ('A' for Active; 'I' for Inactive)
REMARK    1  A    between atoms: C19_20  and  O2_21 
REMARK    2  A    between atoms: C19_20  and  C20_22 
REMARK    3  A    between atoms: C20_22  and  C21_24 
REMARK    4  A    between atoms: C21_24  and  O4_25 
REMARK    5  A    between atoms: O4_25  and  C22_26 
REMARK    6  A    between atoms: C22_26  and  C23_28 
REMARK    7  A    between atoms: C23_28  and  C24_29 
REMARK    8  A    between atoms: C24_29  and  C25_30 
REMARK       I    between atoms: C25_30  and  N1_32 
REMARK    9  A    between atoms: N1_32  and  C26_33 
REMARK   10  A    between atoms: C26_33  and  C27_34 
REMARK   11  A    between atoms: C27_34  and  C28_35 
REMARK   12  A    between atoms: C27_34  and  C30_39 
REMARK   13  A    between atoms: C28_35  and  C29_36 
REMARK   14  A    between atoms: C29_36  and  O8_38 
ROOT
HETATM    1  C20 UNL     1      -0.310  10.493  16.667  1.00  0.00     0.185 C 
HETATM    2  O3  UNL     1      -0.443  11.469  15.913  1.00  0.00    -0.292 OA
ENDROOT
BRANCH   1   3
HETATM    3  C19 UNL     1      -0.069   9.103  16.047  1.00  0.00     0.128 C 
HETATM    4  C14 UNL     1       0.131   9.108  14.500  1.00  0.00    -0.002 C 
HETATM    5  C13 UNL     1       1.484   9.625  13.981  1.00  0.00     0.013 C 
HETATM    6  C15 UNL     1      -1.016   9.889  13.806  1.00  0.00     0.019 C 
HETATM    7  C16 UNL     1       0.088   7.585  14.227  1.00  0.00     0.002 C 
HETATM    8  C12 UNL     1       1.702   9.294  12.491  1.00  0.00     0.007 C 
HETATM    9  C11 UNL     1       1.520   7.790  12.162  1.00  0.00     0.002 C 
HETATM   10  C2  UNL     1       1.698   7.426  10.642  1.00  0.00    -0.016 C 
HETATM   11  C10 UNL     1       0.166   7.237  12.736  1.00  0.00    -0.004 C 
HETATM   12  C1  UNL     1       0.628   8.115   9.756  1.00  0.00     0.020 C 
HETATM   13  C3  UNL     1       3.069   7.871  10.055  1.00  0.00     0.022 C 
HETATM   14  C7  UNL     1       1.561   5.897  10.559  1.00  0.00    -0.068 C 
HETATM   15  C4  UNL     1       4.229   6.984  10.472  1.00  0.00     0.084 C 
HETATM   16  C5  UNL     1       3.945   5.565  10.046  1.00  0.00     0.149 C 
HETATM   17  O1  UNL     1       4.820   4.808   9.636  1.00  0.00    -0.293 OA
HETATM   18  C6  UNL     1       2.563   5.063  10.229  1.00  0.00     0.053 C 
HETATM   19  C8  UNL     1       0.241   5.339  11.030  1.00  0.00     0.035 C 
HETATM   20  C9  UNL     1       0.030   5.721  12.496  1.00  0.00     0.010 C 
HETATM   21  C17 UNL     1      -1.122   7.112  15.027  1.00  0.00     0.009 C 
HETATM   22  C18 UNL     1      -1.156   8.028  16.269  1.00  0.00     0.047 C 
BRANCH   3  23
HETATM   23  O2  UNL     1       1.127   8.608  16.684  1.00  0.00    -0.381 OA
HETATM   24  H27 UNL     1       1.722   9.379  16.784  1.00  0.00     0.211 HD
ENDBRANCH   3  23
ENDBRANCH   1   3
BRANCH   1  25
HETATM   25  C21 UNL     1      -0.400  10.630  18.185  1.00  0.00     0.260 C 
BRANCH  25  26
HETATM   26  O4  UNL     1       0.859  10.388  18.819  1.00  0.00    -0.314 OA
BRANCH  26  27
HETATM   27  C22 UNL     1       1.029  11.048  19.997  1.00  0.00     0.259 C 
HETATM   28  O5  UNL     1       0.782  12.235  20.178  1.00  0.00    -0.265 OA
BRANCH  27  29
HETATM   29  C23 UNL     1       1.542  10.102  21.054  1.00  0.00     0.120 C 
BRANCH  29  30
HETATM   30  C24 UNL     1       3.065  10.041  21.041  1.00  0.00     0.112 C 
BRANCH  30  31
HETATM   31  C25 UNL     1       3.666  10.792  22.213  1.00  0.00     0.218 C 
HETATM   32  O6  UNL     1       3.644  10.368  23.364  1.00  0.00    -0.274 OA
HETATM   33  N1  UNL     1       4.206  12.008  21.859  1.00  0.00    -0.360 N 
HETATM   34  H34 UNL     1       4.002  12.374  20.934  1.00  0.00     0.162 HD
BRANCH  33  35
HETATM   35  C26 UNL     1       4.821  12.900  22.822  1.00  0.00     0.132 C 
BRANCH  35  36
HETATM   36  C27 UNL     1       6.315  13.213  22.565  1.00  0.00     0.046 C 
BRANCH  36  37
HETATM   37  C28 UNL     1       7.261  12.199  23.242  1.00  0.00     0.120 C 
BRANCH  37  38
HETATM   38  C29 UNL     1       8.719  12.189  22.861  1.00  0.00     0.140 C 
HETATM   39  O7  UNL     1       9.143  11.754  21.797  1.00  0.00    -0.650 OA
BRANCH  38  40
HETATM   40  O8  UNL     1       9.587  12.701  23.749  1.00  0.00    -0.776 OA
HETATM   41  H40 UNL     1      10.439  12.685  23.262  1.00  0.00     0.167 HD
ENDBRANCH  38  40
ENDBRANCH  37  38
ENDBRANCH  36  37
BRANCH  36  42
HETATM   42  C30 UNL     1       6.765  14.669  22.695  1.00  0.00    -0.052 A 
HETATM   43  C31 UNL     1       6.006  15.545  23.493  1.00  0.00     0.007 A 
HETATM   44  C32 UNL     1       6.378  16.882  23.659  1.00  0.00     0.001 A 
HETATM   45  C33 UNL     1       7.524  17.366  23.035  1.00  0.00     0.000 A 
HETATM   46  C34 UNL     1       8.293  16.515  22.248  1.00  0.00     0.001 A 
HETATM   47  C35 UNL     1       7.919  15.177  22.082  1.00  0.00     0.007 A 
ENDBRANCH  36  42
ENDBRANCH  35  36
ENDBRANCH  33  35
ENDBRANCH  30  31
ENDBRANCH  29  30
ENDBRANCH  27  29
ENDBRANCH  26  27
ENDBRANCH  25  26
ENDBRANCH   1  25
TORSDOF 14
ENDMDL
MODEL 8
REMARK minimizedAffinity -9.96025276
REMARK CNNscore 0.262466997
REMARK CNNaffinity 6.81626892
REMARK  14 active torsions:
REMARK  status: ('A' for Active; 'I' for Inactive)
REMARK    1  A    between atoms: C19_20  and  O2_21 
REMARK    2  A    between atoms: C19_20  and  C20_22 
REMARK    3  A    between atoms: C20_22  and  C21_24 
REMARK    4  A    between atoms: C21_24  and  O4_25 
REMARK    5  A    between atoms: O4_25  and  C22_26 
REMARK    6  A    between atoms: C22_26  and  C23_28 
REMARK    7  A    between atoms: C23_28  and  C24_29 
REMARK    8  A    between atoms: C24_29  and  C25_30 
REMARK       I    between atoms: C25_30  and  N1_32 
REMARK    9  A    between atoms: N1_32  and  C26_33 
REMARK   10  A    between atoms: C26_33  and  C27_34 
REMARK   11  A    between atoms: C27_34  and  C28_35 
REMARK   12  A    between atoms: C27_34  and  C30_39 
REMARK   13  A    between atoms: C28_35  and  C29_36 
REMARK   14  A    between atoms: C29_36  and  O8_38 
ROOT
HETATM    1  C20 UNL     1      -0.642   8.056  15.642  1.00  0.00     0.185 C 
HETATM    2  O3  UNL     1       0.331   7.559  16.230  1.00  0.00    -0.292 OA
ENDROOT
BRANCH   1   3
HETATM    3  C19 UNL     1      -0.792   7.820  14.126  1.00  0.00     0.128 C 
HETATM    4  C14 UNL     1       0.533   7.957  13.313  1.00  0.00    -0.002 C 
HETATM    5  C13 UNL     1       1.542   6.802  13.439  1.00  0.00     0.013 C 
HETATM    6  C15 UNL     1       1.241   9.295  13.650  1.00  0.00     0.019 C 
HETATM    7  C16 UNL     1      -0.039   7.911  11.875  1.00  0.00     0.002 C 
HETATM    8  C12 UNL     1       2.650   6.876  12.370  1.00  0.00     0.007 C 
HETATM    9  C11 UNL     1       2.102   6.979  10.923  1.00  0.00     0.002 C 
HETATM   10  C2  UNL     1       3.208   7.096   9.811  1.00  0.00    -0.016 C 
HETATM   11  C10 UNL     1       1.029   8.120  10.795  1.00  0.00    -0.004 C 
HETATM   12  C1  UNL     1       4.046   8.391   9.965  1.00  0.00     0.020 C 
HETATM   13  C3  UNL     1       4.240   5.931   9.839  1.00  0.00     0.022 C 
HETATM   14  C7  UNL     1       2.455   7.100   8.471  1.00  0.00    -0.068 C 
HETATM   15  C4  UNL     1       3.708   4.629   9.267  1.00  0.00     0.084 C 
HETATM   16  C5  UNL     1       3.261   4.859   7.845  1.00  0.00     0.149 C 
HETATM   17  O1  UNL     1       3.410   4.024   6.958  1.00  0.00    -0.293 OA
HETATM   18  C6  UNL     1       2.529   6.116   7.557  1.00  0.00     0.053 C 
HETATM   19  C8  UNL     1       1.473   8.229   8.283  1.00  0.00     0.035 C 
HETATM   20  C9  UNL     1       0.412   8.158   9.383  1.00  0.00     0.010 C 
HETATM   21  C17 UNL     1      -1.223   8.871  11.929  1.00  0.00     0.009 C 
HETATM   22  C18 UNL     1      -1.782   8.726  13.361  1.00  0.00     0.047 C 
BRANCH   3  23
HETATM   23  O2  UNL     1      -1.295   6.474  14.001  1.00  0.00    -0.381 OA
HETATM   24  H27 UNL     1      -0.841   5.948  14.691  1.00  0.00     0.211 HD
ENDBRANCH   3  23
ENDBRANCH   1   3
BRANCH   1  25
HETATM   25  C21 UNL     1      -1.676   8.907  16.373  1.00  0.00     0.260 C 
BRANCH  25  26
HETATM   26  O4  UNL     1      -1.592  10.286  16.003  1.00  0.00    -0.314 OA
BRANCH  26  27
HETATM   27  C22 UNL     1      -2.796  10.911  15.889  1.00  0.00     0.259 C 
HETATM   28  O5  UNL     1      -2.989  11.956  15.278  1.00  0.00    -0.265 OA
BRANCH  27  29
HETATM   29  C23 UNL     1      -3.863  10.117  16.601  1.00  0.00     0.120 C 
BRANCH  29  30
HETATM   30  C24 UNL     1      -5.113   9.983  15.740  1.00  0.00     0.112 C 
BRANCH  30  31
HETATM   31  C25 UNL     1      -5.092   8.712  14.915  1.00  0.00     0.218 C 
HETATM   32  O6  UNL     1      -5.139   8.707  13.689  1.00  0.00    -0.274 OA
HETATM   33  N1  UNL     1      -5.048   7.568  15.680  1.00  0.00    -0.360 N 
HETATM   34  H34 UNL     1      -5.219   7.650  16.678  1.00  0.00     0.162 HD
BRANCH  33  35
HETATM   35  C26 UNL     1      -5.036   6.240  15.100  1.00  0.00     0.132 C 
BRANCH  35  36
HETATM   36  C27 UNL     1      -6.423   5.695  14.680  1.00  0.00     0.046 C 
BRANCH  36  37
HETATM   37  C28 UNL     1      -7.393   5.557  15.873  1.00  0.00     0.120 C 
BRANCH  37  38
HETATM   38  C29 UNL     1      -8.535   6.532  16.005  1.00  0.00     0.140 C 
HETATM   39  O7  UNL     1      -8.517   7.507  16.747  1.00  0.00    -0.650 OA
BRANCH  38  40
HETATM   40  O8  UNL     1      -9.623   6.307  15.249  1.00  0.00    -0.776 OA
HETATM   41  H40 UNL     1     -10.178   7.099  15.417  1.00  0.00     0.167 HD
ENDBRANCH  38  40
ENDBRANCH  37  38
ENDBRANCH  36  37
BRANCH  36  42
HETATM   42  C30 UNL     1      -6.455   4.513  13.711  1.00  0.00    -0.052 A 
HETATM   43  C31 UNL     1      -5.371   4.326  12.832  1.00  0.00     0.007 A 
HETATM   44  C32 UNL     1      -5.341   3.256  11.935  1.00  0.00     0.001 A 
HETATM   45  C33 UNL     1      -6.391   2.343  11.906  1.00  0.00     0.000 A 
HETATM   46  C34 UNL     1      -7.469   2.504  12.773  1.00  0.00     0.001 A 
HETATM   47  C35 UNL     1      -7.498   3.577  13.670  1.00  0.00     0.007 A 
ENDBRANCH  36  42
ENDBRANCH  35  36
ENDBRANCH  33  35
ENDBRANCH  30  31
ENDBRANCH  29  30
ENDBRANCH  27  29
ENDBRANCH  26  27
ENDBRANCH  25  26
ENDBRANCH   1  25
TORSDOF 14
ENDMDL
MODEL 9
REMARK minimizedAffinity -8.23478508
REMARK CNNscore 0.26219359
REMARK CNNaffinity 6.46200323
REMARK  14 active torsions:
REMARK  status: ('A' for Active; 'I' for Inactive)
REMARK    1  A    between atoms: C19_20  and  O2_21 
REMARK    2  A    between atoms: C19_20  and  C20_22 
REMARK    3  A    between atoms: C20_22  and  C21_24 
REMARK    4  A    between atoms: C21_24  and  O4_25 
REMARK    5  A    between atoms: O4_25  and  C22_26 
REMARK    6  A    between atoms: C22_26  and  C23_28 
REMARK    7  A    between atoms: C23_28  and  C24_29 
REMARK    8  A    between atoms: C24_29  and  C25_30 
REMARK       I    between atoms: C25_30  and  N1_32 
REMARK    9  A    between atoms: N1_32  and  C26_33 
REMARK   10  A    between atoms: C26_33  and  C27_34 
REMARK   11  A    between atoms: C27_34  and  C28_35 
REMARK   12  A    between atoms: C27_34  and  C30_39 
REMARK   13  A    between atoms: C28_35  and  C29_36 
REMARK   14  A    between atoms: C29_36  and  O8_38 
ROOT
HETATM    1  C20 UNL     1      -1.232   7.904  15.193  1.00  0.00     0.185 C 
HETATM    2  O3  UNL     1      -0.743   6.996  15.882  1.00  0.00    -0.292 OA
ENDROOT
BRANCH   1   3
HETATM    3  C19 UNL     1      -1.238   7.749  13.660  1.00  0.00     0.128 C 
HETATM    4  C14 UNL     1       0.171   7.823  12.993  1.00  0.00    -0.002 C 
HETATM    5  C13 UNL     1       1.078   6.592  13.159  1.00  0.00     0.013 C 
HETATM    6  C15 UNL     1       0.932   9.088  13.471  1.00  0.00     0.019 C 
HETATM    7  C16 UNL     1      -0.248   7.886  11.504  1.00  0.00     0.002 C 
HETATM    8  C12 UNL     1       2.295   6.631  12.214  1.00  0.00     0.007 C 
HETATM    9  C11 UNL     1       1.911   6.841  10.727  1.00  0.00     0.002 C 
HETATM   10  C2  UNL     1       3.133   6.925   9.740  1.00  0.00    -0.016 C 
HETATM   11  C10 UNL     1       0.939   8.063  10.551  1.00  0.00    -0.004 C 
HETATM   12  C1  UNL     1       4.039   8.146  10.048  1.00  0.00     0.020 C 
HETATM   13  C3  UNL     1       4.072   5.686   9.811  1.00  0.00     0.022 C 
HETATM   14  C7  UNL     1       2.528   7.047   8.332  1.00  0.00    -0.068 C 
HETATM   15  C4  UNL     1       3.514   4.455   9.119  1.00  0.00     0.084 C 
HETATM   16  C5  UNL     1       3.236   4.783   7.673  1.00  0.00     0.149 C 
HETATM   17  O1  UNL     1       3.419   3.980   6.763  1.00  0.00    -0.293 OA
HETATM   18  C6  UNL     1       2.628   6.103   7.380  1.00  0.00     0.053 C 
HETATM   19  C8  UNL     1       1.651   8.254   8.106  1.00  0.00     0.035 C 
HETATM   20  C9  UNL     1       0.478   8.212   9.088  1.00  0.00     0.010 C 
HETATM   21  C17 UNL     1      -1.362   8.928  11.489  1.00  0.00     0.009 C 
HETATM   22  C18 UNL     1      -2.077   8.761  12.847  1.00  0.00     0.047 C 
BRANCH   3  23
HETATM   23  O2  UNL     1      -1.818   6.452  13.413  1.00  0.00    -0.381 OA
HETATM   24  H27 UNL     1      -1.477   5.862  14.116  1.00  0.00     0.211 HD
ENDBRANCH   3  23
ENDBRANCH   1   3
BRANCH   1  25
HETATM   25  C21 UNL     1      -1.806   9.171  15.819  1.00  0.00     0.260 C 
BRANCH  25  26
HETATM   26  O4  UNL     1      -0.905   9.756  16.763  1.00  0.00    -0.314 OA
BRANCH  26  27
HETATM   27  C22 UNL     1      -0.784  11.108  16.658  1.00  0.00     0.259 C 
HETATM   28  O5  UNL     1      -1.706  11.879  16.417  1.00  0.00    -0.265 OA
BRANCH  27  29
HETATM   29  C23 UNL     1       0.646  11.522  16.907  1.00  0.00     0.120 C 
BRANCH  29  30
HETATM   30  C24 UNL     1       0.714  12.924  17.502  1.00  0.00     0.112 C 
BRANCH  30  31
HETATM   31  C25 UNL     1       0.752  12.889  19.017  1.00  0.00     0.218 C 
HETATM   32  O6  UNL     1      -0.164  12.444  19.702  1.00  0.00    -0.274 OA
HETATM   33  N1  UNL     1       1.901  13.434  19.544  1.00  0.00    -0.360 N 
HETATM   34  H34 UNL     1       2.510  13.961  18.926  1.00  0.00     0.162 HD
BRANCH  33  35
HETATM   35  C26 UNL     1       2.143  13.518  20.971  1.00  0.00     0.132 C 
BRANCH  35  36
HETATM   36  C27 UNL     1       3.358  12.702  21.479  1.00  0.00     0.046 C 
BRANCH  36  37
HETATM   37  C28 UNL     1       4.577  12.803  20.538  1.00  0.00     0.120 C 
BRANCH  37  38
HETATM   38  C29 UNL     1       4.400  12.498  19.072  1.00  0.00     0.140 C 
HETATM   39  O7  UNL     1       4.498  13.336  18.184  1.00  0.00    -0.650 OA
BRANCH  38  40
HETATM   40  O8  UNL     1       4.129  11.224  18.742  1.00  0.00    -0.776 OA
HETATM   41  H40 UNL     1       4.157  11.239  17.760  1.00  0.00     0.167 HD
ENDBRANCH  38  40
ENDBRANCH  37  38
ENDBRANCH  36  37
BRANCH  36  42
HETATM   42  C30 UNL     1       3.092  11.292  22.005  1.00  0.00    -0.052 A 
HETATM   43  C31 UNL     1       3.640  10.915  23.246  1.00  0.00     0.007 A 
HETATM   44  C32 UNL     1       3.418   9.644  23.782  1.00  0.00     0.001 A 
HETATM   45  C33 UNL     1       2.634   8.726  23.090  1.00  0.00     0.000 A 
HETATM   46  C34 UNL     1       2.075   9.080  21.865  1.00  0.00     0.001 A 
HETATM   47  C35 UNL     1       2.299  10.353  21.329  1.00  0.00     0.007 A 
ENDBRANCH  36  42
ENDBRANCH  35  36
ENDBRANCH  33  35
ENDBRANCH  30  31
ENDBRANCH  29  30
ENDBRANCH  27  29
ENDBRANCH  26  27
ENDBRANCH  25  26
ENDBRANCH   1  25
TORSDOF 14
ENDMDL
