MODEL 1
REMARK minimizedAffinity -7.08862734
REMARK CNNscore 0.5097
REMARK CNNaffinity 6.68765593
REMARK  6 active torsions:
REMARK  status: ('A' for Active; 'I' for Inactive)
REMARK    1  A    between atoms: C2_2  and  C30_32 
REMARK    2  A    between atoms: C3_3  and  C4_4 
REMARK    3  A    between atoms: C4_4  and  C5_5 
REMARK    4  A    between atoms: C5_5  and  C6_6 
REMARK    5  A    between atoms: C6_6  and  C8_8 
REMARK    6  A    between atoms: C30_32  and  O4_34 
ROOT
HETATM    1  C8  UNL     1     -12.389 -12.419  29.100  1.00  0.00    -0.002 C 
HETATM    2  C9  UNL     1     -12.813 -13.041  30.431  1.00  0.00     0.007 C 
HETATM    3  C10 UNL     1     -12.981 -11.833  31.335  1.00  0.00     0.015 C 
HETATM    4  C11 UNL     1     -13.807 -10.828  30.497  1.00  0.00    -0.005 C 
HETATM    5  C12 UNL     1     -15.311 -11.201  30.638  1.00  0.00     0.021 C 
HETATM    6  C13 UNL     1     -13.645  -9.378  31.004  1.00  0.00    -0.000 C 
HETATM    7  C14 UNL     1     -13.312  -8.328  30.214  1.00  0.00    -0.060 C 
HETATM    8  C15 UNL     1     -12.936  -8.575  28.768  1.00  0.00     0.036 C 
HETATM    9  C16 UNL     1     -12.314  -9.947  28.572  1.00  0.00     0.015 C 
HETATM   10  C17 UNL     1     -13.257 -11.093  29.005  1.00  0.00    -0.028 C 
HETATM   11  C18 UNL     1     -14.405 -11.187  27.972  1.00  0.00     0.016 C 
HETATM   12  C19 UNL     1     -13.269  -6.853  30.675  1.00  0.00    -0.014 C 
HETATM   13  C20 UNL     1     -11.775  -6.449  30.817  1.00  0.00     0.020 C 
HETATM   14  C21 UNL     1     -13.925  -5.932  29.602  1.00  0.00     0.021 C 
HETATM   15  C22 UNL     1     -14.514  -4.661  30.188  1.00  0.00     0.080 C 
HETATM   16  C23 UNL     1     -15.659  -5.023  31.104  1.00  0.00     0.135 C 
HETATM   17  O1  UNL     1     -16.675  -4.328  31.126  1.00  0.00    -0.297 OA
HETATM   18  C24 UNL     1     -15.491  -6.265  32.000  1.00  0.00     0.018 C 
HETATM   19  C25 UNL     1     -16.016  -5.877  33.401  1.00  0.00     0.023 C 
HETATM   20  C26 UNL     1     -16.399  -7.369  31.439  1.00  0.00     0.023 C 
HETATM   21  C27 UNL     1     -13.962  -6.628  32.067  1.00  0.00     0.020 C 
HETATM   22  C28 UNL     1     -13.594  -7.757  33.027  1.00  0.00     0.090 C 
HETATM   23  C29 UNL     1     -13.883  -9.123  32.470  1.00  0.00     0.157 C 
HETATM   24  O2  UNL     1     -14.246 -10.017  33.232  1.00  0.00    -0.293 OA
ENDROOT
BRANCH   1  25
HETATM   25  C6  UNL     1     -12.393 -13.419  27.908  1.00  0.00    -0.014 C 
HETATM   26  C7  UNL     1     -12.787 -14.840  28.352  1.00  0.00     0.010 C 
BRANCH  25  27
HETATM   27  C5  UNL     1     -11.057 -13.477  27.125  1.00  0.00     0.008 C 
BRANCH  27  28
HETATM   28  C4  UNL     1     -10.858 -12.376  26.076  1.00  0.00     0.028 C 
BRANCH  28  29
HETATM   29  C3  UNL     1      -9.784 -12.758  25.093  1.00  0.00    -0.013 C 
HETATM   30  C2  UNL     1      -8.631 -13.408  25.356  1.00  0.00     0.008 C 
HETATM   31  C1  UNL     1      -8.209 -13.931  26.697  1.00  0.00     0.055 C 
BRANCH  30  32
HETATM   32  C30 UNL     1      -7.648 -13.682  24.272  1.00  0.00     0.171 C 
HETATM   33  O3  UNL     1      -6.767 -14.524  24.319  1.00  0.00    -0.646 OA
BRANCH  32  34
HETATM   34  O4  UNL     1      -7.796 -12.906  23.186  1.00  0.00    -0.773 OA
HETATM   35  H44 UNL     1      -7.084 -13.214  22.589  1.00  0.00     0.167 HD
ENDBRANCH  32  34
ENDBRANCH  30  32
ENDBRANCH  28  29
ENDBRANCH  27  28
ENDBRANCH  25  27
ENDBRANCH   1  25
TORSDOF 6
ENDMDL
MODEL 2
REMARK minimizedAffinity -7.18831491
REMARK CNNscore 0.435568213
REMARK CNNaffinity 6.29577017
REMARK  6 active torsions:
REMARK  status: ('A' for Active; 'I' for Inactive)
REMARK    1  A    between atoms: C2_2  and  C30_32 
REMARK    2  A    between atoms: C3_3  and  C4_4 
REMARK    3  A    between atoms: C4_4  and  C5_5 
REMARK    4  A    between atoms: C5_5  and  C6_6 
REMARK    5  A    between atoms: C6_6  and  C8_8 
REMARK    6  A    between atoms: C30_32  and  O4_34 
ROOT
HETATM    1  C8  UNL     1       3.175   8.970  14.770  1.00  0.00    -0.002 C 
HETATM    2  C9  UNL     1       3.029  10.410  15.264  1.00  0.00     0.007 C 
HETATM    3  C10 UNL     1       4.432  10.757  15.726  1.00  0.00     0.015 C 
HETATM    4  C11 UNL     1       5.353  10.280  14.578  1.00  0.00    -0.005 C 
HETATM    5  C12 UNL     1       5.386  11.391  13.489  1.00  0.00     0.021 C 
HETATM    6  C13 UNL     1       6.806  10.059  15.052  1.00  0.00    -0.000 C 
HETATM    7  C14 UNL     1       7.514   8.924  14.835  1.00  0.00    -0.060 C 
HETATM    8  C15 UNL     1       6.825   7.726  14.213  1.00  0.00     0.036 C 
HETATM    9  C16 UNL     1       5.344   7.690  14.546  1.00  0.00     0.015 C 
HETATM   10  C17 UNL     1       4.596   8.953  14.062  1.00  0.00    -0.028 C 
HETATM   11  C18 UNL     1       4.509   8.898  12.518  1.00  0.00     0.016 C 
HETATM   12  C19 UNL     1       9.006   8.730  15.188  1.00  0.00    -0.014 C 
HETATM   13  C20 UNL     1       9.077   7.821  16.447  1.00  0.00     0.020 C 
HETATM   14  C21 UNL     1       9.749   8.009  14.022  1.00  0.00     0.021 C 
HETATM   15  C22 UNL     1      11.227   8.347  13.958  1.00  0.00     0.080 C 
HETATM   16  C23 UNL     1      11.386   9.814  13.636  1.00  0.00     0.135 C 
HETATM   17  O1  UNL     1      12.279  10.186  12.874  1.00  0.00    -0.297 OA
HETATM   18  C24 UNL     1      10.410  10.801  14.306  1.00  0.00     0.018 C 
HETATM   19  C25 UNL     1      11.252  12.004  14.785  1.00  0.00     0.023 C 
HETATM   20  C26 UNL     1       9.439  11.300  13.225  1.00  0.00     0.023 C 
HETATM   21  C27 UNL     1       9.733  10.080  15.529  1.00  0.00     0.020 C 
HETATM   22  C28 UNL     1       8.833  10.958  16.396  1.00  0.00     0.090 C 
HETATM   23  C29 UNL     1       7.475  11.188  15.794  1.00  0.00     0.157 C 
HETATM   24  O2  UNL     1       6.914  12.267  15.972  1.00  0.00    -0.293 OA
ENDROOT
BRANCH   1  25
HETATM   25  C6  UNL     1       1.933   8.441  13.997  1.00  0.00    -0.014 C 
HETATM   26  C7  UNL     1       1.977   6.913  13.813  1.00  0.00     0.010 C 
BRANCH  25  27
HETATM   27  C5  UNL     1       1.708   9.117  12.620  1.00  0.00     0.008 C 
BRANCH  27  28
HETATM   28  C4  UNL     1       0.953   8.274  11.585  1.00  0.00     0.028 C 
BRANCH  28  29
HETATM   29  C3  UNL     1       1.747   8.147  10.312  1.00  0.00    -0.013 C 
HETATM   30  C2  UNL     1       1.277   8.205   9.049  1.00  0.00     0.008 C 
HETATM   31  C1  UNL     1      -0.148   8.460   8.657  1.00  0.00     0.055 C 
BRANCH  30  32
HETATM   32  C30 UNL     1       2.191   8.025   7.888  1.00  0.00     0.171 C 
HETATM   33  O3  UNL     1       2.996   8.852   7.493  1.00  0.00    -0.646 OA
BRANCH  32  34
HETATM   34  O4  UNL     1       2.068   6.839   7.270  1.00  0.00    -0.773 OA
HETATM   35  H44 UNL     1       2.728   6.892   6.548  1.00  0.00     0.167 HD
ENDBRANCH  32  34
ENDBRANCH  30  32
ENDBRANCH  28  29
ENDBRANCH  27  28
ENDBRANCH  25  27
ENDBRANCH   1  25
TORSDOF 6
ENDMDL
MODEL 3
REMARK minimizedAffinity -6.23164892
REMARK CNNscore 0.430244297
REMARK CNNaffinity 6.33375883
REMARK  6 active torsions:
REMARK  status: ('A' for Active; 'I' for Inactive)
REMARK    1  A    between atoms: C2_2  and  C30_32 
REMARK    2  A    between atoms: C3_3  and  C4_4 
REMARK    3  A    between atoms: C4_4  and  C5_5 
REMARK    4  A    between atoms: C5_5  and  C6_6 
REMARK    5  A    between atoms: C6_6  and  C8_8 
REMARK    6  A    between atoms: C30_32  and  O4_34 
ROOT
HETATM    1  C8  UNL     1      -4.308  17.051   6.023  1.00  0.00    -0.002 C 
HETATM    2  C9  UNL     1      -3.413  16.992   7.262  1.00  0.00     0.007 C 
HETATM    3  C10 UNL     1      -2.228  16.169   6.788  1.00  0.00     0.015 C 
HETATM    4  C11 UNL     1      -1.847  16.782   5.420  1.00  0.00    -0.005 C 
HETATM    5  C12 UNL     1      -0.943  18.022   5.679  1.00  0.00     0.021 C 
HETATM    6  C13 UNL     1      -1.036  15.798   4.548  1.00  0.00    -0.000 C 
HETATM    7  C14 UNL     1      -1.346  15.483   3.267  1.00  0.00    -0.060 C 
HETATM    8  C15 UNL     1      -2.635  16.003   2.664  1.00  0.00     0.036 C 
HETATM    9  C16 UNL     1      -3.711  16.203   3.717  1.00  0.00     0.015 C 
HETATM   10  C17 UNL     1      -3.284  17.199   4.819  1.00  0.00    -0.028 C 
HETATM   11  C18 UNL     1      -3.266  18.619   4.204  1.00  0.00     0.016 C 
HETATM   12  C19 UNL     1      -0.479  14.602   2.338  1.00  0.00    -0.014 C 
HETATM   13  C20 UNL     1      -1.180  13.220   2.216  1.00  0.00     0.020 C 
HETATM   14  C21 UNL     1      -0.395  15.235   0.916  1.00  0.00     0.021 C 
HETATM   15  C22 UNL     1       0.875  14.862   0.173  1.00  0.00     0.080 C 
HETATM   16  C23 UNL     1       2.063  15.446   0.901  1.00  0.00     0.135 C 
HETATM   17  O1  UNL     1       3.007  15.918   0.265  1.00  0.00    -0.297 OA
HETATM   18  C24 UNL     1       2.046  15.407   2.441  1.00  0.00     0.018 C 
HETATM   19  C25 UNL     1       3.456  14.964   2.891  1.00  0.00     0.023 C 
HETATM   20  C26 UNL     1       1.816  16.842   2.939  1.00  0.00     0.023 C 
HETATM   21  C27 UNL     1       0.967  14.360   2.901  1.00  0.00     0.020 C 
HETATM   22  C28 UNL     1       0.909  14.089   4.403  1.00  0.00     0.090 C 
HETATM   23  C29 UNL     1       0.180  15.160   5.168  1.00  0.00     0.157 C 
HETATM   24  O2  UNL     1       0.554  15.446   6.303  1.00  0.00    -0.293 OA
ENDROOT
BRANCH   1  25
HETATM   25  C6  UNL     1      -5.488  18.057   6.147  1.00  0.00    -0.014 C 
HETATM   26  C7  UNL     1      -5.845  18.346   7.617  1.00  0.00     0.010 C 
BRANCH  25  27
HETATM   27  C5  UNL     1      -6.768  17.630   5.383  1.00  0.00     0.008 C 
BRANCH  27  28
HETATM   28  C4  UNL     1      -7.978  17.286   6.260  1.00  0.00     0.028 C 
BRANCH  28  29
HETATM   29  C3  UNL     1      -8.767  16.150   5.666  1.00  0.00    -0.013 C 
HETATM   30  C2  UNL     1     -10.084  15.902   5.822  1.00  0.00     0.008 C 
HETATM   31  C1  UNL     1     -11.049  16.755   6.592  1.00  0.00     0.055 C 
BRANCH  30  32
HETATM   32  C30 UNL     1     -10.713  14.709   5.193  1.00  0.00     0.171 C 
HETATM   33  O3  UNL     1     -10.317  14.157   4.181  1.00  0.00    -0.646 OA
BRANCH  32  34
HETATM   34  O4  UNL     1     -11.800  14.255   5.839  1.00  0.00    -0.773 OA
HETATM   35  H44 UNL     1     -12.079  13.487   5.301  1.00  0.00     0.167 HD
ENDBRANCH  32  34
ENDBRANCH  30  32
ENDBRANCH  28  29
ENDBRANCH  27  28
ENDBRANCH  25  27
ENDBRANCH   1  25
TORSDOF 6
ENDMDL
MODEL 4
REMARK minimizedAffinity -8.3706913
REMARK CNNscore 0.386132419
REMARK CNNaffinity 7.21069574
REMARK  6 active torsions:
REMARK  status: ('A' for Active; 'I' for Inactive)
REMARK    1  A    between atoms: C2_2  and  C30_32 
REMARK    2  A    between atoms: C3_3  and  C4_4 
REMARK    3  A    between atoms: C4_4  and  C5_5 
REMARK    4  A    between atoms: C5_5  and  C6_6 
REMARK    5  A    between atoms: C6_6  and  C8_8 
REMARK    6  A    between atoms: C30_32  and  O4_34 
ROOT
HETATM    1  C8  UNL     1      -6.131   6.897  14.320  1.00  0.00    -0.002 C 
HETATM    2  C9  UNL     1      -5.856   8.083  15.245  1.00  0.00     0.007 C 
HETATM    3  C10 UNL     1      -7.110   8.926  15.102  1.00  0.00     0.015 C 
HETATM    4  C11 UNL     1      -8.277   7.920  15.237  1.00  0.00    -0.005 C 
HETATM    5  C12 UNL     1      -8.547   7.692  16.753  1.00  0.00     0.021 C 
HETATM    6  C13 UNL     1      -9.584   8.459  14.615  1.00  0.00    -0.000 C 
HETATM    7  C14 UNL     1     -10.337   7.778  13.717  1.00  0.00    -0.060 C 
HETATM    8  C15 UNL     1      -9.826   6.464  13.163  1.00  0.00     0.036 C 
HETATM    9  C16 UNL     1      -8.309   6.417  13.128  1.00  0.00     0.015 C 
HETATM   10  C17 UNL     1      -7.677   6.603  14.527  1.00  0.00    -0.028 C 
HETATM   11  C18 UNL     1      -7.951   5.323  15.352  1.00  0.00     0.016 C 
HETATM   12  C19 UNL     1     -11.709   8.244  13.179  1.00  0.00    -0.014 C 
HETATM   13  C20 UNL     1     -11.498   8.744  11.723  1.00  0.00     0.020 C 
HETATM   14  C21 UNL     1     -12.711   7.049  13.146  1.00  0.00     0.021 C 
HETATM   15  C22 UNL     1     -14.159   7.483  13.279  1.00  0.00     0.080 C 
HETATM   16  C23 UNL     1     -14.369   8.094  14.644  1.00  0.00     0.135 C 
HETATM   17  O1  UNL     1     -15.410   7.874  15.266  1.00  0.00    -0.297 OA
HETATM   18  C24 UNL     1     -13.252   8.998  15.202  1.00  0.00     0.018 C 
HETATM   19  C25 UNL     1     -13.946  10.232  15.820  1.00  0.00     0.023 C 
HETATM   20  C26 UNL     1     -12.553   8.228  16.331  1.00  0.00     0.023 C 
HETATM   21  C27 UNL     1     -12.320   9.429  14.010  1.00  0.00     0.020 C 
HETATM   22  C28 UNL     1     -11.233  10.443  14.358  1.00  0.00     0.090 C 
HETATM   23  C29 UNL     1     -10.048   9.826  15.048  1.00  0.00     0.157 C 
HETATM   24  O2  UNL     1      -9.448  10.472  15.904  1.00  0.00    -0.293 OA
ENDROOT
BRANCH   1  25
HETATM   25  C6  UNL     1      -5.108   5.734  14.467  1.00  0.00    -0.014 C 
HETATM   26  C7  UNL     1      -4.098   5.996  15.599  1.00  0.00     0.010 C 
BRANCH  25  27
HETATM   27  C5  UNL     1      -4.341   5.396  13.163  1.00  0.00     0.008 C 
BRANCH  27  28
HETATM   28  C4  UNL     1      -4.352   3.918  12.754  1.00  0.00     0.028 C 
BRANCH  28  29
HETATM   29  C3  UNL     1      -3.063   3.539  12.074  1.00  0.00    -0.013 C 
HETATM   30  C2  UNL     1      -2.704   2.316  11.630  1.00  0.00     0.008 C 
HETATM   31  C1  UNL     1      -3.555   1.082  11.683  1.00  0.00     0.055 C 
BRANCH  30  32
HETATM   32  C30 UNL     1      -1.371   2.095  11.006  1.00  0.00     0.171 C 
HETATM   33  O3  UNL     1      -0.306   2.456  11.478  1.00  0.00    -0.646 OA
BRANCH  32  34
HETATM   34  O4  UNL     1      -1.414   1.444   9.832  1.00  0.00    -0.773 OA
HETATM   35  H44 UNL     1      -0.472   1.388   9.570  1.00  0.00     0.167 HD
ENDBRANCH  32  34
ENDBRANCH  30  32
ENDBRANCH  28  29
ENDBRANCH  27  28
ENDBRANCH  25  27
ENDBRANCH   1  25
TORSDOF 6
ENDMDL
MODEL 5
REMARK minimizedAffinity -7.18629932
REMARK CNNscore 0.373301953
REMARK CNNaffinity 5.73209715
REMARK  6 active torsions:
REMARK  status: ('A' for Active; 'I' for Inactive)
REMARK    1  A    between atoms: C2_2  and  C30_32 
REMARK    2  A    between atoms: C3_3  and  C4_4 
REMARK    3  A    between atoms: C4_4  and  C5_5 
REMARK    4  A    between atoms: C5_5  and  C6_6 
REMARK    5  A    between atoms: C6_6  and  C8_8 
REMARK    6  A    between atoms: C30_32  and  O4_34 
ROOT
HETATM    1  C8  UNL     1     -17.529   2.385  14.667  1.00  0.00    -0.002 C 
HETATM    2  C9  UNL     1     -17.959   1.940  16.066  1.00  0.00     0.007 C 
HETATM    3  C10 UNL     1     -17.817   0.430  16.002  1.00  0.00     0.015 C 
HETATM    4  C11 UNL     1     -16.431   0.192  15.360  1.00  0.00    -0.005 C 
HETATM    5  C12 UNL     1     -15.354   0.293  16.478  1.00  0.00     0.021 C 
HETATM    6  C13 UNL     1     -16.313  -1.216  14.736  1.00  0.00    -0.000 C 
HETATM    7  C14 UNL     1     -15.902  -1.455  13.466  1.00  0.00    -0.060 C 
HETATM    8  C15 UNL     1     -15.667  -0.288  12.529  1.00  0.00     0.036 C 
HETATM    9  C16 UNL     1     -16.552   0.898  12.870  1.00  0.00     0.015 C 
HETATM   10  C17 UNL     1     -16.326   1.412  14.311  1.00  0.00    -0.028 C 
HETATM   11  C18 UNL     1     -14.944   2.105  14.363  1.00  0.00     0.016 C 
HETATM   12  C19 UNL     1     -15.657  -2.858  12.865  1.00  0.00    -0.014 C 
HETATM   13  C20 UNL     1     -16.839  -3.169  11.904  1.00  0.00     0.020 C 
HETATM   14  C21 UNL     1     -14.337  -2.867  12.035  1.00  0.00     0.021 C 
HETATM   15  C22 UNL     1     -13.684  -4.235  11.971  1.00  0.00     0.080 C 
HETATM   16  C23 UNL     1     -13.243  -4.638  13.359  1.00  0.00     0.135 C 
HETATM   17  O1  UNL     1     -12.173  -5.227  13.520  1.00  0.00    -0.297 OA
HETATM   18  C24 UNL     1     -14.182  -4.300  14.532  1.00  0.00     0.018 C 
HETATM   19  C25 UNL     1     -14.227  -5.549  15.441  1.00  0.00     0.023 C 
HETATM   20  C26 UNL     1     -13.538  -3.155  15.328  1.00  0.00     0.023 C 
HETATM   21  C27 UNL     1     -15.611  -3.989  13.953  1.00  0.00     0.020 C 
HETATM   22  C28 UNL     1     -16.709  -3.766  14.992  1.00  0.00     0.090 C 
HETATM   23  C29 UNL     1     -16.671  -2.394  15.605  1.00  0.00     0.157 C 
HETATM   24  O2  UNL     1     -16.991  -2.255  16.784  1.00  0.00    -0.293 OA
ENDROOT
BRANCH   1  25
HETATM   25  C6  UNL     1     -17.332   3.922  14.529  1.00  0.00    -0.014 C 
HETATM   26  C7  UNL     1     -17.536   4.400  13.080  1.00  0.00     0.010 C 
BRANCH  25  27
HETATM   27  C5  UNL     1     -15.966   4.435  15.051  1.00  0.00     0.008 C 
BRANCH  27  28
HETATM   28  C4  UNL     1     -15.905   5.931  15.383  1.00  0.00     0.028 C 
BRANCH  28  29
HETATM   29  C3  UNL     1     -15.970   6.763  14.130  1.00  0.00    -0.013 C 
HETATM   30  C2  UNL     1     -14.942   7.109  13.327  1.00  0.00     0.008 C 
HETATM   31  C1  UNL     1     -13.514   6.683  13.502  1.00  0.00     0.055 C 
BRANCH  30  32
HETATM   32  C30 UNL     1     -15.165   7.972  12.135  1.00  0.00     0.171 C 
HETATM   33  O3  UNL     1     -15.902   7.704  11.201  1.00  0.00    -0.646 OA
BRANCH  32  34
HETATM   34  O4  UNL     1     -14.469   9.121  12.150  1.00  0.00    -0.773 OA
HETATM   35  H44 UNL     1     -14.730   9.554  11.311  1.00  0.00     0.167 HD
ENDBRANCH  32  34
ENDBRANCH  30  32
ENDBRANCH  28  29
ENDBRANCH  27  28
ENDBRANCH  25  27
ENDBRANCH   1  25
TORSDOF 6
ENDMDL
MODEL 6
REMARK minimizedAffinity -7.31554461
REMARK CNNscore 0.34654817
REMARK CNNaffinity 5.7435441
REMARK  6 active torsions:
REMARK  status: ('A' for Active; 'I' for Inactive)
REMARK    1  A    between atoms: C2_2  and  C30_32 
REMARK    2  A    between atoms: C3_3  and  C4_4 
REMARK    3  A    between atoms: C4_4  and  C5_5 
REMARK    4  A    between atoms: C5_5  and  C6_6 
REMARK    5  A    between atoms: C6_6  and  C8_8 
REMARK    6  A    between atoms: C30_32  and  O4_34 
ROOT
HETATM    1  C8  UNL     1       2.029  12.978  20.057  1.00  0.00    -0.002 C 
HETATM    2  C9  UNL     1       0.847  13.924  19.841  1.00  0.00     0.007 C 
HETATM    3  C10 UNL     1       0.307  13.494  18.489  1.00  0.00     0.015 C 
HETATM    4  C11 UNL     1       0.233  11.951  18.569  1.00  0.00    -0.005 C 
HETATM    5  C12 UNL     1      -1.099  11.566  19.275  1.00  0.00     0.021 C 
HETATM    6  C13 UNL     1       0.214  11.297  17.169  1.00  0.00    -0.000 C 
HETATM    7  C14 UNL     1       1.050  10.302  16.783  1.00  0.00    -0.060 C 
HETATM    8  C15 UNL     1       2.172   9.873  17.706  1.00  0.00     0.036 C 
HETATM    9  C16 UNL     1       2.648  11.016  18.586  1.00  0.00     0.015 C 
HETATM   10  C17 UNL     1       1.519  11.593  19.471  1.00  0.00    -0.028 C 
HETATM   11  C18 UNL     1       1.188  10.552  20.567  1.00  0.00     0.016 C 
HETATM   12  C19 UNL     1       0.966   9.549  15.436  1.00  0.00    -0.014 C 
HETATM   13  C20 UNL     1       2.128  10.060  14.539  1.00  0.00     0.020 C 
HETATM   14  C21 UNL     1       1.158   8.018  15.659  1.00  0.00     0.021 C 
HETATM   15  C22 UNL     1       0.471   7.172  14.603  1.00  0.00     0.080 C 
HETATM   16  C23 UNL     1      -1.023   7.369  14.705  1.00  0.00     0.135 C 
HETATM   17  O1  UNL     1      -1.784   6.413  14.551  1.00  0.00    -0.297 OA
HETATM   18  C24 UNL     1      -1.537   8.794  14.989  1.00  0.00     0.018 C 
HETATM   19  C25 UNL     1      -2.739   9.029  14.046  1.00  0.00     0.023 C 
HETATM   20  C26 UNL     1      -2.054   8.822  16.434  1.00  0.00     0.023 C 
HETATM   21  C27 UNL     1      -0.381   9.812  14.673  1.00  0.00     0.020 C 
HETATM   22  C28 UNL     1      -0.760  11.289  14.766  1.00  0.00     0.090 C 
HETATM   23  C29 UNL     1      -0.807  11.798  16.181  1.00  0.00     0.157 C 
HETATM   24  O2  UNL     1      -1.635  12.654  16.483  1.00  0.00    -0.293 OA
ENDROOT
BRANCH   1  25
HETATM   25  C6  UNL     1       2.619  13.027  21.495  1.00  0.00    -0.014 C 
HETATM   26  C7  UNL     1       2.489  14.426  22.123  1.00  0.00     0.010 C 
BRANCH  25  27
HETATM   27  C5  UNL     1       4.093  12.556  21.591  1.00  0.00     0.008 C 
BRANCH  27  28
HETATM   28  C4  UNL     1       4.605  12.277  23.009  1.00  0.00     0.028 C 
BRANCH  28  29
HETATM   29  C3  UNL     1       6.075  11.950  22.995  1.00  0.00    -0.013 C 
HETATM   30  C2  UNL     1       7.105  12.817  23.087  1.00  0.00     0.008 C 
HETATM   31  C1  UNL     1       6.984  14.300  23.276  1.00  0.00     0.055 C 
BRANCH  30  32
HETATM   32  C30 UNL     1       8.512  12.336  23.021  1.00  0.00     0.171 C 
HETATM   33  O3  UNL     1       8.883  11.209  23.301  1.00  0.00    -0.646 OA
BRANCH  32  34
HETATM   34  O4  UNL     1       9.392  13.266  22.616  1.00  0.00    -0.773 OA
HETATM   35  H44 UNL     1      10.247  12.790  22.631  1.00  0.00     0.167 HD
ENDBRANCH  32  34
ENDBRANCH  30  32
ENDBRANCH  28  29
ENDBRANCH  27  28
ENDBRANCH  25  27
ENDBRANCH   1  25
TORSDOF 6
ENDMDL
MODEL 7
REMARK minimizedAffinity -8.36120224
REMARK CNNscore 0.313417107
REMARK CNNaffinity 6.75609636
REMARK  6 active torsions:
REMARK  status: ('A' for Active; 'I' for Inactive)
REMARK    1  A    between atoms: C2_2  and  C30_32 
REMARK    2  A    between atoms: C3_3  and  C4_4 
REMARK    3  A    between atoms: C4_4  and  C5_5 
REMARK    4  A    between atoms: C5_5  and  C6_6 
REMARK    5  A    between atoms: C6_6  and  C8_8 
REMARK    6  A    between atoms: C30_32  and  O4_34 
ROOT
HETATM    1  C8  UNL     1      -5.428   5.105  12.983  1.00  0.00    -0.002 C 
HETATM    2  C9  UNL     1      -4.948   3.798  12.351  1.00  0.00     0.007 C 
HETATM    3  C10 UNL     1      -3.638   4.196  11.695  1.00  0.00     0.015 C 
HETATM    4  C11 UNL     1      -2.889   5.010  12.776  1.00  0.00    -0.005 C 
HETATM    5  C12 UNL     1      -2.166   4.009  13.723  1.00  0.00     0.021 C 
HETATM    6  C13 UNL     1      -1.807   5.928  12.167  1.00  0.00    -0.000 C 
HETATM    7  C14 UNL     1      -1.698   7.254  12.427  1.00  0.00    -0.060 C 
HETATM    8  C15 UNL     1      -2.767   7.939  13.253  1.00  0.00     0.036 C 
HETATM    9  C16 UNL     1      -4.120   7.267  13.098  1.00  0.00     0.015 C 
HETATM   10  C17 UNL     1      -4.094   5.780  13.521  1.00  0.00    -0.028 C 
HETATM   11  C18 UNL     1      -3.958   5.720  15.060  1.00  0.00     0.016 C 
HETATM   12  C19 UNL     1      -0.550   8.162  11.929  1.00  0.00    -0.014 C 
HETATM   13  C20 UNL     1      -1.114   9.043  10.780  1.00  0.00     0.020 C 
HETATM   14  C21 UNL     1      -0.069   9.102  13.075  1.00  0.00     0.021 C 
HETATM   15  C22 UNL     1       1.383   9.522  12.931  1.00  0.00     0.080 C 
HETATM   16  C23 UNL     1       2.265   8.303  13.067  1.00  0.00     0.135 C 
HETATM   17  O1  UNL     1       3.333   8.379  13.676  1.00  0.00    -0.297 OA
HETATM   18  C24 UNL     1       1.784   6.996  12.408  1.00  0.00     0.018 C 
HETATM   19  C25 UNL     1       3.011   6.375  11.704  1.00  0.00     0.023 C 
HETATM   20  C26 UNL     1       1.346   6.044  13.530  1.00  0.00     0.023 C 
HETATM   21  C27 UNL     1       0.667   7.350  11.359  1.00  0.00     0.020 C 
HETATM   22  C28 UNL     1       0.169   6.183  10.507  1.00  0.00     0.090 C 
HETATM   23  C29 UNL     1      -0.807   5.298  11.232  1.00  0.00     0.157 C 
HETATM   24  O2  UNL     1      -0.809   4.091  11.000  1.00  0.00    -0.293 OA
ENDROOT
BRANCH   1  25
HETATM   25  C6  UNL     1      -6.636   4.932  13.947  1.00  0.00    -0.014 C 
HETATM   26  C7  UNL     1      -7.348   3.583  13.739  1.00  0.00     0.010 C 
BRANCH  25  27
HETATM   27  C5  UNL     1      -7.676   6.079  13.871  1.00  0.00     0.008 C 
BRANCH  27  28
HETATM   28  C4  UNL     1      -8.983   5.738  13.143  1.00  0.00     0.028 C 
BRANCH  28  29
HETATM   29  C3  UNL     1     -10.030   6.788  13.399  1.00  0.00    -0.013 C 
HETATM   30  C2  UNL     1     -10.285   7.420  14.565  1.00  0.00     0.008 C 
HETATM   31  C1  UNL     1      -9.525   7.231  15.844  1.00  0.00     0.055 C 
BRANCH  30  32
HETATM   32  C30 UNL     1     -11.387   8.415  14.666  1.00  0.00     0.171 C 
HETATM   33  O3  UNL     1     -11.719   9.187  13.783  1.00  0.00    -0.646 OA
BRANCH  32  34
HETATM   34  O4  UNL     1     -12.023   8.413  15.849  1.00  0.00    -0.773 OA
HETATM   35  H44 UNL     1     -12.700   9.112  15.743  1.00  0.00     0.167 HD
ENDBRANCH  32  34
ENDBRANCH  30  32
ENDBRANCH  28  29
ENDBRANCH  27  28
ENDBRANCH  25  27
ENDBRANCH   1  25
TORSDOF 6
ENDMDL
MODEL 8
REMARK minimizedAffinity -7.09513235
REMARK CNNscore 0.303013802
REMARK CNNaffinity 5.67814398
REMARK  6 active torsions:
REMARK  status: ('A' for Active; 'I' for Inactive)
REMARK    1  A    between atoms: C2_2  and  C30_32 
REMARK    2  A    between atoms: C3_3  and  C4_4 
REMARK    3  A    between atoms: C4_4  and  C5_5 
REMARK    4  A    between atoms: C5_5  and  C6_6 
REMARK    5  A    between atoms: C6_6  and  C8_8 
REMARK    6  A    between atoms: C30_32  and  O4_34 
ROOT
HETATM    1  C8  UNL     1      16.877  -3.173   8.868  1.00  0.00    -0.002 C 
HETATM    2  C9  UNL     1      16.207  -4.089   9.894  1.00  0.00     0.007 C 
HETATM    3  C10 UNL     1      15.030  -4.661   9.125  1.00  0.00     0.015 C 
HETATM    4  C11 UNL     1      15.625  -5.101   7.766  1.00  0.00    -0.005 C 
HETATM    5  C12 UNL     1      16.254  -6.513   7.946  1.00  0.00     0.021 C 
HETATM    6  C13 UNL     1      14.545  -5.217   6.668  1.00  0.00    -0.000 C 
HETATM    7  C14 UNL     1      14.628  -4.625   5.452  1.00  0.00    -0.060 C 
HETATM    8  C15 UNL     1      15.771  -3.673   5.165  1.00  0.00     0.036 C 
HETATM    9  C16 UNL     1      16.256  -2.976   6.425  1.00  0.00     0.015 C 
HETATM   10  C17 UNL     1      16.745  -3.972   7.502  1.00  0.00    -0.028 C 
HETATM   11  C18 UNL     1      18.083  -4.582   7.021  1.00  0.00     0.016 C 
HETATM   12  C19 UNL     1      13.621  -4.831   4.297  1.00  0.00    -0.014 C 
HETATM   13  C20 UNL     1      12.752  -3.546   4.198  1.00  0.00     0.020 C 
HETATM   14  C21 UNL     1      14.378  -5.014   2.946  1.00  0.00     0.021 C 
HETATM   15  C22 UNL     1      13.602  -5.839   1.936  1.00  0.00     0.080 C 
HETATM   16  C23 UNL     1      13.448  -7.247   2.460  1.00  0.00     0.135 C 
HETATM   17  O1  UNL     1      13.540  -8.206   1.692  1.00  0.00    -0.297 OA
HETATM   18  C24 UNL     1      13.160  -7.422   3.964  1.00  0.00     0.018 C 
HETATM   19  C25 UNL     1      12.055  -8.495   4.084  1.00  0.00     0.023 C 
HETATM   20  C26 UNL     1      14.434  -7.974   4.620  1.00  0.00     0.023 C 
HETATM   21  C27 UNL     1      12.657  -6.047   4.538  1.00  0.00     0.020 C 
HETATM   22  C28 UNL     1      12.191  -6.070   5.992  1.00  0.00     0.090 C 
HETATM   23  C29 UNL     1      13.328  -6.051   6.976  1.00  0.00     0.157 C 
HETATM   24  O2  UNL     1      13.215  -6.666   8.035  1.00  0.00    -0.293 OA
ENDROOT
BRANCH   1  25
HETATM   25  C6  UNL     1      18.271  -2.646   9.312  1.00  0.00    -0.014 C 
HETATM   26  C7  UNL     1      18.824  -3.426  10.518  1.00  0.00     0.010 C 
BRANCH  25  27
HETATM   27  C5  UNL     1      18.305  -1.128   9.623  1.00  0.00     0.008 C 
BRANCH  27  28
HETATM   28  C4  UNL     1      16.936  -0.462   9.813  1.00  0.00     0.028 C 
BRANCH  28  29
HETATM   29  C3  UNL     1      17.029   0.693  10.774  1.00  0.00    -0.013 C 
HETATM   30  C2  UNL     1      16.009   1.326  11.390  1.00  0.00     0.008 C 
HETATM   31  C1  UNL     1      14.558   0.964  11.273  1.00  0.00     0.055 C 
BRANCH  30  32
HETATM   32  C30 UNL     1      16.264   2.482  12.292  1.00  0.00     0.171 C 
HETATM   33  O3  UNL     1      16.209   3.655  11.962  1.00  0.00    -0.646 OA
BRANCH  32  34
HETATM   34  O4  UNL     1      16.579   2.139  13.551  1.00  0.00    -0.773 OA
HETATM   35  H44 UNL     1      16.712   3.002  13.994  1.00  0.00     0.167 HD
ENDBRANCH  32  34
ENDBRANCH  30  32
ENDBRANCH  28  29
ENDBRANCH  27  28
ENDBRANCH  25  27
ENDBRANCH   1  25
TORSDOF 6
ENDMDL
MODEL 9
REMARK minimizedAffinity -6.89963579
REMARK CNNscore 0.28042084
REMARK CNNaffinity 6.2129302
REMARK  6 active torsions:
REMARK  status: ('A' for Active; 'I' for Inactive)
REMARK    1  A    between atoms: C2_2  and  C30_32 
REMARK    2  A    between atoms: C3_3  and  C4_4 
REMARK    3  A    between atoms: C4_4  and  C5_5 
REMARK    4  A    between atoms: C5_5  and  C6_6 
REMARK    5  A    between atoms: C6_6  and  C8_8 
REMARK    6  A    between atoms: C30_32  and  O4_34 
ROOT
HETATM    1  C8  UNL     1      -1.275   8.070  13.463  1.00  0.00    -0.002 C 
HETATM    2  C9  UNL     1       0.206   8.375  13.693  1.00  0.00     0.007 C 
HETATM    3  C10 UNL     1       0.182   9.787  14.248  1.00  0.00     0.015 C 
HETATM    4  C11 UNL     1      -0.920   9.763  15.334  1.00  0.00    -0.005 C 
HETATM    5  C12 UNL     1      -0.295   9.208  16.647  1.00  0.00     0.021 C 
HETATM    6  C13 UNL     1      -1.459  11.177  15.646  1.00  0.00    -0.000 C 
HETATM    7  C14 UNL     1      -2.773  11.508  15.648  1.00  0.00    -0.060 C 
HETATM    8  C15 UNL     1      -3.796  10.489  15.188  1.00  0.00     0.036 C 
HETATM    9  C16 UNL     1      -3.218   9.530  14.162  1.00  0.00     0.015 C 
HETATM   10  C17 UNL     1      -2.000   8.747  14.704  1.00  0.00    -0.028 C 
HETATM   11  C18 UNL     1      -2.511   7.724  15.745  1.00  0.00     0.016 C 
HETATM   12  C19 UNL     1      -3.340  12.879  16.079  1.00  0.00    -0.014 C 
HETATM   13  C20 UNL     1      -3.767  13.637  14.791  1.00  0.00     0.020 C 
HETATM   14  C21 UNL     1      -4.603  12.686  16.973  1.00  0.00     0.021 C 
HETATM   15  C22 UNL     1      -4.827  13.832  17.942  1.00  0.00     0.080 C 
HETATM   16  C23 UNL     1      -3.686  13.876  18.931  1.00  0.00     0.135 C 
HETATM   17  O1  UNL     1      -3.904  14.136  20.115  1.00  0.00    -0.297 OA
HETATM   18  C24 UNL     1      -2.267  13.601  18.396  1.00  0.00     0.018 C 
HETATM   19  C25 UNL     1      -1.337  14.653  19.041  1.00  0.00     0.023 C 
HETATM   20  C26 UNL     1      -1.840  12.215  18.900  1.00  0.00     0.023 C 
HETATM   21  C27 UNL     1      -2.285  13.767  16.832  1.00  0.00     0.020 C 
HETATM   22  C28 UNL     1      -0.925  13.666  16.143  1.00  0.00     0.090 C 
HETATM   23  C29 UNL     1      -0.451  12.248  15.977  1.00  0.00     0.157 C 
HETATM   24  O2  UNL     1       0.751  12.005  16.054  1.00  0.00    -0.293 OA
ENDROOT
BRANCH   1  25
HETATM   25  C6  UNL     1      -1.566   6.578  13.132  1.00  0.00    -0.014 C 
HETATM   26  C7  UNL     1      -1.931   5.770  14.390  1.00  0.00     0.010 C 
BRANCH  25  27
HETATM   27  C5  UNL     1      -0.418   5.861  12.377  1.00  0.00     0.008 C 
BRANCH  27  28
HETATM   28  C4  UNL     1      -0.168   6.345  10.943  1.00  0.00     0.028 C 
BRANCH  28  29
HETATM   29  C3  UNL     1       1.182   5.894  10.452  1.00  0.00    -0.013 C 
HETATM   30  C2  UNL     1       1.885   6.399   9.416  1.00  0.00     0.008 C 
HETATM   31  C1  UNL     1       1.472   7.564   8.566  1.00  0.00     0.055 C 
BRANCH  30  32
HETATM   32  C30 UNL     1       3.199   5.816   9.031  1.00  0.00     0.171 C 
HETATM   33  O3  UNL     1       4.218   5.882   9.696  1.00  0.00    -0.646 OA
BRANCH  32  34
HETATM   34  O4  UNL     1       3.194   5.183   7.847  1.00  0.00    -0.773 OA
HETATM   35  H44 UNL     1       4.116   4.869   7.754  1.00  0.00     0.167 HD
ENDBRANCH  32  34
ENDBRANCH  30  32
ENDBRANCH  28  29
ENDBRANCH  27  28
ENDBRANCH  25  27
ENDBRANCH   1  25
TORSDOF 6
ENDMDL
