MODEL 1
REMARK minimizedAffinity -9.27813148
REMARK  4 active torsions:
REMARK  status: ('A' for Active; 'I' for Inactive)
REMARK    1  A    between atoms: C10_11  and  O2_12 
REMARK    2  A    between atoms: C14_16  and  C15_17 
REMARK    3  A    between atoms: C15_17  and  O3_18 
REMARK    4  A    between atoms: C16_20  and  O5_21 
ROOT
HETATM    1  C1  UNL     1       1.681   7.258  12.618  1.00  0.00     0.023 C 
HETATM    2  C2  UNL     1       0.507   7.150  11.636  1.00  0.00     0.018 C 
HETATM    3  C3  UNL     1       0.589   8.351  10.666  1.00  0.00     0.023 C 
HETATM    4  C4  UNL     1       0.683   5.871  10.792  1.00  0.00     0.135 C 
HETATM    5  O1  UNL     1       1.531   5.786   9.902  1.00  0.00    -0.297 OA
HETATM    6  C5  UNL     1      -0.241   4.705  11.084  1.00  0.00     0.080 C 
HETATM    7  C6  UNL     1      -0.439   4.611  12.586  1.00  0.00     0.022 C 
HETATM    8  C7  UNL     1      -1.227   5.819  13.174  1.00  0.00    -0.007 C 
HETATM    9  C8  UNL     1      -0.805   5.903  14.667  1.00  0.00     0.021 C 
HETATM   10  C9  UNL     1      -2.777   5.770  13.166  1.00  0.00     0.003 A 
HETATM   11  C10 UNL     1      -3.551   4.618  12.968  1.00  0.00     0.107 A 
HETATM   12  C11 UNL     1      -4.937   4.709  12.971  1.00  0.00     0.112 A 
HETATM   13  C12 UNL     1      -5.609   5.896  13.168  1.00  0.00     0.015 A 
HETATM   14  C13 UNL     1      -7.068   5.642  13.148  1.00  0.00     0.079 C 
HETATM   15  C14 UNL     1      -7.066   4.222  12.559  1.00  0.00     0.157 C 
HETATM   16  O4  UNL     1      -5.762   3.624  12.778  1.00  0.00    -0.340 OA
HETATM   17  C16 UNL     1      -4.895   7.058  13.379  1.00  0.00     0.089 A 
HETATM   18  C17 UNL     1      -3.486   7.002  13.388  1.00  0.00     0.053 A 
HETATM   19  C18 UNL     1      -2.702   8.252  13.657  1.00  0.00     0.163 C 
HETATM   20  O6  UNL     1      -3.141   9.151  14.368  1.00  0.00    -0.292 OA
HETATM   21  C19 UNL     1      -1.310   8.366  13.068  1.00  0.00     0.091 C 
HETATM   22  C20 UNL     1      -0.902   7.100  12.310  1.00  0.00     0.021 C 
ENDROOT
BRANCH  15  23
HETATM   23  C15 UNL     1      -8.148   3.336  13.172  1.00  0.00     0.196 C 
BRANCH  23  24
HETATM   24  O3  UNL     1      -8.101   2.022  12.631  1.00  0.00    -0.398 OA
HETATM   25  H20 UNL     1      -7.384   1.543  13.083  1.00  0.00     0.209 HD
ENDBRANCH  23  24
ENDBRANCH  15  23
BRANCH  17  26
HETATM   26  O5  UNL     1      -5.555   8.240  13.525  1.00  0.00    -0.359 OA
HETATM   27  H21 UNL     1      -6.470   8.082  13.805  1.00  0.00     0.217 HD
ENDBRANCH  17  26
BRANCH  11  28
HETATM   28  O2  UNL     1      -3.009   3.388  12.760  1.00  0.00    -0.357 OA
HETATM   29  H14 UNL     1      -3.756   2.763  12.681  1.00  0.00     0.217 HD
ENDBRANCH  11  28
TORSDOF 4
ENDMDL
MODEL 2
REMARK minimizedAffinity -8.60576248
REMARK  4 active torsions:
REMARK  status: ('A' for Active; 'I' for Inactive)
REMARK    1  A    between atoms: C10_11  and  O2_12 
REMARK    2  A    between atoms: C14_16  and  C15_17 
REMARK    3  A    between atoms: C15_17  and  O3_18 
REMARK    4  A    between atoms: C16_20  and  O5_21 
ROOT
HETATM    1  C1  UNL     1     -10.826   6.292  14.682  1.00  0.00     0.023 C 
HETATM    2  C2  UNL     1      -9.787   7.037  13.834  1.00  0.00     0.018 C 
HETATM    3  C3  UNL     1     -10.406   7.289  12.440  1.00  0.00     0.023 C 
HETATM    4  C4  UNL     1      -9.525   8.417  14.471  1.00  0.00     0.135 C 
HETATM    5  O1  UNL     1     -10.344   9.335  14.405  1.00  0.00    -0.297 OA
HETATM    6  C5  UNL     1      -8.201   8.621  15.182  1.00  0.00     0.080 C 
HETATM    7  C6  UNL     1      -7.859   7.350  15.939  1.00  0.00     0.022 C 
HETATM    8  C7  UNL     1      -7.553   6.145  15.001  1.00  0.00    -0.007 C 
HETATM    9  C8  UNL     1      -7.850   4.875  15.845  1.00  0.00     0.021 C 
HETATM   10  C9  UNL     1      -6.111   5.974  14.457  1.00  0.00     0.003 A 
HETATM   11  C10 UNL     1      -4.972   6.613  14.966  1.00  0.00     0.107 A 
HETATM   12  C11 UNL     1      -3.733   6.384  14.380  1.00  0.00     0.112 A 
HETATM   13  C12 UNL     1      -3.558   5.540  13.304  1.00  0.00     0.015 A 
HETATM   14  C13 UNL     1      -2.121   5.492  12.948  1.00  0.00     0.079 C 
HETATM   15  C14 UNL     1      -1.622   6.700  13.759  1.00  0.00     0.157 C 
HETATM   16  O4  UNL     1      -2.572   6.978  14.821  1.00  0.00    -0.340 OA
HETATM   17  C16 UNL     1      -4.645   4.879  12.772  1.00  0.00     0.089 A 
HETATM   18  C17 UNL     1      -5.917   5.082  13.345  1.00  0.00     0.053 A 
HETATM   19  C18 UNL     1      -7.098   4.337  12.799  1.00  0.00     0.163 C 
HETATM   20  O6  UNL     1      -6.984   3.224  12.293  1.00  0.00    -0.292 OA
HETATM   21  C19 UNL     1      -8.469   4.968  12.932  1.00  0.00     0.091 C 
HETATM   22  C20 UNL     1      -8.418   6.298  13.688  1.00  0.00     0.021 C 
ENDROOT
BRANCH  15  23
HETATM   23  C15 UNL     1      -0.236   6.470  14.355  1.00  0.00     0.196 C 
BRANCH  23  24
HETATM   24  O3  UNL     1      -0.303   6.329  15.768  1.00  0.00    -0.398 OA
HETATM   25  H20 UNL     1      -0.591   5.419  15.960  1.00  0.00     0.209 HD
ENDBRANCH  23  24
ENDBRANCH  15  23
BRANCH  17  26
HETATM   26  O5  UNL     1      -4.483   4.083  11.678  1.00  0.00    -0.359 OA
HETATM   27  H21 UNL     1      -3.558   3.801  11.602  1.00  0.00     0.217 HD
ENDBRANCH  17  26
BRANCH  11  28
HETATM   28  O2  UNL     1      -5.011   7.469  16.022  1.00  0.00    -0.357 OA
HETATM   29  H14 UNL     1      -4.090   7.749  16.190  1.00  0.00     0.217 HD
ENDBRANCH  11  28
TORSDOF 4
ENDMDL
MODEL 3
REMARK minimizedAffinity -8.56077194
REMARK  4 active torsions:
REMARK  status: ('A' for Active; 'I' for Inactive)
REMARK    1  A    between atoms: C10_11  and  O2_12 
REMARK    2  A    between atoms: C14_16  and  C15_17 
REMARK    3  A    between atoms: C15_17  and  O3_18 
REMARK    4  A    between atoms: C16_20  and  O5_21 
ROOT
HETATM    1  C1  UNL     1       0.853   9.599  14.197  1.00  0.00     0.023 C 
HETATM    2  C2  UNL     1       0.066   8.570  15.020  1.00  0.00     0.018 C 
HETATM    3  C3  UNL     1       1.084   7.725  15.820  1.00  0.00     0.023 C 
HETATM    4  C4  UNL     1      -0.808   9.320  16.046  1.00  0.00     0.135 C 
HETATM    5  O1  UNL     1      -0.327   9.860  17.044  1.00  0.00    -0.297 OA
HETATM    6  C5  UNL     1      -2.302   9.365  15.796  1.00  0.00     0.080 C 
HETATM    7  C6  UNL     1      -2.537   9.552  14.307  1.00  0.00     0.022 C 
HETATM    8  C7  UNL     1      -2.091   8.323  13.460  1.00  0.00    -0.007 C 
HETATM    9  C8  UNL     1      -1.801   8.880  12.040  1.00  0.00     0.021 C 
HETATM   10  C9  UNL     1      -3.088   7.151  13.269  1.00  0.00     0.003 A 
HETATM   11  C10 UNL     1      -4.467   7.211  13.518  1.00  0.00     0.107 A 
HETATM   12  C11 UNL     1      -5.253   6.084  13.318  1.00  0.00     0.112 A 
HETATM   13  C12 UNL     1      -4.742   4.883  12.873  1.00  0.00     0.015 A 
HETATM   14  C13 UNL     1      -5.844   3.904  12.733  1.00  0.00     0.079 C 
HETATM   15  C14 UNL     1      -6.944   4.652  13.505  1.00  0.00     0.157 C 
HETATM   16  O4  UNL     1      -6.611   6.064  13.545  1.00  0.00    -0.340 OA
HETATM   17  C16 UNL     1      -3.394   4.774  12.603  1.00  0.00     0.089 A 
HETATM   18  C17 UNL     1      -2.566   5.899  12.789  1.00  0.00     0.053 A 
HETATM   19  C18 UNL     1      -1.106   5.802  12.459  1.00  0.00     0.163 C 
HETATM   20  O6  UNL     1      -0.690   5.053  11.580  1.00  0.00    -0.292 OA
HETATM   21  C19 UNL     1      -0.140   6.699  13.207  1.00  0.00     0.091 C 
HETATM   22  C20 UNL     1      -0.863   7.637  14.177  1.00  0.00     0.021 C 
ENDROOT
BRANCH  15  23
HETATM   23  C15 UNL     1      -8.324   4.466  12.880  1.00  0.00     0.196 C 
BRANCH  23  24
HETATM   24  O3  UNL     1      -8.724   3.102  12.920  1.00  0.00    -0.398 OA
HETATM   25  H20 UNL     1      -9.051   2.916  13.818  1.00  0.00     0.209 HD
ENDBRANCH  23  24
ENDBRANCH  15  23
BRANCH  17  26
HETATM   26  O5  UNL     1      -2.878   3.575  12.211  1.00  0.00    -0.359 OA
HETATM   27  H21 UNL     1      -3.576   3.016  11.836  1.00  0.00     0.217 HD
ENDBRANCH  17  26
BRANCH  11  28
HETATM   28  O2  UNL     1      -5.092   8.334  13.962  1.00  0.00    -0.357 OA
HETATM   29  H14 UNL     1      -6.043   8.119  14.025  1.00  0.00     0.217 HD
ENDBRANCH  11  28
TORSDOF 4
ENDMDL
MODEL 4
REMARK minimizedAffinity -8.04460335
REMARK  4 active torsions:
REMARK  status: ('A' for Active; 'I' for Inactive)
REMARK    1  A    between atoms: C10_11  and  O2_12 
REMARK    2  A    between atoms: C14_16  and  C15_17 
REMARK    3  A    between atoms: C15_17  and  O3_18 
REMARK    4  A    between atoms: C16_20  and  O5_21 
ROOT
HETATM    1  C1  UNL     1      -6.339   5.887  15.598  1.00  0.00     0.023 C 
HETATM    2  C2  UNL     1      -5.984   6.516  14.244  1.00  0.00     0.018 C 
HETATM    3  C3  UNL     1      -7.141   6.214  13.264  1.00  0.00     0.023 C 
HETATM    4  C4  UNL     1      -5.919   8.048  14.412  1.00  0.00     0.135 C 
HETATM    5  O1  UNL     1      -6.933   8.735  14.548  1.00  0.00    -0.297 OA
HETATM    6  C5  UNL     1      -4.550   8.699  14.390  1.00  0.00     0.080 C 
HETATM    7  C6  UNL     1      -3.578   7.804  15.139  1.00  0.00     0.022 C 
HETATM    8  C7  UNL     1      -3.317   6.448  14.418  1.00  0.00    -0.007 C 
HETATM    9  C8  UNL     1      -2.870   5.464  15.533  1.00  0.00     0.021 C 
HETATM   10  C9  UNL     1      -2.221   6.389  13.324  1.00  0.00     0.003 A 
HETATM   11  C10 UNL     1      -1.220   7.350  13.125  1.00  0.00     0.107 A 
HETATM   12  C11 UNL     1      -0.299   7.186  12.098  1.00  0.00     0.112 A 
HETATM   13  C12 UNL     1      -0.313   6.102  11.246  1.00  0.00     0.015 A 
HETATM   14  C13 UNL     1       0.816   6.213  10.294  1.00  0.00     0.079 C 
HETATM   15  C14 UNL     1       1.205   7.681  10.538  1.00  0.00     0.157 C 
HETATM   16  O4  UNL     1       0.707   8.088  11.839  1.00  0.00    -0.340 OA
HETATM   17  C16 UNL     1      -1.270   5.122  11.404  1.00  0.00     0.089 A 
HETATM   18  C17 UNL     1      -2.217   5.252  12.441  1.00  0.00     0.053 A 
HETATM   19  C18 UNL     1      -3.237   4.172  12.646  1.00  0.00     0.163 C 
HETATM   20  O6  UNL     1      -3.002   2.999  12.370  1.00  0.00    -0.292 OA
HETATM   21  C19 UNL     1      -4.569   4.550  13.262  1.00  0.00     0.091 C 
HETATM   22  C20 UNL     1      -4.627   6.033  13.639  1.00  0.00     0.021 C 
ENDROOT
BRANCH  15  23
HETATM   23  C15 UNL     1       2.715   7.902  10.472  1.00  0.00     0.196 C 
BRANCH  23  24
HETATM   24  O3  UNL     1       3.251   7.407   9.252  1.00  0.00    -0.398 OA
HETATM   25  H20 UNL     1       3.075   8.070   8.561  1.00  0.00     0.209 HD
ENDBRANCH  23  24
ENDBRANCH  15  23
BRANCH  17  26
HETATM   26  O5  UNL     1      -1.317   4.075  10.534  1.00  0.00    -0.359 OA
HETATM   27  H21 UNL     1      -0.457   3.958  10.102  1.00  0.00     0.217 HD
ENDBRANCH  17  26
BRANCH  11  28
HETATM   28  O2  UNL     1      -1.099   8.464  13.895  1.00  0.00    -0.357 OA
HETATM   29  H14 UNL     1      -0.313   8.946  13.570  1.00  0.00     0.217 HD
ENDBRANCH  11  28
TORSDOF 4
ENDMDL
MODEL 5
REMARK minimizedAffinity -7.95324326
REMARK  4 active torsions:
REMARK  status: ('A' for Active; 'I' for Inactive)
REMARK    1  A    between atoms: C10_11  and  O2_12 
REMARK    2  A    between atoms: C14_16  and  C15_17 
REMARK    3  A    between atoms: C15_17  and  O3_18 
REMARK    4  A    between atoms: C16_20  and  O5_21 
ROOT
HETATM    1  C1  UNL     1       1.905   7.357  12.473  1.00  0.00     0.023 C 
HETATM    2  C2  UNL     1       0.542   7.373  11.769  1.00  0.00     0.018 C 
HETATM    3  C3  UNL     1       0.639   8.344  10.570  1.00  0.00     0.023 C 
HETATM    4  C4  UNL     1       0.264   5.969  11.196  1.00  0.00     0.135 C 
HETATM    5  O1  UNL     1       0.854   5.539  10.203  1.00  0.00    -0.297 OA
HETATM    6  C5  UNL     1      -0.783   5.121  11.892  1.00  0.00     0.080 C 
HETATM    7  C6  UNL     1      -0.651   5.325  13.391  1.00  0.00     0.022 C 
HETATM    8  C7  UNL     1      -1.028   6.766  13.846  1.00  0.00    -0.007 C 
HETATM    9  C8  UNL     1      -0.270   6.990  15.184  1.00  0.00     0.021 C 
HETATM   10  C9  UNL     1      -2.517   7.088  14.134  1.00  0.00     0.003 A 
HETATM   11  C10 UNL     1      -3.529   6.138  14.329  1.00  0.00     0.107 A 
HETATM   12  C11 UNL     1      -4.832   6.557  14.568  1.00  0.00     0.112 A 
HETATM   13  C12 UNL     1      -5.191   7.886  14.632  1.00  0.00     0.015 A 
HETATM   14  C13 UNL     1      -6.637   7.988  14.935  1.00  0.00     0.079 C 
HETATM   15  C14 UNL     1      -7.052   6.532  14.668  1.00  0.00     0.157 C 
HETATM   16  O4  UNL     1      -5.878   5.684  14.764  1.00  0.00    -0.340 OA
HETATM   17  C16 UNL     1      -4.232   8.861  14.458  1.00  0.00     0.089 A 
HETATM   18  C17 UNL     1      -2.897   8.473  14.219  1.00  0.00     0.053 A 
HETATM   19  C18 UNL     1      -1.840   9.526  14.069  1.00  0.00     0.163 C 
HETATM   20  O6  UNL     1      -1.918  10.608  14.643  1.00  0.00    -0.292 OA
HETATM   21  C19 UNL     1      -0.624   9.206  13.223  1.00  0.00     0.091 C 
HETATM   22  C20 UNL     1      -0.659   7.772  12.687  1.00  0.00     0.021 C 
ENDROOT
BRANCH  15  23
HETATM   23  C15 UNL     1      -8.121   6.043  15.642  1.00  0.00     0.196 C 
BRANCH  23  24
HETATM   24  O3  UNL     1      -7.947   4.665  15.944  1.00  0.00    -0.398 OA
HETATM   25  H20 UNL     1      -7.239   4.595  16.609  1.00  0.00     0.209 HD
ENDBRANCH  23  24
ENDBRANCH  15  23
BRANCH  17  26
HETATM   26  O5  UNL     1      -4.592  10.175  14.470  1.00  0.00    -0.359 OA
HETATM   27  H21 UNL     1      -5.432  10.288  14.941  1.00  0.00     0.217 HD
ENDBRANCH  17  26
BRANCH  11  28
HETATM   28  O2  UNL     1      -3.305   4.797  14.288  1.00  0.00    -0.357 OA
HETATM   29  H14 UNL     1      -4.160   4.364  14.482  1.00  0.00     0.217 HD
ENDBRANCH  11  28
TORSDOF 4
ENDMDL
MODEL 6
REMARK minimizedAffinity -7.57787704
REMARK  4 active torsions:
REMARK  status: ('A' for Active; 'I' for Inactive)
REMARK    1  A    between atoms: C10_11  and  O2_12 
REMARK    2  A    between atoms: C14_16  and  C15_17 
REMARK    3  A    between atoms: C15_17  and  O3_18 
REMARK    4  A    between atoms: C16_20  and  O5_21 
ROOT
HETATM    1  C1  UNL     1      -3.141   6.451  13.300  1.00  0.00     0.023 C 
HETATM    2  C2  UNL     1      -2.304   7.724  13.480  1.00  0.00     0.018 C 
HETATM    3  C3  UNL     1      -2.933   8.833  12.605  1.00  0.00     0.023 C 
HETATM    4  C4  UNL     1      -2.415   8.186  14.948  1.00  0.00     0.135 C 
HETATM    5  O1  UNL     1      -3.439   8.707  15.394  1.00  0.00    -0.297 OA
HETATM    6  C5  UNL     1      -1.205   7.990  15.839  1.00  0.00     0.080 C 
HETATM    7  C6  UNL     1      -0.570   6.652  15.502  1.00  0.00     0.022 C 
HETATM    8  C7  UNL     1       0.054   6.615  14.076  1.00  0.00    -0.007 C 
HETATM    9  C8  UNL     1       0.068   5.116  13.668  1.00  0.00     0.021 C 
HETATM   10  C9  UNL     1       1.505   7.127  13.886  1.00  0.00     0.003 A 
HETATM   11  C10 UNL     1       2.433   7.335  14.915  1.00  0.00     0.107 A 
HETATM   12  C11 UNL     1       3.702   7.811  14.615  1.00  0.00     0.112 A 
HETATM   13  C12 UNL     1       4.112   8.091  13.328  1.00  0.00     0.015 A 
HETATM   14  C13 UNL     1       5.522   8.543  13.350  1.00  0.00     0.079 C 
HETATM   15  C14 UNL     1       5.679   8.799  14.858  1.00  0.00     0.157 C 
HETATM   16  O4  UNL     1       4.664   8.044  15.571  1.00  0.00    -0.340 OA
HETATM   17  C16 UNL     1       3.241   7.893  12.277  1.00  0.00     0.089 A 
HETATM   18  C17 UNL     1       1.946   7.406  12.544  1.00  0.00     0.053 A 
HETATM   19  C18 UNL     1       1.006   7.149  11.404  1.00  0.00     0.163 C 
HETATM   20  O6  UNL     1       1.410   6.820  10.293  1.00  0.00    -0.292 OA
HETATM   21  C19 UNL     1      -0.484   7.252  11.665  1.00  0.00     0.091 C 
HETATM   22  C20 UNL     1      -0.789   7.561  13.134  1.00  0.00     0.021 C 
ENDROOT
BRANCH  15  23
HETATM   23  C15 UNL     1       7.064   8.416  15.374  1.00  0.00     0.196 C 
BRANCH  23  24
HETATM   24  O3  UNL     1       7.023   8.089  16.757  1.00  0.00    -0.398 OA
HETATM   25  H20 UNL     1       6.687   7.178  16.835  1.00  0.00     0.209 HD
ENDBRANCH  23  24
ENDBRANCH  15  23
BRANCH  17  26
HETATM   26  O5  UNL     1       3.626   8.216  11.010  1.00  0.00    -0.359 OA
HETATM   27  H21 UNL     1       4.593   8.229  10.946  1.00  0.00     0.217 HD
ENDBRANCH  17  26
BRANCH  11  28
HETATM   28  O2  UNL     1       2.152   7.100  16.225  1.00  0.00    -0.357 OA
HETATM   29  H14 UNL     1       2.968   7.295  16.726  1.00  0.00     0.217 HD
ENDBRANCH  11  28
TORSDOF 4
ENDMDL
MODEL 7
REMARK minimizedAffinity -7.51824713
REMARK  4 active torsions:
REMARK  status: ('A' for Active; 'I' for Inactive)
REMARK    1  A    between atoms: C10_11  and  O2_12 
REMARK    2  A    between atoms: C14_16  and  C15_17 
REMARK    3  A    between atoms: C15_17  and  O3_18 
REMARK    4  A    between atoms: C16_20  and  O5_21 
ROOT
HETATM    1  C1  UNL     1       2.742   6.847  11.886  1.00  0.00     0.023 C 
HETATM    2  C2  UNL     1       1.437   7.652  11.831  1.00  0.00     0.018 C 
HETATM    3  C3  UNL     1       1.794   9.145  12.011  1.00  0.00     0.023 C 
HETATM    4  C4  UNL     1       0.820   7.498  10.426  1.00  0.00     0.135 C 
HETATM    5  O1  UNL     1       1.295   8.060   9.437  1.00  0.00    -0.297 OA
HETATM    6  C5  UNL     1      -0.417   6.632  10.294  1.00  0.00     0.080 C 
HETATM    7  C6  UNL     1      -0.257   5.422  11.197  1.00  0.00     0.022 C 
HETATM    8  C7  UNL     1      -0.263   5.786  12.711  1.00  0.00    -0.007 C 
HETATM    9  C8  UNL     1       0.508   4.638  13.418  1.00  0.00     0.021 C 
HETATM   10  C9  UNL     1      -1.625   5.904  13.441  1.00  0.00     0.003 A 
HETATM   11  C10 UNL     1      -2.848   5.414  12.962  1.00  0.00     0.107 A 
HETATM   12  C11 UNL     1      -4.005   5.595  13.709  1.00  0.00     0.112 A 
HETATM   13  C12 UNL     1      -4.017   6.240  14.927  1.00  0.00     0.015 A 
HETATM   14  C13 UNL     1      -5.393   6.232  15.473  1.00  0.00     0.079 C 
HETATM   15  C14 UNL     1      -6.161   5.808  14.209  1.00  0.00     0.157 C 
HETATM   16  O4  UNL     1      -5.241   5.147  13.301  1.00  0.00    -0.340 OA
HETATM   17  C16 UNL     1      -2.839   6.732  15.450  1.00  0.00     0.089 A 
HETATM   18  C17 UNL     1      -1.644   6.561  14.722  1.00  0.00     0.053 A 
HETATM   19  C18 UNL     1      -0.352   7.056  15.301  1.00  0.00     0.163 C 
HETATM   20  O6  UNL     1      -0.161   7.101  16.512  1.00  0.00    -0.292 OA
HETATM   21  C19 UNL     1       0.755   7.458  14.346  1.00  0.00     0.091 C 
HETATM   22  C20 UNL     1       0.365   7.224  12.884  1.00  0.00     0.021 C 
ENDROOT
BRANCH  15  23
HETATM   23  C15 UNL     1      -7.332   4.880  14.522  1.00  0.00     0.196 C 
BRANCH  23  24
HETATM   24  O3  UNL     1      -7.670   4.930  15.902  1.00  0.00    -0.398 OA
HETATM   25  H20 UNL     1      -8.203   5.732  16.046  1.00  0.00     0.209 HD
ENDBRANCH  23  24
ENDBRANCH  15  23
BRANCH  17  26
HETATM   26  O5  UNL     1      -2.855   7.413  16.629  1.00  0.00    -0.359 OA
HETATM   27  H21 UNL     1      -3.645   7.180  17.141  1.00  0.00     0.217 HD
ENDBRANCH  17  26
BRANCH  11  28
HETATM   28  O2  UNL     1      -2.971   4.762  11.774  1.00  0.00    -0.357 OA
HETATM   29  H14 UNL     1      -3.910   4.504  11.692  1.00  0.00     0.217 HD
ENDBRANCH  11  28
TORSDOF 4
ENDMDL
MODEL 8
REMARK minimizedAffinity -7.47469997
REMARK  4 active torsions:
REMARK  status: ('A' for Active; 'I' for Inactive)
REMARK    1  A    between atoms: C10_11  and  O2_12 
REMARK    2  A    between atoms: C14_16  and  C15_17 
REMARK    3  A    between atoms: C15_17  and  O3_18 
REMARK    4  A    between atoms: C16_20  and  O5_21 
ROOT
HETATM    1  C1  UNL     1      -3.547   7.018  14.819  1.00  0.00     0.023 C 
HETATM    2  C2  UNL     1      -2.749   7.933  13.881  1.00  0.00     0.018 C 
HETATM    3  C3  UNL     1      -3.714   8.449  12.789  1.00  0.00     0.023 C 
HETATM    4  C4  UNL     1      -2.266   9.161  14.679  1.00  0.00     0.135 C 
HETATM    5  O1  UNL     1      -3.034  10.061  15.023  1.00  0.00    -0.297 OA
HETATM    6  C5  UNL     1      -0.792   9.239  15.024  1.00  0.00     0.080 C 
HETATM    7  C6  UNL     1      -0.308   7.847  15.393  1.00  0.00     0.022 C 
HETATM    8  C7  UNL     1      -0.320   6.859  14.188  1.00  0.00    -0.007 C 
HETATM    9  C8  UNL     1      -0.427   5.442  14.815  1.00  0.00     0.021 C 
HETATM   10  C9  UNL     1       0.911   6.822  13.246  1.00  0.00     0.003 A 
HETATM   11  C10 UNL     1       2.171   7.363  13.537  1.00  0.00     0.107 A 
HETATM   12  C11 UNL     1       3.193   7.275  12.600  1.00  0.00     0.112 A 
HETATM   13  C12 UNL     1       3.033   6.666  11.373  1.00  0.00     0.015 A 
HETATM   14  C13 UNL     1       4.315   6.713  10.633  1.00  0.00     0.079 C 
HETATM   15  C14 UNL     1       5.065   7.741  11.496  1.00  0.00     0.157 C 
HETATM   16  O4  UNL     1       4.453   7.786  12.811  1.00  0.00    -0.340 OA
HETATM   17  C16 UNL     1       1.816   6.109  11.041  1.00  0.00     0.089 A 
HETATM   18  C17 UNL     1       0.758   6.174  11.971  1.00  0.00     0.053 A 
HETATM   19  C18 UNL     1      -0.557   5.535  11.636  1.00  0.00     0.163 C 
HETATM   20  O6  UNL     1      -0.630   4.548  10.910  1.00  0.00    -0.292 OA
HETATM   21  C19 UNL     1      -1.813   6.107  12.262  1.00  0.00     0.091 C 
HETATM   22  C20 UNL     1      -1.502   7.259  13.222  1.00  0.00     0.021 C 
ENDROOT
BRANCH  15  23
HETATM   23  C15 UNL     1       6.551   7.417  11.630  1.00  0.00     0.196 C 
BRANCH  23  24
HETATM   24  O3  UNL     1       7.084   6.942  10.400  1.00  0.00    -0.398 OA
HETATM   25  H20 UNL     1       7.254   7.716   9.834  1.00  0.00     0.209 HD
ENDBRANCH  23  24
ENDBRANCH  15  23
BRANCH  17  26
HETATM   26  O5  UNL     1       1.641   5.551   9.811  1.00  0.00    -0.359 OA
HETATM   27  H21 UNL     1       2.497   5.304   9.429  1.00  0.00     0.217 HD
ENDBRANCH  17  26
BRANCH  11  28
HETATM   28  O2  UNL     1       2.456   7.991  14.709  1.00  0.00    -0.357 OA
HETATM   29  H14 UNL     1       3.400   8.244  14.670  1.00  0.00     0.217 HD
ENDBRANCH  11  28
TORSDOF 4
ENDMDL
MODEL 9
REMARK minimizedAffinity -7.47357941
REMARK  4 active torsions:
REMARK  status: ('A' for Active; 'I' for Inactive)
REMARK    1  A    between atoms: C10_11  and  O2_12 
REMARK    2  A    between atoms: C14_16  and  C15_17 
REMARK    3  A    between atoms: C15_17  and  O3_18 
REMARK    4  A    between atoms: C16_20  and  O5_21 
ROOT
HETATM    1  C1  UNL     1      -8.766   1.218  -6.792  1.00  0.00     0.023 C 
HETATM    2  C2  UNL     1      -8.254  -0.101  -7.385  1.00  0.00     0.018 C 
HETATM    3  C3  UNL     1      -7.861   0.162  -8.857  1.00  0.00     0.023 C 
HETATM    4  C4  UNL     1      -6.969  -0.513  -6.638  1.00  0.00     0.135 C 
HETATM    5  O1  UNL     1      -5.896   0.067  -6.813  1.00  0.00    -0.297 OA
HETATM    6  C5  UNL     1      -7.060  -1.682  -5.677  1.00  0.00     0.080 C 
HETATM    7  C6  UNL     1      -8.382  -1.594  -4.935  1.00  0.00     0.022 C 
HETATM    8  C7  UNL     1      -9.616  -1.822  -5.859  1.00  0.00    -0.007 C 
HETATM    9  C8  UNL     1     -10.800  -1.105  -5.155  1.00  0.00     0.021 C 
HETATM   10  C9  UNL     1     -10.087  -3.276  -6.123  1.00  0.00     0.003 A 
HETATM   11  C10 UNL     1      -9.713  -4.398  -5.372  1.00  0.00     0.107 A 
HETATM   12  C11 UNL     1     -10.196  -5.654  -5.720  1.00  0.00     0.112 A 
HETATM   13  C12 UNL     1     -11.047  -5.860  -6.785  1.00  0.00     0.015 A 
HETATM   14  C13 UNL     1     -11.398  -7.296  -6.860  1.00  0.00     0.079 C 
HETATM   15  C14 UNL     1     -10.334  -7.864  -5.907  1.00  0.00     0.157 C 
HETATM   16  O4  UNL     1      -9.870  -6.801  -5.034  1.00  0.00    -0.340 OA
HETATM   17  C16 UNL     1     -11.454  -4.787  -7.550  1.00  0.00     0.089 A 
HETATM   18  C17 UNL     1     -10.989  -3.497  -7.223  1.00  0.00     0.053 A 
HETATM   19  C18 UNL     1     -11.458  -2.319  -8.024  1.00  0.00     0.163 C 
HETATM   20  O6  UNL     1     -12.564  -2.298  -8.555  1.00  0.00    -0.292 OA
HETATM   21  C19 UNL     1     -10.548  -1.111  -8.124  1.00  0.00     0.091 C 
HETATM   22  C20 UNL     1      -9.268  -1.287  -7.303  1.00  0.00     0.021 C 
ENDROOT
BRANCH  15  23
HETATM   23  C15 UNL     1     -10.862  -9.026  -5.069  1.00  0.00     0.196 C 
BRANCH  23  24
HETATM   24  O3  UNL     1     -10.314  -9.001  -3.757  1.00  0.00    -0.398 OA
HETATM   25  H20 UNL     1     -10.810  -8.340  -3.242  1.00  0.00     0.209 HD
ENDBRANCH  23  24
ENDBRANCH  15  23
BRANCH  17  26
HETATM   26  O5  UNL     1     -12.255  -4.994  -8.633  1.00  0.00    -0.359 OA
HETATM   27  H21 UNL     1     -12.729  -5.835  -8.544  1.00  0.00     0.217 HD
ENDBRANCH  17  26
BRANCH  11  28
HETATM   28  O2  UNL     1      -8.878  -4.329  -4.301  1.00  0.00    -0.357 OA
HETATM   29  H14 UNL     1      -8.804  -5.236  -3.944  1.00  0.00     0.217 HD
ENDBRANCH  11  28
TORSDOF 4
ENDMDL
