MODEL 1
REMARK minimizedAffinity -8.9914856
REMARK CNNscore 0.661577284
REMARK CNNaffinity 7.28678131
REMARK  11 active torsions:
REMARK  status: ('A' for Active; 'I' for Inactive)
REMARK    1  A    between atoms: C2_2  and  O1_4 
REMARK    2  A    between atoms: C2_2  and  C4_5 
REMARK    3  A    between atoms: C5_6  and  C6_7 
REMARK    4  A    between atoms: C6_7  and  C7_8 
REMARK    5  A    between atoms: C7_8  and  C8_9 
REMARK    6  A    between atoms: C7_8  and  C14_21 
REMARK    7  A    between atoms: C8_9  and  O3_11 
REMARK    8  A    between atoms: O3_11  and  C9_12 
REMARK    9  A    between atoms: C11_15  and  O5_16 
REMARK   10  A    between atoms: C12_17  and  O6_18 
REMARK   11  A    between atoms: C13_19  and  O7_20 
ROOT
HETATM    1  C7  UNL     1      -0.236   6.387  13.086  1.00  0.00     0.094 C 
ENDROOT
BRANCH   1   2
HETATM    2  C6  UNL     1      -0.278   4.855  13.280  1.00  0.00     0.042 C 
BRANCH   2   3
HETATM    3  C5  UNL     1      -1.356   4.104  12.546  1.00  0.00    -0.027 C 
HETATM    4  C4  UNL     1      -1.115   3.257  11.530  1.00  0.00     0.006 C 
BRANCH   4   5
HETATM    5  C2  UNL     1      -2.146   2.464  10.759  1.00  0.00     0.068 C 
HETATM    6  C1  UNL     1      -3.049   1.697  11.729  1.00  0.00     0.050 C 
HETATM    7  C3  UNL     1      -2.972   3.404   9.875  1.00  0.00     0.050 C 
BRANCH   5   8
HETATM    8  O1  UNL     1      -1.486   1.517   9.920  1.00  0.00    -0.387 OA
HETATM    9  H7  UNL     1      -2.170   1.046   9.415  1.00  0.00     0.211 HD
ENDBRANCH   5   8
ENDBRANCH   4   5
ENDBRANCH   2   3
ENDBRANCH   1   2
BRANCH   1  10
HETATM   10  C8  UNL     1       0.187   6.776  11.673  1.00  0.00     0.266 C 
HETATM   11  O2  UNL     1      -0.145   6.223  10.634  1.00  0.00    -0.265 OA
BRANCH  10  12
HETATM   12  O3  UNL     1       0.972   7.894  11.707  1.00  0.00    -0.287 OA
BRANCH  12  13
HETATM   13  C9  UNL     1       1.562   8.253  10.447  1.00  0.00     0.300 C 
HETATM   14  O4  UNL     1       0.612   8.006   9.410  1.00  0.00    -0.355 OA
HETATM   15  C10 UNL     1       1.073   8.493   8.150  1.00  0.00     0.205 C 
HETATM   16  C11 UNL     1       2.493   8.023   7.790  1.00  0.00     0.173 C 
HETATM   17  C12 UNL     1       3.015   6.962   8.773  1.00  0.00     0.182 C 
HETATM   18  C13 UNL     1       2.889   7.476  10.215  1.00  0.00     0.205 C 
BRANCH  16  19
HETATM   19  O5  UNL     1       3.375   9.157   7.754  1.00  0.00    -0.391 OA
HETATM   20  H17 UNL     1       3.792   9.261   8.635  1.00  0.00     0.210 HD
ENDBRANCH  16  19
BRANCH  17  21
HETATM   21  O6  UNL     1       2.312   5.724   8.614  1.00  0.00    -0.390 OA
HETATM   22  H19 UNL     1       2.481   5.415   7.710  1.00  0.00     0.210 HD
ENDBRANCH  17  21
BRANCH  18  23
HETATM   23  O7  UNL     1       4.003   8.359  10.467  1.00  0.00    -0.388 OA
HETATM   24  H21 UNL     1       3.880   8.686  11.388  1.00  0.00     0.210 HD
ENDBRANCH  18  23
ENDBRANCH  12  13
ENDBRANCH  10  12
ENDBRANCH   1  10
BRANCH   1  25
HETATM   25  C14 UNL     1      -1.424   7.153  13.741  1.00  0.00     0.009 C 
HETATM   26  C15 UNL     1      -2.154   6.334  14.844  1.00  0.00     0.007 C 
HETATM   27  C16 UNL     1      -2.787   7.347  15.817  1.00  0.00     0.015 C 
HETATM   28  C17 UNL     1      -2.756   8.692  15.064  1.00  0.00    -0.013 C 
HETATM   29  C18 UNL     1      -3.997   8.716  14.116  1.00  0.00     0.021 C 
HETATM   30  C19 UNL     1      -2.855   9.990  15.856  1.00  0.00    -0.068 C 
HETATM   31  C23 UNL     1      -1.348   8.589  14.347  1.00  0.00    -0.028 C 
HETATM   32  C20 UNL     1      -2.284  11.126  15.377  1.00  0.00    -0.068 C 
HETATM   33  C35 UNL     1      -3.676   9.944  17.120  1.00  0.00     0.036 C 
HETATM   34  C21 UNL     1      -1.485  11.119  14.065  1.00  0.00     0.036 C 
HETATM   35  C25 UNL     1      -2.376  12.474  16.136  1.00  0.00    -0.015 C 
HETATM   36  C22 UNL     1      -1.273   9.758  13.360  1.00  0.00     0.015 C 
HETATM   37  C26 UNL     1      -1.043  12.653  16.896  1.00  0.00     0.020 C 
HETATM   38  C27 UNL     1      -2.598  13.647  15.152  1.00  0.00     0.021 C 
HETATM   39  C33 UNL     1      -3.625  12.477  17.079  1.00  0.00     0.013 C 
HETATM   40  C28 UNL     1      -2.786  15.012  15.795  1.00  0.00     0.080 C 
HETATM   41  C29 UNL     1      -3.142  15.015  17.261  1.00  0.00     0.135 C 
HETATM   42  O8  UNL     1      -2.923  16.039  17.919  1.00  0.00    -0.297 OA
HETATM   43  C30 UNL     1      -3.867  13.809  17.875  1.00  0.00     0.018 C 
HETATM   44  C31 UNL     1      -5.372  14.159  17.833  1.00  0.00     0.023 C 
HETATM   45  C32 UNL     1      -3.447  13.717  19.362  1.00  0.00     0.023 C 
HETATM   46  C34 UNL     1      -3.647  11.218  17.957  1.00  0.00     0.011 C 
HETATM   47  C24 UNL     1      -0.150   8.706  15.339  1.00  0.00     0.016 C 
ENDBRANCH   1  25
TORSDOF 11
ENDMDL
MODEL 2
REMARK minimizedAffinity -8.82930756
REMARK CNNscore 0.486582875
REMARK CNNaffinity 7.52997208
REMARK  11 active torsions:
REMARK  status: ('A' for Active; 'I' for Inactive)
REMARK    1  A    between atoms: C2_2  and  O1_4 
REMARK    2  A    between atoms: C2_2  and  C4_5 
REMARK    3  A    between atoms: C5_6  and  C6_7 
REMARK    4  A    between atoms: C6_7  and  C7_8 
REMARK    5  A    between atoms: C7_8  and  C8_9 
REMARK    6  A    between atoms: C7_8  and  C14_21 
REMARK    7  A    between atoms: C8_9  and  O3_11 
REMARK    8  A    between atoms: O3_11  and  C9_12 
REMARK    9  A    between atoms: C11_15  and  O5_16 
REMARK   10  A    between atoms: C12_17  and  O6_18 
REMARK   11  A    between atoms: C13_19  and  O7_20 
ROOT
HETATM    1  C7  UNL     1       1.217   8.246  12.913  1.00  0.00     0.094 C 
ENDROOT
BRANCH   1   2
HETATM    2  C6  UNL     1       0.728   8.449  11.462  1.00  0.00     0.042 C 
BRANCH   2   3
HETATM    3  C5  UNL     1       1.732   8.213  10.365  1.00  0.00    -0.027 C 
HETATM    4  C4  UNL     1       1.408   7.745   9.147  1.00  0.00     0.006 C 
BRANCH   4   5
HETATM    5  C2  UNL     1       2.359   7.496   7.999  1.00  0.00     0.068 C 
HETATM    6  C1  UNL     1       1.571   7.167   6.728  1.00  0.00     0.050 C 
HETATM    7  C3  UNL     1       3.251   8.722   7.785  1.00  0.00     0.050 C 
BRANCH   5   8
HETATM    8  O1  UNL     1       3.192   6.379   8.308  1.00  0.00    -0.387 OA
HETATM    9  H7  UNL     1       3.813   6.263   7.569  1.00  0.00     0.211 HD
ENDBRANCH   5   8
ENDBRANCH   4   5
ENDBRANCH   2   3
ENDBRANCH   1   2
BRANCH   1  10
HETATM   10  C8  UNL     1       2.495   9.026  13.205  1.00  0.00     0.266 C 
HETATM   11  O2  UNL     1       2.691  10.213  12.983  1.00  0.00    -0.265 OA
BRANCH  10  12
HETATM   12  O3  UNL     1       3.411   8.218  13.814  1.00  0.00    -0.287 OA
BRANCH  12  13
HETATM   13  C9  UNL     1       4.774   8.662  13.701  1.00  0.00     0.300 C 
HETATM   14  O4  UNL     1       5.600   7.535  13.408  1.00  0.00    -0.355 OA
HETATM   15  C10 UNL     1       6.941   7.928  13.122  1.00  0.00     0.205 C 
HETATM   16  C11 UNL     1       7.550   8.862  14.182  1.00  0.00     0.173 C 
HETATM   17  C12 UNL     1       6.648   8.991  15.422  1.00  0.00     0.182 C 
HETATM   18  C13 UNL     1       5.228   9.394  14.995  1.00  0.00     0.205 C 
BRANCH  16  19
HETATM   19  O5  UNL     1       7.794  10.152  13.599  1.00  0.00    -0.391 OA
HETATM   20  H17 UNL     1       7.015  10.724  13.756  1.00  0.00     0.210 HD
ENDBRANCH  16  19
BRANCH  17  21
HETATM   21  O6  UNL     1       6.624   7.770  16.170  1.00  0.00    -0.390 OA
HETATM   22  H19 UNL     1       7.532   7.602  16.468  1.00  0.00     0.210 HD
ENDBRANCH  17  21
BRANCH  18  23
HETATM   23  O7  UNL     1       5.225  10.818  14.758  1.00  0.00    -0.388 OA
HETATM   24  H21 UNL     1       4.310  11.038  14.468  1.00  0.00     0.210 HD
ENDBRANCH  18  23
ENDBRANCH  12  13
ENDBRANCH  10  12
ENDBRANCH   1  10
BRANCH   1  25
HETATM   25  C14 UNL     1       0.084   8.254  13.982  1.00  0.00     0.009 C 
HETATM   26  C15 UNL     1       0.029   9.567  14.814  1.00  0.00     0.007 C 
HETATM   27  C16 UNL     1      -1.424   9.736  15.299  1.00  0.00     0.015 C 
HETATM   28  C17 UNL     1      -2.076   8.356  15.087  1.00  0.00    -0.013 C 
HETATM   29  C18 UNL     1      -1.691   7.473  16.316  1.00  0.00     0.021 C 
HETATM   30  C19 UNL     1      -3.594   8.255  15.004  1.00  0.00    -0.068 C 
HETATM   31  C23 UNL     1      -1.419   7.935  13.708  1.00  0.00    -0.028 C 
HETATM   32  C20 UNL     1      -4.173   7.259  14.285  1.00  0.00    -0.068 C 
HETATM   33  C35 UNL     1      -4.378   9.253  15.820  1.00  0.00     0.036 C 
HETATM   34  C21 UNL     1      -3.321   6.250  13.499  1.00  0.00     0.036 C 
HETATM   35  C25 UNL     1      -5.712   7.102  14.188  1.00  0.00    -0.015 C 
HETATM   36  C22 UNL     1      -1.789   6.467  13.477  1.00  0.00     0.015 C 
HETATM   37  C26 UNL     1      -6.143   7.724  12.841  1.00  0.00     0.020 C 
HETATM   38  C27 UNL     1      -6.120   5.612  14.251  1.00  0.00     0.021 C 
HETATM   39  C33 UNL     1      -6.400   7.778  15.422  1.00  0.00     0.013 C 
HETATM   40  C28 UNL     1      -7.617   5.345  14.248  1.00  0.00     0.080 C 
HETATM   41  C29 UNL     1      -8.504   6.515  14.595  1.00  0.00     0.135 C 
HETATM   42  O8  UNL     1      -9.687   6.484  14.235  1.00  0.00    -0.297 OA
HETATM   43  C30 UNL     1      -7.964   7.649  15.476  1.00  0.00     0.018 C 
HETATM   44  C31 UNL     1      -8.395   7.301  16.919  1.00  0.00     0.023 C 
HETATM   45  C32 UNL     1      -8.697   8.949  15.068  1.00  0.00     0.023 C 
HETATM   46  C34 UNL     1      -5.888   9.212  15.614  1.00  0.00     0.011 C 
HETATM   47  C24 UNL     1      -1.948   8.771  12.503  1.00  0.00     0.016 C 
ENDBRANCH   1  25
TORSDOF 11
ENDMDL
MODEL 3
REMARK minimizedAffinity -8.02632427
REMARK CNNscore 0.484307796
REMARK CNNaffinity 6.52140188
REMARK  11 active torsions:
REMARK  status: ('A' for Active; 'I' for Inactive)
REMARK    1  A    between atoms: C2_2  and  O1_4 
REMARK    2  A    between atoms: C2_2  and  C4_5 
REMARK    3  A    between atoms: C5_6  and  C6_7 
REMARK    4  A    between atoms: C6_7  and  C7_8 
REMARK    5  A    between atoms: C7_8  and  C8_9 
REMARK    6  A    between atoms: C7_8  and  C14_21 
REMARK    7  A    between atoms: C8_9  and  O3_11 
REMARK    8  A    between atoms: O3_11  and  C9_12 
REMARK    9  A    between atoms: C11_15  and  O5_16 
REMARK   10  A    between atoms: C12_17  and  O6_18 
REMARK   11  A    between atoms: C13_19  and  O7_20 
ROOT
HETATM    1  C7  UNL     1      -0.538   8.411  13.535  1.00  0.00     0.094 C 
ENDROOT
BRANCH   1   2
HETATM    2  C6  UNL     1      -1.695   8.365  12.513  1.00  0.00     0.042 C 
BRANCH   2   3
HETATM    3  C5  UNL     1      -3.042   7.934  13.028  1.00  0.00    -0.027 C 
HETATM    4  C4  UNL     1      -3.388   6.650  13.227  1.00  0.00     0.006 C 
BRANCH   4   5
HETATM    5  C2  UNL     1      -4.715   6.149  13.750  1.00  0.00     0.068 C 
HETATM    6  C1  UNL     1      -4.963   4.718  13.263  1.00  0.00     0.050 C 
HETATM    7  C3  UNL     1      -4.730   6.212  15.280  1.00  0.00     0.050 C 
BRANCH   5   8
HETATM    8  O1  UNL     1      -5.765   6.977  13.253  1.00  0.00    -0.387 OA
HETATM    9  H7  UNL     1      -6.600   6.651  13.630  1.00  0.00     0.211 HD
ENDBRANCH   5   8
ENDBRANCH   4   5
ENDBRANCH   2   3
ENDBRANCH   1   2
BRANCH   1  10
HETATM   10  C8  UNL     1       0.750   8.952  12.921  1.00  0.00     0.266 C 
HETATM   11  O2  UNL     1       1.695   9.443  13.523  1.00  0.00    -0.265 OA
BRANCH  10  12
HETATM   12  O3  UNL     1       0.741   8.765  11.568  1.00  0.00    -0.287 OA
BRANCH  12  13
HETATM   13  C9  UNL     1       1.947   8.193  11.033  1.00  0.00     0.300 C 
HETATM   14  O4  UNL     1       1.816   8.096   9.614  1.00  0.00    -0.355 OA
HETATM   15  C10 UNL     1       3.039   7.688   9.002  1.00  0.00     0.205 C 
HETATM   16  C11 UNL     1       3.657   6.431   9.638  1.00  0.00     0.173 C 
HETATM   17  C12 UNL     1       2.709   5.773  10.655  1.00  0.00     0.182 C 
HETATM   18  C13 UNL     1       2.243   6.814  11.685  1.00  0.00     0.205 C 
BRANCH  16  19
HETATM   19  O5  UNL     1       4.905   6.777  10.261  1.00  0.00    -0.391 OA
HETATM   20  H17 UNL     1       4.740   6.992  11.202  1.00  0.00     0.210 HD
ENDBRANCH  16  19
BRANCH  17  21
HETATM   21  O6  UNL     1       1.586   5.175   9.997  1.00  0.00    -0.390 OA
HETATM   22  H19 UNL     1       1.934   4.484   9.412  1.00  0.00     0.210 HD
ENDBRANCH  17  21
BRANCH  18  23
HETATM   23  O7  UNL     1       3.295   6.969  12.661  1.00  0.00    -0.388 OA
HETATM   24  H21 UNL     1       2.975   7.654  13.291  1.00  0.00     0.210 HD
ENDBRANCH  18  23
ENDBRANCH  12  13
ENDBRANCH  10  12
ENDBRANCH   1  10
BRANCH   1  25
HETATM   25  C14 UNL     1      -0.948   8.909  14.953  1.00  0.00     0.009 C 
HETATM   26  C15 UNL     1       0.208   8.836  15.992  1.00  0.00     0.007 C 
HETATM   27  C16 UNL     1      -0.075   9.909  17.060  1.00  0.00     0.015 C 
HETATM   28  C17 UNL     1      -1.550  10.301  16.849  1.00  0.00    -0.013 C 
HETATM   29  C18 UNL     1      -2.419   9.233  17.587  1.00  0.00     0.021 C 
HETATM   30  C19 UNL     1      -2.050  11.637  17.385  1.00  0.00    -0.068 C 
HETATM   31  C23 UNL     1      -1.632  10.276  15.267  1.00  0.00    -0.028 C 
HETATM   32  C20 UNL     1      -3.086  12.271  16.777  1.00  0.00    -0.068 C 
HETATM   33  C35 UNL     1      -1.392  12.142  18.645  1.00  0.00     0.036 C 
HETATM   34  C21 UNL     1      -3.738  11.691  15.512  1.00  0.00     0.036 C 
HETATM   35  C25 UNL     1      -3.642  13.620  17.298  1.00  0.00    -0.015 C 
HETATM   36  C22 UNL     1      -3.113  10.414  14.903  1.00  0.00     0.015 C 
HETATM   37  C26 UNL     1      -3.025  14.731  16.418  1.00  0.00     0.020 C 
HETATM   38  C27 UNL     1      -5.186  13.654  17.205  1.00  0.00     0.021 C 
HETATM   39  C33 UNL     1      -3.311  13.788  18.819  1.00  0.00     0.013 C 
HETATM   40  C28 UNL     1      -5.847  14.902  17.767  1.00  0.00     0.080 C 
HETATM   41  C29 UNL     1      -5.004  15.744  18.693  1.00  0.00     0.135 C 
HETATM   42  O8  UNL     1      -5.316  16.929  18.859  1.00  0.00    -0.297 OA
HETATM   43  C30 UNL     1      -3.863  15.096  19.489  1.00  0.00     0.018 C 
HETATM   44  C31 UNL     1      -4.463  14.745  20.870  1.00  0.00     0.023 C 
HETATM   45  C32 UNL     1      -2.775  16.175  19.711  1.00  0.00     0.023 C 
HETATM   46  C34 UNL     1      -1.819  13.539  19.082  1.00  0.00     0.011 C 
HETATM   47  C24 UNL     1      -0.851  11.449  14.600  1.00  0.00     0.016 C 
ENDBRANCH   1  25
TORSDOF 11
ENDMDL
MODEL 4
REMARK minimizedAffinity -8.78700256
REMARK CNNscore 0.406253695
REMARK CNNaffinity 7.12736177
REMARK  11 active torsions:
REMARK  status: ('A' for Active; 'I' for Inactive)
REMARK    1  A    between atoms: C2_2  and  O1_4 
REMARK    2  A    between atoms: C2_2  and  C4_5 
REMARK    3  A    between atoms: C5_6  and  C6_7 
REMARK    4  A    between atoms: C6_7  and  C7_8 
REMARK    5  A    between atoms: C7_8  and  C8_9 
REMARK    6  A    between atoms: C7_8  and  C14_21 
REMARK    7  A    between atoms: C8_9  and  O3_11 
REMARK    8  A    between atoms: O3_11  and  C9_12 
REMARK    9  A    between atoms: C11_15  and  O5_16 
REMARK   10  A    between atoms: C12_17  and  O6_18 
REMARK   11  A    between atoms: C13_19  and  O7_20 
ROOT
HETATM    1  C7  UNL     1      -3.132   6.567  13.686  1.00  0.00     0.094 C 
ENDROOT
BRANCH   1   2
HETATM    2  C6  UNL     1      -2.350   5.245  13.526  1.00  0.00     0.042 C 
BRANCH   2   3
HETATM    3  C5  UNL     1      -3.107   4.069  12.969  1.00  0.00    -0.027 C 
HETATM    4  C4  UNL     1      -3.788   4.103  11.811  1.00  0.00     0.006 C 
BRANCH   4   5
HETATM    5  C2  UNL     1      -4.558   2.960  11.189  1.00  0.00     0.068 C 
HETATM    6  C1  UNL     1      -3.927   1.624  11.590  1.00  0.00     0.050 C 
HETATM    7  C3  UNL     1      -6.025   3.021  11.625  1.00  0.00     0.050 C 
BRANCH   5   8
HETATM    8  O1  UNL     1      -4.504   3.069   9.767  1.00  0.00    -0.387 OA
HETATM    9  H7  UNL     1      -5.033   2.342   9.396  1.00  0.00     0.211 HD
ENDBRANCH   5   8
ENDBRANCH   4   5
ENDBRANCH   2   3
ENDBRANCH   1   2
BRANCH   1  10
HETATM   10  C8  UNL     1      -4.499   6.353  14.329  1.00  0.00     0.266 C 
HETATM   11  O2  UNL     1      -4.722   6.137  15.512  1.00  0.00    -0.265 OA
BRANCH  10  12
HETATM   12  O3  UNL     1      -5.485   6.489  13.395  1.00  0.00    -0.287 OA
BRANCH  12  13
HETATM   13  C9  UNL     1      -6.805   6.668  13.935  1.00  0.00     0.300 C 
HETATM   14  O4  UNL     1      -6.802   7.819  14.780  1.00  0.00    -0.355 OA
HETATM   15  C10 UNL     1      -8.118   8.150  15.221  1.00  0.00     0.205 C 
HETATM   16  C11 UNL     1      -8.882   6.960  15.827  1.00  0.00     0.173 C 
HETATM   17  C12 UNL     1      -7.978   5.730  16.016  1.00  0.00     0.182 C 
HETATM   18  C13 UNL     1      -7.271   5.393  14.694  1.00  0.00     0.205 C 
BRANCH  16  19
HETATM   19  O5  UNL     1     -10.005   6.638  14.991  1.00  0.00    -0.391 OA
HETATM   20  H17 UNL     1      -9.735   5.948  14.350  1.00  0.00     0.210 HD
ENDBRANCH  16  19
BRANCH  17  21
HETATM   21  O6  UNL     1      -7.021   5.951  17.058  1.00  0.00    -0.390 OA
HETATM   22  H19 UNL     1      -7.521   6.092  17.878  1.00  0.00     0.210 HD
ENDBRANCH  17  21
BRANCH  18  23
HETATM   23  O7  UNL     1      -8.205   4.666  13.867  1.00  0.00    -0.388 OA
HETATM   24  H21 UNL     1      -7.730   4.486  13.024  1.00  0.00     0.210 HD
ENDBRANCH  18  23
ENDBRANCH  12  13
ENDBRANCH  10  12
ENDBRANCH   1  10
BRANCH   1  25
HETATM   25  C14 UNL     1      -2.270   7.773  14.164  1.00  0.00     0.009 C 
HETATM   26  C15 UNL     1      -1.390   8.388  13.038  1.00  0.00     0.007 C 
HETATM   27  C16 UNL     1      -1.147   9.864  13.406  1.00  0.00     0.015 C 
HETATM   28  C17 UNL     1      -1.540   9.971  14.892  1.00  0.00    -0.013 C 
HETATM   29  C18 UNL     1      -0.313   9.485  15.727  1.00  0.00     0.021 C 
HETATM   30  C19 UNL     1      -1.882  11.337  15.476  1.00  0.00    -0.068 C 
HETATM   31  C23 UNL     1      -2.809   9.024  14.925  1.00  0.00    -0.028 C 
HETATM   32  C20 UNL     1      -2.741  11.435  16.523  1.00  0.00    -0.068 C 
HETATM   33  C35 UNL     1      -1.157  12.520  14.883  1.00  0.00     0.036 C 
HETATM   34  C21 UNL     1      -3.425  10.190  17.107  1.00  0.00     0.036 C 
HETATM   35  C25 UNL     1      -3.103  12.800  17.163  1.00  0.00    -0.015 C 
HETATM   36  C22 UNL     1      -3.177   8.836  16.400  1.00  0.00     0.015 C 
HETATM   37  C26 UNL     1      -4.468  13.223  16.577  1.00  0.00     0.020 C 
HETATM   38  C27 UNL     1      -3.189  12.682  18.703  1.00  0.00     0.021 C 
HETATM   39  C33 UNL     1      -1.967  13.842  16.886  1.00  0.00     0.013 C 
HETATM   40  C28 UNL     1      -3.458  13.982  19.443  1.00  0.00     0.080 C 
HETATM   41  C29 UNL     1      -3.203  15.254  18.672  1.00  0.00     0.135 C 
HETATM   42  O8  UNL     1      -3.758  16.293  19.049  1.00  0.00    -0.297 OA
HETATM   43  C30 UNL     1      -2.184  15.260  17.524  1.00  0.00     0.018 C 
HETATM   44  C31 UNL     1      -0.855  15.745  18.147  1.00  0.00     0.023 C 
HETATM   45  C32 UNL     1      -2.640  16.327  16.500  1.00  0.00     0.023 C 
HETATM   46  C34 UNL     1      -1.616  13.881  15.393  1.00  0.00     0.011 C 
HETATM   47  C24 UNL     1      -4.040   9.631  14.185  1.00  0.00     0.016 C 
ENDBRANCH   1  25
TORSDOF 11
ENDMDL
MODEL 5
REMARK minimizedAffinity -8.13195992
REMARK CNNscore 0.373981297
REMARK CNNaffinity 6.35983896
REMARK  11 active torsions:
REMARK  status: ('A' for Active; 'I' for Inactive)
REMARK    1  A    between atoms: C2_2  and  O1_4 
REMARK    2  A    between atoms: C2_2  and  C4_5 
REMARK    3  A    between atoms: C5_6  and  C6_7 
REMARK    4  A    between atoms: C6_7  and  C7_8 
REMARK    5  A    between atoms: C7_8  and  C8_9 
REMARK    6  A    between atoms: C7_8  and  C14_21 
REMARK    7  A    between atoms: C8_9  and  O3_11 
REMARK    8  A    between atoms: O3_11  and  C9_12 
REMARK    9  A    between atoms: C11_15  and  O5_16 
REMARK   10  A    between atoms: C12_17  and  O6_18 
REMARK   11  A    between atoms: C13_19  and  O7_20 
ROOT
HETATM    1  C7  UNL     1      -2.924   8.538  14.194  1.00  0.00     0.094 C 
ENDROOT
BRANCH   1   2
HETATM    2  C6  UNL     1      -4.325   8.799  13.597  1.00  0.00     0.042 C 
BRANCH   2   3
HETATM    3  C5  UNL     1      -5.414   7.826  13.964  1.00  0.00    -0.027 C 
HETATM    4  C4  UNL     1      -5.531   6.600  13.424  1.00  0.00     0.006 C 
BRANCH   4   5
HETATM    5  C2  UNL     1      -6.589   5.572  13.753  1.00  0.00     0.068 C 
HETATM    6  C1  UNL     1      -6.947   5.648  15.241  1.00  0.00     0.050 C 
HETATM    7  C3  UNL     1      -7.829   5.802  12.883  1.00  0.00     0.050 C 
BRANCH   5   8
HETATM    8  O1  UNL     1      -6.083   4.266  13.483  1.00  0.00    -0.387 OA
HETATM    9  H7  UNL     1      -6.793   3.630  13.673  1.00  0.00     0.211 HD
ENDBRANCH   5   8
ENDBRANCH   4   5
ENDBRANCH   2   3
ENDBRANCH   1   2
BRANCH   1  10
HETATM   10  C8  UNL     1      -1.823   8.647  13.144  1.00  0.00     0.266 C 
HETATM   11  O2  UNL     1      -1.383   9.678  12.653  1.00  0.00    -0.265 OA
BRANCH  10  12
HETATM   12  O3  UNL     1      -1.333   7.408  12.846  1.00  0.00    -0.287 OA
BRANCH  12  13
HETATM   13  C9  UNL     1       0.083   7.365  12.600  1.00  0.00     0.300 C 
HETATM   14  O4  UNL     1       0.332   7.833  11.275  1.00  0.00    -0.355 OA
HETATM   15  C10 UNL     1       1.730   7.970  11.021  1.00  0.00     0.205 C 
HETATM   16  C11 UNL     1       2.548   6.719  11.382  1.00  0.00     0.173 C 
HETATM   17  C12 UNL     1       1.646   5.523  11.736  1.00  0.00     0.182 C 
HETATM   18  C13 UNL     1       0.641   5.931  12.824  1.00  0.00     0.205 C 
BRANCH  16  19
HETATM   19  O5  UNL     1       3.433   7.024  12.472  1.00  0.00    -0.391 OA
HETATM   20  H17 UNL     1       2.989   6.796  13.315  1.00  0.00     0.210 HD
ENDBRANCH  16  19
BRANCH  17  21
HETATM   21  O6  UNL     1       0.965   5.033  10.576  1.00  0.00    -0.390 OA
HETATM   22  H19 UNL     1       1.645   4.730   9.954  1.00  0.00     0.210 HD
ENDBRANCH  17  21
BRANCH  18  23
HETATM   23  O7  UNL     1       1.323   5.883  14.096  1.00  0.00    -0.388 OA
HETATM   24  H21 UNL     1       0.660   6.169  14.765  1.00  0.00     0.210 HD
ENDBRANCH  18  23
ENDBRANCH  12  13
ENDBRANCH  10  12
ENDBRANCH   1  10
BRANCH   1  25
HETATM   25  C14 UNL     1      -2.686   9.190  15.589  1.00  0.00     0.009 C 
HETATM   26  C15 UNL     1      -1.254   8.947  16.147  1.00  0.00     0.007 C 
HETATM   27  C16 UNL     1      -0.934  10.116  17.099  1.00  0.00     0.015 C 
HETATM   28  C17 UNL     1      -2.295  10.782  17.379  1.00  0.00    -0.013 C 
HETATM   29  C18 UNL     1      -2.987   9.956  18.509  1.00  0.00     0.021 C 
HETATM   30  C19 UNL     1      -2.330  12.221  17.882  1.00  0.00    -0.068 C 
HETATM   31  C23 UNL     1      -2.966  10.683  15.948  1.00  0.00    -0.028 C 
HETATM   32  C20 UNL     1      -3.398  13.014  17.607  1.00  0.00    -0.068 C 
HETATM   33  C35 UNL     1      -1.174  12.656  18.749  1.00  0.00     0.036 C 
HETATM   34  C21 UNL     1      -4.562  12.504  16.744  1.00  0.00     0.036 C 
HETATM   35  C25 UNL     1      -3.488  14.475  18.115  1.00  0.00    -0.015 C 
HETATM   36  C22 UNL     1      -4.431  11.093  16.121  1.00  0.00     0.015 C 
HETATM   37  C26 UNL     1      -3.070  15.385  16.938  1.00  0.00     0.020 C 
HETATM   38  C27 UNL     1      -4.925  14.812  18.575  1.00  0.00     0.021 C 
HETATM   39  C33 UNL     1      -2.588  14.661  19.382  1.00  0.00     0.013 C 
HETATM   40  C28 UNL     1      -5.112  16.199  19.170  1.00  0.00     0.080 C 
HETATM   41  C29 UNL     1      -3.857  16.907  19.618  1.00  0.00     0.135 C 
HETATM   42  O8  UNL     1      -3.884  18.138  19.732  1.00  0.00    -0.297 OA
HETATM   43  C30 UNL     1      -2.624  16.090  20.032  1.00  0.00     0.018 C 
HETATM   44  C31 UNL     1      -2.713  15.947  21.568  1.00  0.00     0.023 C 
HETATM   45  C32 UNL     1      -1.371  16.940  19.710  1.00  0.00     0.023 C 
HETATM   46  C34 UNL     1      -1.170  14.133  19.126  1.00  0.00     0.011 C 
HETATM   47  C24 UNL     1      -2.310  11.634  14.901  1.00  0.00     0.016 C 
ENDBRANCH   1  25
TORSDOF 11
ENDMDL
MODEL 6
REMARK minimizedAffinity -8.67900181
REMARK CNNscore 0.361365676
REMARK CNNaffinity 6.70430899
REMARK  11 active torsions:
REMARK  status: ('A' for Active; 'I' for Inactive)
REMARK    1  A    between atoms: C2_2  and  O1_4 
REMARK    2  A    between atoms: C2_2  and  C4_5 
REMARK    3  A    between atoms: C5_6  and  C6_7 
REMARK    4  A    between atoms: C6_7  and  C7_8 
REMARK    5  A    between atoms: C7_8  and  C8_9 
REMARK    6  A    between atoms: C7_8  and  C14_21 
REMARK    7  A    between atoms: C8_9  and  O3_11 
REMARK    8  A    between atoms: O3_11  and  C9_12 
REMARK    9  A    between atoms: C11_15  and  O5_16 
REMARK   10  A    between atoms: C12_17  and  O6_18 
REMARK   11  A    between atoms: C13_19  and  O7_20 
ROOT
HETATM    1  C7  UNL     1      -0.784   6.972  13.063  1.00  0.00     0.094 C 
ENDROOT
BRANCH   1   2
HETATM    2  C6  UNL     1      -2.112   6.243  13.365  1.00  0.00     0.042 C 
BRANCH   2   3
HETATM    3  C5  UNL     1      -2.412   5.010  12.556  1.00  0.00    -0.027 C 
HETATM    4  C4  UNL     1      -3.654   4.635  12.204  1.00  0.00     0.006 C 
BRANCH   4   5
HETATM    5  C2  UNL     1      -4.026   3.418  11.386  1.00  0.00     0.068 C 
HETATM    6  C1  UNL     1      -3.306   2.182  11.932  1.00  0.00     0.050 C 
HETATM    7  C3  UNL     1      -5.544   3.218  11.409  1.00  0.00     0.050 C 
BRANCH   5   8
HETATM    8  O1  UNL     1      -3.615   3.612  10.034  1.00  0.00    -0.387 OA
HETATM    9  H7  UNL     1      -3.895   2.831   9.527  1.00  0.00     0.211 HD
ENDBRANCH   5   8
ENDBRANCH   4   5
ENDBRANCH   2   3
ENDBRANCH   1   2
BRANCH   1  10
HETATM   10  C8  UNL     1      -0.652   7.339  11.588  1.00  0.00     0.266 C 
HETATM   11  O2  UNL     1      -0.973   8.399  11.070  1.00  0.00    -0.265 OA
BRANCH  10  12
HETATM   12  O3  UNL     1      -0.059   6.319  10.901  1.00  0.00    -0.287 OA
BRANCH  12  13
HETATM   13  C9  UNL     1       1.276   6.596  10.447  1.00  0.00     0.300 C 
HETATM   14  O4  UNL     1       1.354   6.308   9.051  1.00  0.00    -0.355 OA
HETATM   15  C10 UNL     1       2.607   6.715   8.501  1.00  0.00     0.205 C 
HETATM   16  C11 UNL     1       3.823   6.202   9.291  1.00  0.00     0.173 C 
HETATM   17  C12 UNL     1       3.419   5.188  10.376  1.00  0.00     0.182 C 
HETATM   18  C13 UNL     1       2.319   5.786  11.267  1.00  0.00     0.205 C 
BRANCH  16  19
HETATM   19  O5  UNL     1       4.518   7.316   9.874  1.00  0.00    -0.391 OA
HETATM   20  H17 UNL     1       4.177   7.463  10.781  1.00  0.00     0.210 HD
ENDBRANCH  16  19
BRANCH  17  21
HETATM   21  O6  UNL     1       2.983   3.956   9.791  1.00  0.00    -0.390 OA
HETATM   22  H19 UNL     1       3.735   3.594   9.297  1.00  0.00     0.210 HD
ENDBRANCH  17  21
BRANCH  18  23
HETATM   23  O7  UNL     1       2.953   6.662  12.223  1.00  0.00    -0.388 OA
HETATM   24  H21 UNL     1       2.222   7.042  12.761  1.00  0.00     0.210 HD
ENDBRANCH  18  23
ENDBRANCH  12  13
ENDBRANCH  10  12
ENDBRANCH   1  10
BRANCH   1  25
HETATM   25  C14 UNL     1      -0.371   8.030  14.130  1.00  0.00     0.009 C 
HETATM   26  C15 UNL     1       0.821   8.924  13.684  1.00  0.00     0.007 C 
HETATM   27  C16 UNL     1       0.692  10.261  14.438  1.00  0.00     0.015 C 
HETATM   28  C17 UNL     1      -0.310   9.980  15.574  1.00  0.00    -0.013 C 
HETATM   29  C18 UNL     1       0.490   9.317  16.739  1.00  0.00     0.021 C 
HETATM   30  C19 UNL     1      -1.040  11.147  16.228  1.00  0.00    -0.068 C 
HETATM   31  C23 UNL     1      -1.339   9.037  14.825  1.00  0.00    -0.028 C 
HETATM   32  C20 UNL     1      -2.270  10.962  16.774  1.00  0.00    -0.068 C 
HETATM   33  C35 UNL     1      -0.288  12.453  16.300  1.00  0.00     0.036 C 
HETATM   34  C21 UNL     1      -2.975   9.599  16.698  1.00  0.00     0.036 C 
HETATM   35  C25 UNL     1      -3.042  12.113  17.468  1.00  0.00    -0.015 C 
HETATM   36  C22 UNL     1      -2.277   8.474  15.897  1.00  0.00     0.015 C 
HETATM   37  C26 UNL     1      -4.065  12.651  16.443  1.00  0.00     0.020 C 
HETATM   38  C27 UNL     1      -3.765  11.606  18.738  1.00  0.00     0.021 C 
HETATM   39  C33 UNL     1      -2.041  13.209  17.967  1.00  0.00     0.013 C 
HETATM   40  C28 UNL     1      -4.489  12.670  19.546  1.00  0.00     0.080 C 
HETATM   41  C29 UNL     1      -4.092  14.100  19.274  1.00  0.00     0.135 C 
HETATM   42  O8  UNL     1      -4.881  15.000  19.582  1.00  0.00    -0.297 OA
HETATM   43  C30 UNL     1      -2.688  14.415  18.736  1.00  0.00     0.018 C 
HETATM   44  C31 UNL     1      -1.829  14.745  19.978  1.00  0.00     0.023 C 
HETATM   45  C32 UNL     1      -2.792  15.700  17.881  1.00  0.00     0.023 C 
HETATM   46  C34 UNL     1      -1.091  13.632  16.838  1.00  0.00     0.011 C 
HETATM   47  C24 UNL     1      -2.199   9.794  13.768  1.00  0.00     0.016 C 
ENDBRANCH   1  25
TORSDOF 11
ENDMDL
MODEL 7
REMARK minimizedAffinity -7.95170879
REMARK CNNscore 0.239228472
REMARK CNNaffinity 6.22084618
REMARK  11 active torsions:
REMARK  status: ('A' for Active; 'I' for Inactive)
REMARK    1  A    between atoms: C2_2  and  O1_4 
REMARK    2  A    between atoms: C2_2  and  C4_5 
REMARK    3  A    between atoms: C5_6  and  C6_7 
REMARK    4  A    between atoms: C6_7  and  C7_8 
REMARK    5  A    between atoms: C7_8  and  C8_9 
REMARK    6  A    between atoms: C7_8  and  C14_21 
REMARK    7  A    between atoms: C8_9  and  O3_11 
REMARK    8  A    between atoms: O3_11  and  C9_12 
REMARK    9  A    between atoms: C11_15  and  O5_16 
REMARK   10  A    between atoms: C12_17  and  O6_18 
REMARK   11  A    between atoms: C13_19  and  O7_20 
ROOT
HETATM    1  C7  UNL     1      -0.195   7.087  13.519  1.00  0.00     0.094 C 
ENDROOT
BRANCH   1   2
HETATM    2  C6  UNL     1      -0.837   5.709  13.796  1.00  0.00     0.042 C 
BRANCH   2   3
HETATM    3  C5  UNL     1      -1.917   5.258  12.850  1.00  0.00    -0.027 C 
HETATM    4  C4  UNL     1      -2.127   3.972  12.518  1.00  0.00     0.006 C 
BRANCH   4   5
HETATM    5  C2  UNL     1      -3.196   3.449  11.586  1.00  0.00     0.068 C 
HETATM    6  C1  UNL     1      -2.794   3.706  10.131  1.00  0.00     0.050 C 
HETATM    7  C3  UNL     1      -3.416   1.953  11.833  1.00  0.00     0.050 C 
BRANCH   5   8
HETATM    8  O1  UNL     1      -4.422   4.134  11.838  1.00  0.00    -0.387 OA
HETATM    9  H7  UNL     1      -5.096   3.756  11.249  1.00  0.00     0.211 HD
ENDBRANCH   5   8
ENDBRANCH   4   5
ENDBRANCH   2   3
ENDBRANCH   1   2
BRANCH   1  10
HETATM   10  C8  UNL     1      -0.139   7.406  12.028  1.00  0.00     0.266 C 
HETATM   11  O2  UNL     1      -0.921   8.110  11.403  1.00  0.00    -0.265 OA
BRANCH  10  12
HETATM   12  O3  UNL     1       0.962   6.828  11.464  1.00  0.00    -0.287 OA
BRANCH  12  13
HETATM   13  C9  UNL     1       1.458   7.498  10.292  1.00  0.00     0.300 C 
HETATM   14  O4  UNL     1       0.523   7.314   9.229  1.00  0.00    -0.355 OA
HETATM   15  C10 UNL     1       0.873   8.088   8.083  1.00  0.00     0.205 C 
HETATM   16  C11 UNL     1       2.334   7.906   7.638  1.00  0.00     0.173 C 
HETATM   17  C12 UNL     1       3.031   6.767   8.402  1.00  0.00     0.182 C 
HETATM   18  C13 UNL     1       2.875   6.980   9.916  1.00  0.00     0.205 C 
BRANCH  16  19
HETATM   19  O5  UNL     1       3.045   9.141   7.816  1.00  0.00    -0.391 OA
HETATM   20  H17 UNL     1       3.468   9.140   8.699  1.00  0.00     0.210 HD
ENDBRANCH  16  19
BRANCH  17  21
HETATM   21  O6  UNL     1       2.506   5.492   8.014  1.00  0.00    -0.390 OA
HETATM   22  H19 UNL     1       2.691   5.384   7.068  1.00  0.00     0.210 HD
ENDBRANCH  17  21
BRANCH  18  23
HETATM   23  O7  UNL     1       3.858   7.952  10.328  1.00  0.00    -0.388 OA
HETATM   24  H21 UNL     1       3.718   8.080  11.294  1.00  0.00     0.210 HD
ENDBRANCH  18  23
ENDBRANCH  12  13
ENDBRANCH  10  12
ENDBRANCH   1  10
BRANCH   1  25
HETATM   25  C14 UNL     1      -0.634   8.213  14.501  1.00  0.00     0.009 C 
HETATM   26  C15 UNL     1      -1.675   7.741  15.557  1.00  0.00     0.007 C 
HETATM   27  C16 UNL     1      -1.515   8.650  16.790  1.00  0.00     0.015 C 
HETATM   28  C17 UNL     1      -0.688   9.851  16.292  1.00  0.00    -0.013 C 
HETATM   29  C18 UNL     1      -1.682  10.839  15.603  1.00  0.00     0.021 C 
HETATM   30  C19 UNL     1       0.062  10.709  17.304  1.00  0.00    -0.068 C 
HETATM   31  C23 UNL     1       0.332   9.120  15.326  1.00  0.00    -0.028 C 
HETATM   32  C20 UNL     1       1.195  11.363  16.936  1.00  0.00    -0.068 C 
HETATM   33  C35 UNL     1      -0.568  10.844  18.668  1.00  0.00     0.036 C 
HETATM   34  C21 UNL     1       1.773  11.214  15.521  1.00  0.00     0.036 C 
HETATM   35  C25 UNL     1       1.980  12.264  17.923  1.00  0.00    -0.015 C 
HETATM   36  C22 UNL     1       1.077  10.219  14.562  1.00  0.00     0.015 C 
HETATM   37  C26 UNL     1       3.166  11.425  18.451  1.00  0.00     0.020 C 
HETATM   38  C27 UNL     1       2.494  13.540  17.217  1.00  0.00     0.021 C 
HETATM   39  C33 UNL     1       1.032  12.768  19.063  1.00  0.00     0.013 C 
HETATM   40  C28 UNL     1       3.210  14.539  18.113  1.00  0.00     0.080 C 
HETATM   41  C29 UNL     1       2.983  14.386  19.597  1.00  0.00     0.135 C 
HETATM   42  O8  UNL     1       3.810  14.879  20.373  1.00  0.00    -0.297 OA
HETATM   43  C30 UNL     1       1.691  13.735  20.110  1.00  0.00     0.018 C 
HETATM   44  C31 UNL     1       0.721  14.903  20.402  1.00  0.00     0.023 C 
HETATM   45  C32 UNL     1       2.017  13.046  21.457  1.00  0.00     0.023 C 
HETATM   46  C34 UNL     1       0.269  11.596  19.695  1.00  0.00     0.011 C 
HETATM   47  C24 UNL     1       1.381   8.256  16.090  1.00  0.00     0.016 C 
ENDBRANCH   1  25
TORSDOF 11
ENDMDL
MODEL 8
REMARK minimizedAffinity -8.17475224
REMARK CNNscore 0.220673859
REMARK CNNaffinity 6.40982199
REMARK  11 active torsions:
REMARK  status: ('A' for Active; 'I' for Inactive)
REMARK    1  A    between atoms: C2_2  and  O1_4 
REMARK    2  A    between atoms: C2_2  and  C4_5 
REMARK    3  A    between atoms: C5_6  and  C6_7 
REMARK    4  A    between atoms: C6_7  and  C7_8 
REMARK    5  A    between atoms: C7_8  and  C8_9 
REMARK    6  A    between atoms: C7_8  and  C14_21 
REMARK    7  A    between atoms: C8_9  and  O3_11 
REMARK    8  A    between atoms: O3_11  and  C9_12 
REMARK    9  A    between atoms: C11_15  and  O5_16 
REMARK   10  A    between atoms: C12_17  and  O6_18 
REMARK   11  A    between atoms: C13_19  and  O7_20 
ROOT
HETATM    1  C7  UNL     1      -0.349   8.842  15.498  1.00  0.00     0.094 C 
ENDROOT
BRANCH   1   2
HETATM    2  C6  UNL     1      -1.283   7.636  15.743  1.00  0.00     0.042 C 
BRANCH   2   3
HETATM    3  C5  UNL     1      -2.732   7.811  15.377  1.00  0.00    -0.027 C 
HETATM    4  C4  UNL     1      -3.517   6.809  14.943  1.00  0.00     0.006 C 
BRANCH   4   5
HETATM    5  C2  UNL     1      -4.979   6.911  14.570  1.00  0.00     0.068 C 
HETATM    6  C1  UNL     1      -5.212   8.154  13.706  1.00  0.00     0.050 C 
HETATM    7  C3  UNL     1      -5.417   5.644  13.829  1.00  0.00     0.050 C 
BRANCH   5   8
HETATM    8  O1  UNL     1      -5.764   7.037  15.754  1.00  0.00    -0.387 OA
HETATM    9  H7  UNL     1      -6.698   7.068  15.486  1.00  0.00     0.211 HD
ENDBRANCH   5   8
ENDBRANCH   4   5
ENDBRANCH   2   3
ENDBRANCH   1   2
BRANCH   1  10
HETATM   10  C8  UNL     1      -0.431   9.350  14.061  1.00  0.00     0.266 C 
HETATM   11  O2  UNL     1      -1.408   9.847  13.518  1.00  0.00    -0.265 OA
BRANCH  10  12
HETATM   12  O3  UNL     1       0.783   9.225  13.448  1.00  0.00    -0.287 OA
BRANCH  12  13
HETATM   13  C9  UNL     1       0.919   8.060  12.617  1.00  0.00     0.300 C 
HETATM   14  O4  UNL     1       2.173   8.125  11.939  1.00  0.00    -0.355 OA
HETATM   15  C10 UNL     1       2.445   6.921  11.222  1.00  0.00     0.205 C 
HETATM   16  C11 UNL     1       1.291   6.472  10.311  1.00  0.00     0.173 C 
HETATM   17  C12 UNL     1       0.184   7.536  10.216  1.00  0.00     0.182 C 
HETATM   18  C13 UNL     1      -0.273   7.944  11.625  1.00  0.00     0.205 C 
BRANCH  16  19
HETATM   19  O5  UNL     1       0.756   5.230  10.795  1.00  0.00    -0.391 OA
HETATM   20  H17 UNL     1       0.009   5.420  11.400  1.00  0.00     0.210 HD
ENDBRANCH  16  19
BRANCH  17  21
HETATM   21  O6  UNL     1       0.633   8.680   9.479  1.00  0.00    -0.390 OA
HETATM   22  H19 UNL     1       0.843   8.375   8.582  1.00  0.00     0.210 HD
ENDBRANCH  17  21
BRANCH  18  23
HETATM   23  O7  UNL     1      -1.188   6.935  12.101  1.00  0.00    -0.388 OA
HETATM   24  H21 UNL     1      -1.443   7.214  13.010  1.00  0.00     0.210 HD
ENDBRANCH  18  23
ENDBRANCH  12  13
ENDBRANCH  10  12
ENDBRANCH   1  10
BRANCH   1  25
HETATM   25  C14 UNL     1      -0.328   9.887  16.653  1.00  0.00     0.009 C 
HETATM   26  C15 UNL     1       0.808  10.942  16.511  1.00  0.00     0.007 C 
HETATM   27  C16 UNL     1       0.340  12.213  17.243  1.00  0.00     0.015 C 
HETATM   28  C17 UNL     1      -0.847  11.756  18.113  1.00  0.00    -0.013 C 
HETATM   29  C18 UNL     1      -0.250  11.137  19.416  1.00  0.00     0.021 C 
HETATM   30  C19 UNL     1      -1.851  12.791  18.607  1.00  0.00    -0.068 C 
HETATM   31  C23 UNL     1      -1.550  10.733  17.128  1.00  0.00    -0.028 C 
HETATM   32  C20 UNL     1      -3.138  12.431  18.851  1.00  0.00    -0.068 C 
HETATM   33  C35 UNL     1      -1.310  14.173  18.877  1.00  0.00     0.036 C 
HETATM   34  C21 UNL     1      -3.624  10.997  18.587  1.00  0.00     0.036 C 
HETATM   35  C25 UNL     1      -4.189  13.443  19.374  1.00  0.00    -0.015 C 
HETATM   36  C22 UNL     1      -2.624  10.007  17.944  1.00  0.00     0.015 C 
HETATM   37  C26 UNL     1      -5.016  13.903  18.153  1.00  0.00     0.020 C 
HETATM   38  C27 UNL     1      -5.107  12.788  20.433  1.00  0.00     0.021 C 
HETATM   39  C33 UNL     1      -3.476  14.626  20.112  1.00  0.00     0.013 C 
HETATM   40  C28 UNL     1      -6.126  13.715  21.076  1.00  0.00     0.080 C 
HETATM   41  C29 UNL     1      -5.866  15.194  20.932  1.00  0.00     0.135 C 
HETATM   42  O8  UNL     1      -6.815  15.975  21.070  1.00  0.00    -0.297 OA
HETATM   43  C30 UNL     1      -4.431  15.703  20.738  1.00  0.00     0.018 C 
HETATM   44  C31 UNL     1      -3.923  16.073  22.150  1.00  0.00     0.023 C 
HETATM   45  C32 UNL     1      -4.506  17.008  19.909  1.00  0.00     0.023 C 
HETATM   46  C34 UNL     1      -2.360  15.217  19.241  1.00  0.00     0.011 C 
HETATM   47  C24 UNL     1      -2.241  11.432  15.918  1.00  0.00     0.016 C 
ENDBRANCH   1  25
TORSDOF 11
ENDMDL
MODEL 9
REMARK minimizedAffinity -9.71979809
REMARK CNNscore 0.202838659
REMARK CNNaffinity 6.48110437
REMARK  11 active torsions:
REMARK  status: ('A' for Active; 'I' for Inactive)
REMARK    1  A    between atoms: C2_2  and  O1_4 
REMARK    2  A    between atoms: C2_2  and  C4_5 
REMARK    3  A    between atoms: C5_6  and  C6_7 
REMARK    4  A    between atoms: C6_7  and  C7_8 
REMARK    5  A    between atoms: C7_8  and  C8_9 
REMARK    6  A    between atoms: C7_8  and  C14_21 
REMARK    7  A    between atoms: C8_9  and  O3_11 
REMARK    8  A    between atoms: O3_11  and  C9_12 
REMARK    9  A    between atoms: C11_15  and  O5_16 
REMARK   10  A    between atoms: C12_17  and  O6_18 
REMARK   11  A    between atoms: C13_19  and  O7_20 
ROOT
HETATM    1  C7  UNL     1      -2.424   4.734  12.503  1.00  0.00     0.094 C 
ENDROOT
BRANCH   1   2
HETATM    2  C6  UNL     1      -3.625   3.931  11.955  1.00  0.00     0.042 C 
BRANCH   2   3
HETATM    3  C5  UNL     1      -4.987   4.303  12.474  1.00  0.00    -0.027 C 
HETATM    4  C4  UNL     1      -6.036   3.461  12.484  1.00  0.00     0.006 C 
BRANCH   4   5
HETATM    5  C2  UNL     1      -7.425   3.764  13.000  1.00  0.00     0.068 C 
HETATM    6  C1  UNL     1      -7.370   4.079  14.498  1.00  0.00     0.050 C 
HETATM    7  C3  UNL     1      -8.026   4.937  12.220  1.00  0.00     0.050 C 
BRANCH   5   8
HETATM    8  O1  UNL     1      -8.259   2.622  12.815  1.00  0.00    -0.387 OA
HETATM    9  H7  UNL     1      -9.151   2.856  13.124  1.00  0.00     0.211 HD
ENDBRANCH   5   8
ENDBRANCH   4   5
ENDBRANCH   2   3
ENDBRANCH   1   2
BRANCH   1  10
HETATM   10  C8  UNL     1      -1.257   4.766  11.520  1.00  0.00     0.266 C 
HETATM   11  O2  UNL     1      -0.747   3.805  10.962  1.00  0.00    -0.265 OA
BRANCH  10  12
HETATM   12  O3  UNL     1      -0.871   6.056  11.290  1.00  0.00    -0.287 OA
BRANCH  12  13
HETATM   13  C9  UNL     1       0.328   6.194  10.509  1.00  0.00     0.300 C 
HETATM   14  O4  UNL     1       1.433   5.720  11.280  1.00  0.00    -0.355 OA
HETATM   15  C10 UNL     1       2.632   5.677  10.506  1.00  0.00     0.205 C 
HETATM   16  C11 UNL     1       2.933   6.990   9.763  1.00  0.00     0.173 C 
HETATM   17  C12 UNL     1       1.987   8.125  10.190  1.00  0.00     0.182 C 
HETATM   18  C13 UNL     1       0.526   7.667  10.054  1.00  0.00     0.205 C 
BRANCH  16  19
HETATM   19  O5  UNL     1       2.847   6.767   8.346  1.00  0.00    -0.391 OA
HETATM   20  H17 UNL     1       1.938   6.978   8.046  1.00  0.00     0.210 HD
ENDBRANCH  16  19
BRANCH  17  21
HETATM   21  O6  UNL     1       2.262   8.546  11.531  1.00  0.00    -0.390 OA
HETATM   22  H19 UNL     1       3.171   8.884  11.542  1.00  0.00     0.210 HD
ENDBRANCH  17  21
BRANCH  18  23
HETATM   23  O7  UNL     1       0.154   7.786   8.664  1.00  0.00    -0.388 OA
HETATM   24  H21 UNL     1      -0.775   7.466   8.609  1.00  0.00     0.210 HD
ENDBRANCH  18  23
ENDBRANCH  12  13
ENDBRANCH  10  12
ENDBRANCH   1  10
BRANCH   1  25
HETATM   25  C14 UNL     1      -2.810   6.052  13.238  1.00  0.00     0.009 C 
HETATM   26  C15 UNL     1      -3.962   5.870  14.268  1.00  0.00     0.007 C 
HETATM   27  C16 UNL     1      -3.793   6.966  15.337  1.00  0.00     0.015 C 
HETATM   28  C17 UNL     1      -2.815   7.980  14.712  1.00  0.00    -0.013 C 
HETATM   29  C18 UNL     1      -3.654   8.914  13.783  1.00  0.00     0.021 C 
HETATM   30  C19 UNL     1      -2.050   8.934  15.622  1.00  0.00    -0.068 C 
HETATM   31  C23 UNL     1      -1.813   7.000  13.974  1.00  0.00    -0.028 C 
HETATM   32  C20 UNL     1      -0.835   9.409  15.245  1.00  0.00    -0.068 C 
HETATM   33  C35 UNL     1      -2.754   9.365  16.885  1.00  0.00     0.036 C 
HETATM   34  C21 UNL     1      -0.181   8.958  13.929  1.00  0.00     0.036 C 
HETATM   35  C25 UNL     1      -0.029  10.397  16.126  1.00  0.00    -0.015 C 
HETATM   36  C22 UNL     1      -0.910   7.875  13.099  1.00  0.00     0.015 C 
HETATM   37  C26 UNL     1       1.026   9.562  16.887  1.00  0.00     0.020 C 
HETATM   38  C27 UNL     1       0.659  11.476  15.258  1.00  0.00     0.021 C 
HETATM   39  C33 UNL     1      -0.995  11.178  17.079  1.00  0.00     0.013 C 
HETATM   40  C28 UNL     1       1.413  12.549  16.027  1.00  0.00     0.080 C 
HETATM   41  C29 UNL     1       1.072  12.684  17.491  1.00  0.00     0.135 C 
HETATM   42  O8  UNL     1       1.891  13.232  18.238  1.00  0.00    -0.297 OA
HETATM   43  C30 UNL     1      -0.312  12.254  17.997  1.00  0.00     0.018 C 
HETATM   44  C31 UNL     1      -1.174  13.537  18.003  1.00  0.00     0.023 C 
HETATM   45  C32 UNL     1      -0.149  11.789  19.465  1.00  0.00     0.023 C 
HETATM   46  C34 UNL     1      -1.914  10.211  17.836  1.00  0.00     0.011 C 
HETATM   47  C24 UNL     1      -0.913   6.196  14.960  1.00  0.00     0.016 C 
ENDBRANCH   1  25
TORSDOF 11
ENDMDL
