MODEL 1
REMARK minimizedAffinity -9.02019882
REMARK  6 active torsions:
REMARK  status: ('A' for Active; 'I' for Inactive)
REMARK    1  A    between atoms: C4_4  and  C5_5 
REMARK    2  A    between atoms: C5_5  and  C6_6 
REMARK    3  A    between atoms: C6_6  and  C7_7 
REMARK    4  A    between atoms: C7_7  and  C9_9 
REMARK    5  A    between atoms: C12_12  and  C13_13 
REMARK    6  A    between atoms: C13_13  and  O2_15 
ROOT
HETATM    1  C9  UNL     1      -2.990   7.914  15.182  1.00  0.00    -0.001 C 
HETATM    2  C10 UNL     1      -3.221   6.395  15.375  1.00  0.00     0.007 C 
HETATM    3  C11 UNL     1      -2.204   5.679  14.457  1.00  0.00     0.026 C 
HETATM    4  C12 UNL     1      -1.207   6.784  14.032  1.00  0.00     0.076 C 
HETATM    5  C14 UNL     1      -0.359   6.607  12.782  1.00  0.00    -0.057 C 
HETATM    6  C15 UNL     1       0.060   7.678  12.064  1.00  0.00    -0.067 C 
HETATM    7  C16 UNL     1      -0.333   9.105  12.503  1.00  0.00     0.036 C 
HETATM    8  C17 UNL     1      -1.404   9.275  13.607  1.00  0.00     0.015 C 
HETATM    9  C18 UNL     1      -2.198   7.989  13.844  1.00  0.00    -0.018 C 
HETATM   10  C19 UNL     1      -3.149   7.822  12.619  1.00  0.00     0.017 C 
HETATM   11  C20 UNL     1       0.882   7.530  10.743  1.00  0.00    -0.015 C 
HETATM   12  C21 UNL     1      -0.081   7.944   9.593  1.00  0.00     0.020 C 
HETATM   13  C22 UNL     1       2.093   8.508  10.730  1.00  0.00     0.021 C 
HETATM   14  C23 UNL     1       3.353   7.889  11.305  1.00  0.00     0.080 C 
HETATM   15  C24 UNL     1       3.819   6.754  10.424  1.00  0.00     0.135 C 
HETATM   16  O3  UNL     1       5.024   6.516  10.309  1.00  0.00    -0.297 OA
HETATM   17  C25 UNL     1       2.755   5.924   9.693  1.00  0.00     0.018 C 
HETATM   18  C26 UNL     1       2.674   6.417   8.234  1.00  0.00     0.023 C 
HETATM   19  C27 UNL     1       3.253   4.460   9.623  1.00  0.00     0.023 C 
HETATM   20  C28 UNL     1       1.368   6.037  10.440  1.00  0.00     0.013 C 
HETATM   21  C29 UNL     1       1.352   5.155  11.707  1.00  0.00     0.011 C 
HETATM   22  C30 UNL     1       0.018   5.204  12.424  1.00  0.00     0.036 C 
ENDROOT
BRANCH   1  23
HETATM   23  C7  UNL     1      -4.225   8.840  15.381  1.00  0.00    -0.014 C 
HETATM   24  C8  UNL     1      -3.902   9.831  16.516  1.00  0.00     0.010 C 
BRANCH  23  25
HETATM   25  C6  UNL     1      -5.558   8.113  15.688  1.00  0.00     0.008 C 
BRANCH  25  26
HETATM   26  C5  UNL     1      -5.661   6.691  15.110  1.00  0.00     0.028 C 
BRANCH  26  27
HETATM   27  C4  UNL     1      -6.836   6.482  14.197  1.00  0.00    -0.025 C 
HETATM   28  C2  UNL     1      -6.993   5.551  13.235  1.00  0.00    -0.091 C 
HETATM   29  C1  UNL     1      -5.984   4.501  12.858  1.00  0.00     0.042 C 
HETATM   30  C3  UNL     1      -8.261   5.504  12.420  1.00  0.00     0.042 C 
ENDBRANCH  26  27
ENDBRANCH  25  26
ENDBRANCH  23  25
ENDBRANCH   1  23
BRANCH   4  31
HETATM   31  C13 UNL     1      -0.154   6.957  15.169  1.00  0.00     0.153 C 
HETATM   32  O1  UNL     1      -0.241   7.639  16.180  1.00  0.00    -0.649 OA
BRANCH  31  33
HETATM   33  O2  UNL     1       1.013   6.316  14.938  1.00  0.00    -0.776 OA
HETATM   34  H21 UNL     1       1.567   6.574  15.703  1.00  0.00     0.167 HD
ENDBRANCH  31  33
ENDBRANCH   4  31
TORSDOF 6
ENDMDL
MODEL 2
REMARK minimizedAffinity -8.78792477
REMARK  6 active torsions:
REMARK  status: ('A' for Active; 'I' for Inactive)
REMARK    1  A    between atoms: C4_4  and  C5_5 
REMARK    2  A    between atoms: C5_5  and  C6_6 
REMARK    3  A    between atoms: C6_6  and  C7_7 
REMARK    4  A    between atoms: C7_7  and  C9_9 
REMARK    5  A    between atoms: C12_12  and  C13_13 
REMARK    6  A    between atoms: C13_13  and  O2_15 
ROOT
HETATM    1  C9  UNL     1      -1.732   7.531  13.352  1.00  0.00    -0.001 C 
HETATM    2  C10 UNL     1      -1.360   7.298  14.837  1.00  0.00     0.007 C 
HETATM    3  C11 UNL     1       0.185   7.285  14.902  1.00  0.00     0.026 C 
HETATM    4  C12 UNL     1       0.643   7.844  13.533  1.00  0.00     0.076 C 
HETATM    5  C14 UNL     1       2.047   7.554  13.023  1.00  0.00    -0.057 C 
HETATM    6  C15 UNL     1       2.309   7.497  11.694  1.00  0.00    -0.067 C 
HETATM    7  C16 UNL     1       1.171   7.714  10.671  1.00  0.00     0.036 C 
HETATM    8  C17 UNL     1      -0.290   7.744  11.179  1.00  0.00     0.015 C 
HETATM    9  C18 UNL     1      -0.421   7.174  12.593  1.00  0.00    -0.018 C 
HETATM   10  C19 UNL     1      -0.249   5.628  12.467  1.00  0.00     0.017 C 
HETATM   11  C20 UNL     1       3.725   7.143  11.134  1.00  0.00    -0.015 C 
HETATM   12  C21 UNL     1       3.596   5.720  10.520  1.00  0.00     0.020 C 
HETATM   13  C22 UNL     1       4.132   8.123   9.995  1.00  0.00     0.021 C 
HETATM   14  C23 UNL     1       4.894   9.331  10.505  1.00  0.00     0.080 C 
HETATM   15  C24 UNL     1       6.224   8.898  11.077  1.00  0.00     0.135 C 
HETATM   16  O3  UNL     1       7.205   9.640  10.988  1.00  0.00    -0.297 OA
HETATM   17  C25 UNL     1       6.303   7.527  11.762  1.00  0.00     0.018 C 
HETATM   18  C26 UNL     1       6.922   6.524  10.768  1.00  0.00     0.023 C 
HETATM   19  C27 UNL     1       7.302   7.635  12.939  1.00  0.00     0.023 C 
HETATM   20  C28 UNL     1       4.869   7.078  12.249  1.00  0.00     0.013 C 
HETATM   21  C29 UNL     1       4.465   7.827  13.537  1.00  0.00     0.011 C 
HETATM   22  C30 UNL     1       3.113   7.386  14.058  1.00  0.00     0.036 C 
ENDROOT
BRANCH   1  23
HETATM   23  C7  UNL     1      -3.078   6.918  12.864  1.00  0.00    -0.014 C 
HETATM   24  C8  UNL     1      -4.183   7.972  13.066  1.00  0.00     0.010 C 
BRANCH  23  25
HETATM   25  C6  UNL     1      -3.491   5.592  13.549  1.00  0.00     0.008 C 
BRANCH  25  26
HETATM   26  C5  UNL     1      -4.912   5.109  13.210  1.00  0.00     0.028 C 
BRANCH  26  27
HETATM   27  C4  UNL     1      -4.953   3.861  12.372  1.00  0.00    -0.025 C 
HETATM   28  C2  UNL     1      -5.989   3.022  12.172  1.00  0.00    -0.091 C 
HETATM   29  C1  UNL     1      -7.359   3.161  12.776  1.00  0.00     0.042 C 
HETATM   30  C3  UNL     1      -5.828   1.813  11.284  1.00  0.00     0.042 C 
ENDBRANCH  26  27
ENDBRANCH  25  26
ENDBRANCH  23  25
ENDBRANCH   1  23
BRANCH   4  31
HETATM   31  C13 UNL     1       0.590   9.402  13.598  1.00  0.00     0.153 C 
HETATM   32  O1  UNL     1      -0.298  10.107  14.052  1.00  0.00    -0.649 OA
BRANCH  31  33
HETATM   33  O2  UNL     1       1.640  10.012  13.005  1.00  0.00    -0.776 OA
HETATM   34  H21 UNL     1       1.421  10.964  13.082  1.00  0.00     0.167 HD
ENDBRANCH  31  33
ENDBRANCH   4  31
TORSDOF 6
ENDMDL
MODEL 3
REMARK minimizedAffinity -8.57296276
REMARK  6 active torsions:
REMARK  status: ('A' for Active; 'I' for Inactive)
REMARK    1  A    between atoms: C4_4  and  C5_5 
REMARK    2  A    between atoms: C5_5  and  C6_6 
REMARK    3  A    between atoms: C6_6  and  C7_7 
REMARK    4  A    between atoms: C7_7  and  C9_9 
REMARK    5  A    between atoms: C12_12  and  C13_13 
REMARK    6  A    between atoms: C13_13  and  O2_15 
ROOT
HETATM    1  C9  UNL     1      -2.918   8.014  15.355  1.00  0.00    -0.001 C 
HETATM    2  C10 UNL     1      -1.916   8.384  16.477  1.00  0.00     0.007 C 
HETATM    3  C11 UNL     1      -0.505   8.271  15.856  1.00  0.00     0.026 C 
HETATM    4  C12 UNL     1      -0.750   8.177  14.330  1.00  0.00     0.076 C 
HETATM    5  C14 UNL     1       0.318   7.587  13.421  1.00  0.00    -0.057 C 
HETATM    6  C15 UNL     1      -0.016   6.966  12.263  1.00  0.00    -0.067 C 
HETATM    7  C16 UNL     1      -1.500   6.835  11.855  1.00  0.00     0.036 C 
HETATM    8  C17 UNL     1      -2.591   7.192  12.892  1.00  0.00     0.015 C 
HETATM    9  C18 UNL     1      -2.032   7.269  14.315  1.00  0.00    -0.018 C 
HETATM   10  C19 UNL     1      -1.755   5.800  14.763  1.00  0.00     0.017 C 
HETATM   11  C20 UNL     1       1.050   6.297  11.335  1.00  0.00    -0.015 C 
HETATM   12  C21 UNL     1       0.833   4.763  11.474  1.00  0.00     0.020 C 
HETATM   13  C22 UNL     1       0.809   6.683   9.847  1.00  0.00     0.021 C 
HETATM   14  C23 UNL     1       1.573   7.925   9.432  1.00  0.00     0.080 C 
HETATM   15  C24 UNL     1       3.060   7.659   9.482  1.00  0.00     0.135 C 
HETATM   16  O3  UNL     1       3.814   8.214   8.680  1.00  0.00    -0.297 OA
HETATM   17  C25 UNL     1       3.583   6.690  10.551  1.00  0.00     0.018 C 
HETATM   18  C26 UNL     1       3.823   5.319   9.887  1.00  0.00     0.023 C 
HETATM   19  C27 UNL     1       4.974   7.191  11.013  1.00  0.00     0.023 C 
HETATM   20  C28 UNL     1       2.562   6.602  11.754  1.00  0.00     0.013 C 
HETATM   21  C29 UNL     1       2.672   7.846  12.661  1.00  0.00     0.011 C 
HETATM   22  C30 UNL     1       1.738   7.773  13.852  1.00  0.00     0.036 C 
ENDROOT
BRANCH   1  23
HETATM   23  C7  UNL     1      -4.262   7.368  15.803  1.00  0.00    -0.014 C 
HETATM   24  C8  UNL     1      -4.082   5.838  15.799  1.00  0.00     0.010 C 
BRANCH  23  25
HETATM   25  C6  UNL     1      -5.498   7.751  14.952  1.00  0.00     0.008 C 
BRANCH  25  26
HETATM   26  C5  UNL     1      -5.620   6.991  13.619  1.00  0.00     0.028 C 
BRANCH  26  27
HETATM   27  C4  UNL     1      -6.648   5.894  13.629  1.00  0.00    -0.025 C 
HETATM   28  C2  UNL     1      -6.500   4.604  13.263  1.00  0.00    -0.091 C 
HETATM   29  C1  UNL     1      -5.234   3.983  12.740  1.00  0.00     0.042 C 
HETATM   30  C3  UNL     1      -7.663   3.649  13.350  1.00  0.00     0.042 C 
ENDBRANCH  26  27
ENDBRANCH  25  26
ENDBRANCH  23  25
ENDBRANCH   1  23
BRANCH   4  31
HETATM   31  C13 UNL     1      -0.948   9.621  13.776  1.00  0.00     0.153 C 
HETATM   32  O1  UNL     1      -1.701   9.991  12.887  1.00  0.00    -0.649 OA
BRANCH  31  33
HETATM   33  O2  UNL     1      -0.114  10.536  14.319  1.00  0.00    -0.776 OA
HETATM   34  H21 UNL     1      -0.327  11.355  13.826  1.00  0.00     0.167 HD
ENDBRANCH  31  33
ENDBRANCH   4  31
TORSDOF 6
ENDMDL
MODEL 4
REMARK minimizedAffinity -8.49692345
REMARK  6 active torsions:
REMARK  status: ('A' for Active; 'I' for Inactive)
REMARK    1  A    between atoms: C4_4  and  C5_5 
REMARK    2  A    between atoms: C5_5  and  C6_6 
REMARK    3  A    between atoms: C6_6  and  C7_7 
REMARK    4  A    between atoms: C7_7  and  C9_9 
REMARK    5  A    between atoms: C12_12  and  C13_13 
REMARK    6  A    between atoms: C13_13  and  O2_15 
ROOT
HETATM    1  C9  UNL     1       1.310   6.323  10.551  1.00  0.00    -0.001 C 
HETATM    2  C10 UNL     1       1.557   6.710   9.072  1.00  0.00     0.007 C 
HETATM    3  C11 UNL     1       2.816   7.608   9.061  1.00  0.00     0.026 C 
HETATM    4  C12 UNL     1       3.442   7.429  10.466  1.00  0.00     0.076 C 
HETATM    5  C14 UNL     1       4.397   8.479  11.013  1.00  0.00    -0.057 C 
HETATM    6  C15 UNL     1       4.510   8.691  12.348  1.00  0.00    -0.067 C 
HETATM    7  C16 UNL     1       3.652   7.872  13.337  1.00  0.00     0.036 C 
HETATM    8  C17 UNL     1       2.501   7.002  12.780  1.00  0.00     0.015 C 
HETATM    9  C18 UNL     1       2.139   7.377  11.341  1.00  0.00    -0.018 C 
HETATM   10  C19 UNL     1       1.387   8.742  11.414  1.00  0.00     0.017 C 
HETATM   11  C20 UNL     1       5.436   9.801  12.943  1.00  0.00    -0.015 C 
HETATM   12  C21 UNL     1       4.484  10.899  13.497  1.00  0.00     0.020 C 
HETATM   13  C22 UNL     1       6.273   9.246  14.133  1.00  0.00     0.021 C 
HETATM   14  C23 UNL     1       7.615   8.690  13.697  1.00  0.00     0.080 C 
HETATM   15  C24 UNL     1       8.483   9.802  13.156  1.00  0.00     0.135 C 
HETATM   16  O3  UNL     1       9.707   9.760  13.308  1.00  0.00    -0.297 OA
HETATM   17  C25 UNL     1       7.796  10.961  12.422  1.00  0.00     0.018 C 
HETATM   18  C26 UNL     1       7.677  12.150  13.398  1.00  0.00     0.023 C 
HETATM   19  C27 UNL     1       8.736  11.434  11.286  1.00  0.00     0.023 C 
HETATM   20  C28 UNL     1       6.391  10.499  11.868  1.00  0.00     0.013 C 
HETATM   21  C29 UNL     1       6.557   9.640  10.596  1.00  0.00     0.011 C 
HETATM   22  C30 UNL     1       5.224   9.218  10.010  1.00  0.00     0.036 C 
ENDROOT
BRANCH   1  23
HETATM   23  C7  UNL     1      -0.166   6.056  10.966  1.00  0.00    -0.014 C 
HETATM   24  C8  UNL     1      -0.498   6.966  12.165  1.00  0.00     0.010 C 
BRANCH  23  25
HETATM   25  C6  UNL     1      -0.502   4.586  11.320  1.00  0.00     0.008 C 
BRANCH  25  26
HETATM   26  C5  UNL     1      -1.669   4.413  12.308  1.00  0.00     0.028 C 
BRANCH  26  27
HETATM   27  C4  UNL     1      -2.882   3.751  11.718  1.00  0.00    -0.025 C 
HETATM   28  C2  UNL     1      -4.179   3.955  12.022  1.00  0.00    -0.091 C 
HETATM   29  C1  UNL     1      -4.694   4.912  13.061  1.00  0.00     0.042 C 
HETATM   30  C3  UNL     1      -5.260   3.184  11.307  1.00  0.00     0.042 C 
ENDBRANCH  26  27
ENDBRANCH  25  26
ENDBRANCH  23  25
ENDBRANCH   1  23
BRANCH   4  31
HETATM   31  C13 UNL     1       4.295   6.123  10.459  1.00  0.00     0.153 C 
HETATM   32  O1  UNL     1       4.213   5.174   9.694  1.00  0.00    -0.649 OA
BRANCH  31  33
HETATM   33  O2  UNL     1       5.172   6.036  11.483  1.00  0.00    -0.776 OA
HETATM   34  H21 UNL     1       5.571   5.149  11.363  1.00  0.00     0.167 HD
ENDBRANCH  31  33
ENDBRANCH   4  31
TORSDOF 6
ENDMDL
MODEL 5
REMARK minimizedAffinity -8.48308182
REMARK  6 active torsions:
REMARK  status: ('A' for Active; 'I' for Inactive)
REMARK    1  A    between atoms: C4_4  and  C5_5 
REMARK    2  A    between atoms: C5_5  and  C6_6 
REMARK    3  A    between atoms: C6_6  and  C7_7 
REMARK    4  A    between atoms: C7_7  and  C9_9 
REMARK    5  A    between atoms: C12_12  and  C13_13 
REMARK    6  A    between atoms: C13_13  and  O2_15 
ROOT
HETATM    1  C9  UNL     1      -1.431   5.253  12.891  1.00  0.00    -0.001 C 
HETATM    2  C10 UNL     1      -0.672   6.039  11.793  1.00  0.00     0.007 C 
HETATM    3  C11 UNL     1      -0.659   7.517  12.246  1.00  0.00     0.026 C 
HETATM    4  C12 UNL     1      -1.102   7.481  13.729  1.00  0.00     0.076 C 
HETATM    5  C14 UNL     1      -1.667   8.731  14.386  1.00  0.00    -0.057 C 
HETATM    6  C15 UNL     1      -2.559   8.643  15.404  1.00  0.00    -0.067 C 
HETATM    7  C16 UNL     1      -3.027   7.258  15.904  1.00  0.00     0.036 C 
HETATM    8  C17 UNL     1      -2.663   6.005  15.073  1.00  0.00     0.015 C 
HETATM    9  C18 UNL     1      -2.204   6.364  13.658  1.00  0.00    -0.018 C 
HETATM   10  C19 UNL     1      -3.480   6.803  12.875  1.00  0.00     0.017 C 
HETATM   11  C20 UNL     1      -3.205   9.904  16.063  1.00  0.00    -0.015 C 
HETATM   12  C21 UNL     1      -4.693   9.907  15.609  1.00  0.00     0.020 C 
HETATM   13  C22 UNL     1      -3.177   9.795  17.615  1.00  0.00     0.021 C 
HETATM   14  C23 UNL     1      -1.929  10.407  18.223  1.00  0.00     0.080 C 
HETATM   15  C24 UNL     1      -1.916  11.899  17.984  1.00  0.00     0.135 C 
HETATM   16  O3  UNL     1      -1.411  12.654  18.818  1.00  0.00    -0.297 OA
HETATM   17  C25 UNL     1      -2.542  12.426  16.685  1.00  0.00     0.018 C 
HETATM   18  C26 UNL     1      -3.955  12.952  17.007  1.00  0.00     0.023 C 
HETATM   19  C27 UNL     1      -1.723  13.656  16.223  1.00  0.00     0.023 C 
HETATM   20  C28 UNL     1      -2.562  11.289  15.589  1.00  0.00     0.013 C 
HETATM   21  C29 UNL     1      -1.160  11.095  14.971  1.00  0.00     0.011 C 
HETATM   22  C30 UNL     1      -1.153  10.042  13.882  1.00  0.00     0.036 C 
ENDROOT
BRANCH   1  23
HETATM   23  C7  UNL     1      -2.197   3.977  12.433  1.00  0.00    -0.014 C 
HETATM   24  C8  UNL     1      -1.272   3.173  11.500  1.00  0.00     0.010 C 
BRANCH  23  25
HETATM   25  C6  UNL     1      -3.553   4.233  11.730  1.00  0.00     0.008 C 
BRANCH  25  26
HETATM   26  C5  UNL     1      -4.723   3.389  12.265  1.00  0.00     0.028 C 
BRANCH  26  27
HETATM   27  C4  UNL     1      -5.995   4.163  12.469  1.00  0.00    -0.025 C 
HETATM   28  C2  UNL     1      -7.236   3.688  12.701  1.00  0.00    -0.091 C 
HETATM   29  C1  UNL     1      -7.614   2.235  12.794  1.00  0.00     0.042 C 
HETATM   30  C3  UNL     1      -8.393   4.638  12.883  1.00  0.00     0.042 C 
ENDBRANCH  26  27
ENDBRANCH  25  26
ENDBRANCH  23  25
ENDBRANCH   1  23
BRANCH   4  31
HETATM   31  C13 UNL     1       0.143   7.137  14.603  1.00  0.00     0.153 C 
HETATM   32  O1  UNL     1       1.315   7.403  14.383  1.00  0.00    -0.649 OA
BRANCH  31  33
HETATM   33  O2  UNL     1      -0.142   6.389  15.692  1.00  0.00    -0.776 OA
HETATM   34  H21 UNL     1       0.740   6.218  16.084  1.00  0.00     0.167 HD
ENDBRANCH  31  33
ENDBRANCH   4  31
TORSDOF 6
ENDMDL
MODEL 6
REMARK minimizedAffinity -8.44992828
REMARK  6 active torsions:
REMARK  status: ('A' for Active; 'I' for Inactive)
REMARK    1  A    between atoms: C4_4  and  C5_5 
REMARK    2  A    between atoms: C5_5  and  C6_6 
REMARK    3  A    between atoms: C6_6  and  C7_7 
REMARK    4  A    between atoms: C7_7  and  C9_9 
REMARK    5  A    between atoms: C12_12  and  C13_13 
REMARK    6  A    between atoms: C13_13  and  O2_15 
ROOT
HETATM    1  C9  UNL     1      -0.360   6.434  11.661  1.00  0.00    -0.001 C 
HETATM    2  C10 UNL     1      -1.540   5.560  12.154  1.00  0.00     0.007 C 
HETATM    3  C11 UNL     1      -2.098   6.255  13.417  1.00  0.00     0.026 C 
HETATM    4  C12 UNL     1      -1.454   7.662  13.413  1.00  0.00     0.076 C 
HETATM    5  C14 UNL     1      -1.367   8.466  14.702  1.00  0.00    -0.057 C 
HETATM    6  C15 UNL     1      -0.373   9.366  14.898  1.00  0.00    -0.067 C 
HETATM    7  C16 UNL     1       0.703   9.580  13.811  1.00  0.00     0.036 C 
HETATM    8  C17 UNL     1       0.771   8.586  12.626  1.00  0.00     0.015 C 
HETATM    9  C18 UNL     1      -0.012   7.302  12.905  1.00  0.00    -0.018 C 
HETATM   10  C19 UNL     1       0.824   6.488  13.941  1.00  0.00     0.017 C 
HETATM   11  C20 UNL     1      -0.219  10.165  16.233  1.00  0.00    -0.015 C 
HETATM   12  C21 UNL     1       1.040   9.582  16.936  1.00  0.00     0.020 C 
HETATM   13  C22 UNL     1       0.045  11.673  15.949  1.00  0.00     0.021 C 
HETATM   14  C23 UNL     1      -1.231  12.489  15.883  1.00  0.00     0.080 C 
HETATM   15  C24 UNL     1      -1.904  12.507  17.235  1.00  0.00     0.135 C 
HETATM   16  O3  UNL     1      -2.540  13.500  17.596  1.00  0.00    -0.297 OA
HETATM   17  C25 UNL     1      -1.769  11.263  18.125  1.00  0.00     0.018 C 
HETATM   18  C26 UNL     1      -0.674  11.535  19.175  1.00  0.00     0.023 C 
HETATM   19  C27 UNL     1      -3.089  11.094  18.917  1.00  0.00     0.023 C 
HETATM   20  C28 UNL     1      -1.448   9.994  17.241  1.00  0.00     0.013 C 
HETATM   21  C29 UNL     1      -2.718   9.486  16.525  1.00  0.00     0.011 C 
HETATM   22  C30 UNL     1      -2.455   8.240  15.704  1.00  0.00     0.036 C 
ENDROOT
BRANCH   1  23
HETATM   23  C7  UNL     1       0.787   5.698  10.908  1.00  0.00    -0.014 C 
HETATM   24  C8  UNL     1       0.897   4.272  11.481  1.00  0.00     0.010 C 
BRANCH  23  25
HETATM   25  C6  UNL     1       2.171   6.391  10.965  1.00  0.00     0.008 C 
BRANCH  25  26
HETATM   26  C5  UNL     1       3.123   6.019   9.815  1.00  0.00     0.028 C 
BRANCH  26  27
HETATM   27  C4  UNL     1       2.516   6.151   8.447  1.00  0.00    -0.025 C 
HETATM   28  C2  UNL     1       2.438   7.248   7.668  1.00  0.00    -0.091 C 
HETATM   29  C1  UNL     1       2.950   8.616   8.028  1.00  0.00     0.042 C 
HETATM   30  C3  UNL     1       1.786   7.174   6.310  1.00  0.00     0.042 C 
ENDBRANCH  26  27
ENDBRANCH  25  26
ENDBRANCH  23  25
ENDBRANCH   1  23
BRANCH   4  31
HETATM   31  C13 UNL     1      -2.287   8.579  12.464  1.00  0.00     0.153 C 
HETATM   32  O1  UNL     1      -3.501   8.708  12.415  1.00  0.00    -0.649 OA
BRANCH  31  33
HETATM   33  O2  UNL     1      -1.544   9.240  11.549  1.00  0.00    -0.776 OA
HETATM   34  H21 UNL     1      -2.215   9.708  11.010  1.00  0.00     0.167 HD
ENDBRANCH  31  33
ENDBRANCH   4  31
TORSDOF 6
ENDMDL
MODEL 7
REMARK minimizedAffinity -8.43372631
REMARK  6 active torsions:
REMARK  status: ('A' for Active; 'I' for Inactive)
REMARK    1  A    between atoms: C4_4  and  C5_5 
REMARK    2  A    between atoms: C5_5  and  C6_6 
REMARK    3  A    between atoms: C6_6  and  C7_7 
REMARK    4  A    between atoms: C7_7  and  C9_9 
REMARK    5  A    between atoms: C12_12  and  C13_13 
REMARK    6  A    between atoms: C13_13  and  O2_15 
ROOT
HETATM    1  C9  UNL     1       3.771   7.930  11.163  1.00  0.00    -0.001 C 
HETATM    2  C10 UNL     1       3.815   6.487  10.604  1.00  0.00     0.007 C 
HETATM    3  C11 UNL     1       2.450   5.846  10.945  1.00  0.00     0.026 C 
HETATM    4  C12 UNL     1       1.553   7.031  11.376  1.00  0.00     0.076 C 
HETATM    5  C14 UNL     1       0.316   6.780  12.225  1.00  0.00    -0.057 C 
HETATM    6  C15 UNL     1      -0.150   7.727  13.078  1.00  0.00    -0.067 C 
HETATM    7  C16 UNL     1       0.586   9.079  13.209  1.00  0.00     0.036 C 
HETATM    8  C17 UNL     1       1.979   9.234  12.554  1.00  0.00     0.015 C 
HETATM    9  C18 UNL     1       2.596   7.884  12.182  1.00  0.00    -0.018 C 
HETATM   10  C19 UNL     1       3.040   7.216  13.521  1.00  0.00     0.017 C 
HETATM   11  C20 UNL     1      -1.382   7.482  14.008  1.00  0.00    -0.015 C 
HETATM   12  C21 UNL     1      -0.811   7.376  15.451  1.00  0.00     0.020 C 
HETATM   13  C22 UNL     1      -2.358   8.693  13.966  1.00  0.00     0.021 C 
HETATM   14  C23 UNL     1      -3.430   8.545  12.902  1.00  0.00     0.080 C 
HETATM   15  C24 UNL     1      -4.337   7.385  13.241  1.00  0.00     0.135 C 
HETATM   16  O3  UNL     1      -5.531   7.425  12.934  1.00  0.00    -0.297 OA
HETATM   17  C25 UNL     1      -3.724   6.178  13.964  1.00  0.00     0.018 C 
HETATM   18  C26 UNL     1      -4.065   6.288  15.464  1.00  0.00     0.023 C 
HETATM   19  C27 UNL     1      -4.437   4.901  13.456  1.00  0.00     0.023 C 
HETATM   20  C28 UNL     1      -2.166   6.122  13.707  1.00  0.00     0.013 C 
HETATM   21  C29 UNL     1      -1.861   5.577  12.295  1.00  0.00     0.011 C 
HETATM   22  C30 UNL     1      -0.373   5.466  12.032  1.00  0.00     0.036 C 
ENDROOT
BRANCH   1  23
HETATM   23  C7  UNL     1       5.129   8.551  11.603  1.00  0.00    -0.014 C 
HETATM   24  C8  UNL     1       6.222   8.038  10.646  1.00  0.00     0.010 C 
BRANCH  23  25
HETATM   25  C6  UNL     1       5.545   8.270  13.068  1.00  0.00     0.008 C 
BRANCH  25  26
HETATM   26  C5  UNL     1       6.809   7.407  13.223  1.00  0.00     0.028 C 
BRANCH  26  27
HETATM   27  C4  UNL     1       7.462   7.508  14.573  1.00  0.00    -0.025 C 
HETATM   28  C2  UNL     1       8.754   7.763  14.862  1.00  0.00    -0.091 C 
HETATM   29  C1  UNL     1       9.847   7.993  13.856  1.00  0.00     0.042 C 
HETATM   30  C3  UNL     1       9.215   7.827  16.296  1.00  0.00     0.042 C 
ENDBRANCH  26  27
ENDBRANCH  25  26
ENDBRANCH  23  25
ENDBRANCH   1  23
BRANCH   4  31
HETATM   31  C13 UNL     1       0.985   7.709  10.091  1.00  0.00     0.153 C 
HETATM   32  O1  UNL     1       1.197   7.409   8.925  1.00  0.00    -0.649 OA
BRANCH  31  33
HETATM   33  O2  UNL     1       0.230   8.802  10.336  1.00  0.00    -0.776 OA
HETATM   34  H21 UNL     1       0.012   9.130   9.439  1.00  0.00     0.167 HD
ENDBRANCH  31  33
ENDBRANCH   4  31
TORSDOF 6
ENDMDL
MODEL 8
REMARK minimizedAffinity -8.38678646
REMARK  6 active torsions:
REMARK  status: ('A' for Active; 'I' for Inactive)
REMARK    1  A    between atoms: C4_4  and  C5_5 
REMARK    2  A    between atoms: C5_5  and  C6_6 
REMARK    3  A    between atoms: C6_6  and  C7_7 
REMARK    4  A    between atoms: C7_7  and  C9_9 
REMARK    5  A    between atoms: C12_12  and  C13_13 
REMARK    6  A    between atoms: C13_13  and  O2_15 
ROOT
HETATM    1  C9  UNL     1      -3.366   7.559  15.138  1.00  0.00    -0.001 C 
HETATM    2  C10 UNL     1      -3.742   6.068  14.951  1.00  0.00     0.007 C 
HETATM    3  C11 UNL     1      -2.732   5.489  13.933  1.00  0.00     0.026 C 
HETATM    4  C12 UNL     1      -1.616   6.557  13.831  1.00  0.00     0.076 C 
HETATM    5  C14 UNL     1      -0.705   6.593  12.614  1.00  0.00    -0.057 C 
HETATM    6  C15 UNL     1      -0.146   7.755  12.195  1.00  0.00    -0.067 C 
HETATM    7  C16 UNL     1      -0.442   9.071  12.946  1.00  0.00     0.036 C 
HETATM    8  C17 UNL     1      -1.565   9.084  14.010  1.00  0.00     0.015 C 
HETATM    9  C18 UNL     1      -2.483   7.865  13.895  1.00  0.00    -0.018 C 
HETATM   10  C19 UNL     1      -3.361   8.088  12.624  1.00  0.00     0.017 C 
HETATM   11  C20 UNL     1       0.747   7.839  10.914  1.00  0.00    -0.015 C 
HETATM   12  C21 UNL     1      -0.096   8.607   9.856  1.00  0.00     0.020 C 
HETATM   13  C22 UNL     1       2.037   8.666  11.191  1.00  0.00     0.021 C 
HETATM   14  C23 UNL     1       3.196   7.805  11.656  1.00  0.00     0.080 C 
HETATM   15  C24 UNL     1       3.620   6.868  10.549  1.00  0.00     0.135 C 
HETATM   16  O3  UNL     1       4.804   6.543  10.435  1.00  0.00    -0.297 OA
HETATM   17  C25 UNL     1       2.539   6.345   9.594  1.00  0.00     0.018 C 
HETATM   18  C26 UNL     1       2.600   7.172   8.294  1.00  0.00     0.023 C 
HETATM   19  C27 UNL     1       2.911   4.895   9.196  1.00  0.00     0.023 C 
HETATM   20  C28 UNL     1       1.120   6.418  10.284  1.00  0.00     0.013 C 
HETATM   21  C29 UNL     1       0.941   5.270  11.300  1.00  0.00     0.011 C 
HETATM   22  C30 UNL     1      -0.429   5.283  11.947  1.00  0.00     0.036 C 
ENDROOT
BRANCH   1  23
HETATM   23  C7  UNL     1      -4.527   8.532  15.500  1.00  0.00    -0.014 C 
HETATM   24  C8  UNL     1      -5.514   8.559  14.317  1.00  0.00     0.010 C 
BRANCH  23  25
HETATM   25  C6  UNL     1      -4.096   9.977  15.852  1.00  0.00     0.008 C 
BRANCH  25  26
HETATM   26  C5  UNL     1      -3.155  10.089  17.064  1.00  0.00     0.028 C 
BRANCH  26  27
HETATM   27  C4  UNL     1      -3.737  10.840  18.228  1.00  0.00    -0.025 C 
HETATM   28  C2  UNL     1      -3.921  12.169  18.360  1.00  0.00    -0.091 C 
HETATM   29  C1  UNL     1      -3.557  13.209  17.336  1.00  0.00     0.042 C 
HETATM   30  C3  UNL     1      -4.531  12.733  19.618  1.00  0.00     0.042 C 
ENDBRANCH  26  27
ENDBRANCH  25  26
ENDBRANCH  23  25
ENDBRANCH   1  23
BRANCH   4  31
HETATM   31  C13 UNL     1      -0.631   6.350  15.023  1.00  0.00     0.153 C 
HETATM   32  O1  UNL     1       0.159   7.153  15.495  1.00  0.00    -0.649 OA
BRANCH  31  33
HETATM   33  O2  UNL     1      -0.628   5.093  15.520  1.00  0.00    -0.776 OA
HETATM   34  H21 UNL     1       0.074   5.123  16.203  1.00  0.00     0.167 HD
ENDBRANCH  31  33
ENDBRANCH   4  31
TORSDOF 6
ENDMDL
MODEL 9
REMARK minimizedAffinity -8.2907753
REMARK  6 active torsions:
REMARK  status: ('A' for Active; 'I' for Inactive)
REMARK    1  A    between atoms: C4_4  and  C5_5 
REMARK    2  A    between atoms: C5_5  and  C6_6 
REMARK    3  A    between atoms: C6_6  and  C7_7 
REMARK    4  A    between atoms: C7_7  and  C9_9 
REMARK    5  A    between atoms: C12_12  and  C13_13 
REMARK    6  A    between atoms: C13_13  and  O2_15 
ROOT
HETATM    1  C9  UNL     1      -1.738   7.773  13.870  1.00  0.00    -0.001 C 
HETATM    2  C10 UNL     1      -1.543   7.277  15.324  1.00  0.00     0.007 C 
HETATM    3  C11 UNL     1      -0.021   7.304  15.593  1.00  0.00     0.026 C 
HETATM    4  C12 UNL     1       0.573   8.127  14.424  1.00  0.00     0.076 C 
HETATM    5  C14 UNL     1       2.044   7.986  14.063  1.00  0.00    -0.057 C 
HETATM    6  C15 UNL     1       2.474   8.189  12.794  1.00  0.00    -0.067 C 
HETATM    7  C16 UNL     1       1.464   8.556  11.684  1.00  0.00     0.036 C 
HETATM    8  C17 UNL     1      -0.049   8.441  11.987  1.00  0.00     0.015 C 
HETATM    9  C18 UNL     1      -0.323   7.610  13.243  1.00  0.00    -0.018 C 
HETATM   10  C19 UNL     1      -0.047   6.123  12.861  1.00  0.00     0.017 C 
HETATM   11  C20 UNL     1       3.968   7.995  12.374  1.00  0.00    -0.015 C 
HETATM   12  C21 UNL     1       4.001   6.710  11.499  1.00  0.00     0.020 C 
HETATM   13  C22 UNL     1       4.457   9.185  11.499  1.00  0.00     0.021 C 
HETATM   14  C23 UNL     1       5.078  10.300  12.319  1.00  0.00     0.080 C 
HETATM   15  C24 UNL     1       6.348   9.813  12.976  1.00  0.00     0.135 C 
HETATM   16  O3  UNL     1       7.288  10.591  13.157  1.00  0.00    -0.297 OA
HETATM   17  C25 UNL     1       6.420   8.340  13.403  1.00  0.00     0.018 C 
HETATM   18  C26 UNL     1       7.217   7.564  12.335  1.00  0.00     0.023 C 
HETATM   19  C27 UNL     1       7.255   8.258  14.704  1.00  0.00     0.023 C 
HETATM   20  C28 UNL     1       4.964   7.759  13.602  1.00  0.00     0.013 C 
HETATM   21  C29 UNL     1       4.359   8.237  14.939  1.00  0.00     0.011 C 
HETATM   22  C30 UNL     1       2.979   7.661  15.184  1.00  0.00     0.036 C 
ENDROOT
BRANCH   1  23
HETATM   23  C7  UNL     1      -2.974   7.218  13.103  1.00  0.00    -0.014 C 
HETATM   24  C8  UNL     1      -4.027   8.340  13.018  1.00  0.00     0.010 C 
BRANCH  23  25
HETATM   25  C6  UNL     1      -3.615   5.945  13.708  1.00  0.00     0.008 C 
BRANCH  25  26
HETATM   26  C5  UNL     1      -4.195   4.965  12.673  1.00  0.00     0.028 C 
BRANCH  26  27
HETATM   27  C4  UNL     1      -5.552   4.426  13.030  1.00  0.00    -0.025 C 
HETATM   28  C2  UNL     1      -6.178   3.339  12.535  1.00  0.00    -0.091 C 
HETATM   29  C1  UNL     1      -5.630   2.417  11.480  1.00  0.00     0.042 C 
HETATM   30  C3  UNL     1      -7.550   2.959  13.030  1.00  0.00     0.042 C 
ENDBRANCH  26  27
ENDBRANCH  25  26
ENDBRANCH  23  25
ENDBRANCH   1  23
BRANCH   4  31
HETATM   31  C13 UNL     1       0.422   9.641  14.765  1.00  0.00     0.153 C 
HETATM   32  O1  UNL     1       0.811  10.232  15.761  1.00  0.00    -0.649 OA
BRANCH  31  33
HETATM   33  O2  UNL     1      -0.297  10.338  13.858  1.00  0.00    -0.776 OA
HETATM   34  H21 UNL     1      -0.344  11.235  14.249  1.00  0.00     0.167 HD
ENDBRANCH  31  33
ENDBRANCH   4  31
TORSDOF 6
ENDMDL
