MODEL 1
REMARK minimizedAffinity -7.17349672
REMARK CNNscore 0.546094775
REMARK CNNaffinity 6.24494934
REMARK  9 active torsions:
REMARK  status: ('A' for Active; 'I' for Inactive)
REMARK    1  A    between atoms: C2_2  and  C3_3 
REMARK    2  A    between atoms: C2_2  and  C9_12 
REMARK    3  A    between atoms: C3_3  and  C4_4 
REMARK    4  A    between atoms: C4_4  and  O1_5 
REMARK    5  A    between atoms: C4_4  and  C5_6 
REMARK    6  A    between atoms: C5_6  and  O2_7 
REMARK    7  A    between atoms: C5_6  and  C6_8 
REMARK    8  A    between atoms: C6_8  and  O3_11 
REMARK    9  A    between atoms: C16_19  and  O4_20 
ROOT
HETATM    1  C9  UNL     1     -10.980  -7.270  -5.047  1.00  0.00     0.097 A 
HETATM    2  C10 UNL     1     -12.072  -7.474  -4.021  1.00  0.00     0.042 C 
HETATM    3  C11 UNL     1     -11.361  -8.157  -2.837  1.00  0.00     0.016 C 
HETATM    4  C12 UNL     1     -10.251  -9.064  -3.466  1.00  0.00    -0.002 C 
HETATM    5  C13 UNL     1     -10.960 -10.385  -3.898  1.00  0.00     0.019 C 
HETATM    6  C14 UNL     1      -9.849  -8.258  -4.718  1.00  0.00     0.104 A 
HETATM    7  C15 UNL     1      -8.416  -7.992  -5.066  1.00  0.00     0.074 C 
HETATM    8  C16 UNL     1      -7.365  -8.969  -4.497  1.00  0.00     0.126 C 
HETATM    9  C17 UNL     1      -7.871  -9.974  -3.428  1.00  0.00     0.032 C 
HETATM   10  C18 UNL     1      -6.766 -10.837  -2.646  1.00  0.00    -0.032 C 
HETATM   11  C19 UNL     1      -5.825 -11.507  -3.687  1.00  0.00     0.016 C 
HETATM   12  C20 UNL     1      -5.912  -9.966  -1.706  1.00  0.00     0.017 C 
HETATM   13  C21 UNL     1      -4.838 -10.741  -0.976  1.00  0.00     0.080 C 
HETATM   14  C22 UNL     1      -5.484 -11.729  -0.055  1.00  0.00     0.135 C 
HETATM   15  O5  UNL     1      -4.983 -11.926   1.058  1.00  0.00    -0.297 OA
HETATM   16  C23 UNL     1      -6.660 -12.584  -0.566  1.00  0.00     0.017 C 
HETATM   17  C24 UNL     1      -7.557 -12.857   0.664  1.00  0.00     0.023 C 
HETATM   18  C25 UNL     1      -6.029 -13.945  -0.954  1.00  0.00     0.023 C 
HETATM   19  C26 UNL     1      -7.462 -12.001  -1.817  1.00  0.00     0.009 C 
HETATM   20  C27 UNL     1      -8.970 -11.717  -1.590  1.00  0.00     0.007 C 
HETATM   21  C28 UNL     1      -9.297 -10.254  -1.325  1.00  0.00     0.011 C 
HETATM   22  C29 UNL     1      -8.980  -9.316  -2.523  1.00  0.00    -0.027 C 
HETATM   23  C30 UNL     1      -8.528  -7.959  -1.904  1.00  0.00     0.016 C 
HETATM   24  O6  UNL     1     -10.721  -8.453  -5.831  1.00  0.00    -0.362 OA
ENDROOT
BRANCH   1  25
HETATM   25  C2  UNL     1     -11.044  -6.043  -5.941  1.00  0.00     0.022 C 
HETATM   26  C1  UNL     1     -11.710  -6.246  -7.308  1.00  0.00     0.013 C 
BRANCH  25  27
HETATM   27  C3  UNL     1      -9.713  -5.267  -6.100  1.00  0.00     0.041 C 
BRANCH  27  28
HETATM   28  C4  UNL     1      -9.404  -4.250  -4.993  1.00  0.00     0.150 C 
BRANCH  28  29
HETATM   29  O1  UNL     1      -9.835  -4.808  -3.743  1.00  0.00    -0.393 OA
HETATM   30  H8  UNL     1     -10.813  -4.810  -3.803  1.00  0.00     0.210 HD
ENDBRANCH  28  29
BRANCH  28  31
HETATM   31  C5  UNL     1     -10.178  -2.920  -5.187  1.00  0.00     0.180 C 
BRANCH  31  32
HETATM   32  O2  UNL     1     -11.076  -2.825  -4.060  1.00  0.00    -0.390 OA
HETATM   33  H10 UNL     1     -11.689  -2.088  -4.230  1.00  0.00     0.210 HD
ENDBRANCH  31  32
BRANCH  31  34
HETATM   34  C6  UNL     1      -9.236  -1.669  -5.261  1.00  0.00     0.079 C 
HETATM   35  C7  UNL     1      -8.619  -1.535  -6.660  1.00  0.00     0.048 C 
HETATM   36  C8  UNL     1      -9.988  -0.376  -4.924  1.00  0.00     0.048 C 
BRANCH  34  37
HETATM   37  O3  UNL     1      -8.149  -1.756  -4.338  1.00  0.00    -0.388 OA
HETATM   38  H17 UNL     1      -8.330  -2.501  -3.725  1.00  0.00     0.210 HD
ENDBRANCH  34  37
ENDBRANCH  31  34
ENDBRANCH  28  31
ENDBRANCH  27  28
ENDBRANCH  25  27
ENDBRANCH   1  25
BRANCH   8  39
HETATM   39  O4  UNL     1      -6.825  -9.706  -5.602  1.00  0.00    -0.395 OA
HETATM   40  H28 UNL     1      -6.434  -9.067  -6.224  1.00  0.00     0.210 HD
ENDBRANCH   8  39
TORSDOF 9
ENDMDL
MODEL 2
REMARK minimizedAffinity -9.83677483
REMARK CNNscore 0.377255648
REMARK CNNaffinity 6.98487711
REMARK  9 active torsions:
REMARK  status: ('A' for Active; 'I' for Inactive)
REMARK    1  A    between atoms: C2_2  and  C3_3 
REMARK    2  A    between atoms: C2_2  and  C9_12 
REMARK    3  A    between atoms: C3_3  and  C4_4 
REMARK    4  A    between atoms: C4_4  and  O1_5 
REMARK    5  A    between atoms: C4_4  and  C5_6 
REMARK    6  A    between atoms: C5_6  and  O2_7 
REMARK    7  A    between atoms: C5_6  and  C6_8 
REMARK    8  A    between atoms: C6_8  and  O3_11 
REMARK    9  A    between atoms: C16_19  and  O4_20 
ROOT
HETATM    1  C9  UNL     1       0.780   7.692  12.680  1.00  0.00     0.097 A 
HETATM    2  C10 UNL     1       0.666   9.187  12.874  1.00  0.00     0.042 C 
HETATM    3  C11 UNL     1      -0.657   9.371  13.642  1.00  0.00     0.016 C 
HETATM    4  C12 UNL     1      -1.615   8.247  13.128  1.00  0.00    -0.002 C 
HETATM    5  C13 UNL     1      -2.230   8.774  11.794  1.00  0.00     0.019 C 
HETATM    6  C14 UNL     1      -0.630   7.098  12.826  1.00  0.00     0.104 A 
HETATM    7  C15 UNL     1      -0.875   5.697  13.297  1.00  0.00     0.074 C 
HETATM    8  C16 UNL     1      -2.337   5.303  13.592  1.00  0.00     0.126 C 
HETATM    9  C17 UNL     1      -3.369   6.462  13.607  1.00  0.00     0.032 C 
HETATM   10  C18 UNL     1      -4.846   6.126  14.142  1.00  0.00    -0.032 C 
HETATM   11  C19 UNL     1      -5.377   4.872  13.391  1.00  0.00     0.016 C 
HETATM   12  C20 UNL     1      -4.860   5.832  15.653  1.00  0.00     0.017 C 
HETATM   13  C21 UNL     1      -6.230   5.479  16.186  1.00  0.00     0.080 C 
HETATM   14  C22 UNL     1      -7.132   6.667  16.047  1.00  0.00     0.135 C 
HETATM   15  O5  UNL     1      -7.942   6.912  16.950  1.00  0.00    -0.297 OA
HETATM   16  C23 UNL     1      -7.140   7.462  14.728  1.00  0.00     0.017 C 
HETATM   17  C24 UNL     1      -7.473   8.923  15.109  1.00  0.00     0.023 C 
HETATM   18  C25 UNL     1      -8.365   6.928  13.943  1.00  0.00     0.023 C 
HETATM   19  C26 UNL     1      -5.835   7.327  13.818  1.00  0.00     0.009 C 
HETATM   20  C27 UNL     1      -5.062   8.643  13.534  1.00  0.00     0.007 C 
HETATM   21  C28 UNL     1      -3.831   8.845  14.409  1.00  0.00     0.011 C 
HETATM   22  C29 UNL     1      -2.724   7.777  14.185  1.00  0.00    -0.027 C 
HETATM   23  C30 UNL     1      -2.046   7.559  15.571  1.00  0.00     0.016 C 
HETATM   24  O6  UNL     1       0.013   7.212  11.557  1.00  0.00    -0.362 OA
ENDROOT
BRANCH   1  25
HETATM   25  C2  UNL     1       2.165   7.063  12.686  1.00  0.00     0.022 C 
HETATM   26  C1  UNL     1       3.107   7.533  13.801  1.00  0.00     0.013 C 
BRANCH  25  27
HETATM   27  C3  UNL     1       2.899   7.065  11.323  1.00  0.00     0.041 C 
BRANCH  27  28
HETATM   28  C4  UNL     1       2.086   6.539  10.132  1.00  0.00     0.150 C 
BRANCH  28  29
HETATM   29  O1  UNL     1       1.875   5.132  10.325  1.00  0.00    -0.393 OA
HETATM   30  H8  UNL     1       2.764   4.736  10.205  1.00  0.00     0.210 HD
ENDBRANCH  28  29
BRANCH  28  31
HETATM   31  C5  UNL     1       2.841   6.704   8.788  1.00  0.00     0.180 C 
BRANCH  31  32
HETATM   32  O2  UNL     1       2.862   5.389   8.190  1.00  0.00    -0.390 OA
HETATM   33  H10 UNL     1       3.464   5.421   7.425  1.00  0.00     0.210 HD
ENDBRANCH  31  32
BRANCH  31  34
HETATM   34  C6  UNL     1       2.166   7.746   7.830  1.00  0.00     0.079 C 
HETATM   35  C7  UNL     1       1.844   7.107   6.473  1.00  0.00     0.048 C 
HETATM   36  C8  UNL     1       0.876   8.313   8.432  1.00  0.00     0.048 C 
BRANCH  34  37
HETATM   37  O3  UNL     1       3.016   8.865   7.567  1.00  0.00    -0.388 OA
HETATM   38  H17 UNL     1       3.770   8.827   8.192  1.00  0.00     0.210 HD
ENDBRANCH  34  37
ENDBRANCH  31  34
ENDBRANCH  28  31
ENDBRANCH  27  28
ENDBRANCH  25  27
ENDBRANCH   1  25
BRANCH   8  39
HETATM   39  O4  UNL     1      -2.731   4.350  12.595  1.00  0.00    -0.395 OA
HETATM   40  H28 UNL     1      -2.126   3.589  12.655  1.00  0.00     0.210 HD
ENDBRANCH   8  39
TORSDOF 9
ENDMDL
MODEL 3
REMARK minimizedAffinity -7.74302292
REMARK CNNscore 0.33429265
REMARK CNNaffinity 6.01917696
REMARK  9 active torsions:
REMARK  status: ('A' for Active; 'I' for Inactive)
REMARK    1  A    between atoms: C2_2  and  C3_3 
REMARK    2  A    between atoms: C2_2  and  C9_12 
REMARK    3  A    between atoms: C3_3  and  C4_4 
REMARK    4  A    between atoms: C4_4  and  O1_5 
REMARK    5  A    between atoms: C4_4  and  C5_6 
REMARK    6  A    between atoms: C5_6  and  O2_7 
REMARK    7  A    between atoms: C5_6  and  C6_8 
REMARK    8  A    between atoms: C6_8  and  O3_11 
REMARK    9  A    between atoms: C16_19  and  O4_20 
ROOT
HETATM    1  C9  UNL     1      -6.176  -9.473   8.568  1.00  0.00     0.097 A 
HETATM    2  C10 UNL     1      -7.576 -10.021   8.417  1.00  0.00     0.042 C 
HETATM    3  C11 UNL     1      -7.531 -10.826   7.104  1.00  0.00     0.016 C 
HETATM    4  C12 UNL     1      -6.532 -10.068   6.167  1.00  0.00    -0.002 C 
HETATM    5  C13 UNL     1      -7.343  -8.907   5.513  1.00  0.00     0.019 C 
HETATM    6  C14 UNL     1      -5.521  -9.488   7.178  1.00  0.00     0.104 A 
HETATM    7  C15 UNL     1      -4.041  -9.613   6.981  1.00  0.00     0.074 C 
HETATM    8  C16 UNL     1      -3.542  -9.821   5.535  1.00  0.00     0.126 C 
HETATM    9  C17 UNL     1      -4.630 -10.126   4.472  1.00  0.00     0.032 C 
HETATM   10  C18 UNL     1      -4.131 -10.582   3.016  1.00  0.00    -0.032 C 
HETATM   11  C19 UNL     1      -3.077  -9.558   2.505  1.00  0.00     0.016 C 
HETATM   12  C20 UNL     1      -3.483 -11.978   3.038  1.00  0.00     0.017 C 
HETATM   13  C21 UNL     1      -2.970 -12.427   1.688  1.00  0.00     0.080 C 
HETATM   14  C22 UNL     1      -4.128 -12.587   0.751  1.00  0.00     0.135 C 
HETATM   15  O5  UNL     1      -4.124 -13.532  -0.047  1.00  0.00    -0.297 OA
HETATM   16  C23 UNL     1      -5.215 -11.497   0.697  1.00  0.00     0.017 C 
HETATM   17  C24 UNL     1      -6.531 -12.221   0.331  1.00  0.00     0.023 C 
HETATM   18  C25 UNL     1      -4.846 -10.621  -0.527  1.00  0.00     0.023 C 
HETATM   19  C26 UNL     1      -5.343 -10.566   1.988  1.00  0.00     0.009 C 
HETATM   20  C27 UNL     1      -6.711 -10.597   2.719  1.00  0.00     0.007 C 
HETATM   21  C28 UNL     1      -6.737 -11.480   3.960  1.00  0.00     0.011 C 
HETATM   22  C29 UNL     1      -5.789 -10.994   5.092  1.00  0.00    -0.027 C 
HETATM   23  C30 UNL     1      -5.267 -12.280   5.802  1.00  0.00     0.016 C 
HETATM   24  O6  UNL     1      -5.955  -8.276   7.793  1.00  0.00    -0.362 OA
ENDROOT
BRANCH   1  25
HETATM   25  C2  UNL     1      -5.608  -9.311   9.969  1.00  0.00     0.022 C 
HETATM   26  C1  UNL     1      -4.187  -9.850  10.180  1.00  0.00     0.013 C 
BRANCH  25  27
HETATM   27  C3  UNL     1      -6.536  -9.775  11.119  1.00  0.00     0.041 C 
BRANCH  27  28
HETATM   28  C4  UNL     1      -7.120  -8.655  11.990  1.00  0.00     0.150 C 
BRANCH  28  29
HETATM   29  O1  UNL     1      -6.329  -8.562  13.184  1.00  0.00    -0.393 OA
HETATM   30  H8  UNL     1      -6.536  -9.384  13.676  1.00  0.00     0.210 HD
ENDBRANCH  28  29
BRANCH  28  31
HETATM   31  C5  UNL     1      -8.575  -8.955  12.433  1.00  0.00     0.180 C 
BRANCH  31  32
HETATM   32  O2  UNL     1      -9.389  -8.754  11.256  1.00  0.00    -0.390 OA
HETATM   33  H10 UNL     1     -10.323  -8.776  11.533  1.00  0.00     0.210 HD
ENDBRANCH  31  32
BRANCH  31  34
HETATM   34  C6  UNL     1      -8.757 -10.405  13.000  1.00  0.00     0.079 C 
HETATM   35  C7  UNL     1      -7.408 -11.133  13.072  1.00  0.00     0.048 C 
HETATM   36  C8  UNL     1      -9.389 -10.389  14.396  1.00  0.00     0.048 C 
BRANCH  34  37
HETATM   37  O3  UNL     1      -9.612 -11.202  12.178  1.00  0.00    -0.388 OA
HETATM   38  H17 UNL     1     -10.049 -10.609  11.530  1.00  0.00     0.210 HD
ENDBRANCH  34  37
ENDBRANCH  31  34
ENDBRANCH  28  31
ENDBRANCH  27  28
ENDBRANCH  25  27
ENDBRANCH   1  25
BRANCH   8  39
HETATM   39  O4  UNL     1      -2.843  -8.629   5.150  1.00  0.00    -0.395 OA
HETATM   40  H28 UNL     1      -2.109  -8.499   5.776  1.00  0.00     0.210 HD
ENDBRANCH   8  39
TORSDOF 9
ENDMDL
MODEL 4
REMARK minimizedAffinity -10.033823
REMARK CNNscore 0.256619215
REMARK CNNaffinity 6.86835241
REMARK  9 active torsions:
REMARK  status: ('A' for Active; 'I' for Inactive)
REMARK    1  A    between atoms: C2_2  and  C3_3 
REMARK    2  A    between atoms: C2_2  and  C9_12 
REMARK    3  A    between atoms: C3_3  and  C4_4 
REMARK    4  A    between atoms: C4_4  and  O1_5 
REMARK    5  A    between atoms: C4_4  and  C5_6 
REMARK    6  A    between atoms: C5_6  and  O2_7 
REMARK    7  A    between atoms: C5_6  and  C6_8 
REMARK    8  A    between atoms: C6_8  and  O3_11 
REMARK    9  A    between atoms: C16_19  and  O4_20 
ROOT
HETATM    1  C9  UNL     1      -3.860   7.197  14.329  1.00  0.00     0.097 A 
HETATM    2  C10 UNL     1      -3.524   5.857  14.945  1.00  0.00     0.042 C 
HETATM    3  C11 UNL     1      -2.078   5.581  14.488  1.00  0.00     0.016 C 
HETATM    4  C12 UNL     1      -1.950   6.205  13.059  1.00  0.00    -0.002 C 
HETATM    5  C13 UNL     1      -2.541   5.154  12.070  1.00  0.00     0.019 C 
HETATM    6  C14 UNL     1      -2.897   7.420  13.153  1.00  0.00     0.104 A 
HETATM    7  C15 UNL     1      -2.487   8.784  12.689  1.00  0.00     0.074 C 
HETATM    8  C16 UNL     1      -1.361   8.856  11.636  1.00  0.00     0.126 C 
HETATM    9  C17 UNL     1      -0.603   7.532  11.351  1.00  0.00     0.032 C 
HETATM   10  C18 UNL     1       0.721   7.621  10.448  1.00  0.00    -0.032 C 
HETATM   11  C19 UNL     1       0.387   8.402   9.145  1.00  0.00     0.016 C 
HETATM   12  C20 UNL     1       1.868   8.351  11.172  1.00  0.00     0.017 C 
HETATM   13  C21 UNL     1       3.121   8.483  10.337  1.00  0.00     0.080 C 
HETATM   14  C22 UNL     1       3.681   7.118  10.072  1.00  0.00     0.135 C 
HETATM   15  O5  UNL     1       4.907   6.961  10.088  1.00  0.00    -0.297 OA
HETATM   16  C23 UNL     1       2.734   5.983   9.636  1.00  0.00     0.017 C 
HETATM   17  C24 UNL     1       3.351   4.675  10.185  1.00  0.00     0.023 C 
HETATM   18  C25 UNL     1       2.870   5.914   8.094  1.00  0.00     0.023 C 
HETATM   19  C26 UNL     1       1.194   6.166  10.020  1.00  0.00     0.009 C 
HETATM   20  C27 UNL     1       0.586   5.074  10.940  1.00  0.00     0.007 C 
HETATM   21  C28 UNL     1       0.490   5.476  12.406  1.00  0.00     0.011 C 
HETATM   22  C29 UNL     1      -0.469   6.672  12.664  1.00  0.00    -0.027 C 
HETATM   23  C30 UNL     1       0.147   7.473  13.851  1.00  0.00     0.016 C 
HETATM   24  O6  UNL     1      -4.271   7.093  12.950  1.00  0.00    -0.362 OA
ENDROOT
BRANCH   1  25
HETATM   25  C2  UNL     1      -4.786   8.133  15.091  1.00  0.00     0.022 C 
HETATM   26  C1  UNL     1      -4.097   9.160  15.998  1.00  0.00     0.013 C 
BRANCH  25  27
HETATM   27  C3  UNL     1      -5.951   7.445  15.843  1.00  0.00     0.041 C 
BRANCH  27  28
HETATM   28  C4  UNL     1      -7.080   6.900  14.957  1.00  0.00     0.150 C 
BRANCH  28  29
HETATM   29  O1  UNL     1      -8.321   7.441  15.436  1.00  0.00    -0.393 OA
HETATM   30  H8  UNL     1      -8.459   7.001  16.301  1.00  0.00     0.210 HD
ENDBRANCH  28  29
BRANCH  28  31
HETATM   31  C5  UNL     1      -7.197   5.357  15.040  1.00  0.00     0.180 C 
BRANCH  31  32
HETATM   32  O2  UNL     1      -8.277   5.097  15.963  1.00  0.00    -0.390 OA
HETATM   33  H10 UNL     1      -8.274   4.143  16.163  1.00  0.00     0.210 HD
ENDBRANCH  31  32
BRANCH  31  34
HETATM   34  C6  UNL     1      -7.473   4.688  13.649  1.00  0.00     0.079 C 
HETATM   35  C7  UNL     1      -8.072   5.703  12.667  1.00  0.00     0.048 C 
HETATM   36  C8  UNL     1      -6.195   4.101  13.041  1.00  0.00     0.048 C 
BRANCH  34  37
HETATM   37  O3  UNL     1      -8.406   3.609  13.746  1.00  0.00    -0.388 OA
HETATM   38  H17 UNL     1      -8.533   3.402  14.697  1.00  0.00     0.210 HD
ENDBRANCH  34  37
ENDBRANCH  31  34
ENDBRANCH  28  31
ENDBRANCH  27  28
ENDBRANCH  25  27
ENDBRANCH   1  25
BRANCH   8  39
HETATM   39  O4  UNL     1      -1.949   9.322  10.413  1.00  0.00    -0.395 OA
HETATM   40  H28 UNL     1      -2.346  10.194  10.587  1.00  0.00     0.210 HD
ENDBRANCH   8  39
TORSDOF 9
ENDMDL
MODEL 5
REMARK minimizedAffinity -7.81625605
REMARK CNNscore 0.253051668
REMARK CNNaffinity 6.05053663
REMARK  9 active torsions:
REMARK  status: ('A' for Active; 'I' for Inactive)
REMARK    1  A    between atoms: C2_2  and  C3_3 
REMARK    2  A    between atoms: C2_2  and  C9_12 
REMARK    3  A    between atoms: C3_3  and  C4_4 
REMARK    4  A    between atoms: C4_4  and  O1_5 
REMARK    5  A    between atoms: C4_4  and  C5_6 
REMARK    6  A    between atoms: C5_6  and  O2_7 
REMARK    7  A    between atoms: C5_6  and  C6_8 
REMARK    8  A    between atoms: C6_8  and  O3_11 
REMARK    9  A    between atoms: C16_19  and  O4_20 
ROOT
HETATM    1  C9  UNL     1      -1.076  10.693  17.814  1.00  0.00     0.097 A 
HETATM    2  C10 UNL     1      -2.357   9.905  17.965  1.00  0.00     0.042 C 
HETATM    3  C11 UNL     1      -2.197   8.726  16.986  1.00  0.00     0.016 C 
HETATM    4  C12 UNL     1      -1.374   9.278  15.775  1.00  0.00    -0.002 C 
HETATM    5  C13 UNL     1      -2.397  10.004  14.848  1.00  0.00     0.019 C 
HETATM    6  C14 UNL     1      -0.461  10.320  16.456  1.00  0.00     0.104 A 
HETATM    7  C15 UNL     1       1.012  10.380  16.189  1.00  0.00     0.074 C 
HETATM    8  C16 UNL     1       1.506   9.784  14.854  1.00  0.00     0.126 C 
HETATM    9  C17 UNL     1       0.467   8.968  14.041  1.00  0.00     0.032 C 
HETATM   10  C18 UNL     1       1.007   8.139  12.776  1.00  0.00    -0.032 C 
HETATM   11  C19 UNL     1       1.846   9.090  11.876  1.00  0.00     0.016 C 
HETATM   12  C20 UNL     1       1.898   6.956  13.198  1.00  0.00     0.017 C 
HETATM   13  C21 UNL     1       2.452   6.172  12.030  1.00  0.00     0.080 C 
HETATM   14  C22 UNL     1       1.321   5.520  11.295  1.00  0.00     0.135 C 
HETATM   15  O5  UNL     1       1.477   4.376  10.850  1.00  0.00    -0.297 OA
HETATM   16  C23 UNL     1       0.053   6.336  10.979  1.00  0.00     0.017 C 
HETATM   17  C24 UNL     1      -1.118   5.326  10.978  1.00  0.00     0.023 C 
HETATM   18  C25 UNL     1       0.228   6.799   9.510  1.00  0.00     0.023 C 
HETATM   19  C26 UNL     1      -0.212   7.611  11.903  1.00  0.00     0.009 C 
HETATM   20  C27 UNL     1      -1.534   7.604  12.714  1.00  0.00     0.007 C 
HETATM   21  C28 UNL     1      -1.370   7.195  14.172  1.00  0.00     0.011 C 
HETATM   22  C29 UNL     1      -0.500   8.180  15.002  1.00  0.00    -0.027 C 
HETATM   23  C30 UNL     1       0.263   7.310  16.046  1.00  0.00     0.016 C 
HETATM   24  O6  UNL     1      -1.094  11.580  16.677  1.00  0.00    -0.362 OA
ENDROOT
BRANCH   1  25
HETATM   25  C2  UNL     1      -0.514  11.404  19.035  1.00  0.00     0.022 C 
HETATM   26  C1  UNL     1      -0.852  12.896  19.152  1.00  0.00     0.013 C 
BRANCH  25  27
HETATM   27  C3  UNL     1       0.992  11.170  19.304  1.00  0.00     0.041 C 
BRANCH  27  28
HETATM   28  C4  UNL     1       1.466  11.483  20.730  1.00  0.00     0.150 C 
BRANCH  28  29
HETATM   29  O1  UNL     1       2.418  12.554  20.657  1.00  0.00    -0.393 OA
HETATM   30  H8  UNL     1       3.202  12.153  20.225  1.00  0.00     0.210 HD
ENDBRANCH  28  29
BRANCH  28  31
HETATM   31  C5  UNL     1       2.188  10.278  21.386  1.00  0.00     0.180 C 
BRANCH  31  32
HETATM   32  O2  UNL     1       2.908   9.627  20.316  1.00  0.00    -0.390 OA
HETATM   33  H10 UNL     1       3.242   8.778  20.656  1.00  0.00     0.210 HD
ENDBRANCH  31  32
BRANCH  31  34
HETATM   34  C6  UNL     1       3.160  10.701  22.541  1.00  0.00     0.079 C 
HETATM   35  C7  UNL     1       3.144   9.663  23.672  1.00  0.00     0.048 C 
HETATM   36  C8  UNL     1       4.598  10.865  22.037  1.00  0.00     0.048 C 
BRANCH  34  37
HETATM   37  O3  UNL     1       2.791  11.952  23.125  1.00  0.00    -0.388 OA
HETATM   38  H17 UNL     1       2.112  12.366  22.551  1.00  0.00     0.210 HD
ENDBRANCH  34  37
ENDBRANCH  31  34
ENDBRANCH  28  31
ENDBRANCH  27  28
ENDBRANCH  25  27
ENDBRANCH   1  25
BRANCH   8  39
HETATM   39  O4  UNL     1       1.968  10.875  14.045  1.00  0.00    -0.395 OA
HETATM   40  H28 UNL     1       2.680  11.326  14.533  1.00  0.00     0.210 HD
ENDBRANCH   8  39
TORSDOF 9
ENDMDL
MODEL 6
REMARK minimizedAffinity -7.52251291
REMARK CNNscore 0.247283384
REMARK CNNaffinity 5.63285971
REMARK  9 active torsions:
REMARK  status: ('A' for Active; 'I' for Inactive)
REMARK    1  A    between atoms: C2_2  and  C3_3 
REMARK    2  A    between atoms: C2_2  and  C9_12 
REMARK    3  A    between atoms: C3_3  and  C4_4 
REMARK    4  A    between atoms: C4_4  and  O1_5 
REMARK    5  A    between atoms: C4_4  and  C5_6 
REMARK    6  A    between atoms: C5_6  and  O2_7 
REMARK    7  A    between atoms: C5_6  and  C6_8 
REMARK    8  A    between atoms: C6_8  and  O3_11 
REMARK    9  A    between atoms: C16_19  and  O4_20 
ROOT
HETATM    1  C9  UNL     1      -5.751 -10.036   9.256  1.00  0.00     0.097 A 
HETATM    2  C10 UNL     1      -4.852 -10.585  10.340  1.00  0.00     0.042 C 
HETATM    3  C11 UNL     1      -5.824 -11.056  11.439  1.00  0.00     0.016 C 
HETATM    4  C12 UNL     1      -7.032 -10.062  11.402  1.00  0.00    -0.002 C 
HETATM    5  C13 UNL     1      -6.593  -8.811  12.224  1.00  0.00     0.019 C 
HETATM    6  C14 UNL     1      -7.104  -9.699   9.904  1.00  0.00     0.104 A 
HETATM    7  C15 UNL     1      -8.394  -9.718   9.143  1.00  0.00     0.074 C 
HETATM    8  C16 UNL     1      -9.693  -9.560   9.962  1.00  0.00     0.126 C 
HETATM    9  C17 UNL     1      -9.544  -9.647  11.504  1.00  0.00     0.032 C 
HETATM   10  C18 UNL     1     -10.894  -9.728  12.370  1.00  0.00    -0.032 C 
HETATM   11  C19 UNL     1     -11.840  -8.574  11.932  1.00  0.00     0.016 C 
HETATM   12  C20 UNL     1     -11.631 -11.065  12.170  1.00  0.00     0.017 C 
HETATM   13  C21 UNL     1     -12.925 -11.163  12.945  1.00  0.00     0.080 C 
HETATM   14  C22 UNL     1     -12.621 -11.142  14.412  1.00  0.00     0.135 C 
HETATM   15  O5  UNL     1     -13.274 -11.871  15.169  1.00  0.00    -0.297 OA
HETATM   16  C23 UNL     1     -11.617 -10.111  14.963  1.00  0.00     0.017 C 
HETATM   17  C24 UNL     1     -10.944 -10.778  16.186  1.00  0.00     0.023 C 
HETATM   18  C25 UNL     1     -12.489  -8.959  15.522  1.00  0.00     0.023 C 
HETATM   19  C26 UNL     1     -10.571  -9.517  13.912  1.00  0.00     0.009 C 
HETATM   20  C27 UNL     1      -9.072  -9.770  14.222  1.00  0.00     0.007 C 
HETATM   21  C28 UNL     1      -8.458 -10.921  13.436  1.00  0.00     0.011 C 
HETATM   22  C29 UNL     1      -8.424 -10.680  11.901  1.00  0.00    -0.027 C 
HETATM   23  C30 UNL     1      -8.627 -12.076  11.238  1.00  0.00     0.016 C 
HETATM   24  O6  UNL     1      -6.180  -8.682   9.515  1.00  0.00    -0.362 OA
ENDROOT
BRANCH   1  25
HETATM   25  C2  UNL     1      -5.316 -10.188   7.807  1.00  0.00     0.022 C 
HETATM   26  C1  UNL     1      -6.429 -10.527   6.808  1.00  0.00     0.013 C 
BRANCH  25  27
HETATM   27  C3  UNL     1      -4.087 -11.101   7.576  1.00  0.00     0.041 C 
BRANCH  27  28
HETATM   28  C4  UNL     1      -3.203 -10.730   6.377  1.00  0.00     0.150 C 
BRANCH  28  29
HETATM   29  O1  UNL     1      -1.975 -10.187   6.882  1.00  0.00    -0.393 OA
HETATM   30  H8  UNL     1      -2.233  -9.323   7.268  1.00  0.00     0.210 HD
ENDBRANCH  28  29
BRANCH  28  31
HETATM   31  C5  UNL     1      -3.850  -9.639   5.487  1.00  0.00     0.180 C 
BRANCH  31  32
HETATM   32  O2  UNL     1      -3.023  -8.466   5.647  1.00  0.00    -0.390 OA
HETATM   33  H10 UNL     1      -3.486  -7.716   5.231  1.00  0.00     0.210 HD
ENDBRANCH  31  32
BRANCH  31  34
HETATM   34  C6  UNL     1      -3.948 -10.056   3.979  1.00  0.00     0.079 C 
HETATM   35  C7  UNL     1      -2.563 -10.039   3.319  1.00  0.00     0.048 C 
HETATM   36  C8  UNL     1      -4.559 -11.452   3.818  1.00  0.00     0.048 C 
BRANCH  34  37
HETATM   37  O3  UNL     1      -4.774  -9.164   3.225  1.00  0.00    -0.388 OA
HETATM   38  H17 UNL     1      -5.251  -8.585   3.858  1.00  0.00     0.210 HD
ENDBRANCH  34  37
ENDBRANCH  31  34
ENDBRANCH  28  31
ENDBRANCH  27  28
ENDBRANCH  25  27
ENDBRANCH   1  25
BRANCH   8  39
HETATM   39  O4  UNL     1     -10.258  -8.286   9.625  1.00  0.00    -0.395 OA
HETATM   40  H28 UNL     1     -10.425  -8.279   8.666  1.00  0.00     0.210 HD
ENDBRANCH   8  39
TORSDOF 9
ENDMDL
MODEL 7
REMARK minimizedAffinity -9.34072113
REMARK CNNscore 0.227247268
REMARK CNNaffinity 6.5708766
REMARK  9 active torsions:
REMARK  status: ('A' for Active; 'I' for Inactive)
REMARK    1  A    between atoms: C2_2  and  C3_3 
REMARK    2  A    between atoms: C2_2  and  C9_12 
REMARK    3  A    between atoms: C3_3  and  C4_4 
REMARK    4  A    between atoms: C4_4  and  O1_5 
REMARK    5  A    between atoms: C4_4  and  C5_6 
REMARK    6  A    between atoms: C5_6  and  O2_7 
REMARK    7  A    between atoms: C5_6  and  C6_8 
REMARK    8  A    between atoms: C6_8  and  O3_11 
REMARK    9  A    between atoms: C16_19  and  O4_20 
ROOT
HETATM    1  C9  UNL     1       1.138   7.809  13.974  1.00  0.00     0.097 A 
HETATM    2  C10 UNL     1       1.451   7.094  12.680  1.00  0.00     0.042 C 
HETATM    3  C11 UNL     1       0.071   6.708  12.114  1.00  0.00     0.016 C 
HETATM    4  C12 UNL     1      -0.835   6.405  13.353  1.00  0.00    -0.002 C 
HETATM    5  C13 UNL     1      -0.517   4.938  13.778  1.00  0.00     0.019 C 
HETATM    6  C14 UNL     1      -0.274   7.383  14.407  1.00  0.00     0.104 A 
HETATM    7  C15 UNL     1      -1.166   8.258  15.234  1.00  0.00     0.074 C 
HETATM    8  C16 UNL     1      -2.626   7.792  15.420  1.00  0.00     0.126 C 
HETATM    9  C17 UNL     1      -3.084   6.602  14.535  1.00  0.00     0.032 C 
HETATM   10  C18 UNL     1      -4.650   6.248  14.529  1.00  0.00    -0.032 C 
HETATM   11  C19 UNL     1      -5.139   6.113  15.999  1.00  0.00     0.016 C 
HETATM   12  C20 UNL     1      -5.486   7.340  13.836  1.00  0.00     0.017 C 
HETATM   13  C21 UNL     1      -6.971   7.056  13.841  1.00  0.00     0.080 C 
HETATM   14  C22 UNL     1      -7.239   5.830  13.022  1.00  0.00     0.135 C 
HETATM   15  O5  UNL     1      -8.248   5.798  12.306  1.00  0.00    -0.297 OA
HETATM   16  C23 UNL     1      -6.346   4.588  13.203  1.00  0.00     0.017 C 
HETATM   17  C24 UNL     1      -6.312   3.880  11.829  1.00  0.00     0.023 C 
HETATM   18  C25 UNL     1      -7.141   3.656  14.152  1.00  0.00     0.023 C 
HETATM   19  C26 UNL     1      -4.895   4.849  13.817  1.00  0.00     0.009 C 
HETATM   20  C27 UNL     1      -3.693   4.444  12.923  1.00  0.00     0.007 C 
HETATM   21  C28 UNL     1      -3.048   5.607  12.181  1.00  0.00     0.011 C 
HETATM   22  C29 UNL     1      -2.398   6.663  13.119  1.00  0.00    -0.027 C 
HETATM   23  C30 UNL     1      -2.587   8.042  12.416  1.00  0.00     0.016 C 
HETATM   24  O6  UNL     1       0.895   6.903  15.071  1.00  0.00    -0.362 OA
ENDROOT
BRANCH   1  25
HETATM   25  C2  UNL     1       2.048   8.945  14.414  1.00  0.00     0.022 C 
HETATM   26  C1  UNL     1       2.720   9.737  13.286  1.00  0.00     0.013 C 
BRANCH  25  27
HETATM   27  C3  UNL     1       3.083   8.580  15.507  1.00  0.00     0.041 C 
BRANCH  27  28
HETATM   28  C4  UNL     1       4.467   8.159  14.993  1.00  0.00     0.150 C 
BRANCH  28  29
HETATM   29  O1  UNL     1       4.867   6.980  15.708  1.00  0.00    -0.393 OA
HETATM   30  H8  UNL     1       5.034   7.296  16.621  1.00  0.00     0.210 HD
ENDBRANCH  28  29
BRANCH  28  31
HETATM   31  C5  UNL     1       5.545   9.240  15.261  1.00  0.00     0.180 C 
BRANCH  31  32
HETATM   32  O2  UNL     1       5.171   9.861  16.511  1.00  0.00    -0.390 OA
HETATM   33  H10 UNL     1       5.731  10.649  16.631  1.00  0.00     0.210 HD
ENDBRANCH  31  32
BRANCH  31  34
HETATM   34  C6  UNL     1       6.996   8.652  15.339  1.00  0.00     0.079 C 
HETATM   35  C7  UNL     1       7.239   7.651  14.201  1.00  0.00     0.048 C 
HETATM   36  C8  UNL     1       8.057   9.756  15.265  1.00  0.00     0.048 C 
BRANCH  34  37
HETATM   37  O3  UNL     1       7.229   7.949  16.562  1.00  0.00    -0.388 OA
HETATM   38  H17 UNL     1       6.485   8.145  17.170  1.00  0.00     0.210 HD
ENDBRANCH  34  37
ENDBRANCH  31  34
ENDBRANCH  28  31
ENDBRANCH  27  28
ENDBRANCH  25  27
ENDBRANCH   1  25
BRANCH   8  39
HETATM   39  O4  UNL     1      -2.784   7.428  16.799  1.00  0.00    -0.395 OA
HETATM   40  H28 UNL     1      -2.576   8.210  17.339  1.00  0.00     0.210 HD
ENDBRANCH   8  39
TORSDOF 9
ENDMDL
MODEL 8
REMARK minimizedAffinity -7.28577614
REMARK CNNscore 0.209801167
REMARK CNNaffinity 5.94282389
REMARK  9 active torsions:
REMARK  status: ('A' for Active; 'I' for Inactive)
REMARK    1  A    between atoms: C2_2  and  C3_3 
REMARK    2  A    between atoms: C2_2  and  C9_12 
REMARK    3  A    between atoms: C3_3  and  C4_4 
REMARK    4  A    between atoms: C4_4  and  O1_5 
REMARK    5  A    between atoms: C4_4  and  C5_6 
REMARK    6  A    between atoms: C5_6  and  O2_7 
REMARK    7  A    between atoms: C5_6  and  C6_8 
REMARK    8  A    between atoms: C6_8  and  O3_11 
REMARK    9  A    between atoms: C16_19  and  O4_20 
ROOT
HETATM    1  C9  UNL     1      -8.911 -10.134   7.841  1.00  0.00     0.097 A 
HETATM    2  C10 UNL     1     -10.334 -10.311   7.363  1.00  0.00     0.042 C 
HETATM    3  C11 UNL     1     -10.191 -10.876   5.937  1.00  0.00     0.016 C 
HETATM    4  C12 UNL     1      -8.897 -10.225   5.343  1.00  0.00    -0.002 C 
HETATM    5  C13 UNL     1      -9.318  -8.816   4.821  1.00  0.00     0.019 C 
HETATM    6  C14 UNL     1      -8.011 -10.070   6.597  1.00  0.00     0.104 A 
HETATM    7  C15 UNL     1      -6.575 -10.499   6.612  1.00  0.00     0.074 C 
HETATM    8  C16 UNL     1      -5.853 -10.575   5.251  1.00  0.00     0.126 C 
HETATM    9  C17 UNL     1      -6.749 -10.440   3.991  1.00  0.00     0.032 C 
HETATM   10  C18 UNL     1      -6.072 -10.751   2.568  1.00  0.00    -0.032 C 
HETATM   11  C19 UNL     1      -4.757  -9.929   2.449  1.00  0.00     0.016 C 
HETATM   12  C20 UNL     1      -5.730 -12.244   2.405  1.00  0.00     0.017 C 
HETATM   13  C21 UNL     1      -5.059 -12.569   1.090  1.00  0.00     0.080 C 
HETATM   14  C22 UNL     1      -6.019 -12.300  -0.030  1.00  0.00     0.135 C 
HETATM   15  O5  UNL     1      -6.044 -13.074  -0.994  1.00  0.00    -0.297 OA
HETATM   16  C23 UNL     1      -6.836 -10.995  -0.029  1.00  0.00     0.017 C 
HETATM   17  C24 UNL     1      -8.171 -11.324  -0.737  1.00  0.00     0.023 C 
HETATM   18  C25 UNL     1      -6.068 -10.038  -0.975  1.00  0.00     0.023 C 
HETATM   19  C26 UNL     1      -7.030 -10.286   1.389  1.00  0.00     0.009 C 
HETATM   20  C27 UNL     1      -8.494 -10.121   1.875  1.00  0.00     0.007 C 
HETATM   21  C28 UNL     1      -8.938 -11.167   2.889  1.00  0.00     0.011 C 
HETATM   22  C29 UNL     1      -8.155 -11.107   4.231  1.00  0.00    -0.027 C 
HETATM   23  C30 UNL     1      -8.047 -12.578   4.735  1.00  0.00     0.016 C 
HETATM   24  O6  UNL     1      -8.310  -8.909   7.371  1.00  0.00    -0.362 OA
ENDROOT
BRANCH   1  25
HETATM   25  C2  UNL     1      -8.610 -10.343   9.316  1.00  0.00     0.022 C 
HETATM   26  C1  UNL     1      -9.363 -11.494   9.995  1.00  0.00     0.013 C 
BRANCH  25  27
HETATM   27  C3  UNL     1      -8.671  -9.067  10.192  1.00  0.00     0.041 C 
BRANCH  27  28
HETATM   28  C4  UNL     1      -7.760  -9.068  11.427  1.00  0.00     0.150 C 
BRANCH  28  29
HETATM   29  O1  UNL     1      -8.291  -8.126  12.371  1.00  0.00    -0.393 OA
HETATM   30  H8  UNL     1      -8.134  -7.252  11.956  1.00  0.00     0.210 HD
ENDBRANCH  28  29
BRANCH  28  31
HETATM   31  C5  UNL     1      -6.318  -8.610  11.091  1.00  0.00     0.180 C 
BRANCH  31  32
HETATM   32  O2  UNL     1      -5.984  -7.615  12.084  1.00  0.00    -0.390 OA
HETATM   33  H10 UNL     1      -5.151  -7.190  11.811  1.00  0.00     0.210 HD
ENDBRANCH  31  32
BRANCH  31  34
HETATM   34  C6  UNL     1      -5.282  -9.786  11.106  1.00  0.00     0.079 C 
HETATM   35  C7  UNL     1      -5.887 -11.035  11.759  1.00  0.00     0.048 C 
HETATM   36  C8  UNL     1      -4.813 -10.143   9.691  1.00  0.00     0.048 C 
BRANCH  34  37
HETATM   37  O3  UNL     1      -4.106  -9.461  11.851  1.00  0.00    -0.388 OA
HETATM   38  H17 UNL     1      -4.124  -8.498  12.041  1.00  0.00     0.210 HD
ENDBRANCH  34  37
ENDBRANCH  31  34
ENDBRANCH  28  31
ENDBRANCH  27  28
ENDBRANCH  25  27
ENDBRANCH   1  25
BRANCH   8  39
HETATM   39  O4  UNL     1      -4.870  -9.530   5.231  1.00  0.00    -0.395 OA
HETATM   40  H28 UNL     1      -4.263  -9.678   5.978  1.00  0.00     0.210 HD
ENDBRANCH   8  39
TORSDOF 9
ENDMDL
MODEL 9
REMARK minimizedAffinity -7.11363697
REMARK CNNscore 0.205558687
REMARK CNNaffinity 6.91778374
REMARK  9 active torsions:
REMARK  status: ('A' for Active; 'I' for Inactive)
REMARK    1  A    between atoms: C2_2  and  C3_3 
REMARK    2  A    between atoms: C2_2  and  C9_12 
REMARK    3  A    between atoms: C3_3  and  C4_4 
REMARK    4  A    between atoms: C4_4  and  O1_5 
REMARK    5  A    between atoms: C4_4  and  C5_6 
REMARK    6  A    between atoms: C5_6  and  O2_7 
REMARK    7  A    between atoms: C5_6  and  C6_8 
REMARK    8  A    between atoms: C6_8  and  O3_11 
REMARK    9  A    between atoms: C16_19  and  O4_20 
ROOT
HETATM    1  C9  UNL     1      -8.259   5.876  13.924  1.00  0.00     0.097 A 
HETATM    2  C10 UNL     1      -8.043   5.965  15.418  1.00  0.00     0.042 C 
HETATM    3  C11 UNL     1      -9.305   6.677  15.943  1.00  0.00     0.016 C 
HETATM    4  C12 UNL     1      -9.728   7.686  14.825  1.00  0.00    -0.002 C 
HETATM    5  C13 UNL     1      -8.841   8.954  15.023  1.00  0.00     0.019 C 
HETATM    6  C14 UNL     1      -9.295   6.945  13.543  1.00  0.00     0.104 A 
HETATM    7  C15 UNL     1     -10.205   6.806  12.360  1.00  0.00     0.074 C 
HETATM    8  C16 UNL     1     -11.330   7.853  12.216  1.00  0.00     0.126 C 
HETATM    9  C17 UNL     1     -11.557   8.788  13.433  1.00  0.00     0.032 C 
HETATM   10  C18 UNL     1     -12.863   9.720  13.413  1.00  0.00    -0.032 C 
HETATM   11  C19 UNL     1     -12.909  10.489  12.062  1.00  0.00     0.016 C 
HETATM   12  C20 UNL     1     -14.160   8.902  13.552  1.00  0.00     0.017 C 
HETATM   13  C21 UNL     1     -15.414   9.745  13.503  1.00  0.00     0.080 C 
HETATM   14  C22 UNL     1     -15.440  10.655  14.693  1.00  0.00     0.135 C 
HETATM   15  O5  UNL     1     -16.519  10.867  15.260  1.00  0.00    -0.297 OA
HETATM   16  C23 UNL     1     -14.164  11.422  15.087  1.00  0.00     0.017 C 
HETATM   17  C24 UNL     1     -14.224  11.592  16.624  1.00  0.00     0.023 C 
HETATM   18  C25 UNL     1     -14.343  12.839  14.486  1.00  0.00     0.023 C 
HETATM   19  C26 UNL     1     -12.784  10.804  14.573  1.00  0.00     0.009 C 
HETATM   20  C27 UNL     1     -11.768  10.392  15.671  1.00  0.00     0.007 C 
HETATM   21  C28 UNL     1     -11.754   8.901  15.979  1.00  0.00     0.011 C 
HETATM   22  C29 UNL     1     -11.295   8.020  14.783  1.00  0.00    -0.027 C 
HETATM   23  C30 UNL     1     -12.102   6.691  14.889  1.00  0.00     0.016 C 
HETATM   24  O6  UNL     1      -7.910   7.094  13.234  1.00  0.00    -0.362 OA
ENDROOT
BRANCH   1  25
HETATM   25  C2  UNL     1      -7.710   4.668  13.182  1.00  0.00     0.022 C 
HETATM   26  C1  UNL     1      -7.566   3.385  14.011  1.00  0.00     0.013 C 
BRANCH  25  27
HETATM   27  C3  UNL     1      -6.424   4.924  12.358  1.00  0.00     0.041 C 
BRANCH  27  28
HETATM   28  C4  UNL     1      -5.118   4.440  13.002  1.00  0.00     0.150 C 
BRANCH  28  29
HETATM   29  O1  UNL     1      -4.763   5.367  14.038  1.00  0.00    -0.393 OA
HETATM   30  H8  UNL     1      -4.507   6.182  13.557  1.00  0.00     0.210 HD
ENDBRANCH  28  29
BRANCH  28  31
HETATM   31  C5  UNL     1      -3.941   4.414  11.993  1.00  0.00     0.180 C 
BRANCH  31  32
HETATM   32  O2  UNL     1      -2.740   4.459  12.795  1.00  0.00    -0.390 OA
HETATM   33  H10 UNL     1      -1.987   4.607  12.194  1.00  0.00     0.210 HD
ENDBRANCH  31  32
BRANCH  31  34
HETATM   34  C6  UNL     1      -3.953   3.148  11.069  1.00  0.00     0.079 C 
HETATM   35  C7  UNL     1      -3.526   1.900  11.853  1.00  0.00     0.048 C 
HETATM   36  C8  UNL     1      -5.339   2.905  10.463  1.00  0.00     0.048 C 
BRANCH  34  37
HETATM   37  O3  UNL     1      -3.047   3.273   9.970  1.00  0.00    -0.388 OA
HETATM   38  H17 UNL     1      -2.746   4.206   9.931  1.00  0.00     0.210 HD
ENDBRANCH  34  37
ENDBRANCH  31  34
ENDBRANCH  28  31
ENDBRANCH  27  28
ENDBRANCH  25  27
ENDBRANCH   1  25
BRANCH   8  39
HETATM   39  O4  UNL     1     -11.020   8.657  11.069  1.00  0.00    -0.395 OA
HETATM   40  H28 UNL     1     -10.965   8.067  10.297  1.00  0.00     0.210 HD
ENDBRANCH   8  39
TORSDOF 9
ENDMDL
