MODEL 1
REMARK minimizedAffinity -9.66733074
REMARK CNNscore 0.292251796
REMARK CNNaffinity 7.37021208
REMARK  13 active torsions:
REMARK  status: ('A' for Active; 'I' for Inactive)
REMARK    1  A    between atoms: O1_2  and  C2_3 
REMARK    2  A    between atoms: C2_3  and  C3_5 
REMARK    3  A    between atoms: C3_5  and  C4_6 
REMARK    4  A    between atoms: C3_5  and  N2_16 
REMARK    5  A    between atoms: C4_6  and  C5_7 
REMARK       I    between atoms: N2_16  and  C13_17 
REMARK    6  A    between atoms: C13_17  and  C14_19 
REMARK    7  A    between atoms: C14_19  and  C15_20 
REMARK    8  A    between atoms: C15_20  and  C16_21 
REMARK    9  A    between atoms: C16_21  and  O5_23 
REMARK   10  A    between atoms: O5_23  and  C17_24 
REMARK   11  A    between atoms: C17_24  and  C18_25 
REMARK   12  A    between atoms: C18_25  and  C19_27 
REMARK   13  A    between atoms: C19_27  and  O7_28 
ROOT
HETATM    1  O5  UNL     1      -1.796  10.252  15.628  1.00  0.00    -0.314 OA
ENDROOT
BRANCH   1   2
HETATM    2  C16 UNL     1      -3.091  10.678  15.655  1.00  0.00     0.259 C 
HETATM    3  O4  UNL     1      -3.475  11.769  15.267  1.00  0.00    -0.265 OA
BRANCH   2   4
HETATM    4  C15 UNL     1      -3.979   9.624  16.263  1.00  0.00     0.120 C 
BRANCH   4   5
HETATM    5  C14 UNL     1      -5.360   9.625  15.623  1.00  0.00     0.112 C 
BRANCH   5   6
HETATM    6  C13 UNL     1      -5.581   8.343  14.847  1.00  0.00     0.218 C 
HETATM    7  N2  UNL     1      -6.051   7.297  15.606  1.00  0.00    -0.347 N 
HETATM    8  H13 UNL     1      -5.867   7.328  16.601  1.00  0.00     0.163 HD
HETATM    9  O3  UNL     1      -5.363   8.261  13.643  1.00  0.00    -0.274 OA
BRANCH   7  10
HETATM   10  C3  UNL     1      -6.136   5.956  15.012  1.00  0.00     0.188 C 
BRANCH  10  11
HETATM   11  C2  UNL     1      -7.577   5.467  15.161  1.00  0.00     0.281 C 
HETATM   12  O2  UNL     1      -8.233   5.561  16.195  1.00  0.00    -0.263 OA
BRANCH  11  13
HETATM   13  O1  UNL     1      -8.040   4.969  13.981  1.00  0.00    -0.325 OA
HETATM   14  C1  UNL     1      -8.432   5.965  13.037  1.00  0.00     0.213 C 
ENDBRANCH  11  13
ENDBRANCH  10  11
BRANCH  10  15
HETATM   15  C4  UNL     1      -5.798   5.958  13.516  1.00  0.00     0.076 C 
BRANCH  15  16
HETATM   16  C5  UNL     1      -4.824   4.891  13.119  1.00  0.00    -0.028 A 
HETATM   17  C6  UNL     1      -3.455   4.918  13.321  1.00  0.00     0.096 A 
HETATM   18  N1  UNL     1      -2.924   3.764  12.812  1.00  0.00    -0.365 N 
HETATM   19  C7  UNL     1      -3.916   2.977  12.275  1.00  0.00     0.042 A 
HETATM   20  H8  UNL     1      -1.944   3.520  12.821  1.00  0.00     0.165 HD
HETATM   21  C8  UNL     1      -3.834   1.724  11.656  1.00  0.00     0.030 A 
HETATM   22  C12 UNL     1      -5.121   3.659  12.448  1.00  0.00    -0.002 A 
HETATM   23  C9  UNL     1      -5.023   1.148  11.200  1.00  0.00     0.002 A 
HETATM   24  C10 UNL     1      -6.241   1.804  11.354  1.00  0.00     0.001 A 
HETATM   25  C11 UNL     1      -6.305   3.059  11.972  1.00  0.00     0.014 A 
ENDBRANCH  15  16
ENDBRANCH  10  15
ENDBRANCH   7  10
ENDBRANCH   5   6
ENDBRANCH   4   5
ENDBRANCH   2   4
ENDBRANCH   1   2
BRANCH   1  26
HETATM   26  C17 UNL     1      -1.574   9.057  16.377  1.00  0.00     0.260 C 
BRANCH  26  27
HETATM   27  C18 UNL     1      -0.403   8.311  15.758  1.00  0.00     0.185 C 
HETATM   28  O6  UNL     1       0.630   8.115  16.406  1.00  0.00    -0.292 OA
BRANCH  27  29
HETATM   29  C19 UNL     1      -0.569   7.810  14.302  1.00  0.00     0.128 C 
HETATM   30  C20 UNL     1      -1.682   8.579  13.531  1.00  0.00     0.047 C 
HETATM   31  C21 UNL     1      -1.191   8.734  12.079  1.00  0.00     0.009 C 
HETATM   32  C22 UNL     1       0.058   7.865  12.005  1.00  0.00     0.002 C 
HETATM   33  C23 UNL     1       1.048   8.104  10.857  1.00  0.00    -0.004 C 
HETATM   34  C36 UNL     1       0.694   8.029  13.409  1.00  0.00    -0.002 C 
HETATM   35  C24 UNL     1       0.354   8.017   9.483  1.00  0.00     0.010 C 
HETATM   36  C33 UNL     1       2.219   7.066  10.981  1.00  0.00     0.002 C 
HETATM   37  C25 UNL     1       1.341   8.092   8.316  1.00  0.00     0.035 C 
HETATM   38  C26 UNL     1       2.420   7.057   8.518  1.00  0.00    -0.068 C 
HETATM   39  C27 UNL     1       2.509   6.008   7.683  1.00  0.00     0.053 C 
HETATM   40  C31 UNL     1       3.246   7.210   9.802  1.00  0.00    -0.016 C 
HETATM   41  C28 UNL     1       3.347   4.830   8.014  1.00  0.00     0.149 C 
HETATM   42  O8  UNL     1       3.453   3.913   7.202  1.00  0.00    -0.293 OA
HETATM   43  C29 UNL     1       3.943   4.762   9.396  1.00  0.00     0.084 C 
HETATM   44  C30 UNL     1       4.384   6.148   9.831  1.00  0.00     0.022 C 
HETATM   45  C32 UNL     1       3.968   8.581   9.827  1.00  0.00     0.020 C 
HETATM   46  C34 UNL     1       2.851   7.098  12.393  1.00  0.00     0.007 C 
HETATM   47  C35 UNL     1       1.814   6.980  13.527  1.00  0.00     0.013 C 
HETATM   48  C37 UNL     1       1.290   9.442  13.651  1.00  0.00     0.019 C 
BRANCH  29  49
HETATM   49  O7  UNL     1      -0.927   6.425  14.296  1.00  0.00    -0.381 OA
HETATM   50  H20 UNL     1      -1.807   6.342  14.710  1.00  0.00     0.211 HD
ENDBRANCH  29  49
ENDBRANCH  27  29
ENDBRANCH  26  27
ENDBRANCH   1  26
TORSDOF 13
ENDMDL
MODEL 2
REMARK minimizedAffinity -8.96716404
REMARK CNNscore 0.2915681
REMARK CNNaffinity 6.60147429
REMARK  13 active torsions:
REMARK  status: ('A' for Active; 'I' for Inactive)
REMARK    1  A    between atoms: O1_2  and  C2_3 
REMARK    2  A    between atoms: C2_3  and  C3_5 
REMARK    3  A    between atoms: C3_5  and  C4_6 
REMARK    4  A    between atoms: C3_5  and  N2_16 
REMARK    5  A    between atoms: C4_6  and  C5_7 
REMARK       I    between atoms: N2_16  and  C13_17 
REMARK    6  A    between atoms: C13_17  and  C14_19 
REMARK    7  A    between atoms: C14_19  and  C15_20 
REMARK    8  A    between atoms: C15_20  and  C16_21 
REMARK    9  A    between atoms: C16_21  and  O5_23 
REMARK   10  A    between atoms: O5_23  and  C17_24 
REMARK   11  A    between atoms: C17_24  and  C18_25 
REMARK   12  A    between atoms: C18_25  and  C19_27 
REMARK   13  A    between atoms: C19_27  and  O7_28 
ROOT
HETATM    1  O5  UNL     1       3.217   7.531  10.767  1.00  0.00    -0.314 OA
ENDROOT
BRANCH   1   2
HETATM    2  C16 UNL     1       2.244   6.673  10.347  1.00  0.00     0.259 C 
HETATM    3  O4  UNL     1       2.437   5.530   9.968  1.00  0.00    -0.265 OA
BRANCH   2   4
HETATM    4  C15 UNL     1       0.897   7.346  10.384  1.00  0.00     0.120 C 
BRANCH   4   5
HETATM    5  C14 UNL     1       0.350   7.414  11.803  1.00  0.00     0.112 C 
BRANCH   5   6
HETATM    6  C13 UNL     1      -0.479   6.185  12.108  1.00  0.00     0.218 C 
HETATM    7  N2  UNL     1      -0.752   5.401  11.010  1.00  0.00    -0.347 N 
HETATM    8  H13 UNL     1      -0.722   5.849  10.103  1.00  0.00     0.163 HD
HETATM    9  O3  UNL     1      -0.862   5.917  13.241  1.00  0.00    -0.274 OA
BRANCH   7  10
HETATM   10  C3  UNL     1      -1.694   4.281  11.141  1.00  0.00     0.188 C 
BRANCH  10  11
HETATM   11  C2  UNL     1      -0.878   2.995  11.268  1.00  0.00     0.281 C 
HETATM   12  O2  UNL     1      -0.030   2.799  12.134  1.00  0.00    -0.263 OA
BRANCH  11  13
HETATM   13  O1  UNL     1      -1.262   2.087  10.328  1.00  0.00    -0.325 OA
HETATM   14  C1  UNL     1      -0.849   0.748  10.603  1.00  0.00     0.213 C 
ENDBRANCH  11  13
ENDBRANCH  10  11
BRANCH  10  15
HETATM   15  C4  UNL     1      -2.573   4.400  12.391  1.00  0.00     0.076 C 
BRANCH  15  16
HETATM   16  C5  UNL     1      -3.976   3.913  12.188  1.00  0.00    -0.028 A 
HETATM   17  C6  UNL     1      -4.366   2.859  11.381  1.00  0.00     0.096 A 
HETATM   18  N1  UNL     1      -5.727   2.738  11.462  1.00  0.00    -0.365 N 
HETATM   19  C7  UNL     1      -6.243   3.695  12.304  1.00  0.00     0.042 A 
HETATM   20  H8  UNL     1      -6.281   2.050  10.972  1.00  0.00     0.165 HD
HETATM   21  C8  UNL     1      -7.568   3.942  12.681  1.00  0.00     0.030 A 
HETATM   22  C12 UNL     1      -5.169   4.453  12.773  1.00  0.00    -0.002 A 
HETATM   23  C9  UNL     1      -7.804   4.996  13.567  1.00  0.00     0.002 A 
HETATM   24  C10 UNL     1      -6.755   5.774  14.050  1.00  0.00     0.001 A 
HETATM   25  C11 UNL     1      -5.436   5.516  13.660  1.00  0.00     0.014 A 
ENDBRANCH  15  16
ENDBRANCH  10  15
ENDBRANCH   7  10
ENDBRANCH   5   6
ENDBRANCH   4   5
ENDBRANCH   2   4
ENDBRANCH   1   2
BRANCH   1  26
HETATM   26  C17 UNL     1       4.129   6.947  11.697  1.00  0.00     0.260 C 
BRANCH  26  27
HETATM   27  C18 UNL     1       4.134   7.790  12.962  1.00  0.00     0.185 C 
HETATM   28  O6  UNL     1       3.144   8.461  13.272  1.00  0.00    -0.292 OA
BRANCH  27  29
HETATM   29  C19 UNL     1       5.415   7.762  13.831  1.00  0.00     0.128 C 
HETATM   30  C20 UNL     1       6.646   7.203  13.058  1.00  0.00     0.047 C 
HETATM   31  C21 UNL     1       7.869   8.012  13.529  1.00  0.00     0.009 C 
HETATM   32  C22 UNL     1       7.354   8.835  14.703  1.00  0.00     0.002 C 
HETATM   33  C23 UNL     1       8.163  10.061  15.147  1.00  0.00    -0.004 C 
HETATM   34  C36 UNL     1       5.899   9.174  14.292  1.00  0.00    -0.002 C 
HETATM   35  C24 UNL     1       9.626   9.691  15.463  1.00  0.00     0.010 C 
HETATM   36  C33 UNL     1       7.450  10.708  16.387  1.00  0.00     0.002 C 
HETATM   37  C25 UNL     1      10.415  10.858  16.060  1.00  0.00     0.035 C 
HETATM   38  C26 UNL     1       9.659  11.407  17.244  1.00  0.00    -0.068 C 
HETATM   39  C27 UNL     1      10.164  11.275  18.483  1.00  0.00     0.053 C 
HETATM   40  C31 UNL     1       8.254  11.939  16.939  1.00  0.00    -0.016 C 
HETATM   41  C28 UNL     1       9.330  11.525  19.684  1.00  0.00     0.149 C 
HETATM   42  O8  UNL     1       9.838  11.452  20.802  1.00  0.00    -0.293 OA
HETATM   43  C29 UNL     1       7.854  11.747  19.478  1.00  0.00     0.084 C 
HETATM   44  C30 UNL     1       7.632  12.568  18.220  1.00  0.00     0.022 C 
HETATM   45  C32 UNL     1       8.319  13.096  15.909  1.00  0.00     0.020 C 
HETATM   46  C34 UNL     1       5.957  10.994  16.092  1.00  0.00     0.007 C 
HETATM   47  C35 UNL     1       5.205   9.772  15.529  1.00  0.00     0.013 C 
HETATM   48  C37 UNL     1       5.813  10.186  13.118  1.00  0.00     0.019 C 
BRANCH  29  49
HETATM   49  O7  UNL     1       5.215   6.925  14.974  1.00  0.00    -0.381 OA
HETATM   50  H20 UNL     1       5.086   6.012  14.657  1.00  0.00     0.211 HD
ENDBRANCH  29  49
ENDBRANCH  27  29
ENDBRANCH  26  27
ENDBRANCH   1  26
TORSDOF 13
ENDMDL
MODEL 3
REMARK minimizedAffinity -8.22817039
REMARK CNNscore 0.243968412
REMARK CNNaffinity 6.22917938
REMARK  13 active torsions:
REMARK  status: ('A' for Active; 'I' for Inactive)
REMARK    1  A    between atoms: O1_2  and  C2_3 
REMARK    2  A    between atoms: C2_3  and  C3_5 
REMARK    3  A    between atoms: C3_5  and  C4_6 
REMARK    4  A    between atoms: C3_5  and  N2_16 
REMARK    5  A    between atoms: C4_6  and  C5_7 
REMARK       I    between atoms: N2_16  and  C13_17 
REMARK    6  A    between atoms: C13_17  and  C14_19 
REMARK    7  A    between atoms: C14_19  and  C15_20 
REMARK    8  A    between atoms: C15_20  and  C16_21 
REMARK    9  A    between atoms: C16_21  and  O5_23 
REMARK   10  A    between atoms: O5_23  and  C17_24 
REMARK   11  A    between atoms: C17_24  and  C18_25 
REMARK   12  A    between atoms: C18_25  and  C19_27 
REMARK   13  A    between atoms: C19_27  and  O7_28 
ROOT
HETATM    1  O5  UNL     1     -16.235   7.194  13.316  1.00  0.00    -0.314 OA
ENDROOT
BRANCH   1   2
HETATM    2  C16 UNL     1     -15.159   7.247  14.151  1.00  0.00     0.259 C 
HETATM    3  O4  UNL     1     -15.219   7.430  15.356  1.00  0.00    -0.265 OA
BRANCH   2   4
HETATM    4  C15 UNL     1     -13.880   7.082  13.373  1.00  0.00     0.120 C 
BRANCH   4   5
HETATM    5  C14 UNL     1     -12.861   6.259  14.148  1.00  0.00     0.112 C 
BRANCH   5   6
HETATM    6  C13 UNL     1     -11.474   6.842  13.977  1.00  0.00     0.218 C 
HETATM    7  N2  UNL     1     -10.589   6.496  14.973  1.00  0.00    -0.347 N 
HETATM    8  H13 UNL     1     -10.980   6.227  15.866  1.00  0.00     0.163 HD
HETATM    9  O3  UNL     1     -11.176   7.553  13.024  1.00  0.00    -0.274 OA
BRANCH   7  10
HETATM   10  C3  UNL     1      -9.269   7.139  15.018  1.00  0.00     0.188 C 
BRANCH  10  11
HETATM   11  C2  UNL     1      -9.393   8.404  15.869  1.00  0.00     0.281 C 
HETATM   12  O2  UNL     1      -9.774   8.415  17.036  1.00  0.00    -0.263 OA
BRANCH  11  13
HETATM   13  O1  UNL     1      -8.973   9.496  15.170  1.00  0.00    -0.325 OA
HETATM   14  C1  UNL     1     -10.014  10.414  14.835  1.00  0.00     0.213 C 
ENDBRANCH  11  13
ENDBRANCH  10  11
BRANCH  10  15
HETATM   15  C4  UNL     1      -8.206   6.245  15.667  1.00  0.00     0.076 C 
BRANCH  15  16
HETATM   16  C5  UNL     1      -7.082   5.882  14.744  1.00  0.00    -0.028 A 
HETATM   17  C6  UNL     1      -5.923   6.609  14.542  1.00  0.00     0.096 A 
HETATM   18  N1  UNL     1      -5.157   5.947  13.621  1.00  0.00    -0.365 N 
HETATM   19  C7  UNL     1      -5.791   4.799  13.208  1.00  0.00     0.042 A 
HETATM   20  H8  UNL     1      -4.256   6.255  13.283  1.00  0.00     0.165 HD
HETATM   21  C8  UNL     1      -5.380   3.825  12.290  1.00  0.00     0.030 A 
HETATM   22  C12 UNL     1      -7.005   4.731  13.892  1.00  0.00    -0.002 A 
HETATM   23  C9  UNL     1      -6.239   2.745  12.064  1.00  0.00     0.002 A 
HETATM   24  C10 UNL     1      -7.459   2.650  12.726  1.00  0.00     0.001 A 
HETATM   25  C11 UNL     1      -7.856   3.635  13.639  1.00  0.00     0.014 A 
ENDBRANCH  15  16
ENDBRANCH  10  15
ENDBRANCH   7  10
ENDBRANCH   5   6
ENDBRANCH   4   5
ENDBRANCH   2   4
ENDBRANCH   1   2
BRANCH   1  26
HETATM   26  C17 UNL     1     -16.568   5.870  12.898  1.00  0.00     0.260 C 
BRANCH  26  27
HETATM   27  C18 UNL     1     -17.580   5.297  13.876  1.00  0.00     0.185 C 
HETATM   28  O6  UNL     1     -18.746   5.706  13.886  1.00  0.00    -0.292 OA
BRANCH  27  29
HETATM   29  C19 UNL     1     -17.090   4.186  14.838  1.00  0.00     0.128 C 
HETATM   30  C20 UNL     1     -17.690   4.331  16.268  1.00  0.00     0.047 C 
HETATM   31  C21 UNL     1     -17.951   2.903  16.785  1.00  0.00     0.009 C 
HETATM   32  C22 UNL     1     -17.292   1.997  15.753  1.00  0.00     0.002 C 
HETATM   33  C23 UNL     1     -17.708   0.521  15.705  1.00  0.00    -0.004 C 
HETATM   34  C36 UNL     1     -17.524   2.746  14.417  1.00  0.00    -0.002 C 
HETATM   35  C24 UNL     1     -17.541  -0.161  17.078  1.00  0.00     0.010 C 
HETATM   36  C33 UNL     1     -16.866  -0.201  14.594  1.00  0.00     0.002 C 
HETATM   37  C25 UNL     1     -17.796  -1.669  17.024  1.00  0.00     0.035 C 
HETATM   38  C26 UNL     1     -16.941  -2.273  15.938  1.00  0.00    -0.068 C 
HETATM   39  C27 UNL     1     -15.936  -3.106  16.260  1.00  0.00     0.053 C 
HETATM   40  C31 UNL     1     -17.194  -1.735  14.524  1.00  0.00    -0.016 C 
HETATM   41  C28 UNL     1     -14.898  -3.480  15.268  1.00  0.00     0.149 C 
HETATM   42  O8  UNL     1     -14.026  -4.289  15.577  1.00  0.00    -0.293 OA
HETATM   43  C29 UNL     1     -14.896  -2.750  13.949  1.00  0.00     0.084 C 
HETATM   44  C30 UNL     1     -16.325  -2.514  13.494  1.00  0.00     0.022 C 
HETATM   45  C32 UNL     1     -18.661  -1.993  14.096  1.00  0.00     0.020 C 
HETATM   46  C34 UNL     1     -16.967   0.542  13.240  1.00  0.00     0.007 C 
HETATM   47  C35 UNL     1     -16.663   2.049  13.349  1.00  0.00     0.013 C 
HETATM   48  C37 UNL     1     -19.008   2.739  13.961  1.00  0.00     0.019 C 
BRANCH  29  49
HETATM   49  O7  UNL     1     -15.667   4.241  14.967  1.00  0.00    -0.381 OA
HETATM   50  H20 UNL     1     -15.437   5.087  15.394  1.00  0.00     0.211 HD
ENDBRANCH  29  49
ENDBRANCH  27  29
ENDBRANCH  26  27
ENDBRANCH   1  26
TORSDOF 13
ENDMDL
MODEL 4
REMARK minimizedAffinity -9.3689661
REMARK CNNscore 0.226154849
REMARK CNNaffinity 7.52589941
REMARK  13 active torsions:
REMARK  status: ('A' for Active; 'I' for Inactive)
REMARK    1  A    between atoms: O1_2  and  C2_3 
REMARK    2  A    between atoms: C2_3  and  C3_5 
REMARK    3  A    between atoms: C3_5  and  C4_6 
REMARK    4  A    between atoms: C3_5  and  N2_16 
REMARK    5  A    between atoms: C4_6  and  C5_7 
REMARK       I    between atoms: N2_16  and  C13_17 
REMARK    6  A    between atoms: C13_17  and  C14_19 
REMARK    7  A    between atoms: C14_19  and  C15_20 
REMARK    8  A    between atoms: C15_20  and  C16_21 
REMARK    9  A    between atoms: C16_21  and  O5_23 
REMARK   10  A    between atoms: O5_23  and  C17_24 
REMARK   11  A    between atoms: C17_24  and  C18_25 
REMARK   12  A    between atoms: C18_25  and  C19_27 
REMARK   13  A    between atoms: C19_27  and  O7_28 
ROOT
HETATM    1  O5  UNL     1      -4.844   3.347  12.508  1.00  0.00    -0.314 OA
ENDROOT
BRANCH   1   2
HETATM    2  C16 UNL     1      -4.665   3.292  11.158  1.00  0.00     0.259 C 
HETATM    3  O4  UNL     1      -5.513   2.941  10.355  1.00  0.00    -0.265 OA
BRANCH   2   4
HETATM    4  C15 UNL     1      -3.259   3.695  10.796  1.00  0.00     0.120 C 
BRANCH   4   5
HETATM    5  C14 UNL     1      -2.250   3.149  11.798  1.00  0.00     0.112 C 
BRANCH   5   6
HETATM    6  C13 UNL     1      -1.311   4.247  12.250  1.00  0.00     0.218 C 
HETATM    7  N2  UNL     1      -1.943   5.386  12.692  1.00  0.00    -0.347 N 
HETATM    8  H13 UNL     1      -2.883   5.553  12.357  1.00  0.00     0.163 HD
HETATM    9  O3  UNL     1      -0.092   4.116  12.227  1.00  0.00    -0.274 OA
BRANCH   7  10
HETATM   10  C3  UNL     1      -1.146   6.584  12.988  1.00  0.00     0.188 C 
BRANCH  10  11
HETATM   11  C2  UNL     1      -0.890   6.617  14.495  1.00  0.00     0.281 C 
HETATM   12  O2  UNL     1       0.218   6.766  15.003  1.00  0.00    -0.263 OA
BRANCH  11  13
HETATM   13  O1  UNL     1      -2.060   6.513  15.184  1.00  0.00    -0.325 OA
HETATM   14  C1  UNL     1      -2.463   7.715  15.841  1.00  0.00     0.213 C 
ENDBRANCH  11  13
ENDBRANCH  10  11
BRANCH  10  15
HETATM   15  C4  UNL     1       0.216   6.568  12.284  1.00  0.00     0.076 C 
BRANCH  15  16
HETATM   16  C5  UNL     1       0.232   7.320  10.988  1.00  0.00    -0.028 A 
HETATM   17  C6  UNL     1      -0.560   8.407  10.664  1.00  0.00     0.096 A 
HETATM   18  N1  UNL     1      -0.249   8.800   9.391  1.00  0.00    -0.365 N 
HETATM   19  C7  UNL     1       0.732   7.990   8.867  1.00  0.00     0.042 A 
HETATM   20  H8  UNL     1      -0.677   9.570   8.898  1.00  0.00     0.165 HD
HETATM   21  C8  UNL     1       1.351   8.025   7.612  1.00  0.00     0.030 A 
HETATM   22  C12 UNL     1       1.052   7.047   9.844  1.00  0.00    -0.002 A 
HETATM   23  C9  UNL     1       2.332   7.066   7.347  1.00  0.00     0.002 A 
HETATM   24  C10 UNL     1       2.673   6.108   8.299  1.00  0.00     0.001 A 
HETATM   25  C11 UNL     1       2.040   6.085   9.548  1.00  0.00     0.014 A 
ENDBRANCH  15  16
ENDBRANCH  10  15
ENDBRANCH   7  10
ENDBRANCH   5   6
ENDBRANCH   4   5
ENDBRANCH   2   4
ENDBRANCH   1   2
BRANCH   1  26
HETATM   26  C17 UNL     1      -6.095   3.916  12.894  1.00  0.00     0.260 C 
BRANCH  26  27
HETATM   27  C18 UNL     1      -5.835   4.981  13.947  1.00  0.00     0.185 C 
HETATM   28  O6  UNL     1      -4.734   5.536  14.021  1.00  0.00    -0.292 OA
BRANCH  27  29
HETATM   29  C19 UNL     1      -7.001   5.337  14.902  1.00  0.00     0.128 C 
HETATM   30  C20 UNL     1      -6.509   6.004  16.219  1.00  0.00     0.047 C 
HETATM   31  C21 UNL     1      -7.554   7.073  16.592  1.00  0.00     0.009 C 
HETATM   32  C22 UNL     1      -8.707   6.833  15.626  1.00  0.00     0.002 C 
HETATM   33  C23 UNL     1      -9.729   7.958  15.413  1.00  0.00    -0.004 C 
HETATM   34  C36 UNL     1      -7.996   6.392  14.322  1.00  0.00    -0.002 C 
HETATM   35  C24 UNL     1     -10.347   8.423  16.747  1.00  0.00     0.010 C 
HETATM   36  C33 UNL     1     -10.827   7.453  14.411  1.00  0.00     0.002 C 
HETATM   37  C25 UNL     1     -11.482   9.430  16.553  1.00  0.00     0.035 C 
HETATM   38  C26 UNL     1     -12.487   8.856  15.586  1.00  0.00    -0.068 C 
HETATM   39  C27 UNL     1     -13.719   8.527  16.013  1.00  0.00     0.053 C 
HETATM   40  C31 UNL     1     -11.946   8.532  14.188  1.00  0.00    -0.016 C 
HETATM   41  C28 UNL     1     -14.625   7.695  15.184  1.00  0.00     0.149 C 
HETATM   42  O8  UNL     1     -15.765   7.461  15.579  1.00  0.00    -0.293 OA
HETATM   43  C29 UNL     1     -14.056   7.074  13.934  1.00  0.00     0.084 C 
HETATM   44  C30 UNL     1     -13.104   8.050  13.266  1.00  0.00     0.022 C 
HETATM   45  C32 UNL     1     -11.390   9.809  13.508  1.00  0.00     0.020 C 
HETATM   46  C34 UNL     1     -10.193   6.904  13.111  1.00  0.00     0.007 C 
HETATM   47  C35 UNL     1      -9.083   5.866  13.367  1.00  0.00     0.013 C 
HETATM   48  C37 UNL     1      -7.220   7.543  13.627  1.00  0.00     0.019 C 
BRANCH  29  49
HETATM   49  O7  UNL     1      -7.716   4.153  15.267  1.00  0.00    -0.381 OA
HETATM   50  H20 UNL     1      -7.112   3.585  15.781  1.00  0.00     0.211 HD
ENDBRANCH  29  49
ENDBRANCH  27  29
ENDBRANCH  26  27
ENDBRANCH   1  26
TORSDOF 13
ENDMDL
MODEL 5
REMARK minimizedAffinity -9.57963943
REMARK CNNscore 0.222610474
REMARK CNNaffinity 7.11677742
REMARK  13 active torsions:
REMARK  status: ('A' for Active; 'I' for Inactive)
REMARK    1  A    between atoms: O1_2  and  C2_3 
REMARK    2  A    between atoms: C2_3  and  C3_5 
REMARK    3  A    between atoms: C3_5  and  C4_6 
REMARK    4  A    between atoms: C3_5  and  N2_16 
REMARK    5  A    between atoms: C4_6  and  C5_7 
REMARK       I    between atoms: N2_16  and  C13_17 
REMARK    6  A    between atoms: C13_17  and  C14_19 
REMARK    7  A    between atoms: C14_19  and  C15_20 
REMARK    8  A    between atoms: C15_20  and  C16_21 
REMARK    9  A    between atoms: C16_21  and  O5_23 
REMARK   10  A    between atoms: O5_23  and  C17_24 
REMARK   11  A    between atoms: C17_24  and  C18_25 
REMARK   12  A    between atoms: C18_25  and  C19_27 
REMARK   13  A    between atoms: C19_27  and  O7_28 
ROOT
HETATM    1  O5  UNL     1      -2.875   7.651  15.801  1.00  0.00    -0.314 OA
ENDROOT
BRANCH   1   2
HETATM    2  C16 UNL     1      -3.683   8.735  15.977  1.00  0.00     0.259 C 
HETATM    3  O4  UNL     1      -3.470   9.643  16.764  1.00  0.00    -0.265 OA
BRANCH   2   4
HETATM    4  C15 UNL     1      -4.894   8.639  15.088  1.00  0.00     0.120 C 
BRANCH   4   5
HETATM    5  C14 UNL     1      -6.181   8.647  15.900  1.00  0.00     0.112 C 
BRANCH   5   6
HETATM    6  C13 UNL     1      -7.003   7.411  15.599  1.00  0.00     0.218 C 
HETATM    7  N2  UNL     1      -7.954   7.589  14.621  1.00  0.00    -0.347 N 
HETATM    8  H13 UNL     1      -8.279   8.534  14.458  1.00  0.00     0.163 HD
HETATM    9  O3  UNL     1      -6.820   6.347  16.179  1.00  0.00    -0.274 OA
BRANCH   7  10
HETATM   10  C3  UNL     1      -8.932   6.523  14.365  1.00  0.00     0.188 C 
BRANCH  10  11
HETATM   11  C2  UNL     1     -10.330   7.125  14.507  1.00  0.00     0.281 C 
HETATM   12  O2  UNL     1     -10.684   7.833  15.445  1.00  0.00    -0.263 OA
BRANCH  11  13
HETATM   13  O1  UNL     1     -11.100   6.812  13.428  1.00  0.00    -0.325 OA
HETATM   14  C1  UNL     1     -11.830   7.914  12.888  1.00  0.00     0.213 C 
ENDBRANCH  11  13
ENDBRANCH  10  11
BRANCH  10  15
HETATM   15  C4  UNL     1      -8.813   5.951  12.948  1.00  0.00     0.076 C 
BRANCH  15  16
HETATM   16  C5  UNL     1      -7.870   4.790  12.845  1.00  0.00    -0.028 A 
HETATM   17  C6  UNL     1      -8.223   3.455  12.767  1.00  0.00     0.096 A 
HETATM   18  N1  UNL     1      -7.076   2.712  12.693  1.00  0.00    -0.365 N 
HETATM   19  C7  UNL     1      -5.973   3.532  12.725  1.00  0.00     0.042 A 
HETATM   20  H8  UNL     1      -7.037   1.705  12.630  1.00  0.00     0.165 HD
HETATM   21  C8  UNL     1      -4.611   3.210  12.672  1.00  0.00     0.030 A 
HETATM   22  C12 UNL     1      -6.438   4.844  12.825  1.00  0.00    -0.002 A 
HETATM   23  C9  UNL     1      -3.694   4.264  12.721  1.00  0.00     0.002 A 
HETATM   24  C10 UNL     1      -4.125   5.583  12.825  1.00  0.00     0.001 A 
HETATM   25  C11 UNL     1      -5.491   5.887  12.880  1.00  0.00     0.014 A 
ENDBRANCH  15  16
ENDBRANCH  10  15
ENDBRANCH   7  10
ENDBRANCH   5   6
ENDBRANCH   4   5
ENDBRANCH   2   4
ENDBRANCH   1   2
BRANCH   1  26
HETATM   26  C17 UNL     1      -1.557   7.832  16.318  1.00  0.00     0.260 C 
BRANCH  26  27
HETATM   27  C18 UNL     1      -0.735   8.587  15.286  1.00  0.00     0.185 C 
HETATM   28  O6  UNL     1      -0.037   9.550  15.622  1.00  0.00    -0.292 OA
BRANCH  27  29
HETATM   29  C19 UNL     1      -0.807   8.095  13.820  1.00  0.00     0.128 C 
HETATM   30  C20 UNL     1      -1.751   8.970  12.944  1.00  0.00     0.047 C 
HETATM   31  C21 UNL     1      -1.104   9.060  11.549  1.00  0.00     0.009 C 
HETATM   32  C22 UNL     1       0.047   8.064  11.597  1.00  0.00     0.002 C 
HETATM   33  C23 UNL     1       1.165   8.189  10.553  1.00  0.00    -0.004 C 
HETATM   34  C36 UNL     1       0.554   8.172  13.057  1.00  0.00    -0.002 C 
HETATM   35  C24 UNL     1       0.605   8.163   9.117  1.00  0.00     0.010 C 
HETATM   36  C33 UNL     1       2.202   7.035  10.791  1.00  0.00     0.002 C 
HETATM   37  C25 UNL     1       1.706   8.125   8.054  1.00  0.00     0.035 C 
HETATM   38  C26 UNL     1       2.644   6.984   8.361  1.00  0.00    -0.068 C 
HETATM   39  C27 UNL     1       2.705   5.925   7.536  1.00  0.00     0.053 C 
HETATM   40  C31 UNL     1       3.351   7.059   9.720  1.00  0.00    -0.016 C 
HETATM   41  C28 UNL     1       3.377   4.668   7.946  1.00  0.00     0.149 C 
HETATM   42  O8  UNL     1       3.465   3.738   7.147  1.00  0.00    -0.293 OA
HETATM   43  C29 UNL     1       3.822   4.548   9.381  1.00  0.00     0.084 C 
HETATM   44  C30 UNL     1       4.362   5.884   9.860  1.00  0.00     0.022 C 
HETATM   45  C32 UNL     1       4.207   8.347   9.820  1.00  0.00     0.020 C 
HETATM   46  C34 UNL     1       2.692   7.011  12.259  1.00  0.00     0.007 C 
HETATM   47  C35 UNL     1       1.540   7.012  13.284  1.00  0.00     0.013 C 
HETATM   48  C37 UNL     1       1.269   9.517  13.360  1.00  0.00     0.019 C 
BRANCH  29  49
HETATM   49  O7  UNL     1      -1.307   6.755  13.775  1.00  0.00    -0.381 OA
HETATM   50  H20 UNL     1      -2.227   6.768  14.099  1.00  0.00     0.211 HD
ENDBRANCH  29  49
ENDBRANCH  27  29
ENDBRANCH  26  27
ENDBRANCH   1  26
TORSDOF 13
ENDMDL
MODEL 6
REMARK minimizedAffinity -8.62634373
REMARK CNNscore 0.22232686
REMARK CNNaffinity 6.42115402
REMARK  13 active torsions:
REMARK  status: ('A' for Active; 'I' for Inactive)
REMARK    1  A    between atoms: O1_2  and  C2_3 
REMARK    2  A    between atoms: C2_3  and  C3_5 
REMARK    3  A    between atoms: C3_5  and  C4_6 
REMARK    4  A    between atoms: C3_5  and  N2_16 
REMARK    5  A    between atoms: C4_6  and  C5_7 
REMARK       I    between atoms: N2_16  and  C13_17 
REMARK    6  A    between atoms: C13_17  and  C14_19 
REMARK    7  A    between atoms: C14_19  and  C15_20 
REMARK    8  A    between atoms: C15_20  and  C16_21 
REMARK    9  A    between atoms: C16_21  and  O5_23 
REMARK   10  A    between atoms: O5_23  and  C17_24 
REMARK   11  A    between atoms: C17_24  and  C18_25 
REMARK   12  A    between atoms: C18_25  and  C19_27 
REMARK   13  A    between atoms: C19_27  and  O7_28 
ROOT
HETATM    1  O5  UNL     1     -15.189   6.949  14.271  1.00  0.00    -0.314 OA
ENDROOT
BRANCH   1   2
HETATM    2  C16 UNL     1     -14.391   7.489  13.307  1.00  0.00     0.259 C 
HETATM    3  O4  UNL     1     -14.695   7.601  12.131  1.00  0.00    -0.265 OA
BRANCH   2   4
HETATM    4  C15 UNL     1     -13.065   7.899  13.891  1.00  0.00     0.120 C 
BRANCH   4   5
HETATM    5  C14 UNL     1     -12.277   6.693  14.381  1.00  0.00     0.112 C 
BRANCH   5   6
HETATM    6  C13 UNL     1     -10.855   6.747  13.864  1.00  0.00     0.218 C 
HETATM    7  N2  UNL     1      -9.897   6.496  14.819  1.00  0.00    -0.347 N 
HETATM    8  H13 UNL     1     -10.151   6.662  15.784  1.00  0.00     0.163 HD
HETATM    9  O3  UNL     1     -10.594   6.986  12.691  1.00  0.00    -0.274 OA
BRANCH   7  10
HETATM   10  C3  UNL     1      -8.479   6.695  14.487  1.00  0.00     0.188 C 
BRANCH  10  11
HETATM   11  C2  UNL     1      -8.018   7.990  15.157  1.00  0.00     0.281 C 
HETATM   12  O2  UNL     1      -8.708   9.000  15.253  1.00  0.00    -0.263 OA
BRANCH  11  13
HETATM   13  O1  UNL     1      -6.766   7.842  15.676  1.00  0.00    -0.325 OA
HETATM   14  C1  UNL     1      -5.778   8.673  15.067  1.00  0.00     0.213 C 
ENDBRANCH  11  13
ENDBRANCH  10  11
BRANCH  10  15
HETATM   15  C4  UNL     1      -7.592   5.559  15.009  1.00  0.00     0.076 C 
BRANCH  15  16
HETATM   16  C5  UNL     1      -7.142   4.609  13.940  1.00  0.00    -0.028 A 
HETATM   17  C6  UNL     1      -7.879   3.563  13.413  1.00  0.00     0.096 A 
HETATM   18  N1  UNL     1      -7.115   2.933  12.469  1.00  0.00    -0.365 N 
HETATM   19  C7  UNL     1      -5.886   3.541  12.365  1.00  0.00     0.042 A 
HETATM   20  H8  UNL     1      -7.403   2.132  11.925  1.00  0.00     0.165 HD
HETATM   21  C8  UNL     1      -4.799   3.238  11.536  1.00  0.00     0.030 A 
HETATM   22  C12 UNL     1      -5.870   4.595  13.280  1.00  0.00    -0.002 A 
HETATM   23  C9  UNL     1      -3.659   4.039  11.643  1.00  0.00     0.002 A 
HETATM   24  C10 UNL     1      -3.609   5.095  12.548  1.00  0.00     0.001 A 
HETATM   25  C11 UNL     1      -4.704   5.382  13.373  1.00  0.00     0.014 A 
ENDBRANCH  15  16
ENDBRANCH  10  15
ENDBRANCH   7  10
ENDBRANCH   5   6
ENDBRANCH   4   5
ENDBRANCH   2   4
ENDBRANCH   1   2
BRANCH   1  26
HETATM   26  C17 UNL     1     -16.036   5.904  13.791  1.00  0.00     0.260 C 
BRANCH  26  27
HETATM   27  C18 UNL     1     -16.475   5.058  14.974  1.00  0.00     0.185 C 
HETATM   28  O6  UNL     1     -16.201   5.401  16.128  1.00  0.00    -0.292 OA
BRANCH  27  29
HETATM   29  C19 UNL     1     -17.277   3.768  14.667  1.00  0.00     0.128 C 
HETATM   30  C20 UNL     1     -17.534   3.576  13.144  1.00  0.00     0.047 C 
HETATM   31  C21 UNL     1     -17.434   2.064  12.865  1.00  0.00     0.009 C 
HETATM   32  C22 UNL     1     -17.355   1.425  14.245  1.00  0.00     0.002 C 
HETATM   33  C23 UNL     1     -16.822  -0.009  14.358  1.00  0.00    -0.004 C 
HETATM   34  C36 UNL     1     -16.538   2.452  15.069  1.00  0.00    -0.002 C 
HETATM   35  C24 UNL     1     -17.611  -0.979  13.456  1.00  0.00     0.010 C 
HETATM   36  C33 UNL     1     -16.877  -0.446  15.864  1.00  0.00     0.002 C 
HETATM   37  C25 UNL     1     -17.209  -2.440  13.665  1.00  0.00     0.035 C 
HETATM   38  C26 UNL     1     -17.299  -2.768  15.135  1.00  0.00    -0.068 C 
HETATM   39  C27 UNL     1     -18.229  -3.635  15.574  1.00  0.00     0.053 C 
HETATM   40  C31 UNL     1     -16.401  -1.931  16.053  1.00  0.00    -0.016 C 
HETATM   41  C28 UNL     1     -18.547  -3.756  17.017  1.00  0.00     0.149 C 
HETATM   42  O8  UNL     1     -19.361  -4.599  17.391  1.00  0.00    -0.293 OA
HETATM   43  C29 UNL     1     -17.935  -2.748  17.956  1.00  0.00     0.084 C 
HETATM   44  C30 UNL     1     -16.514  -2.442  17.519  1.00  0.00     0.022 C 
HETATM   45  C32 UNL     1     -14.910  -2.113  15.673  1.00  0.00     0.020 C 
HETATM   46  C34 UNL     1     -16.160   0.580  16.774  1.00  0.00     0.007 C 
HETATM   47  C35 UNL     1     -16.633   2.029  16.546  1.00  0.00     0.013 C 
HETATM   48  C37 UNL     1     -15.044   2.521  14.653  1.00  0.00     0.019 C 
BRANCH  29  49
HETATM   49  O7  UNL     1     -18.553   3.818  15.311  1.00  0.00    -0.381 OA
HETATM   50  H20 UNL     1     -19.061   4.550  14.913  1.00  0.00     0.211 HD
ENDBRANCH  29  49
ENDBRANCH  27  29
ENDBRANCH  26  27
ENDBRANCH   1  26
TORSDOF 13
ENDMDL
MODEL 7
REMARK minimizedAffinity -8.18533325
REMARK CNNscore 0.205224961
REMARK CNNaffinity 5.44237661
REMARK  13 active torsions:
REMARK  status: ('A' for Active; 'I' for Inactive)
REMARK    1  A    between atoms: O1_2  and  C2_3 
REMARK    2  A    between atoms: C2_3  and  C3_5 
REMARK    3  A    between atoms: C3_5  and  C4_6 
REMARK    4  A    between atoms: C3_5  and  N2_16 
REMARK    5  A    between atoms: C4_6  and  C5_7 
REMARK       I    between atoms: N2_16  and  C13_17 
REMARK    6  A    between atoms: C13_17  and  C14_19 
REMARK    7  A    between atoms: C14_19  and  C15_20 
REMARK    8  A    between atoms: C15_20  and  C16_21 
REMARK    9  A    between atoms: C16_21  and  O5_23 
REMARK   10  A    between atoms: O5_23  and  C17_24 
REMARK   11  A    between atoms: C17_24  and  C18_25 
REMARK   12  A    between atoms: C18_25  and  C19_27 
REMARK   13  A    between atoms: C19_27  and  O7_28 
ROOT
HETATM    1  O5  UNL     1       0.601  11.314  18.672  1.00  0.00    -0.314 OA
ENDROOT
BRANCH   1   2
HETATM    2  C16 UNL     1       0.445  10.346  17.726  1.00  0.00     0.259 C 
HETATM    3  O4  UNL     1       1.325   9.591  17.347  1.00  0.00    -0.265 OA
BRANCH   2   4
HETATM    4  C15 UNL     1      -0.962  10.359  17.187  1.00  0.00     0.120 C 
BRANCH   4   5
HETATM    5  C14 UNL     1      -0.982  10.666  15.696  1.00  0.00     0.112 C 
BRANCH   5   6
HETATM    6  C13 UNL     1      -1.946   9.743  14.981  1.00  0.00     0.218 C 
HETATM    7  N2  UNL     1      -2.291   8.621  15.698  1.00  0.00    -0.347 N 
HETATM    8  H13 UNL     1      -1.648   8.315  16.417  1.00  0.00     0.163 HD
HETATM    9  O3  UNL     1      -2.380   9.990  13.862  1.00  0.00    -0.274 OA
BRANCH   7  10
HETATM   10  C3  UNL     1      -3.074   7.562  15.047  1.00  0.00     0.188 C 
BRANCH  10  11
HETATM   11  C2  UNL     1      -4.542   7.767  15.421  1.00  0.00     0.281 C 
HETATM   12  O2  UNL     1      -5.086   8.865  15.502  1.00  0.00    -0.263 OA
BRANCH  11  13
HETATM   13  O1  UNL     1      -5.166   6.569  15.595  1.00  0.00    -0.325 OA
HETATM   14  C1  UNL     1      -6.542   6.562  15.214  1.00  0.00     0.213 C 
ENDBRANCH  11  13
ENDBRANCH  10  11
BRANCH  10  15
HETATM   15  C4  UNL     1      -2.971   7.617  13.518  1.00  0.00     0.076 C 
BRANCH  15  16
HETATM   16  C5  UNL     1      -2.398   6.372  12.910  1.00  0.00    -0.028 A 
HETATM   17  C6  UNL     1      -1.079   6.175  12.541  1.00  0.00     0.096 A 
HETATM   18  N1  UNL     1      -0.964   4.915  12.021  1.00  0.00    -0.365 N 
HETATM   19  C7  UNL     1      -2.182   4.278  12.035  1.00  0.00     0.042 A 
HETATM   20  H8  UNL     1      -0.110   4.506  11.669  1.00  0.00     0.165 HD
HETATM   21  C8  UNL     1      -2.529   2.991  11.608  1.00  0.00     0.030 A 
HETATM   22  C12 UNL     1      -3.106   5.168  12.584  1.00  0.00    -0.002 A 
HETATM   23  C9  UNL     1      -3.864   2.600  11.747  1.00  0.00     0.002 A 
HETATM   24  C10 UNL     1      -4.811   3.466  12.286  1.00  0.00     0.001 A 
HETATM   25  C11 UNL     1      -4.447   4.751  12.705  1.00  0.00     0.014 A 
ENDBRANCH  15  16
ENDBRANCH  10  15
ENDBRANCH   7  10
ENDBRANCH   5   6
ENDBRANCH   4   5
ENDBRANCH   2   4
ENDBRANCH   1   2
BRANCH   1  26
HETATM   26  C17 UNL     1       0.728  10.800  19.998  1.00  0.00     0.260 C 
BRANCH  26  27
HETATM   27  C18 UNL     1       2.206  10.718  20.344  1.00  0.00     0.185 C 
HETATM   28  O6  UNL     1       2.782   9.626  20.389  1.00  0.00    -0.292 OA
BRANCH  27  29
HETATM   29  C19 UNL     1       2.946  12.050  20.625  1.00  0.00     0.128 C 
HETATM   30  C20 UNL     1       2.260  12.886  21.745  1.00  0.00     0.047 C 
HETATM   31  C21 UNL     1       3.388  13.558  22.550  1.00  0.00     0.009 C 
HETATM   32  C22 UNL     1       4.650  13.281  21.743  1.00  0.00     0.002 C 
HETATM   33  C23 UNL     1       6.010  13.421  22.441  1.00  0.00    -0.004 C 
HETATM   34  C36 UNL     1       4.401  11.866  21.162  1.00  0.00    -0.002 C 
HETATM   35  C24 UNL     1       6.178  14.815  23.079  1.00  0.00     0.010 C 
HETATM   36  C33 UNL     1       7.142  13.122  21.396  1.00  0.00     0.002 C 
HETATM   37  C25 UNL     1       7.582  15.041  23.643  1.00  0.00     0.035 C 
HETATM   38  C26 UNL     1       8.597  14.738  22.568  1.00  0.00    -0.068 C 
HETATM   39  C27 UNL     1       9.346  15.729  22.053  1.00  0.00     0.053 C 
HETATM   40  C31 UNL     1       8.570  13.305  22.022  1.00  0.00    -0.016 C 
HETATM   41  C28 UNL     1      10.128  15.534  20.808  1.00  0.00     0.149 C 
HETATM   42  O8  UNL     1      10.847  16.442  20.394  1.00  0.00    -0.293 OA
HETATM   43  C29 UNL     1       9.909  14.258  20.037  1.00  0.00     0.084 C 
HETATM   44  C30 UNL     1       9.730  13.101  21.004  1.00  0.00     0.022 C 
HETATM   45  C32 UNL     1       8.840  12.283  23.156  1.00  0.00     0.020 C 
HETATM   46  C34 UNL     1       6.916  11.761  20.695  1.00  0.00     0.007 C 
HETATM   47  C35 UNL     1       5.497  11.605  20.113  1.00  0.00     0.013 C 
HETATM   48  C37 UNL     1       4.444  10.746  22.236  1.00  0.00     0.019 C 
BRANCH  29  49
HETATM   49  O7  UNL     1       2.968  12.858  19.445  1.00  0.00    -0.381 OA
HETATM   50  H20 UNL     1       2.047  13.102  19.232  1.00  0.00     0.211 HD
ENDBRANCH  29  49
ENDBRANCH  27  29
ENDBRANCH  26  27
ENDBRANCH   1  26
TORSDOF 13
ENDMDL
MODEL 8
REMARK minimizedAffinity -8.41994953
REMARK CNNscore 0.202187076
REMARK CNNaffinity 5.59202766
REMARK  13 active torsions:
REMARK  status: ('A' for Active; 'I' for Inactive)
REMARK    1  A    between atoms: O1_2  and  C2_3 
REMARK    2  A    between atoms: C2_3  and  C3_5 
REMARK    3  A    between atoms: C3_5  and  C4_6 
REMARK    4  A    between atoms: C3_5  and  N2_16 
REMARK    5  A    between atoms: C4_6  and  C5_7 
REMARK       I    between atoms: N2_16  and  C13_17 
REMARK    6  A    between atoms: C13_17  and  C14_19 
REMARK    7  A    between atoms: C14_19  and  C15_20 
REMARK    8  A    between atoms: C15_20  and  C16_21 
REMARK    9  A    between atoms: C16_21  and  O5_23 
REMARK   10  A    between atoms: O5_23  and  C17_24 
REMARK   11  A    between atoms: C17_24  and  C18_25 
REMARK   12  A    between atoms: C18_25  and  C19_27 
REMARK   13  A    between atoms: C19_27  and  O7_28 
ROOT
HETATM    1  O5  UNL     1       0.433  11.384  19.043  1.00  0.00    -0.314 OA
ENDROOT
BRANCH   1   2
HETATM    2  C16 UNL     1       0.204  10.493  18.038  1.00  0.00     0.259 C 
HETATM    3  O4  UNL     1       1.070   9.870  17.446  1.00  0.00    -0.265 OA
BRANCH   2   4
HETATM    4  C15 UNL     1      -1.269  10.407  17.737  1.00  0.00     0.120 C 
BRANCH   4   5
HETATM    5  C14 UNL     1      -1.526  10.344  16.238  1.00  0.00     0.112 C 
BRANCH   5   6
HETATM    6  C13 UNL     1      -2.080   8.987  15.855  1.00  0.00     0.218 C 
HETATM    7  N2  UNL     1      -2.312   8.832  14.508  1.00  0.00    -0.347 N 
HETATM    8  H13 UNL     1      -2.456   9.672  13.963  1.00  0.00     0.163 HD
HETATM    9  O3  UNL     1      -2.291   8.109  16.683  1.00  0.00    -0.274 OA
BRANCH   7  10
HETATM   10  C3  UNL     1      -3.014   7.632  14.032  1.00  0.00     0.188 C 
BRANCH  10  11
HETATM   11  C2  UNL     1      -1.959   6.611  13.603  1.00  0.00     0.281 C 
HETATM   12  O2  UNL     1      -0.896   6.432  14.189  1.00  0.00    -0.263 OA
BRANCH  11  13
HETATM   13  O1  UNL     1      -2.390   5.900  12.524  1.00  0.00    -0.325 OA
HETATM   14  C1  UNL     1      -1.916   4.554  12.481  1.00  0.00     0.213 C 
ENDBRANCH  11  13
ENDBRANCH  10  11
BRANCH  10  15
HETATM   15  C4  UNL     1      -3.871   6.984  15.125  1.00  0.00     0.076 C 
BRANCH  15  16
HETATM   16  C5  UNL     1      -5.337   6.974  14.812  1.00  0.00    -0.028 A 
HETATM   17  C6  UNL     1      -6.274   7.892  15.252  1.00  0.00     0.096 A 
HETATM   18  N1  UNL     1      -7.496   7.530  14.755  1.00  0.00    -0.365 N 
HETATM   19  C7  UNL     1      -7.385   6.388  13.997  1.00  0.00     0.042 A 
HETATM   20  H8  UNL     1      -8.362   8.023  14.920  1.00  0.00     0.165 HD
HETATM   21  C8  UNL     1      -8.365   5.670  13.302  1.00  0.00     0.030 A 
HETATM   22  C12 UNL     1      -6.041   6.010  14.017  1.00  0.00    -0.002 A 
HETATM   23  C9  UNL     1      -7.960   4.530  12.603  1.00  0.00     0.002 A 
HETATM   24  C10 UNL     1      -6.629   4.124  12.606  1.00  0.00     0.001 A 
HETATM   25  C11 UNL     1      -5.661   4.852  13.309  1.00  0.00     0.014 A 
ENDBRANCH  15  16
ENDBRANCH  10  15
ENDBRANCH   7  10
ENDBRANCH   5   6
ENDBRANCH   4   5
ENDBRANCH   2   4
ENDBRANCH   1   2
BRANCH   1  26
HETATM   26  C17 UNL     1       0.722  10.768  20.298  1.00  0.00     0.260 C 
BRANCH  26  27
HETATM   27  C18 UNL     1       2.231  10.707  20.470  1.00  0.00     0.185 C 
HETATM   28  O6  UNL     1       2.827   9.627  20.408  1.00  0.00    -0.292 OA
BRANCH  27  29
HETATM   29  C19 UNL     1       2.973  12.044  20.715  1.00  0.00     0.128 C 
HETATM   30  C20 UNL     1       2.298  12.905  21.823  1.00  0.00     0.047 C 
HETATM   31  C21 UNL     1       3.434  13.593  22.603  1.00  0.00     0.009 C 
HETATM   32  C22 UNL     1       4.689  13.298  21.791  1.00  0.00     0.002 C 
HETATM   33  C23 UNL     1       6.054  13.453  22.473  1.00  0.00    -0.004 C 
HETATM   34  C36 UNL     1       4.433  11.871  21.242  1.00  0.00    -0.002 C 
HETATM   35  C24 UNL     1       6.229  14.860  23.078  1.00  0.00     0.010 C 
HETATM   36  C33 UNL     1       7.177  13.131  21.424  1.00  0.00     0.002 C 
HETATM   37  C25 UNL     1       7.639  15.097  23.624  1.00  0.00     0.035 C 
HETATM   38  C26 UNL     1       8.644  14.770  22.547  1.00  0.00    -0.068 C 
HETATM   39  C27 UNL     1       9.388  15.749  22.004  1.00  0.00     0.053 C 
HETATM   40  C31 UNL     1       8.611  13.326  22.033  1.00  0.00    -0.016 C 
HETATM   41  C28 UNL     1      10.158  15.527  20.756  1.00  0.00     0.149 C 
HETATM   42  O8  UNL     1      10.874  16.425  20.316  1.00  0.00    -0.293 OA
HETATM   43  C29 UNL     1       9.932  14.235  20.015  1.00  0.00     0.084 C 
HETATM   44  C30 UNL     1       9.761  13.100  21.009  1.00  0.00     0.022 C 
HETATM   45  C32 UNL     1       8.891  12.329  23.186  1.00  0.00     0.020 C 
HETATM   46  C34 UNL     1       6.944  11.755  20.755  1.00  0.00     0.007 C 
HETATM   47  C35 UNL     1       5.519  11.587  20.190  1.00  0.00     0.013 C 
HETATM   48  C37 UNL     1       4.486  10.774  22.340  1.00  0.00     0.019 C 
BRANCH  29  49
HETATM   49  O7  UNL     1       2.985  12.827  19.517  1.00  0.00    -0.381 OA
HETATM   50  H20 UNL     1       2.063  13.067  19.308  1.00  0.00     0.211 HD
ENDBRANCH  29  49
ENDBRANCH  27  29
ENDBRANCH  26  27
ENDBRANCH   1  26
TORSDOF 13
ENDMDL
MODEL 9
REMARK minimizedAffinity -8.78222942
REMARK CNNscore 0.200829804
REMARK CNNaffinity 5.67708731
REMARK  13 active torsions:
REMARK  status: ('A' for Active; 'I' for Inactive)
REMARK    1  A    between atoms: O1_2  and  C2_3 
REMARK    2  A    between atoms: C2_3  and  C3_5 
REMARK    3  A    between atoms: C3_5  and  C4_6 
REMARK    4  A    between atoms: C3_5  and  N2_16 
REMARK    5  A    between atoms: C4_6  and  C5_7 
REMARK       I    between atoms: N2_16  and  C13_17 
REMARK    6  A    between atoms: C13_17  and  C14_19 
REMARK    7  A    between atoms: C14_19  and  C15_20 
REMARK    8  A    between atoms: C15_20  and  C16_21 
REMARK    9  A    between atoms: C16_21  and  O5_23 
REMARK   10  A    between atoms: O5_23  and  C17_24 
REMARK   11  A    between atoms: C17_24  and  C18_25 
REMARK   12  A    between atoms: C18_25  and  C19_27 
REMARK   13  A    between atoms: C19_27  and  O7_28 
ROOT
HETATM    1  O5  UNL     1       2.304   9.270  17.804  1.00  0.00    -0.314 OA
ENDROOT
BRANCH   1   2
HETATM    2  C16 UNL     1       2.331   9.101  16.452  1.00  0.00     0.259 C 
HETATM    3  O4  UNL     1       2.629   9.967  15.646  1.00  0.00    -0.265 OA
BRANCH   2   4
HETATM    4  C15 UNL     1       1.906   7.702  16.088  1.00  0.00     0.120 C 
BRANCH   4   5
HETATM    5  C14 UNL     1       2.303   7.356  14.660  1.00  0.00     0.112 C 
BRANCH   5   6
HETATM    6  C13 UNL     1       1.082   7.336  13.764  1.00  0.00     0.218 C 
HETATM    7  N2  UNL     1       0.850   6.125  13.153  1.00  0.00    -0.347 N 
HETATM    8  H13 UNL     1       1.641   5.505  13.040  1.00  0.00     0.163 HD
HETATM    9  O3  UNL     1       0.366   8.319  13.612  1.00  0.00    -0.274 OA
BRANCH   7  10
HETATM   10  C3  UNL     1      -0.194   6.026  12.125  1.00  0.00     0.188 C 
BRANCH  10  11
HETATM   11  C2  UNL     1       0.492   6.043  10.758  1.00  0.00     0.281 C 
HETATM   12  O2  UNL     1       1.265   5.176  10.364  1.00  0.00    -0.263 OA
BRANCH  11  13
HETATM   13  O1  UNL     1       0.081   7.118  10.028  1.00  0.00    -0.325 OA
HETATM   14  C1  UNL     1       1.003   8.209  10.022  1.00  0.00     0.213 C 
ENDBRANCH  11  13
ENDBRANCH  10  11
BRANCH  10  15
HETATM   15  C4  UNL     1      -0.994   4.722  12.227  1.00  0.00     0.076 C 
BRANCH  15  16
HETATM   16  C5  UNL     1      -2.384   4.910  12.756  1.00  0.00    -0.028 A 
HETATM   17  C6  UNL     1      -2.772   5.808  13.734  1.00  0.00     0.096 A 
HETATM   18  N1  UNL     1      -4.118   5.666  13.937  1.00  0.00    -0.365 N 
HETATM   19  C7  UNL     1      -4.625   4.689  13.112  1.00  0.00     0.042 A 
HETATM   20  H8  UNL     1      -4.667   6.195  14.599  1.00  0.00     0.165 HD
HETATM   21  C8  UNL     1      -5.936   4.216  12.979  1.00  0.00     0.030 A 
HETATM   22  C12 UNL     1      -3.560   4.191  12.361  1.00  0.00    -0.002 A 
HETATM   23  C9  UNL     1      -6.167   3.202  12.045  1.00  0.00     0.002 A 
HETATM   24  C10 UNL     1      -5.126   2.681  11.282  1.00  0.00     0.001 A 
HETATM   25  C11 UNL     1      -3.819   3.163  11.431  1.00  0.00     0.014 A 
ENDBRANCH  15  16
ENDBRANCH  10  15
ENDBRANCH   7  10
ENDBRANCH   5   6
ENDBRANCH   4   5
ENDBRANCH   2   4
ENDBRANCH   1   2
BRANCH   1  26
HETATM   26  C17 UNL     1       1.952  10.594  18.207  1.00  0.00     0.260 C 
BRANCH  26  27
HETATM   27  C18 UNL     1       2.260  10.745  19.688  1.00  0.00     0.185 C 
HETATM   28  O6  UNL     1       1.969   9.847  20.484  1.00  0.00    -0.292 OA
BRANCH  27  29
HETATM   29  C19 UNL     1       2.950  12.055  20.141  1.00  0.00     0.128 C 
HETATM   30  C20 UNL     1       2.194  12.753  21.309  1.00  0.00     0.047 C 
HETATM   31  C21 UNL     1       3.267  13.360  22.232  1.00  0.00     0.009 C 
HETATM   32  C22 UNL     1       4.571  13.197  21.461  1.00  0.00     0.002 C 
HETATM   33  C23 UNL     1       5.894  13.292  22.232  1.00  0.00    -0.004 C 
HETATM   34  C36 UNL     1       4.384  11.847  20.723  1.00  0.00    -0.002 C 
HETATM   35  C24 UNL     1       5.997  14.614  23.019  1.00  0.00     0.010 C 
HETATM   36  C33 UNL     1       7.079  13.130  21.216  1.00  0.00     0.002 C 
HETATM   37  C25 UNL     1       7.368  14.809  23.669  1.00  0.00     0.035 C 
HETATM   38  C26 UNL     1       8.438  14.643  22.618  1.00  0.00    -0.068 C 
HETATM   39  C27 UNL     1       9.182  15.699  22.244  1.00  0.00     0.053 C 
HETATM   40  C31 UNL     1       8.472  13.276  21.924  1.00  0.00    -0.016 C 
HETATM   41  C28 UNL     1      10.023  15.654  21.023  1.00  0.00     0.149 C 
HETATM   42  O8  UNL     1      10.735  16.615  20.741  1.00  0.00    -0.293 OA
HETATM   43  C29 UNL     1       9.873  14.462  20.114  1.00  0.00     0.084 C 
HETATM   44  C30 UNL     1       9.681  13.206  20.945  1.00  0.00     0.022 C 
HETATM   45  C32 UNL     1       8.718  12.146  22.955  1.00  0.00     0.020 C 
HETATM   46  C34 UNL     1       6.920  11.846  20.366  1.00  0.00     0.007 C 
HETATM   47  C35 UNL     1       5.532  11.722  19.706  1.00  0.00     0.013 C 
HETATM   48  C37 UNL     1       4.410  10.620  21.675  1.00  0.00     0.019 C 
BRANCH  29  49
HETATM   49  O7  UNL     1       3.003  12.984  19.054  1.00  0.00    -0.381 OA
HETATM   50  H20 UNL     1       2.087  13.229  18.825  1.00  0.00     0.211 HD
ENDBRANCH  29  49
ENDBRANCH  27  29
ENDBRANCH  26  27
ENDBRANCH   1  26
TORSDOF 13
ENDMDL
