MODEL 1
REMARK minimizedAffinity -7.07919693
REMARK CNNscore 0.458665252
REMARK CNNaffinity 5.90184736
REMARK  10 active torsions:
REMARK  status: ('A' for Active; 'I' for Inactive)
REMARK    1  A    between atoms: C3_3  and  O1_4 
REMARK    2  A    between atoms: N1_14  and  O2_16 
REMARK    3  A    between atoms: O2_16  and  C13_17 
REMARK    4  A    between atoms: C13_17  and  C14_18 
REMARK       I    between atoms: C14_18  and  N2_20 
REMARK    5  A    between atoms: N2_20  and  C15_21 
REMARK    6  A    between atoms: C15_21  and  C16_22 
REMARK       I    between atoms: C16_22  and  N3_24 
REMARK    7  A    between atoms: N3_24  and  C17_25 
REMARK    8  A    between atoms: C17_25  and  C18_26 
REMARK    9  A    between atoms: C17_25  and  C19_29 
REMARK   10  A    between atoms: C18_26  and  O6_28 
ROOT
HETATM    1  C1  UNL     1      -1.932  52.598 -23.559  1.00  0.00     0.015 C 
HETATM    2  C2  UNL     1      -2.353  51.536 -23.187  1.00  0.00    -0.078 C 
HETATM    3  C3  UNL     1      -2.895  50.232 -22.773  1.00  0.00     0.128 C 
HETATM    4  C4  UNL     1      -1.792  49.227 -22.428  1.00  0.00     0.052 C 
HETATM    5  C5  UNL     1      -2.572  48.110 -21.741  1.00  0.00     0.010 C 
HETATM    6  C6  UNL     1      -3.543  48.858 -20.821  1.00  0.00     0.002 C 
HETATM    7  C7  UNL     1      -4.796  48.077 -20.355  1.00  0.00    -0.004 C 
HETATM    8  C8  UNL     1      -5.508  47.212 -21.411  1.00  0.00     0.010 C 
HETATM    9  C9  UNL     1      -6.703  46.459 -20.819  1.00  0.00     0.035 C 
HETATM   10  C10 UNL     1      -7.650  47.335 -20.027  1.00  0.00    -0.069 C 
HETATM   11  C11 UNL     1      -8.979  47.228 -20.218  1.00  0.00     0.030 C 
HETATM   12  C12 UNL     1      -9.953  47.979 -19.376  1.00  0.00     0.032 C 
HETATM   13  N1  UNL     1     -11.235  48.054 -19.571  1.00  0.00    -0.271 N 
ATOM     14  H1  UNL     1     -11.875  48.573 -18.969  1.00  0.00     0.194 HD
HETATM   15  C22 UNL     1      -9.404  48.674 -18.147  1.00  0.00     0.060 C 
HETATM   16  C23 UNL     1      -8.056  49.305 -18.459  1.00  0.00     0.020 C 
HETATM   17  C24 UNL     1      -7.014  48.284 -19.010  1.00  0.00    -0.016 C 
HETATM   18  C25 UNL     1      -6.509  47.444 -17.806  1.00  0.00     0.020 C 
HETATM   19  C26 UNL     1      -5.799  49.043 -19.672  1.00  0.00     0.002 C 
HETATM   20  C27 UNL     1      -6.232  50.179 -20.640  1.00  0.00     0.007 C 
HETATM   21  C28 UNL     1      -5.279  50.483 -21.798  1.00  0.00     0.014 C 
HETATM   22  C29 UNL     1      -3.792  50.257 -21.482  1.00  0.00     0.003 C 
HETATM   23  C30 UNL     1      -3.328  51.352 -20.482  1.00  0.00     0.020 C 
ENDROOT
BRANCH   3  24
HETATM   24  O1  UNL     1      -3.617  49.686 -23.882  1.00  0.00    -0.377 OA
HETATM   25  H2  UNL     1      -3.060  49.814 -24.670  1.00  0.00     0.211 HD
ENDBRANCH   3  24
BRANCH  13  26
HETATM   26  O2  UNL     1     -11.634  47.334 -20.710  1.00  0.00    -0.271 OA
BRANCH  26  27
HETATM   27  C13 UNL     1     -13.038  47.133 -20.651  1.00  0.00     0.303 C 
BRANCH  27  28
HETATM   28  C14 UNL     1     -13.603  46.812 -22.032  1.00  0.00     0.244 C 
HETATM   29  O3  UNL     1     -13.041  46.101 -22.862  1.00  0.00    -0.271 OA
HETATM   30  N2  UNL     1     -14.839  47.377 -22.272  1.00  0.00    -0.350 N 
HETATM   31  H16 UNL     1     -15.193  48.118 -21.673  1.00  0.00     0.163 HD
BRANCH  30  32
HETATM   32  C15 UNL     1     -15.497  47.196 -23.550  1.00  0.00     0.225 C 
BRANCH  32  33
HETATM   33  C16 UNL     1     -16.550  46.093 -23.460  1.00  0.00     0.236 C 
HETATM   34  O4  UNL     1     -16.798  45.501 -22.411  1.00  0.00    -0.272 OA
HETATM   35  N3  UNL     1     -17.200  45.844 -24.645  1.00  0.00    -0.345 N 
HETATM   36  H19 UNL     1     -17.059  46.472 -25.433  1.00  0.00     0.163 HD
BRANCH  35  37
HETATM   37  C17 UNL     1     -18.330  44.919 -24.762  1.00  0.00     0.185 C 
BRANCH  37  38
HETATM   38  C18 UNL     1     -19.654  45.690 -24.645  1.00  0.00     0.163 C 
HETATM   39  O5  UNL     1     -19.945  46.725 -25.222  1.00  0.00    -0.648 OA
BRANCH  38  40
HETATM   40  O6  UNL     1     -20.528  45.136 -23.772  1.00  0.00    -0.775 OA
HETATM   41  H21 UNL     1     -21.303  45.738 -23.813  1.00  0.00     0.167 HD
ENDBRANCH  38  40
ENDBRANCH  37  38
BRANCH  37  42
HETATM   42  C19 UNL     1     -18.304  44.107 -26.076  1.00  0.00     0.010 C 
HETATM   43  C20 UNL     1     -17.598  44.844 -27.222  1.00  0.00     0.012 C 
HETATM   44  C21 UNL     1     -17.670  42.726 -25.882  1.00  0.00     0.012 C 
ENDBRANCH  37  42
ENDBRANCH  35  37
ENDBRANCH  32  33
ENDBRANCH  30  32
ENDBRANCH  27  28
ENDBRANCH  26  27
ENDBRANCH  13  26
TORSDOF 10
ENDMDL
MODEL 2
REMARK minimizedAffinity -7.25014544
REMARK CNNscore 0.434726775
REMARK CNNaffinity 5.8006053
REMARK  10 active torsions:
REMARK  status: ('A' for Active; 'I' for Inactive)
REMARK    1  A    between atoms: C3_3  and  O1_4 
REMARK    2  A    between atoms: N1_14  and  O2_16 
REMARK    3  A    between atoms: O2_16  and  C13_17 
REMARK    4  A    between atoms: C13_17  and  C14_18 
REMARK       I    between atoms: C14_18  and  N2_20 
REMARK    5  A    between atoms: N2_20  and  C15_21 
REMARK    6  A    between atoms: C15_21  and  C16_22 
REMARK       I    between atoms: C16_22  and  N3_24 
REMARK    7  A    between atoms: N3_24  and  C17_25 
REMARK    8  A    between atoms: C17_25  and  C18_26 
REMARK    9  A    between atoms: C17_25  and  C19_29 
REMARK   10  A    between atoms: C18_26  and  O6_28 
ROOT
HETATM    1  C1  UNL     1      -1.606  52.621 -24.048  1.00  0.00     0.015 C 
HETATM    2  C2  UNL     1      -2.429  51.777 -24.279  1.00  0.00    -0.078 C 
HETATM    3  C3  UNL     1      -3.472  50.779 -24.565  1.00  0.00     0.128 C 
HETATM    4  C4  UNL     1      -3.115  49.893 -25.763  1.00  0.00     0.052 C 
HETATM    5  C5  UNL     1      -4.148  48.774 -25.661  1.00  0.00     0.010 C 
HETATM    6  C6  UNL     1      -4.174  48.441 -24.164  1.00  0.00     0.002 C 
HETATM    7  C7  UNL     1      -5.437  47.714 -23.640  1.00  0.00    -0.004 C 
HETATM    8  C8  UNL     1      -6.794  48.207 -24.174  1.00  0.00     0.010 C 
HETATM    9  C9  UNL     1      -7.959  47.385 -23.615  1.00  0.00     0.035 C 
HETATM   10  C10 UNL     1      -7.932  47.226 -22.110  1.00  0.00    -0.069 C 
HETATM   11  C11 UNL     1      -9.058  47.415 -21.396  1.00  0.00     0.030 C 
HETATM   12  C12 UNL     1      -9.109  47.150 -19.930  1.00  0.00     0.032 C 
HETATM   13  N1  UNL     1     -10.095  47.434 -19.134  1.00  0.00    -0.271 N 
ATOM     14  H1  UNL     1     -10.099  47.232 -18.134  1.00  0.00     0.194 HD
HETATM   15  C22 UNL     1      -7.922  46.431 -19.322  1.00  0.00     0.060 C 
HETATM   16  C23 UNL     1      -6.628  46.943 -19.936  1.00  0.00     0.020 C 
HETATM   17  C24 UNL     1      -6.595  46.815 -21.490  1.00  0.00    -0.016 C 
HETATM   18  C25 UNL     1      -6.339  45.321 -21.826  1.00  0.00     0.020 C 
HETATM   19  C26 UNL     1      -5.433  47.699 -22.089  1.00  0.00     0.002 C 
HETATM   20  C27 UNL     1      -5.393  49.142 -21.513  1.00  0.00     0.007 C 
HETATM   21  C28 UNL     1      -4.841  50.227 -22.440  1.00  0.00     0.014 C 
HETATM   22  C29 UNL     1      -3.750  49.748 -23.411  1.00  0.00     0.003 C 
HETATM   23  C30 UNL     1      -2.464  49.438 -22.596  1.00  0.00     0.020 C 
ENDROOT
BRANCH   3  24
HETATM   24  O1  UNL     1      -4.668  51.483 -24.916  1.00  0.00    -0.377 OA
HETATM   25  H2  UNL     1      -4.407  52.186 -25.538  1.00  0.00     0.211 HD
ENDBRANCH   3  24
BRANCH  13  26
HETATM   26  O2  UNL     1     -11.156  48.053 -19.817  1.00  0.00    -0.271 OA
BRANCH  26  27
HETATM   27  C13 UNL     1     -12.323  47.261 -19.657  1.00  0.00     0.303 C 
BRANCH  27  28
HETATM   28  C14 UNL     1     -12.830  46.756 -21.005  1.00  0.00     0.244 C 
HETATM   29  O3  UNL     1     -12.356  45.797 -21.608  1.00  0.00    -0.271 OA
HETATM   30  N2  UNL     1     -13.909  47.465 -21.493  1.00  0.00    -0.350 N 
HETATM   31  H16 UNL     1     -14.157  48.368 -21.095  1.00  0.00     0.163 HD
BRANCH  30  32
HETATM   32  C15 UNL     1     -14.488  47.134 -22.779  1.00  0.00     0.225 C 
BRANCH  32  33
HETATM   33  C16 UNL     1     -15.916  46.617 -22.607  1.00  0.00     0.236 C 
HETATM   34  O4  UNL     1     -16.528  46.710 -21.545  1.00  0.00    -0.272 OA
HETATM   35  N3  UNL     1     -16.450  46.066 -23.747  1.00  0.00    -0.345 N 
HETATM   36  H19 UNL     1     -15.952  46.161 -24.629  1.00  0.00     0.163 HD
BRANCH  35  37
HETATM   37  C17 UNL     1     -17.843  45.623 -23.847  1.00  0.00     0.185 C 
BRANCH  37  38
HETATM   38  C18 UNL     1     -18.591  46.473 -24.885  1.00  0.00     0.163 C 
HETATM   39  O5  UNL     1     -19.112  47.561 -24.696  1.00  0.00    -0.648 OA
BRANCH  38  40
HETATM   40  O6  UNL     1     -18.682  45.886 -26.103  1.00  0.00    -0.775 OA
HETATM   41  H21 UNL     1     -19.179  46.544 -26.636  1.00  0.00     0.167 HD
ENDBRANCH  38  40
ENDBRANCH  37  38
BRANCH  37  42
HETATM   42  C19 UNL     1     -17.970  44.124 -24.200  1.00  0.00     0.010 C 
HETATM   43  C20 UNL     1     -16.661  43.348 -23.999  1.00  0.00     0.012 C 
HETATM   44  C21 UNL     1     -19.098  43.445 -23.419  1.00  0.00     0.012 C 
ENDBRANCH  37  42
ENDBRANCH  35  37
ENDBRANCH  32  33
ENDBRANCH  30  32
ENDBRANCH  27  28
ENDBRANCH  26  27
ENDBRANCH  13  26
TORSDOF 10
ENDMDL
MODEL 3
REMARK minimizedAffinity -9.13216877
REMARK CNNscore 0.358871758
REMARK CNNaffinity 6.73254633
REMARK  10 active torsions:
REMARK  status: ('A' for Active; 'I' for Inactive)
REMARK    1  A    between atoms: C3_3  and  O1_4 
REMARK    2  A    between atoms: N1_14  and  O2_16 
REMARK    3  A    between atoms: O2_16  and  C13_17 
REMARK    4  A    between atoms: C13_17  and  C14_18 
REMARK       I    between atoms: C14_18  and  N2_20 
REMARK    5  A    between atoms: N2_20  and  C15_21 
REMARK    6  A    between atoms: C15_21  and  C16_22 
REMARK       I    between atoms: C16_22  and  N3_24 
REMARK    7  A    between atoms: N3_24  and  C17_25 
REMARK    8  A    between atoms: C17_25  and  C18_26 
REMARK    9  A    between atoms: C17_25  and  C19_29 
REMARK   10  A    between atoms: C18_26  and  O6_28 
ROOT
HETATM    1  C1  UNL     1      -9.421  46.014 -18.185  1.00  0.00     0.015 C 
HETATM    2  C2  UNL     1      -8.371  45.912 -18.760  1.00  0.00    -0.078 C 
HETATM    3  C3  UNL     1      -7.061  45.792 -19.420  1.00  0.00     0.128 C 
HETATM    4  C4  UNL     1      -6.944  44.510 -20.250  1.00  0.00     0.052 C 
HETATM    5  C5  UNL     1      -5.679  44.763 -21.065  1.00  0.00     0.010 C 
HETATM    6  C6  UNL     1      -5.827  46.219 -21.521  1.00  0.00     0.002 C 
HETATM    7  C7  UNL     1      -4.528  46.949 -21.940  1.00  0.00    -0.004 C 
HETATM    8  C8  UNL     1      -3.285  46.713 -21.062  1.00  0.00     0.010 C 
HETATM    9  C9  UNL     1      -2.058  47.453 -21.602  1.00  0.00     0.035 C 
HETATM   10  C10 UNL     1      -2.306  48.915 -21.906  1.00  0.00    -0.069 C 
HETATM   11  C11 UNL     1      -1.419  49.843 -21.498  1.00  0.00     0.030 C 
HETATM   12  C12 UNL     1      -1.558  51.278 -21.879  1.00  0.00     0.032 C 
HETATM   13  N1  UNL     1      -0.844  52.263 -21.425  1.00  0.00    -0.271 N 
ATOM     14  H1  UNL     1      -0.961  53.234 -21.713  1.00  0.00     0.194 HD
HETATM   15  C22 UNL     1      -2.591  51.609 -22.937  1.00  0.00     0.060 C 
HETATM   16  C23 UNL     1      -3.846  50.776 -22.724  1.00  0.00     0.020 C 
HETATM   17  C24 UNL     1      -3.566  49.242 -22.707  1.00  0.00    -0.016 C 
HETATM   18  C25 UNL     1      -3.341  48.797 -24.177  1.00  0.00     0.020 C 
HETATM   19  C26 UNL     1      -4.802  48.467 -22.104  1.00  0.00     0.002 C 
HETATM   20  C27 UNL     1      -5.336  49.087 -20.783  1.00  0.00     0.007 C 
HETATM   21  C28 UNL     1      -5.991  48.118 -19.795  1.00  0.00     0.014 C 
HETATM   22  C29 UNL     1      -6.720  46.932 -20.447  1.00  0.00     0.003 C 
HETATM   23  C30 UNL     1      -7.995  47.465 -21.157  1.00  0.00     0.020 C 
ENDROOT
BRANCH   3  24
HETATM   24  O1  UNL     1      -6.061  45.713 -18.398  1.00  0.00    -0.377 OA
HETATM   25  H2  UNL     1      -6.390  45.084 -17.732  1.00  0.00     0.211 HD
ENDBRANCH   3  24
BRANCH  13  26
HETATM   26  O2  UNL     1       0.110  51.829 -20.489  1.00  0.00    -0.271 OA
BRANCH  26  27
HETATM   27  C13 UNL     1       1.382  52.329 -20.872  1.00  0.00     0.303 C 
BRANCH  27  28
HETATM   28  C14 UNL     1       1.241  53.556 -21.769  1.00  0.00     0.244 C 
HETATM   29  O3  UNL     1       1.380  54.714 -21.386  1.00  0.00    -0.271 OA
HETATM   30  N2  UNL     1       0.960  53.251 -23.086  1.00  0.00    -0.350 N 
HETATM   31  H16 UNL     1       0.648  52.319 -23.347  1.00  0.00     0.163 HD
BRANCH  30  32
HETATM   32  C15 UNL     1       0.762  54.305 -24.060  1.00  0.00     0.225 C 
BRANCH  32  33
HETATM   33  C16 UNL     1       0.218  53.732 -25.368  1.00  0.00     0.236 C 
HETATM   34  O4  UNL     1       0.068  54.418 -26.377  1.00  0.00    -0.272 OA
HETATM   35  N3  UNL     1      -0.062  52.388 -25.315  1.00  0.00    -0.345 N 
HETATM   36  H19 UNL     1       0.230  51.849 -24.503  1.00  0.00     0.163 HD
BRANCH  35  37
HETATM   37  C17 UNL     1      -0.473  51.606 -26.484  1.00  0.00     0.185 C 
BRANCH  37  38
HETATM   38  C18 UNL     1      -1.832  52.104 -26.998  1.00  0.00     0.163 C 
HETATM   39  O5  UNL     1      -2.476  53.044 -26.558  1.00  0.00    -0.648 OA
BRANCH  38  40
HETATM   40  O6  UNL     1      -2.332  51.362 -28.015  1.00  0.00    -0.775 OA
HETATM   41  H21 UNL     1      -3.186  51.802 -28.219  1.00  0.00     0.167 HD
ENDBRANCH  38  40
ENDBRANCH  37  38
BRANCH  37  42
HETATM   42  C19 UNL     1       0.570  51.644 -27.624  1.00  0.00     0.010 C 
HETATM   43  C20 UNL     1       0.336  52.794 -28.612  1.00  0.00     0.012 C 
HETATM   44  C21 UNL     1       2.003  51.707 -27.087  1.00  0.00     0.012 C 
ENDBRANCH  37  42
ENDBRANCH  35  37
ENDBRANCH  32  33
ENDBRANCH  30  32
ENDBRANCH  27  28
ENDBRANCH  26  27
ENDBRANCH  13  26
TORSDOF 10
ENDMDL
MODEL 4
REMARK minimizedAffinity -8.40889359
REMARK CNNscore 0.300587237
REMARK CNNaffinity 6.47761488
REMARK  10 active torsions:
REMARK  status: ('A' for Active; 'I' for Inactive)
REMARK    1  A    between atoms: C3_3  and  O1_4 
REMARK    2  A    between atoms: N1_14  and  O2_16 
REMARK    3  A    between atoms: O2_16  and  C13_17 
REMARK    4  A    between atoms: C13_17  and  C14_18 
REMARK       I    between atoms: C14_18  and  N2_20 
REMARK    5  A    between atoms: N2_20  and  C15_21 
REMARK    6  A    between atoms: C15_21  and  C16_22 
REMARK       I    between atoms: C16_22  and  N3_24 
REMARK    7  A    between atoms: N3_24  and  C17_25 
REMARK    8  A    between atoms: C17_25  and  C18_26 
REMARK    9  A    between atoms: C17_25  and  C19_29 
REMARK   10  A    between atoms: C18_26  and  O6_28 
ROOT
HETATM    1  C1  UNL     1      -0.037  55.603 -27.048  1.00  0.00     0.015 C 
HETATM    2  C2  UNL     1      -0.310  54.433 -27.025  1.00  0.00    -0.078 C 
HETATM    3  C3  UNL     1      -0.683  53.010 -27.028  1.00  0.00     0.128 C 
HETATM    4  C4  UNL     1       0.488  52.103 -27.420  1.00  0.00     0.052 C 
HETATM    5  C5  UNL     1      -0.032  50.718 -27.046  1.00  0.00     0.010 C 
HETATM    6  C6  UNL     1      -0.692  50.936 -25.679  1.00  0.00     0.002 C 
HETATM    7  C7  UNL     1      -1.734  49.879 -25.238  1.00  0.00    -0.004 C 
HETATM    8  C8  UNL     1      -2.719  49.383 -26.312  1.00  0.00     0.010 C 
HETATM    9  C9  UNL     1      -3.668  48.314 -25.765  1.00  0.00     0.035 C 
HETATM   10  C10 UNL     1      -4.345  48.699 -24.468  1.00  0.00    -0.069 C 
HETATM   11  C11 UNL     1      -5.668  48.497 -24.317  1.00  0.00     0.030 C 
HETATM   12  C12 UNL     1      -6.355  48.746 -23.017  1.00  0.00     0.032 C 
HETATM   13  N1  UNL     1      -7.636  48.718 -22.811  1.00  0.00    -0.271 N 
ATOM     14  H1  UNL     1      -8.073  48.887 -21.905  1.00  0.00     0.194 HD
HETATM   15  C22 UNL     1      -5.471  49.000 -21.813  1.00  0.00     0.060 C 
HETATM   16  C23 UNL     1      -4.290  49.874 -22.205  1.00  0.00     0.020 C 
HETATM   17  C24 UNL     1      -3.447  49.278 -23.373  1.00  0.00    -0.016 C 
HETATM   18  C25 UNL     1      -2.590  48.125 -22.785  1.00  0.00     0.020 C 
HETATM   19  C26 UNL     1      -2.499  50.381 -23.985  1.00  0.00     0.002 C 
HETATM   20  C27 UNL     1      -3.221  51.728 -24.271  1.00  0.00     0.007 C 
HETATM   21  C28 UNL     1      -2.666  52.564 -25.427  1.00  0.00     0.014 C 
HETATM   22  C29 UNL     1      -1.149  52.435 -25.641  1.00  0.00     0.003 C 
HETATM   23  C30 UNL     1      -0.422  53.130 -24.458  1.00  0.00     0.020 C 
ENDROOT
BRANCH   3  24
HETATM   24  O1  UNL     1      -1.697  52.824 -28.021  1.00  0.00    -0.377 OA
HETATM   25  H2  UNL     1      -1.405  53.308 -28.814  1.00  0.00     0.211 HD
ENDBRANCH   3  24
BRANCH  13  26
HETATM   26  O2  UNL     1      -8.349  48.427 -23.987  1.00  0.00    -0.271 OA
BRANCH  26  27
HETATM   27  C13 UNL     1      -8.986  47.168 -23.832  1.00  0.00     0.303 C 
BRANCH  27  28
HETATM   28  C14 UNL     1      -8.876  46.673 -22.392  1.00  0.00     0.244 C 
HETATM   29  O3  UNL     1      -7.898  46.088 -21.934  1.00  0.00    -0.271 OA
HETATM   30  N2  UNL     1      -9.981  46.964 -21.619  1.00  0.00    -0.350 N 
HETATM   31  H16 UNL     1     -10.853  47.259 -22.052  1.00  0.00     0.163 HD
BRANCH  30  32
HETATM   32  C15 UNL     1     -10.049  46.533 -20.238  1.00  0.00     0.225 C 
BRANCH  32  33
HETATM   33  C16 UNL     1     -11.266  47.143 -19.543  1.00  0.00     0.236 C 
HETATM   34  O4  UNL     1     -11.315  48.327 -19.218  1.00  0.00    -0.272 OA
HETATM   35  N3  UNL     1     -12.296  46.256 -19.341  1.00  0.00    -0.345 N 
HETATM   36  H19 UNL     1     -12.254  45.336 -19.772  1.00  0.00     0.163 HD
BRANCH  35  37
HETATM   37  C17 UNL     1     -13.602  46.651 -18.809  1.00  0.00     0.185 C 
BRANCH  37  38
HETATM   38  C18 UNL     1     -13.536  46.752 -17.277  1.00  0.00     0.163 C 
HETATM   39  O5  UNL     1     -12.920  47.583 -16.628  1.00  0.00    -0.648 OA
BRANCH  38  40
HETATM   40  O6  UNL     1     -14.218  45.771 -16.639  1.00  0.00    -0.775 OA
HETATM   41  H21 UNL     1     -14.076  45.975 -15.689  1.00  0.00     0.167 HD
ENDBRANCH  38  40
ENDBRANCH  37  38
BRANCH  37  42
HETATM   42  C19 UNL     1     -14.113  47.982 -19.405  1.00  0.00     0.010 C 
HETATM   43  C20 UNL     1     -14.512  47.863 -20.882  1.00  0.00     0.012 C 
HETATM   44  C21 UNL     1     -15.281  48.559 -18.599  1.00  0.00     0.012 C 
ENDBRANCH  37  42
ENDBRANCH  35  37
ENDBRANCH  32  33
ENDBRANCH  30  32
ENDBRANCH  27  28
ENDBRANCH  26  27
ENDBRANCH  13  26
TORSDOF 10
ENDMDL
MODEL 5
REMARK minimizedAffinity -8.42251205
REMARK CNNscore 0.244087756
REMARK CNNaffinity 5.88582945
REMARK  10 active torsions:
REMARK  status: ('A' for Active; 'I' for Inactive)
REMARK    1  A    between atoms: C3_3  and  O1_4 
REMARK    2  A    between atoms: N1_14  and  O2_16 
REMARK    3  A    between atoms: O2_16  and  C13_17 
REMARK    4  A    between atoms: C13_17  and  C14_18 
REMARK       I    between atoms: C14_18  and  N2_20 
REMARK    5  A    between atoms: N2_20  and  C15_21 
REMARK    6  A    between atoms: C15_21  and  C16_22 
REMARK       I    between atoms: C16_22  and  N3_24 
REMARK    7  A    between atoms: N3_24  and  C17_25 
REMARK    8  A    between atoms: C17_25  and  C18_26 
REMARK    9  A    between atoms: C17_25  and  C19_29 
REMARK   10  A    between atoms: C18_26  and  O6_28 
ROOT
HETATM    1  C1  UNL     1      -9.583  41.492 -36.179  1.00  0.00     0.015 C 
HETATM    2  C2  UNL     1      -9.622  42.591 -35.695  1.00  0.00    -0.078 C 
HETATM    3  C3  UNL     1      -9.619  43.934 -35.093  1.00  0.00     0.128 C 
HETATM    4  C4  UNL     1     -10.227  44.988 -36.022  1.00  0.00     0.052 C 
HETATM    5  C5  UNL     1     -10.408  46.182 -35.089  1.00  0.00     0.010 C 
HETATM    6  C6  UNL     1     -10.972  45.558 -33.807  1.00  0.00     0.002 C 
HETATM    7  C7  UNL     1     -10.812  46.383 -32.508  1.00  0.00    -0.004 C 
HETATM    8  C8  UNL     1      -9.460  47.086 -32.292  1.00  0.00     0.010 C 
HETATM    9  C9  UNL     1      -9.441  47.901 -30.997  1.00  0.00     0.035 C 
HETATM   10  C10 UNL     1      -9.914  47.134 -29.781  1.00  0.00    -0.069 C 
HETATM   11  C11 UNL     1      -9.214  47.199 -28.633  1.00  0.00     0.030 C 
HETATM   12  C12 UNL     1      -9.706  46.561 -27.378  1.00  0.00     0.032 C 
HETATM   13  N1  UNL     1      -9.045  46.447 -26.267  1.00  0.00    -0.271 N 
ATOM     14  H1  UNL     1      -9.415  46.010 -25.423  1.00  0.00     0.194 HD
HETATM   15  C22 UNL     1     -11.132  46.049 -27.384  1.00  0.00     0.060 C 
HETATM   16  C23 UNL     1     -11.449  45.395 -28.719  1.00  0.00     0.020 C 
HETATM   17  C24 UNL     1     -11.213  46.341 -29.936  1.00  0.00    -0.016 C 
HETATM   18  C25 UNL     1     -12.397  47.345 -29.979  1.00  0.00     0.020 C 
HETATM   19  C26 UNL     1     -11.177  45.510 -31.278  1.00  0.00     0.002 C 
HETATM   20  C27 UNL     1     -10.275  44.247 -31.199  1.00  0.00     0.007 C 
HETATM   21  C28 UNL     1      -9.624  43.795 -32.509  1.00  0.00     0.014 C 
HETATM   22  C29 UNL     1     -10.456  44.078 -33.770  1.00  0.00     0.003 C 
HETATM   23  C30 UNL     1     -11.693  43.137 -33.767  1.00  0.00     0.020 C 
ENDROOT
BRANCH   3  24
HETATM   24  O1  UNL     1      -8.257  44.314 -34.875  1.00  0.00    -0.377 OA
HETATM   25  H2  UNL     1      -7.768  44.084 -35.686  1.00  0.00     0.211 HD
ENDBRANCH   3  24
BRANCH  13  26
HETATM   26  O2  UNL     1      -7.755  46.999 -26.366  1.00  0.00    -0.271 OA
BRANCH  26  27
HETATM   27  C13 UNL     1      -7.598  47.971 -25.344  1.00  0.00     0.303 C 
BRANCH  27  28
HETATM   28  C14 UNL     1      -6.153  48.022 -24.856  1.00  0.00     0.244 C 
HETATM   29  O3  UNL     1      -5.787  47.675 -23.736  1.00  0.00    -0.271 OA
HETATM   30  N2  UNL     1      -5.261  48.478 -25.806  1.00  0.00    -0.350 N 
HETATM   31  H16 UNL     1      -5.594  48.949 -26.644  1.00  0.00     0.163 HD
BRANCH  30  32
HETATM   32  C15 UNL     1      -3.854  48.618 -25.490  1.00  0.00     0.225 C 
BRANCH  32  33
HETATM   33  C16 UNL     1      -3.111  49.298 -26.639  1.00  0.00     0.236 C 
HETATM   34  O4  UNL     1      -3.248  48.953 -27.810  1.00  0.00    -0.272 OA
HETATM   35  N3  UNL     1      -2.302  50.336 -26.243  1.00  0.00    -0.345 N 
HETATM   36  H19 UNL     1      -2.353  50.670 -25.283  1.00  0.00     0.163 HD
BRANCH  35  37
HETATM   37  C17 UNL     1      -1.595  51.207 -27.184  1.00  0.00     0.185 C 
BRANCH  37  38
HETATM   38  C18 UNL     1      -2.167  52.632 -27.112  1.00  0.00     0.163 C 
HETATM   39  O5  UNL     1      -1.913  53.557 -27.867  1.00  0.00    -0.648 OA
BRANCH  38  40
HETATM   40  O6  UNL     1      -3.000  52.828 -26.063  1.00  0.00    -0.775 OA
HETATM   41  H21 UNL     1      -3.270  53.767 -26.159  1.00  0.00     0.167 HD
ENDBRANCH  38  40
ENDBRANCH  37  38
BRANCH  37  42
HETATM   42  C19 UNL     1      -0.069  51.237 -26.942  1.00  0.00     0.010 C 
HETATM   43  C20 UNL     1       0.727  51.676 -28.178  1.00  0.00     0.012 C 
HETATM   44  C21 UNL     1       0.303  52.121 -25.747  1.00  0.00     0.012 C 
ENDBRANCH  37  42
ENDBRANCH  35  37
ENDBRANCH  32  33
ENDBRANCH  30  32
ENDBRANCH  27  28
ENDBRANCH  26  27
ENDBRANCH  13  26
TORSDOF 10
ENDMDL
MODEL 6
REMARK minimizedAffinity -8.44090939
REMARK CNNscore 0.233083427
REMARK CNNaffinity 6.42450333
REMARK  10 active torsions:
REMARK  status: ('A' for Active; 'I' for Inactive)
REMARK    1  A    between atoms: C3_3  and  O1_4 
REMARK    2  A    between atoms: N1_14  and  O2_16 
REMARK    3  A    between atoms: O2_16  and  C13_17 
REMARK    4  A    between atoms: C13_17  and  C14_18 
REMARK       I    between atoms: C14_18  and  N2_20 
REMARK    5  A    between atoms: N2_20  and  C15_21 
REMARK    6  A    between atoms: C15_21  and  C16_22 
REMARK       I    between atoms: C16_22  and  N3_24 
REMARK    7  A    between atoms: N3_24  and  C17_25 
REMARK    8  A    between atoms: C17_25  and  C18_26 
REMARK    9  A    between atoms: C17_25  and  C19_29 
REMARK   10  A    between atoms: C18_26  and  O6_28 
ROOT
HETATM    1  C1  UNL     1      -9.812  48.405 -18.930  1.00  0.00     0.015 C 
HETATM    2  C2  UNL     1      -8.758  48.025 -19.363  1.00  0.00    -0.078 C 
HETATM    3  C3  UNL     1      -7.444  47.575 -19.850  1.00  0.00     0.128 C 
HETATM    4  C4  UNL     1      -7.447  46.095 -20.245  1.00  0.00     0.052 C 
HETATM    5  C5  UNL     1      -6.126  45.954 -20.996  1.00  0.00     0.010 C 
HETATM    6  C6  UNL     1      -6.077  47.207 -21.879  1.00  0.00     0.002 C 
HETATM    7  C7  UNL     1      -4.682  47.636 -22.394  1.00  0.00    -0.004 C 
HETATM    8  C8  UNL     1      -3.516  47.557 -21.392  1.00  0.00     0.010 C 
HETATM    9  C9  UNL     1      -2.186  47.966 -22.030  1.00  0.00     0.035 C 
HETATM   10  C10 UNL     1      -2.242  49.281 -22.778  1.00  0.00    -0.069 C 
HETATM   11  C11 UNL     1      -1.268  50.194 -22.600  1.00  0.00     0.030 C 
HETATM   12  C12 UNL     1      -1.216  51.448 -23.405  1.00  0.00     0.032 C 
HETATM   13  N1  UNL     1      -0.409  52.447 -23.213  1.00  0.00    -0.271 N 
ATOM     14  H1  UNL     1      -0.395  53.289 -23.789  1.00  0.00     0.194 HD
HETATM   15  C22 UNL     1      -2.154  51.541 -24.591  1.00  0.00     0.060 C 
HETATM   16  C23 UNL     1      -3.508  50.946 -24.237  1.00  0.00     0.020 C 
HETATM   17  C24 UNL     1      -3.417  49.472 -23.737  1.00  0.00    -0.016 C 
HETATM   18  C25 UNL     1      -3.183  48.575 -24.983  1.00  0.00     0.020 C 
HETATM   19  C26 UNL     1      -4.762  49.049 -23.028  1.00  0.00     0.002 C 
HETATM   20  C27 UNL     1      -5.276  50.097 -22.001  1.00  0.00     0.007 C 
HETATM   21  C28 UNL     1      -6.086  49.551 -20.823  1.00  0.00     0.014 C 
HETATM   22  C29 UNL     1      -6.923  48.302 -21.143  1.00  0.00     0.003 C 
HETATM   23  C30 UNL     1      -8.092  48.717 -22.079  1.00  0.00     0.020 C 
ENDROOT
BRANCH   3  24
HETATM   24  O1  UNL     1      -6.507  47.713 -18.777  1.00  0.00    -0.377 OA
HETATM   25  H2  UNL     1      -6.938  47.357 -17.980  1.00  0.00     0.211 HD
ENDBRANCH   3  24
BRANCH  13  26
HETATM   26  O2  UNL     1       0.444  52.228 -22.118  1.00  0.00    -0.271 OA
BRANCH  26  27
HETATM   27  C13 UNL     1      -0.163  52.769 -20.955  1.00  0.00     0.303 C 
BRANCH  27  28
HETATM   28  C14 UNL     1       0.891  53.221 -19.947  1.00  0.00     0.244 C 
HETATM   29  O3  UNL     1       1.743  54.076 -20.172  1.00  0.00    -0.271 OA
HETATM   30  N2  UNL     1       0.793  52.592 -18.722  1.00  0.00    -0.350 N 
HETATM   31  H16 UNL     1       0.228  51.753 -18.615  1.00  0.00     0.163 HD
BRANCH  30  32
HETATM   32  C15 UNL     1       1.740  52.884 -17.666  1.00  0.00     0.225 C 
BRANCH  32  33
HETATM   33  C16 UNL     1       1.319  52.205 -16.363  1.00  0.00     0.236 C 
HETATM   34  O4  UNL     1       0.266  51.579 -16.256  1.00  0.00    -0.272 OA
HETATM   35  N3  UNL     1       2.229  52.341 -15.343  1.00  0.00    -0.345 N 
HETATM   36  H19 UNL     1       3.146  52.735 -15.542  1.00  0.00     0.163 HD
BRANCH  35  37
HETATM   37  C17 UNL     1       2.091  51.669 -14.049  1.00  0.00     0.185 C 
BRANCH  37  38
HETATM   38  C18 UNL     1       0.651  51.812 -13.534  1.00  0.00     0.163 C 
HETATM   39  O5  UNL     1      -0.084  50.908 -13.167  1.00  0.00    -0.648 OA
BRANCH  38  40
HETATM   40  O6  UNL     1       0.194  53.087 -13.548  1.00  0.00    -0.775 OA
HETATM   41  H21 UNL     1      -0.720  53.005 -13.199  1.00  0.00     0.167 HD
ENDBRANCH  38  40
ENDBRANCH  37  38
BRANCH  37  42
HETATM   42  C19 UNL     1       2.487  50.176 -14.106  1.00  0.00     0.010 C 
HETATM   43  C20 UNL     1       3.084  49.663 -12.788  1.00  0.00     0.012 C 
HETATM   44  C21 UNL     1       1.311  49.288 -14.521  1.00  0.00     0.012 C 
ENDBRANCH  37  42
ENDBRANCH  35  37
ENDBRANCH  32  33
ENDBRANCH  30  32
ENDBRANCH  27  28
ENDBRANCH  26  27
ENDBRANCH  13  26
TORSDOF 10
ENDMDL
MODEL 7
REMARK minimizedAffinity -8.9148159
REMARK CNNscore 0.203445956
REMARK CNNaffinity 5.90577078
REMARK  10 active torsions:
REMARK  status: ('A' for Active; 'I' for Inactive)
REMARK    1  A    between atoms: C3_3  and  O1_4 
REMARK    2  A    between atoms: N1_14  and  O2_16 
REMARK    3  A    between atoms: O2_16  and  C13_17 
REMARK    4  A    between atoms: C13_17  and  C14_18 
REMARK       I    between atoms: C14_18  and  N2_20 
REMARK    5  A    between atoms: N2_20  and  C15_21 
REMARK    6  A    between atoms: C15_21  and  C16_22 
REMARK       I    between atoms: C16_22  and  N3_24 
REMARK    7  A    between atoms: N3_24  and  C17_25 
REMARK    8  A    between atoms: C17_25  and  C18_26 
REMARK    9  A    between atoms: C17_25  and  C19_29 
REMARK   10  A    between atoms: C18_26  and  O6_28 
ROOT
HETATM    1  C1  UNL     1      -0.663  68.394 -40.451  1.00  0.00     0.015 C 
HETATM    2  C2  UNL     1       0.483  68.253 -40.124  1.00  0.00    -0.078 C 
HETATM    3  C3  UNL     1       1.891  68.039 -39.752  1.00  0.00     0.128 C 
HETATM    4  C4  UNL     1       2.753  69.281 -40.000  1.00  0.00     0.052 C 
HETATM    5  C5  UNL     1       4.043  68.937 -39.261  1.00  0.00     0.010 C 
HETATM    6  C6  UNL     1       3.553  68.326 -37.942  1.00  0.00     0.002 C 
HETATM    7  C7  UNL     1       4.559  67.431 -37.179  1.00  0.00    -0.004 C 
HETATM    8  C8  UNL     1       5.399  66.453 -38.022  1.00  0.00     0.010 C 
HETATM    9  C9  UNL     1       6.381  65.656 -37.161  1.00  0.00     0.035 C 
HETATM   10  C10 UNL     1       5.750  65.007 -35.948  1.00  0.00    -0.069 C 
HETATM   11  C11 UNL     1       6.031  63.724 -35.653  1.00  0.00     0.030 C 
HETATM   12  C12 UNL     1       5.531  63.081 -34.404  1.00  0.00     0.032 C 
HETATM   13  N1  UNL     1       5.627  61.822 -34.100  1.00  0.00    -0.271 N 
ATOM     14  H1  UNL     1       5.279  61.416 -33.231  1.00  0.00     0.194 HD
HETATM   15  C22 UNL     1       4.902  63.991 -33.369  1.00  0.00     0.060 C 
HETATM   16  C23 UNL     1       4.047  65.048 -34.050  1.00  0.00     0.020 C 
HETATM   17  C24 UNL     1       4.834  65.891 -35.099  1.00  0.00    -0.016 C 
HETATM   18  C25 UNL     1       5.718  66.898 -34.315  1.00  0.00     0.020 C 
HETATM   19  C26 UNL     1       3.835  66.679 -36.032  1.00  0.00     0.002 C 
HETATM   20  C27 UNL     1       2.676  65.800 -36.580  1.00  0.00     0.007 C 
HETATM   21  C28 UNL     1       2.107  66.201 -37.943  1.00  0.00     0.014 C 
HETATM   22  C29 UNL     1       2.143  67.709 -38.236  1.00  0.00     0.003 C 
HETATM   23  C30 UNL     1       1.108  68.415 -37.316  1.00  0.00     0.020 C 
ENDROOT
BRANCH   3  24
HETATM   24  O1  UNL     1       2.413  67.002 -40.590  1.00  0.00    -0.377 OA
HETATM   25  H2  UNL     1       2.118  67.199 -41.496  1.00  0.00     0.211 HD
ENDBRANCH   3  24
BRANCH  13  26
HETATM   26  O2  UNL     1       6.268  61.087 -35.112  1.00  0.00    -0.271 OA
BRANCH  26  27
HETATM   27  C13 UNL     1       7.353  60.375 -34.537  1.00  0.00     0.303 C 
BRANCH  27  28
HETATM   28  C14 UNL     1       8.388  61.334 -33.954  1.00  0.00     0.244 C 
HETATM   29  O3  UNL     1       8.620  61.456 -32.754  1.00  0.00    -0.271 OA
HETATM   30  N2  UNL     1       9.079  62.053 -34.908  1.00  0.00    -0.350 N 
HETATM   31  H16 UNL     1       8.743  62.096 -35.867  1.00  0.00     0.163 HD
BRANCH  30  32
HETATM   32  C15 UNL     1      10.073  63.031 -34.518  1.00  0.00     0.225 C 
BRANCH  32  33
HETATM   33  C16 UNL     1      10.829  63.547 -35.742  1.00  0.00     0.236 C 
HETATM   34  O4  UNL     1      10.408  64.470 -36.436  1.00  0.00    -0.272 OA
HETATM   35  N3  UNL     1      12.020  62.903 -35.975  1.00  0.00    -0.345 N 
HETATM   36  H19 UNL     1      12.383  62.258 -35.277  1.00  0.00     0.163 HD
BRANCH  35  37
HETATM   37  C17 UNL     1      12.965  63.315 -37.016  1.00  0.00     0.185 C 
BRANCH  37  38
HETATM   38  C18 UNL     1      14.329  63.639 -36.387  1.00  0.00     0.163 C 
HETATM   39  O5  UNL     1      15.358  63.917 -36.983  1.00  0.00    -0.648 OA
BRANCH  38  40
HETATM   40  O6  UNL     1      14.337  63.554 -35.035  1.00  0.00    -0.775 OA
HETATM   41  H21 UNL     1      15.261  63.783 -34.798  1.00  0.00     0.167 HD
ENDBRANCH  38  40
ENDBRANCH  37  38
BRANCH  37  42
HETATM   42  C19 UNL     1      13.133  62.253 -38.125  1.00  0.00     0.010 C 
HETATM   43  C20 UNL     1      11.862  61.426 -38.361  1.00  0.00     0.012 C 
HETATM   44  C21 UNL     1      13.597  62.875 -39.446  1.00  0.00     0.012 C 
ENDBRANCH  37  42
ENDBRANCH  35  37
ENDBRANCH  32  33
ENDBRANCH  30  32
ENDBRANCH  27  28
ENDBRANCH  26  27
ENDBRANCH  13  26
TORSDOF 10
ENDMDL
MODEL 8
REMARK minimizedAffinity -9.19526005
REMARK CNNscore 0.201416507
REMARK CNNaffinity 6.43430948
REMARK  10 active torsions:
REMARK  status: ('A' for Active; 'I' for Inactive)
REMARK    1  A    between atoms: C3_3  and  O1_4 
REMARK    2  A    between atoms: N1_14  and  O2_16 
REMARK    3  A    between atoms: O2_16  and  C13_17 
REMARK    4  A    between atoms: C13_17  and  C14_18 
REMARK       I    between atoms: C14_18  and  N2_20 
REMARK    5  A    between atoms: N2_20  and  C15_21 
REMARK    6  A    between atoms: C15_21  and  C16_22 
REMARK       I    between atoms: C16_22  and  N3_24 
REMARK    7  A    between atoms: N3_24  and  C17_25 
REMARK    8  A    between atoms: C17_25  and  C18_26 
REMARK    9  A    between atoms: C17_25  and  C19_29 
REMARK   10  A    between atoms: C18_26  and  O6_28 
ROOT
HETATM    1  C1  UNL     1      -0.809  52.926 -24.253  1.00  0.00     0.015 C 
HETATM    2  C2  UNL     1      -1.131  52.159 -23.386  1.00  0.00    -0.078 C 
HETATM    3  C3  UNL     1      -1.569  51.247 -22.318  1.00  0.00     0.128 C 
HETATM    4  C4  UNL     1      -1.616  49.788 -22.782  1.00  0.00     0.052 C 
HETATM    5  C5  UNL     1      -1.769  49.030 -21.467  1.00  0.00     0.010 C 
HETATM    6  C6  UNL     1      -0.781  49.732 -20.527  1.00  0.00     0.002 C 
HETATM    7  C7  UNL     1      -1.025  49.554 -19.009  1.00  0.00    -0.004 C 
HETATM    8  C8  UNL     1      -2.484  49.640 -18.525  1.00  0.00     0.010 C 
HETATM    9  C9  UNL     1      -2.598  49.407 -17.016  1.00  0.00     0.035 C 
HETATM   10  C10 UNL     1      -1.645  50.246 -16.191  1.00  0.00    -0.069 C 
HETATM   11  C11 UNL     1      -2.095  50.887 -15.096  1.00  0.00     0.030 C 
HETATM   12  C12 UNL     1      -1.171  51.623 -14.185  1.00  0.00     0.032 C 
HETATM   13  N1  UNL     1      -1.519  52.385 -13.194  1.00  0.00    -0.271 N 
ATOM     14  H1  UNL     1      -0.859  52.869 -12.585  1.00  0.00     0.194 HD
HETATM   15  C22 UNL     1       0.314  51.417 -14.404  1.00  0.00     0.060 C 
HETATM   16  C23 UNL     1       0.624  51.371 -15.893  1.00  0.00     0.020 C 
HETATM   17  C24 UNL     1      -0.188  50.279 -16.654  1.00  0.00    -0.016 C 
HETATM   18  C25 UNL     1       0.461  48.907 -16.325  1.00  0.00     0.020 C 
HETATM   19  C26 UNL     1      -0.125  50.533 -18.210  1.00  0.00     0.002 C 
HETATM   20  C27 UNL     1      -0.410  52.009 -18.608  1.00  0.00     0.007 C 
HETATM   21  C28 UNL     1      -1.046  52.230 -19.982  1.00  0.00     0.014 C 
HETATM   22  C29 UNL     1      -0.639  51.203 -21.050  1.00  0.00     0.003 C 
HETATM   23  C30 UNL     1       0.851  51.440 -21.423  1.00  0.00     0.020 C 
ENDROOT
BRANCH   3  24
HETATM   24  O1  UNL     1      -2.906  51.606 -21.954  1.00  0.00    -0.377 OA
HETATM   25  H2  UNL     1      -3.396  51.739 -22.785  1.00  0.00     0.211 HD
ENDBRANCH   3  24
BRANCH  13  26
HETATM   26  O2  UNL     1      -2.916  52.462 -13.059  1.00  0.00    -0.271 OA
BRANCH  26  27
HETATM   27  C13 UNL     1      -3.252  52.261 -11.695  1.00  0.00     0.303 C 
BRANCH  27  28
HETATM   28  C14 UNL     1      -3.118  53.557 -10.901  1.00  0.00     0.244 C 
HETATM   29  O3  UNL     1      -4.050  54.122 -10.334  1.00  0.00    -0.271 OA
HETATM   30  N2  UNL     1      -1.828  54.045 -10.848  1.00  0.00    -0.350 N 
HETATM   31  H16 UNL     1      -1.115  53.690 -11.480  1.00  0.00     0.163 HD
BRANCH  30  32
HETATM   32  C15 UNL     1      -1.536  55.286 -10.161  1.00  0.00     0.225 C 
BRANCH  32  33
HETATM   33  C16 UNL     1      -0.244  55.164  -9.356  1.00  0.00     0.236 C 
HETATM   34  O4  UNL     1      -0.233  55.130  -8.127  1.00  0.00    -0.272 OA
HETATM   35  N3  UNL     1       0.889  55.075 -10.128  1.00  0.00    -0.345 N 
HETATM   36  H19 UNL     1       0.798  54.952 -11.134  1.00  0.00     0.163 HD
BRANCH  35  37
HETATM   37  C17 UNL     1       2.222  54.826  -9.573  1.00  0.00     0.185 C 
BRANCH  37  38
HETATM   38  C18 UNL     1       2.854  53.604 -10.256  1.00  0.00     0.163 C 
HETATM   39  O5  UNL     1       3.105  52.528  -9.735  1.00  0.00    -0.648 OA
BRANCH  38  40
HETATM   40  O6  UNL     1       3.180  53.815 -11.553  1.00  0.00    -0.775 OA
HETATM   41  H21 UNL     1       3.566  52.957 -11.834  1.00  0.00     0.167 HD
ENDBRANCH  38  40
ENDBRANCH  37  38
BRANCH  37  42
HETATM   42  C19 UNL     1       3.159  56.047  -9.700  1.00  0.00     0.010 C 
HETATM   43  C20 UNL     1       4.522  55.830  -9.028  1.00  0.00     0.012 C 
HETATM   44  C21 UNL     1       3.364  56.462 -11.160  1.00  0.00     0.012 C 
ENDBRANCH  37  42
ENDBRANCH  35  37
ENDBRANCH  32  33
ENDBRANCH  30  32
ENDBRANCH  27  28
ENDBRANCH  26  27
ENDBRANCH  13  26
TORSDOF 10
ENDMDL
MODEL 9
REMARK minimizedAffinity -8.63285065
REMARK CNNscore 0.198814988
REMARK CNNaffinity 6.31941795
REMARK  10 active torsions:
REMARK  status: ('A' for Active; 'I' for Inactive)
REMARK    1  A    between atoms: C3_3  and  O1_4 
REMARK    2  A    between atoms: N1_14  and  O2_16 
REMARK    3  A    between atoms: O2_16  and  C13_17 
REMARK    4  A    between atoms: C13_17  and  C14_18 
REMARK       I    between atoms: C14_18  and  N2_20 
REMARK    5  A    between atoms: N2_20  and  C15_21 
REMARK    6  A    between atoms: C15_21  and  C16_22 
REMARK       I    between atoms: C16_22  and  N3_24 
REMARK    7  A    between atoms: N3_24  and  C17_25 
REMARK    8  A    between atoms: C17_25  and  C18_26 
REMARK    9  A    between atoms: C17_25  and  C19_29 
REMARK   10  A    between atoms: C18_26  and  O6_28 
ROOT
HETATM    1  C1  UNL     1       0.076  55.690 -26.990  1.00  0.00     0.015 C 
HETATM    2  C2  UNL     1      -0.113  54.504 -26.974  1.00  0.00    -0.078 C 
HETATM    3  C3  UNL     1      -0.372  53.056 -26.996  1.00  0.00     0.128 C 
HETATM    4  C4  UNL     1       0.920  52.233 -26.993  1.00  0.00     0.052 C 
HETATM    5  C5  UNL     1       0.412  50.826 -26.696  1.00  0.00     0.010 C 
HETATM    6  C6  UNL     1      -0.620  51.041 -25.582  1.00  0.00     0.002 C 
HETATM    7  C7  UNL     1      -1.670  49.920 -25.386  1.00  0.00    -0.004 C 
HETATM    8  C8  UNL     1      -2.276  49.305 -26.660  1.00  0.00     0.010 C 
HETATM    9  C9  UNL     1      -3.266  48.183 -26.336  1.00  0.00     0.035 C 
HETATM   10  C10 UNL     1      -4.306  48.561 -25.304  1.00  0.00    -0.069 C 
HETATM   11  C11 UNL     1      -5.601  48.257 -25.515  1.00  0.00     0.030 C 
HETATM   12  C12 UNL     1      -6.642  48.499 -24.474  1.00  0.00     0.032 C 
HETATM   13  N1  UNL     1      -7.924  48.374 -24.631  1.00  0.00    -0.271 N 
ATOM     14  H1  UNL     1      -8.609  48.541 -23.894  1.00  0.00     0.194 HD
HETATM   15  C22 UNL     1      -6.152  48.869 -23.090  1.00  0.00     0.060 C 
HETATM   16  C23 UNL     1      -4.970  49.822 -23.188  1.00  0.00     0.020 C 
HETATM   17  C24 UNL     1      -3.794  49.252 -24.039  1.00  0.00    -0.016 C 
HETATM   18  C25 UNL     1      -3.062  48.197 -23.168  1.00  0.00     0.020 C 
HETATM   19  C26 UNL     1      -2.790  50.405 -24.428  1.00  0.00     0.002 C 
HETATM   20  C27 UNL     1      -3.491  51.677 -24.982  1.00  0.00     0.007 C 
HETATM   21  C28 UNL     1      -2.691  52.510 -25.986  1.00  0.00     0.014 C 
HETATM   22  C29 UNL     1      -1.170  52.498 -25.762  1.00  0.00     0.003 C 
HETATM   23  C30 UNL     1      -0.855  53.295 -24.466  1.00  0.00     0.020 C 
ENDROOT
BRANCH   3  24
HETATM   24  O1  UNL     1      -1.051  52.750 -28.219  1.00  0.00    -0.377 OA
HETATM   25  H2  UNL     1      -0.580  53.226 -28.927  1.00  0.00     0.211 HD
ENDBRANCH   3  24
BRANCH  13  26
HETATM   26  O2  UNL     1      -8.256  47.981 -25.940  1.00  0.00    -0.271 OA
BRANCH  26  27
HETATM   27  C13 UNL     1      -9.575  48.420 -26.225  1.00  0.00     0.303 C 
BRANCH  27  28
HETATM   28  C14 UNL     1     -10.609  47.460 -25.643  1.00  0.00     0.244 C 
HETATM   29  O3  UNL     1     -10.833  47.327 -24.443  1.00  0.00    -0.271 OA
HETATM   30  N2  UNL     1     -11.308  46.750 -26.599  1.00  0.00    -0.350 N 
HETATM   31  H16 UNL     1     -10.978  46.715 -27.561  1.00  0.00     0.163 HD
BRANCH  30  32
HETATM   32  C15 UNL     1     -12.302  45.771 -26.211  1.00  0.00     0.225 C 
BRANCH  32  33
HETATM   33  C16 UNL     1     -13.703  46.247 -26.594  1.00  0.00     0.236 C 
HETATM   34  O4  UNL     1     -13.901  47.306 -27.186  1.00  0.00    -0.272 OA
HETATM   35  N3  UNL     1     -14.704  45.376 -26.238  1.00  0.00    -0.345 N 
HETATM   36  H19 UNL     1     -14.462  44.450 -25.893  1.00  0.00     0.163 HD
BRANCH  35  37
HETATM   37  C17 UNL     1     -16.107  45.568 -26.616  1.00  0.00     0.185 C 
BRANCH  37  38
HETATM   38  C18 UNL     1     -16.463  44.650 -27.796  1.00  0.00     0.163 C 
HETATM   39  O5  UNL     1     -15.684  43.983 -28.459  1.00  0.00    -0.648 OA
BRANCH  38  40
HETATM   40  O6  UNL     1     -17.781  44.655 -28.108  1.00  0.00    -0.775 OA
HETATM   41  H21 UNL     1     -17.837  44.034 -28.866  1.00  0.00     0.167 HD
ENDBRANCH  38  40
ENDBRANCH  37  38
BRANCH  37  42
HETATM   42  C19 UNL     1     -17.081  45.323 -25.442  1.00  0.00     0.010 C 
HETATM   43  C20 UNL     1     -16.550  44.305 -24.424  1.00  0.00     0.012 C 
HETATM   44  C21 UNL     1     -17.452  46.624 -24.725  1.00  0.00     0.012 C 
ENDBRANCH  37  42
ENDBRANCH  35  37
ENDBRANCH  32  33
ENDBRANCH  30  32
ENDBRANCH  27  28
ENDBRANCH  26  27
ENDBRANCH  13  26
TORSDOF 10
ENDMDL
