MODEL 1
REMARK minimizedAffinity -8.85643482
REMARK  6 active torsions:
REMARK  status: ('A' for Active; 'I' for Inactive)
REMARK    1  A    between atoms: C6_8  and  C7_9 
REMARK    2  A    between atoms: C10_12  and  O1_13 
REMARK    3  A    between atoms: O1_13  and  C11_14 
REMARK    4  A    between atoms: C18_22  and  C19_23 
REMARK    5  A    between atoms: C22_26  and  O2_27 
REMARK    6  A    between atoms: O2_27  and  C23_28 
ROOT
HETATM    1  C1  UNL     1      -7.446   1.805  12.326  1.00  0.00     0.049 C 
HETATM    2  C2  UNL     1      -6.065   2.378  12.165  1.00  0.00    -0.046 A 
HETATM    3  C3  UNL     1      -5.043   1.618  11.714  1.00  0.00     0.056 A 
HETATM    4  C4  UNL     1      -3.740   2.168  11.569  1.00  0.00     0.112 A 
HETATM    5  N1  UNL     1      -2.614   1.615  11.178  1.00  0.00    -0.350 N 
ATOM      6  H1  UNL     1      -2.465   0.647  10.891  1.00  0.00     0.166 HD
HETATM    7  C5  UNL     1      -1.684   2.618  11.240  1.00  0.00     0.120 A 
HETATM    8  C6  UNL     1      -2.240   3.812  11.662  1.00  0.00     0.066 A 
HETATM    9  N2  UNL     1      -3.573   3.510  11.894  1.00  0.00    -0.305 N 
HETATM   10  C17 UNL     1      -4.611   4.309  12.372  1.00  0.00     0.112 A 
HETATM   11  C18 UNL     1      -5.850   3.794  12.518  1.00  0.00    -0.004 A 
ENDROOT
BRANCH   8  12
HETATM   12  C7  UNL     1      -1.613   5.112  11.860  1.00  0.00    -0.007 A 
HETATM   13  C8  UNL     1      -2.097   6.001  12.829  1.00  0.00     0.016 A 
HETATM   14  C9  UNL     1      -1.496   7.250  13.005  1.00  0.00     0.037 A 
HETATM   15  C10 UNL     1      -0.432   7.628  12.191  1.00  0.00     0.069 A 
HETATM   16  C15 UNL     1       0.080   6.739  11.249  1.00  0.00     0.037 A 
HETATM   17  C16 UNL     1      -0.520   5.490  11.072  1.00  0.00     0.016 A 
BRANCH  15  18
HETATM   18  O1  UNL     1       0.197   8.822  12.397  1.00  0.00    -0.341 OA
BRANCH  18  19
HETATM   19  C11 UNL     1       1.251   8.840  13.388  1.00  0.00     0.057 C 
HETATM   20  C12 UNL     1       1.531   7.445  13.963  1.00  0.00     0.045 C 
HETATM   21  C13 UNL     1       2.497   9.296  12.609  1.00  0.00     0.045 C 
HETATM   22  C14 UNL     1       0.998   9.850  14.517  1.00  0.00     0.045 C 
ENDBRANCH  18  19
ENDBRANCH  15  18
ENDBRANCH   8  12
BRANCH  11  23
HETATM   23  C19 UNL     1      -6.894   4.698  13.027  1.00  0.00    -0.024 A 
HETATM   24  C20 UNL     1      -7.942   5.106  12.197  1.00  0.00     0.015 A 
HETATM   25  C21 UNL     1      -8.934   5.957  12.689  1.00  0.00     0.037 A 
HETATM   26  C22 UNL     1      -8.895   6.416  14.009  1.00  0.00     0.069 A 
HETATM   27  C26 UNL     1      -7.853   6.005  14.840  1.00  0.00     0.037 A 
HETATM   28  C27 UNL     1      -6.857   5.150  14.351  1.00  0.00     0.015 A 
BRANCH  26  29
HETATM   29  O2  UNL     1      -9.932   7.236  14.351  1.00  0.00    -0.347 OA
BRANCH  29  30
HETATM   30  C23 UNL     1     -11.103   7.267  13.528  1.00  0.00     0.120 C 
HETATM   31  C24 UNL     1     -12.224   6.617  14.337  1.00  0.00     0.040 C 
HETATM   32  C25 UNL     1     -11.469   8.711  13.200  1.00  0.00     0.040 C 
ENDBRANCH  29  30
ENDBRANCH  26  29
ENDBRANCH  11  23
TORSDOF 6
ENDMDL
MODEL 2
REMARK minimizedAffinity -8.82071114
REMARK  6 active torsions:
REMARK  status: ('A' for Active; 'I' for Inactive)
REMARK    1  A    between atoms: C6_8  and  C7_9 
REMARK    2  A    between atoms: C10_12  and  O1_13 
REMARK    3  A    between atoms: O1_13  and  C11_14 
REMARK    4  A    between atoms: C18_22  and  C19_23 
REMARK    5  A    between atoms: C22_26  and  O2_27 
REMARK    6  A    between atoms: O2_27  and  C23_28 
ROOT
HETATM    1  C1  UNL     1      -7.042   3.231  12.418  1.00  0.00     0.049 C 
HETATM    2  C2  UNL     1      -5.548   3.330  12.276  1.00  0.00    -0.046 A 
HETATM    3  C3  UNL     1      -4.832   2.329  11.719  1.00  0.00     0.056 A 
HETATM    4  C4  UNL     1      -3.420   2.431  11.593  1.00  0.00     0.112 A 
HETATM    5  N1  UNL     1      -2.538   1.583  11.112  1.00  0.00    -0.350 N 
ATOM      6  H1  UNL     1      -2.716   0.657  10.722  1.00  0.00     0.166 HD
HETATM    7  C5  UNL     1      -1.329   2.211  11.250  1.00  0.00     0.120 A 
HETATM    8  C6  UNL     1      -1.461   3.469  11.810  1.00  0.00     0.066 A 
HETATM    9  N2  UNL     1      -2.820   3.600  12.050  1.00  0.00    -0.305 N 
HETATM   10  C17 UNL     1      -3.538   4.641  12.638  1.00  0.00     0.112 A 
HETATM   11  C18 UNL     1      -4.878   4.550  12.768  1.00  0.00    -0.004 A 
ENDROOT
BRANCH   8  12
HETATM   12  C7  UNL     1      -0.441   4.461  12.123  1.00  0.00    -0.007 A 
HETATM   13  C8  UNL     1       0.630   4.688  11.249  1.00  0.00     0.016 A 
HETATM   14  C9  UNL     1       1.609   5.635  11.561  1.00  0.00     0.037 A 
HETATM   15  C10 UNL     1       1.540   6.332  12.765  1.00  0.00     0.069 A 
HETATM   16  C15 UNL     1       0.460   6.141  13.624  1.00  0.00     0.037 A 
HETATM   17  C16 UNL     1      -0.518   5.194  13.313  1.00  0.00     0.016 A 
BRANCH  15  18
HETATM   18  O1  UNL     1       2.460   7.300  13.048  1.00  0.00    -0.341 OA
BRANCH  18  19
HETATM   19  C11 UNL     1       2.414   8.498  12.241  1.00  0.00     0.057 C 
HETATM   20  C12 UNL     1       3.214   8.352  10.939  1.00  0.00     0.045 C 
HETATM   21  C13 UNL     1       0.928   8.654  11.875  1.00  0.00     0.045 C 
HETATM   22  C14 UNL     1       2.850   9.757  13.006  1.00  0.00     0.045 C 
ENDBRANCH  18  19
ENDBRANCH  15  18
ENDBRANCH   8  12
BRANCH  11  23
HETATM   23  C19 UNL     1      -5.568   5.687  13.399  1.00  0.00    -0.024 A 
HETATM   24  C20 UNL     1      -6.954   5.664  13.573  1.00  0.00     0.015 A 
HETATM   25  C21 UNL     1      -7.601   6.743  14.180  1.00  0.00     0.037 A 
HETATM   26  C22 UNL     1      -6.880   7.858  14.616  1.00  0.00     0.069 A 
HETATM   27  C26 UNL     1      -5.495   7.879  14.449  1.00  0.00     0.037 A 
HETATM   28  C27 UNL     1      -4.843   6.798  13.842  1.00  0.00     0.015 A 
BRANCH  26  29
HETATM   29  O2  UNL     1      -7.643   8.832  15.195  1.00  0.00    -0.347 OA
BRANCH  29  30
HETATM   30  C23 UNL     1      -9.064   8.670  15.249  1.00  0.00     0.120 C 
HETATM   31  C24 UNL     1      -9.392   8.152  16.648  1.00  0.00     0.040 C 
HETATM   32  C25 UNL     1      -9.749  10.014  15.019  1.00  0.00     0.040 C 
ENDBRANCH  29  30
ENDBRANCH  26  29
ENDBRANCH  11  23
TORSDOF 6
ENDMDL
MODEL 3
REMARK minimizedAffinity -8.77918053
REMARK  6 active torsions:
REMARK  status: ('A' for Active; 'I' for Inactive)
REMARK    1  A    between atoms: C6_8  and  C7_9 
REMARK    2  A    between atoms: C10_12  and  O1_13 
REMARK    3  A    between atoms: O1_13  and  C11_14 
REMARK    4  A    between atoms: C18_22  and  C19_23 
REMARK    5  A    between atoms: C22_26  and  O2_27 
REMARK    6  A    between atoms: O2_27  and  C23_28 
ROOT
HETATM    1  C1  UNL     1      -6.636   1.645  11.827  1.00  0.00     0.049 C 
HETATM    2  C2  UNL     1      -5.225   2.165  11.815  1.00  0.00    -0.046 A 
HETATM    3  C3  UNL     1      -4.196   1.383  11.418  1.00  0.00     0.056 A 
HETATM    4  C4  UNL     1      -2.866   1.882  11.415  1.00  0.00     0.112 A 
HETATM    5  N1  UNL     1      -1.732   1.299  11.095  1.00  0.00    -0.350 N 
ATOM      6  H1  UNL     1      -1.596   0.340  10.773  1.00  0.00     0.166 HD
HETATM    7  C5  UNL     1      -0.772   2.257  11.288  1.00  0.00     0.120 A 
HETATM    8  C6  UNL     1      -1.316   3.452  11.721  1.00  0.00     0.066 A 
HETATM    9  N2  UNL     1      -2.675   3.198  11.820  1.00  0.00    -0.305 N 
HETATM   10  C17 UNL     1      -3.720   4.019  12.245  1.00  0.00     0.112 A 
HETATM   11  C18 UNL     1      -4.986   3.552  12.258  1.00  0.00    -0.004 A 
ENDROOT
BRANCH   8  12
HETATM   12  C7  UNL     1      -0.659   4.714  12.038  1.00  0.00    -0.007 A 
HETATM   13  C8  UNL     1      -0.292   5.020  13.355  1.00  0.00     0.016 A 
HETATM   14  C9  UNL     1       0.329   6.236  13.651  1.00  0.00     0.037 A 
HETATM   15  C10 UNL     1       0.554   7.164  12.637  1.00  0.00     0.069 A 
HETATM   16  C15 UNL     1       0.227   6.855  11.319  1.00  0.00     0.037 A 
HETATM   17  C16 UNL     1      -0.394   5.640  11.022  1.00  0.00     0.016 A 
BRANCH  15  18
HETATM   18  O1  UNL     1       1.213   8.328  12.910  1.00  0.00    -0.341 OA
BRANCH  18  19
HETATM   19  C11 UNL     1       2.645   8.238  13.092  1.00  0.00     0.057 C 
HETATM   20  C12 UNL     1       3.300   7.287  12.082  1.00  0.00     0.045 C 
HETATM   21  C13 UNL     1       3.154   9.662  12.810  1.00  0.00     0.045 C 
HETATM   22  C14 UNL     1       3.047   7.864  14.527  1.00  0.00     0.045 C 
ENDBRANCH  18  19
ENDBRANCH  15  18
ENDBRANCH   8  12
BRANCH  11  23
HETATM   23  C19 UNL     1      -6.035   4.476  12.719  1.00  0.00    -0.024 A 
HETATM   24  C20 UNL     1      -7.384   4.170  12.518  1.00  0.00     0.015 A 
HETATM   25  C21 UNL     1      -8.374   5.047  12.966  1.00  0.00     0.037 A 
HETATM   26  C22 UNL     1      -8.037   6.239  13.613  1.00  0.00     0.069 A 
HETATM   27  C26 UNL     1      -6.691   6.542  13.820  1.00  0.00     0.037 A 
HETATM   28  C27 UNL     1      -5.695   5.664  13.374  1.00  0.00     0.015 A 
BRANCH  26  29
HETATM   29  O2  UNL     1      -9.109   6.993  13.999  1.00  0.00    -0.347 OA
BRANCH  29  30
HETATM   30  C23 UNL     1      -9.154   7.519  15.329  1.00  0.00     0.120 C 
HETATM   31  C24 UNL     1      -8.406   6.527  16.218  1.00  0.00     0.040 C 
HETATM   32  C25 UNL     1      -8.464   8.879  15.375  1.00  0.00     0.040 C 
ENDBRANCH  29  30
ENDBRANCH  26  29
ENDBRANCH  11  23
TORSDOF 6
ENDMDL
MODEL 4
REMARK minimizedAffinity -8.59276962
REMARK  6 active torsions:
REMARK  status: ('A' for Active; 'I' for Inactive)
REMARK    1  A    between atoms: C6_8  and  C7_9 
REMARK    2  A    between atoms: C10_12  and  O1_13 
REMARK    3  A    between atoms: O1_13  and  C11_14 
REMARK    4  A    between atoms: C18_22  and  C19_23 
REMARK    5  A    between atoms: C22_26  and  O2_27 
REMARK    6  A    between atoms: O2_27  and  C23_28 
ROOT
HETATM    1  C1  UNL     1      -1.989   1.917  11.136  1.00  0.00     0.049 C 
HETATM    2  C2  UNL     1      -3.356   2.363  11.577  1.00  0.00    -0.046 A 
HETATM    3  C3  UNL     1      -4.408   1.515  11.553  1.00  0.00     0.056 A 
HETATM    4  C4  UNL     1      -5.696   1.947  11.968  1.00  0.00     0.112 A 
HETATM    5  N1  UNL     1      -6.845   1.309  12.003  1.00  0.00    -0.350 N 
ATOM      6  H1  UNL     1      -7.027   0.343  11.731  1.00  0.00     0.166 HD
HETATM    7  C5  UNL     1      -7.745   2.222  12.485  1.00  0.00     0.120 A 
HETATM    8  C6  UNL     1      -7.148   3.438  12.763  1.00  0.00     0.066 A 
HETATM    9  N2  UNL     1      -5.820   3.261  12.407  1.00  0.00    -0.305 N 
HETATM   10  C17 UNL     1      -4.750   4.156  12.430  1.00  0.00     0.112 A 
HETATM   11  C18 UNL     1      -3.524   3.756  12.032  1.00  0.00    -0.004 A 
ENDROOT
BRANCH   8  12
HETATM   12  C7  UNL     1      -7.733   4.665  13.288  1.00  0.00    -0.007 A 
HETATM   13  C8  UNL     1      -8.533   5.482  12.478  1.00  0.00     0.016 A 
HETATM   14  C9  UNL     1      -9.082   6.661  12.987  1.00  0.00     0.037 A 
HETATM   15  C10 UNL     1      -8.806   7.046  14.297  1.00  0.00     0.069 A 
HETATM   16  C15 UNL     1      -8.042   6.224  15.122  1.00  0.00     0.037 A 
HETATM   17  C16 UNL     1      -7.492   5.045  14.614  1.00  0.00     0.016 A 
BRANCH  15  18
HETATM   18  O1  UNL     1      -9.387   8.166  14.818  1.00  0.00    -0.341 OA
BRANCH  18  19
HETATM   19  C11 UNL     1     -10.825   8.266  14.703  1.00  0.00     0.057 C 
HETATM   20  C12 UNL     1     -11.497   6.889  14.607  1.00  0.00     0.045 C 
HETATM   21  C13 UNL     1     -11.267   8.923  16.022  1.00  0.00     0.045 C 
HETATM   22  C14 UNL     1     -11.276   9.170  13.546  1.00  0.00     0.045 C 
ENDBRANCH  18  19
ENDBRANCH  15  18
ENDBRANCH   8  12
BRANCH  11  23
HETATM   23  C19 UNL     1      -2.445   4.756  12.083  1.00  0.00    -0.024 A 
HETATM   24  C20 UNL     1      -2.558   5.876  12.912  1.00  0.00     0.015 A 
HETATM   25  C21 UNL     1      -1.527   6.816  12.962  1.00  0.00     0.037 A 
HETATM   26  C22 UNL     1      -0.375   6.658  12.186  1.00  0.00     0.069 A 
HETATM   27  C26 UNL     1      -0.258   5.538  11.364  1.00  0.00     0.037 A 
HETATM   28  C27 UNL     1      -1.289   4.592  11.312  1.00  0.00     0.015 A 
BRANCH  26  29
HETATM   29  O2  UNL     1       0.550   7.652  12.342  1.00  0.00    -0.347 OA
BRANCH  29  30
HETATM   30  C23 UNL     1       0.821   8.535  11.249  1.00  0.00     0.120 C 
HETATM   31  C24 UNL     1       2.044   7.973  10.526  1.00  0.00     0.040 C 
HETATM   32  C25 UNL     1      -0.372   8.570  10.300  1.00  0.00     0.040 C 
ENDBRANCH  29  30
ENDBRANCH  26  29
ENDBRANCH  11  23
TORSDOF 6
ENDMDL
MODEL 5
REMARK minimizedAffinity -8.57334423
REMARK  6 active torsions:
REMARK  status: ('A' for Active; 'I' for Inactive)
REMARK    1  A    between atoms: C6_8  and  C7_9 
REMARK    2  A    between atoms: C10_12  and  O1_13 
REMARK    3  A    between atoms: O1_13  and  C11_14 
REMARK    4  A    between atoms: C18_22  and  C19_23 
REMARK    5  A    between atoms: C22_26  and  O2_27 
REMARK    6  A    between atoms: O2_27  and  C23_28 
ROOT
HETATM    1  C1  UNL     1      -0.225   2.875  11.583  1.00  0.00     0.049 C 
HETATM    2  C2  UNL     1      -1.708   3.036  11.772  1.00  0.00    -0.046 A 
HETATM    3  C3  UNL     1      -2.569   2.066  11.393  1.00  0.00     0.056 A 
HETATM    4  C4  UNL     1      -3.969   2.229  11.573  1.00  0.00     0.112 A 
HETATM    5  N1  UNL     1      -4.972   1.439  11.261  1.00  0.00    -0.350 N 
ATOM      6  H1  UNL     1      -4.925   0.522  10.817  1.00  0.00     0.166 HD
HETATM    7  C5  UNL     1      -6.094   2.114  11.661  1.00  0.00     0.120 A 
HETATM    8  C6  UNL     1      -5.787   3.332  12.239  1.00  0.00     0.066 A 
HETATM    9  N2  UNL     1      -4.405   3.412  12.162  1.00  0.00    -0.305 N 
HETATM   10  C17 UNL     1      -3.535   4.431  12.550  1.00  0.00     0.112 A 
HETATM   11  C18 UNL     1      -2.204   4.287  12.377  1.00  0.00    -0.004 A 
ENDROOT
BRANCH   8  12
HETATM   12  C7  UNL     1      -6.669   4.349  12.795  1.00  0.00    -0.007 A 
HETATM   13  C8  UNL     1      -7.976   4.505  12.316  1.00  0.00     0.016 A 
HETATM   14  C9  UNL     1      -8.812   5.488  12.849  1.00  0.00     0.037 A 
HETATM   15  C10 UNL     1      -8.334   6.343  13.839  1.00  0.00     0.069 A 
HETATM   16  C15 UNL     1      -7.049   6.173  14.349  1.00  0.00     0.037 A 
HETATM   17  C16 UNL     1      -6.212   5.190  13.817  1.00  0.00     0.016 A 
BRANCH  15  18
HETATM   18  O1  UNL     1      -9.165   7.266  14.405  1.00  0.00    -0.341 OA
BRANCH  18  19
HETATM   19  C11 UNL     1      -8.704   7.896  15.622  1.00  0.00     0.057 C 
HETATM   20  C12 UNL     1      -8.033   6.897  16.575  1.00  0.00     0.045 C 
HETATM   21  C13 UNL     1      -7.636   8.899  15.151  1.00  0.00     0.045 C 
HETATM   22  C14 UNL     1      -9.807   8.681  16.349  1.00  0.00     0.045 C 
ENDBRANCH  18  19
ENDBRANCH  15  18
ENDBRANCH   8  12
BRANCH  11  23
HETATM   23  C19 UNL     1      -1.349   5.404  12.811  1.00  0.00    -0.024 A 
HETATM   24  C20 UNL     1      -1.770   6.725  12.636  1.00  0.00     0.015 A 
HETATM   25  C21 UNL     1      -0.957   7.780  13.057  1.00  0.00     0.037 A 
HETATM   26  C22 UNL     1       0.284   7.535  13.651  1.00  0.00     0.069 A 
HETATM   27  C26 UNL     1       0.703   6.217  13.831  1.00  0.00     0.037 A 
HETATM   28  C27 UNL     1      -0.110   5.156  13.412  1.00  0.00     0.015 A 
BRANCH  26  29
HETATM   29  O2  UNL     1       0.966   8.661  14.016  1.00  0.00    -0.347 OA
BRANCH  29  30
HETATM   30  C23 UNL     1       2.240   8.535  14.654  1.00  0.00     0.120 C 
HETATM   31  C24 UNL     1       3.162   9.562  14.000  1.00  0.00     0.040 C 
HETATM   32  C25 UNL     1       2.106   8.833  16.145  1.00  0.00     0.040 C 
ENDBRANCH  29  30
ENDBRANCH  26  29
ENDBRANCH  11  23
TORSDOF 6
ENDMDL
MODEL 6
REMARK minimizedAffinity -8.4367094
REMARK  6 active torsions:
REMARK  status: ('A' for Active; 'I' for Inactive)
REMARK    1  A    between atoms: C6_8  and  C7_9 
REMARK    2  A    between atoms: C10_12  and  O1_13 
REMARK    3  A    between atoms: O1_13  and  C11_14 
REMARK    4  A    between atoms: C18_22  and  C19_23 
REMARK    5  A    between atoms: C22_26  and  O2_27 
REMARK    6  A    between atoms: O2_27  and  C23_28 
ROOT
HETATM    1  C1  UNL     1      -0.510   3.460  11.741  1.00  0.00     0.049 C 
HETATM    2  C2  UNL     1      -2.003   3.541  11.899  1.00  0.00    -0.046 A 
HETATM    3  C3  UNL     1      -2.808   2.561  11.432  1.00  0.00     0.056 A 
HETATM    4  C4  UNL     1      -4.219   2.648  11.582  1.00  0.00     0.112 A 
HETATM    5  N1  UNL     1      -5.176   1.836  11.190  1.00  0.00    -0.350 N 
ATOM      6  H1  UNL     1      -5.074   0.954  10.688  1.00  0.00     0.166 HD
HETATM    7  C5  UNL     1      -6.338   2.432  11.601  1.00  0.00     0.120 A 
HETATM    8  C6  UNL     1      -6.102   3.620  12.267  1.00  0.00     0.066 A 
HETATM    9  N2  UNL     1      -4.724   3.767  12.235  1.00  0.00    -0.305 N 
HETATM   10  C17 UNL     1      -3.913   4.796  12.714  1.00  0.00     0.112 A 
HETATM   11  C18 UNL     1      -2.573   4.724  12.571  1.00  0.00    -0.004 A 
ENDROOT
BRANCH   8  12
HETATM   12  C7  UNL     1      -7.046   4.556  12.864  1.00  0.00    -0.007 A 
HETATM   13  C8  UNL     1      -8.122   5.061  12.123  1.00  0.00     0.016 A 
HETATM   14  C9  UNL     1      -9.017   5.965  12.701  1.00  0.00     0.037 A 
HETATM   15  C10 UNL     1      -8.818   6.395  14.011  1.00  0.00     0.069 A 
HETATM   16  C15 UNL     1      -7.773   5.873  14.769  1.00  0.00     0.037 A 
HETATM   17  C16 UNL     1      -6.878   4.969  14.192  1.00  0.00     0.016 A 
BRANCH  15  18
HETATM   18  O1  UNL     1      -9.721   7.233  14.600  1.00  0.00    -0.341 OA
BRANCH  18  19
HETATM   19  C11 UNL     1     -10.990   7.399  13.927  1.00  0.00     0.057 C 
HETATM   20  C12 UNL     1     -12.031   6.369  14.388  1.00  0.00     0.045 C 
HETATM   21  C13 UNL     1     -11.471   8.794  14.361  1.00  0.00     0.045 C 
HETATM   22  C14 UNL     1     -10.865   7.394  12.395  1.00  0.00     0.045 C 
ENDBRANCH  18  19
ENDBRANCH  15  18
ENDBRANCH   8  12
BRANCH  11  23
HETATM   23  C19 UNL     1      -1.783   5.847  13.101  1.00  0.00    -0.024 A 
HETATM   24  C20 UNL     1      -1.439   5.892  14.455  1.00  0.00     0.015 A 
HETATM   25  C21 UNL     1      -0.682   6.957  14.950  1.00  0.00     0.037 A 
HETATM   26  C22 UNL     1      -0.262   7.989  14.107  1.00  0.00     0.069 A 
HETATM   27  C26 UNL     1      -0.599   7.943  12.755  1.00  0.00     0.037 A 
HETATM   28  C27 UNL     1      -1.357   6.876  12.255  1.00  0.00     0.015 A 
BRANCH  26  29
HETATM   29  O2  UNL     1       0.475   8.958  14.728  1.00  0.00    -0.347 OA
BRANCH  29  30
HETATM   30  C23 UNL     1      -0.185  10.117  15.247  1.00  0.00     0.120 C 
HETATM   31  C24 UNL     1      -1.425  10.339  14.382  1.00  0.00     0.040 C 
HETATM   32  C25 UNL     1      -0.600   9.874  16.695  1.00  0.00     0.040 C 
ENDBRANCH  29  30
ENDBRANCH  26  29
ENDBRANCH  11  23
TORSDOF 6
ENDMDL
MODEL 7
REMARK minimizedAffinity -8.31676388
REMARK  6 active torsions:
REMARK  status: ('A' for Active; 'I' for Inactive)
REMARK    1  A    between atoms: C6_8  and  C7_9 
REMARK    2  A    between atoms: C10_12  and  O1_13 
REMARK    3  A    between atoms: O1_13  and  C11_14 
REMARK    4  A    between atoms: C18_22  and  C19_23 
REMARK    5  A    between atoms: C22_26  and  O2_27 
REMARK    6  A    between atoms: O2_27  and  C23_28 
ROOT
HETATM    1  C1  UNL     1      -7.999   3.060  12.805  1.00  0.00     0.049 C 
HETATM    2  C2  UNL     1      -6.553   3.447  12.671  1.00  0.00    -0.046 A 
HETATM    3  C3  UNL     1      -5.699   2.708  11.928  1.00  0.00     0.056 A 
HETATM    4  C4  UNL     1      -4.333   3.081  11.810  1.00  0.00     0.112 A 
HETATM    5  N1  UNL     1      -3.338   2.506  11.170  1.00  0.00    -0.350 N 
ATOM      6  H1  UNL     1      -3.370   1.651  10.614  1.00  0.00     0.166 HD
HETATM    7  C5  UNL     1      -2.251   3.302  11.413  1.00  0.00     0.120 A 
HETATM    8  C6  UNL     1      -2.574   4.391  12.202  1.00  0.00     0.066 A 
HETATM    9  N2  UNL     1      -3.924   4.233  12.474  1.00  0.00    -0.305 N 
HETATM   10  C17 UNL     1      -4.785   5.003  13.255  1.00  0.00     0.112 A 
HETATM   11  C18 UNL     1      -6.083   4.654  13.378  1.00  0.00    -0.004 A 
ENDROOT
BRANCH   8  12
HETATM   12  C7  UNL     1      -1.727   5.473  12.687  1.00  0.00    -0.007 A 
HETATM   13  C8  UNL     1      -2.054   6.811  12.429  1.00  0.00     0.016 A 
HETATM   14  C9  UNL     1      -1.232   7.841  12.890  1.00  0.00     0.037 A 
HETATM   15  C10 UNL     1      -0.062   7.538  13.580  1.00  0.00     0.069 A 
HETATM   16  C15 UNL     1       0.255   6.214  13.875  1.00  0.00     0.037 A 
HETATM   17  C16 UNL     1      -0.566   5.182  13.414  1.00  0.00     0.016 A 
BRANCH  15  18
HETATM   18  O1  UNL     1       0.715   8.541  14.084  1.00  0.00    -0.341 OA
BRANCH  18  19
HETATM   19  C11 UNL     1       0.201   9.245  15.238  1.00  0.00     0.057 C 
HETATM   20  C12 UNL     1      -0.665   8.345  16.129  1.00  0.00     0.045 C 
HETATM   21  C13 UNL     1       1.458   9.639  16.034  1.00  0.00     0.045 C 
HETATM   22  C14 UNL     1      -0.554  10.532  14.872  1.00  0.00     0.045 C 
ENDBRANCH  18  19
ENDBRANCH  15  18
ENDBRANCH   8  12
BRANCH  11  23
HETATM   23  C19 UNL     1      -6.931   5.515  14.219  1.00  0.00    -0.024 A 
HETATM   24  C20 UNL     1      -6.590   5.755  15.553  1.00  0.00     0.015 A 
HETATM   25  C21 UNL     1      -7.395   6.580  16.343  1.00  0.00     0.037 A 
HETATM   26  C22 UNL     1      -8.548   7.171  15.818  1.00  0.00     0.069 A 
HETATM   27  C26 UNL     1      -8.885   6.936  14.485  1.00  0.00     0.037 A 
HETATM   28  C27 UNL     1      -8.080   6.112  13.689  1.00  0.00     0.015 A 
BRANCH  26  29
HETATM   29  O2  UNL     1      -9.232   7.954  16.704  1.00  0.00    -0.347 OA
BRANCH  29  30
HETATM   30  C23 UNL     1     -10.100   8.979  16.210  1.00  0.00     0.120 C 
HETATM   31  C24 UNL     1     -10.856   9.531  17.416  1.00  0.00     0.040 C 
HETATM   32  C25 UNL     1      -9.278  10.088  15.560  1.00  0.00     0.040 C 
ENDBRANCH  29  30
ENDBRANCH  26  29
ENDBRANCH  11  23
TORSDOF 6
ENDMDL
MODEL 8
REMARK minimizedAffinity -8.24610043
REMARK  6 active torsions:
REMARK  status: ('A' for Active; 'I' for Inactive)
REMARK    1  A    between atoms: C6_8  and  C7_9 
REMARK    2  A    between atoms: C10_12  and  O1_13 
REMARK    3  A    between atoms: O1_13  and  C11_14 
REMARK    4  A    between atoms: C18_22  and  C19_23 
REMARK    5  A    between atoms: C22_26  and  O2_27 
REMARK    6  A    between atoms: O2_27  and  C23_28 
ROOT
HETATM    1  C1  UNL     1      -1.500   3.729  11.514  1.00  0.00     0.049 C 
HETATM    2  C2  UNL     1      -2.908   3.911  12.011  1.00  0.00    -0.046 A 
HETATM    3  C3  UNL     1      -3.895   3.069  11.634  1.00  0.00     0.056 A 
HETATM    4  C4  UNL     1      -5.223   3.252  12.105  1.00  0.00     0.112 A 
HETATM    5  N1  UNL     1      -6.324   2.579  11.853  1.00  0.00    -0.350 N 
ATOM      6  H1  UNL     1      -6.428   1.764  11.249  1.00  0.00     0.166 HD
HETATM    7  C5  UNL     1      -7.300   3.210  12.577  1.00  0.00     0.120 A 
HETATM    8  C6  UNL     1      -6.800   4.279  13.298  1.00  0.00     0.066 A 
HETATM    9  N2  UNL     1      -5.453   4.315  12.972  1.00  0.00    -0.305 N 
HETATM   10  C17 UNL     1      -4.451   5.203  13.366  1.00  0.00     0.112 A 
HETATM   11  C18 UNL     1      -3.189   5.040  12.918  1.00  0.00    -0.004 A 
ENDROOT
BRANCH   8  12
HETATM   12  C7  UNL     1      -7.487   5.204  14.189  1.00  0.00    -0.007 A 
HETATM   13  C8  UNL     1      -7.062   5.374  15.513  1.00  0.00     0.016 A 
HETATM   14  C9  UNL     1      -7.733   6.256  16.364  1.00  0.00     0.037 A 
HETATM   15  C10 UNL     1      -8.851   6.946  15.904  1.00  0.00     0.069 A 
HETATM   16  C15 UNL     1      -9.261   6.813  14.579  1.00  0.00     0.037 A 
HETATM   17  C16 UNL     1      -8.592   5.931  13.729  1.00  0.00     0.016 A 
BRANCH  15  18
HETATM   18  O1  UNL     1      -9.475   7.853  16.712  1.00  0.00    -0.341 OA
BRANCH  18  19
HETATM   19  C11 UNL     1     -10.116   8.973  16.059  1.00  0.00     0.057 C 
HETATM   20  C12 UNL     1     -11.334   8.541  15.229  1.00  0.00     0.045 C 
HETATM   21  C13 UNL     1     -10.615   9.854  17.217  1.00  0.00     0.045 C 
HETATM   22  C14 UNL     1      -9.149   9.808  15.207  1.00  0.00     0.045 C 
ENDBRANCH  18  19
ENDBRANCH  15  18
ENDBRANCH   8  12
BRANCH  11  23
HETATM   23  C19 UNL     1      -2.186   6.016  13.375  1.00  0.00    -0.024 A 
HETATM   24  C20 UNL     1      -1.409   5.754  14.507  1.00  0.00     0.015 A 
HETATM   25  C21 UNL     1      -0.454   6.680  14.931  1.00  0.00     0.037 A 
HETATM   26  C22 UNL     1      -0.263   7.879  14.238  1.00  0.00     0.069 A 
HETATM   27  C26 UNL     1      -1.033   8.139  13.105  1.00  0.00     0.037 A 
HETATM   28  C27 UNL     1      -1.991   7.212  12.676  1.00  0.00     0.015 A 
BRANCH  26  29
HETATM   29  O2  UNL     1       0.708   8.684  14.764  1.00  0.00    -0.347 OA
BRANCH  29  30
HETATM   30  C23 UNL     1       0.853   8.772  16.185  1.00  0.00     0.120 C 
HETATM   31  C24 UNL     1       2.328   9.064  16.457  1.00  0.00     0.040 C 
HETATM   32  C25 UNL     1      -0.009   9.907  16.727  1.00  0.00     0.040 C 
ENDBRANCH  29  30
ENDBRANCH  26  29
ENDBRANCH  11  23
TORSDOF 6
ENDMDL
MODEL 9
REMARK minimizedAffinity -8.1054306
REMARK  6 active torsions:
REMARK  status: ('A' for Active; 'I' for Inactive)
REMARK    1  A    between atoms: C6_8  and  C7_9 
REMARK    2  A    between atoms: C10_12  and  O1_13 
REMARK    3  A    between atoms: O1_13  and  C11_14 
REMARK    4  A    between atoms: C18_22  and  C19_23 
REMARK    5  A    between atoms: C22_26  and  O2_27 
REMARK    6  A    between atoms: O2_27  and  C23_28 
ROOT
HETATM    1  C1  UNL     1      -8.296   3.701  12.678  1.00  0.00     0.049 C 
HETATM    2  C2  UNL     1      -7.761   4.954  13.314  1.00  0.00    -0.046 A 
HETATM    3  C3  UNL     1      -8.595   5.902  13.797  1.00  0.00     0.056 A 
HETATM    4  C4  UNL     1      -8.080   7.085  14.392  1.00  0.00     0.112 A 
HETATM    5  N1  UNL     1      -8.697   8.130  14.898  1.00  0.00    -0.350 N 
ATOM      6  H1  UNL     1      -9.703   8.286  14.961  1.00  0.00     0.166 HD
HETATM    7  C5  UNL     1      -7.697   8.964  15.321  1.00  0.00     0.120 A 
HETATM    8  C6  UNL     1      -6.444   8.427  15.088  1.00  0.00     0.066 A 
HETATM    9  N2  UNL     1      -6.697   7.214  14.466  1.00  0.00    -0.305 N 
HETATM   10  C17 UNL     1      -5.818   6.254  13.964  1.00  0.00     0.112 A 
HETATM   11  C18 UNL     1      -6.298   5.131  13.392  1.00  0.00    -0.004 A 
ENDROOT
BRANCH   8  12
HETATM   12  C7  UNL     1      -5.126   8.974  15.384  1.00  0.00    -0.007 A 
HETATM   13  C8  UNL     1      -4.034   8.129  15.620  1.00  0.00     0.016 A 
HETATM   14  C9  UNL     1      -2.777   8.663  15.912  1.00  0.00     0.037 A 
HETATM   15  C10 UNL     1      -2.614  10.042  16.004  1.00  0.00     0.069 A 
HETATM   16  C15 UNL     1      -3.684  10.893  15.736  1.00  0.00     0.037 A 
HETATM   17  C16 UNL     1      -4.941  10.361  15.444  1.00  0.00     0.016 A 
BRANCH  15  18
HETATM   18  O1  UNL     1      -1.376  10.571  16.231  1.00  0.00    -0.341 OA
BRANCH  18  19
HETATM   19  C11 UNL     1      -1.106  11.044  17.570  1.00  0.00     0.057 C 
HETATM   20  C12 UNL     1       0.320  10.708  18.028  1.00  0.00     0.045 C 
HETATM   21  C13 UNL     1      -1.227  12.574  17.465  1.00  0.00     0.045 C 
HETATM   22  C14 UNL     1      -2.135  10.555  18.601  1.00  0.00     0.045 C 
ENDBRANCH  18  19
ENDBRANCH  15  18
ENDBRANCH   8  12
BRANCH  11  23
HETATM   23  C19 UNL     1      -5.311   4.164  12.884  1.00  0.00    -0.024 A 
HETATM   24  C20 UNL     1      -5.714   3.107  12.064  1.00  0.00     0.015 A 
HETATM   25  C21 UNL     1      -4.770   2.198  11.580  1.00  0.00     0.037 A 
HETATM   26  C22 UNL     1      -3.418   2.327  11.907  1.00  0.00     0.069 A 
HETATM   27  C26 UNL     1      -3.013   3.385  12.720  1.00  0.00     0.037 A 
HETATM   28  C27 UNL     1      -3.956   4.299  13.207  1.00  0.00     0.015 A 
BRANCH  26  29
HETATM   29  O2  UNL     1      -2.612   1.370  11.358  1.00  0.00    -0.347 OA
BRANCH  29  30
HETATM   30  C23 UNL     1      -1.456   1.768  10.615  1.00  0.00     0.120 C 
HETATM   31  C24 UNL     1      -0.617   2.643  11.545  1.00  0.00     0.040 C 
HETATM   32  C25 UNL     1      -0.655   0.538  10.199  1.00  0.00     0.040 C 
ENDBRANCH  29  30
ENDBRANCH  26  29
ENDBRANCH  11  23
TORSDOF 6
ENDMDL
