MODEL 1
REMARK minimizedAffinity -7.80132008
REMARK CNNscore 0.675356209
REMARK CNNaffinity 7.07330275
REMARK  19 active torsions:
REMARK  status: ('A' for Active; 'I' for Inactive)
REMARK    1  A    between atoms: C2_2  and  C3_3 
REMARK    2  A    between atoms: C3_3  and  C5_5 
REMARK    3  A    between atoms: C5_5  and  N1_6 
REMARK    4  A    between atoms: C5_5  and  C37_46 
REMARK       I    between atoms: N1_6  and  C6_7 
REMARK    5  A    between atoms: C6_7  and  C7_9 
REMARK    6  A    between atoms: C7_9  and  C8_10 
REMARK    7  A    between atoms: C8_10  and  C9_11 
REMARK    8  A    between atoms: C9_11  and  C10_12 
REMARK    9  A    between atoms: C10_12  and  C11_13 
REMARK   10  A    between atoms: C11_13  and  N2_14 
REMARK       I    between atoms: N2_14  and  C12_15 
REMARK   11  A    between atoms: C12_15  and  C13_17 
REMARK   12  A    between atoms: C13_17  and  C14_18 
REMARK   13  A    between atoms: C14_18  and  C15_19 
REMARK   14  A    between atoms: C15_19  and  O4_21 
REMARK   15  A    between atoms: O4_21  and  C16_22 
REMARK   16  A    between atoms: C16_22  and  C17_23 
REMARK   17  A    between atoms: C17_23  and  C18_25 
REMARK   18  A    between atoms: C18_25  and  O6_26 
REMARK   19  A    between atoms: C37_46  and  O9_48 
ROOT
HETATM    1  C15 UNL     1      -1.900  50.799 -12.572  1.00  0.00     0.259 C 
HETATM    2  O3  UNL     1      -2.116  51.832 -13.193  1.00  0.00    -0.265 OA
ENDROOT
BRANCH   1   3
HETATM    3  C14 UNL     1      -1.806  49.448 -13.243  1.00  0.00     0.120 C 
BRANCH   3   4
HETATM    4  C13 UNL     1      -2.651  49.282 -14.498  1.00  0.00     0.112 C 
BRANCH   4   5
HETATM    5  C12 UNL     1      -1.798  49.101 -15.738  1.00  0.00     0.217 C 
HETATM    6  N2  UNL     1      -1.965  50.115 -16.655  1.00  0.00    -0.361 N 
HETATM    7  H22 UNL     1      -2.523  50.927 -16.406  1.00  0.00     0.162 HD
HETATM    8  O2  UNL     1      -1.060  48.138 -15.915  1.00  0.00    -0.274 OA
BRANCH   6   9
HETATM    9  C11 UNL     1      -1.211  50.138 -17.889  1.00  0.00     0.122 C 
BRANCH   9  10
HETATM   10  C10 UNL     1       0.179  50.754 -17.737  1.00  0.00     0.020 C 
BRANCH  10  11
HETATM   11  C9  UNL     1       0.288  52.222 -18.175  1.00  0.00     0.002 C 
BRANCH  11  12
HETATM   12  C8  UNL     1       0.041  52.457 -19.669  1.00  0.00     0.009 C 
BRANCH  12  13
HETATM   13  C7  UNL     1       0.438  53.869 -20.107  1.00  0.00     0.103 C 
BRANCH  13  14
HETATM   14  C6  UNL     1       1.190  53.887 -21.427  1.00  0.00     0.218 C 
HETATM   15  N1  UNL     1       0.581  53.132 -22.407  1.00  0.00    -0.346 N 
HETATM   16  H11 UNL     1      -0.416  52.973 -22.305  1.00  0.00     0.163 HD
HETATM   17  O1  UNL     1       2.223  54.521 -21.610  1.00  0.00    -0.274 OA
BRANCH  15  18
HETATM   18  C5  UNL     1       1.104  53.139 -23.777  1.00  0.00     0.186 C 
BRANCH  18  19
HETATM   19  C3  UNL     1       0.745  51.827 -24.520  1.00  0.00     0.014 C 
HETATM   20  C4  UNL     1      -0.729  51.458 -24.296  1.00  0.00     0.012 C 
BRANCH  19  21
HETATM   21  C2  UNL     1       1.053  51.948 -26.032  1.00  0.00     0.002 C 
HETATM   22  C1  UNL     1       0.247  50.996 -26.906  1.00  0.00     0.005 C 
ENDBRANCH  19  21
ENDBRANCH  18  19
BRANCH  18  23
HETATM   23  C37 UNL     1       0.475  54.355 -24.463  1.00  0.00     0.163 C 
HETATM   24  O8  UNL     1      -0.568  54.356 -25.103  1.00  0.00    -0.648 OA
BRANCH  23  25
HETATM   25  O9  UNL     1       1.203  55.483 -24.325  1.00  0.00    -0.775 OA
HETATM   26  H56 UNL     1       0.667  56.172 -24.767  1.00  0.00     0.167 HD
ENDBRANCH  23  25
ENDBRANCH  18  23
ENDBRANCH  15  18
ENDBRANCH  13  14
ENDBRANCH  12  13
ENDBRANCH  11  12
ENDBRANCH  10  11
ENDBRANCH   9  10
ENDBRANCH   6   9
ENDBRANCH   4   5
ENDBRANCH   3   4
ENDBRANCH   1   3
BRANCH   1  27
HETATM   27  O4  UNL     1      -1.870  50.715 -11.219  1.00  0.00    -0.314 OA
BRANCH  27  28
HETATM   28  C16 UNL     1      -2.354  51.850 -10.506  1.00  0.00     0.260 C 
BRANCH  28  29
HETATM   29  C17 UNL     1      -1.537  52.591  -9.429  1.00  0.00     0.185 C 
HETATM   30  O5  UNL     1      -2.090  52.917  -8.373  1.00  0.00    -0.292 OA
BRANCH  29  31
HETATM   31  C18 UNL     1      -0.108  53.065  -9.804  1.00  0.00     0.128 C 
HETATM   32  C19 UNL     1      -0.183  53.835 -11.150  1.00  0.00     0.047 C 
HETATM   33  C20 UNL     1       0.929  54.900 -11.113  1.00  0.00     0.009 C 
HETATM   34  C21 UNL     1       1.696  54.623  -9.817  1.00  0.00     0.002 C 
HETATM   35  C22 UNL     1       2.543  55.780  -9.247  1.00  0.00    -0.004 C 
HETATM   36  C35 UNL     1       0.606  54.093  -8.850  1.00  0.00    -0.002 C 
HETATM   37  C23 UNL     1       3.747  56.068 -10.172  1.00  0.00     0.010 C 
HETATM   38  C32 UNL     1       2.939  55.506  -7.743  1.00  0.00     0.002 C 
HETATM   39  C24 UNL     1       5.002  55.318  -9.749  1.00  0.00     0.035 C 
HETATM   40  C25 UNL     1       5.426  55.657  -8.343  1.00  0.00    -0.068 C 
HETATM   41  C26 UNL     1       6.722  55.546  -7.996  1.00  0.00     0.053 C 
HETATM   42  C30 UNL     1       4.345  56.102  -7.359  1.00  0.00    -0.016 C 
HETATM   43  C27 UNL     1       7.196  55.841  -6.619  1.00  0.00     0.149 C 
HETATM   44  O7  UNL     1       8.403  55.828  -6.385  1.00  0.00    -0.293 OA
HETATM   45  C28 UNL     1       6.177  56.187  -5.558  1.00  0.00     0.084 C 
HETATM   46  C29 UNL     1       4.791  55.663  -5.934  1.00  0.00     0.022 C 
HETATM   47  C31 UNL     1       4.236  57.654  -7.362  1.00  0.00     0.020 C 
HETATM   48  C33 UNL     1       2.738  54.010  -7.382  1.00  0.00     0.007 C 
HETATM   49  C34 UNL     1       1.299  53.504  -7.601  1.00  0.00     0.013 C 
HETATM   50  C36 UNL     1      -0.347  55.234  -8.393  1.00  0.00     0.019 C 
BRANCH  31  51
HETATM   51  O6  UNL     1       0.761  51.949 -10.048  1.00  0.00    -0.381 OA
HETATM   52  H29 UNL     1       0.826  51.451  -9.216  1.00  0.00     0.211 HD
ENDBRANCH  31  51
ENDBRANCH  29  31
ENDBRANCH  28  29
ENDBRANCH  27  28
ENDBRANCH   1  27
TORSDOF 19
ENDMDL
MODEL 2
REMARK minimizedAffinity -8.90078545
REMARK CNNscore 0.650077581
REMARK CNNaffinity 7.5887742
REMARK  19 active torsions:
REMARK  status: ('A' for Active; 'I' for Inactive)
REMARK    1  A    between atoms: C2_2  and  C3_3 
REMARK    2  A    between atoms: C3_3  and  C5_5 
REMARK    3  A    between atoms: C5_5  and  N1_6 
REMARK    4  A    between atoms: C5_5  and  C37_46 
REMARK       I    between atoms: N1_6  and  C6_7 
REMARK    5  A    between atoms: C6_7  and  C7_9 
REMARK    6  A    between atoms: C7_9  and  C8_10 
REMARK    7  A    between atoms: C8_10  and  C9_11 
REMARK    8  A    between atoms: C9_11  and  C10_12 
REMARK    9  A    between atoms: C10_12  and  C11_13 
REMARK   10  A    between atoms: C11_13  and  N2_14 
REMARK       I    between atoms: N2_14  and  C12_15 
REMARK   11  A    between atoms: C12_15  and  C13_17 
REMARK   12  A    between atoms: C13_17  and  C14_18 
REMARK   13  A    between atoms: C14_18  and  C15_19 
REMARK   14  A    between atoms: C15_19  and  O4_21 
REMARK   15  A    between atoms: O4_21  and  C16_22 
REMARK   16  A    between atoms: C16_22  and  C17_23 
REMARK   17  A    between atoms: C17_23  and  C18_25 
REMARK   18  A    between atoms: C18_25  and  O6_26 
REMARK   19  A    between atoms: C37_46  and  O9_48 
ROOT
HETATM    1  C15 UNL     1       1.389  54.425 -21.759  1.00  0.00     0.259 C 
HETATM    2  O3  UNL     1       2.614  54.419 -21.760  1.00  0.00    -0.265 OA
ENDROOT
BRANCH   1   3
HETATM    3  C14 UNL     1       0.573  54.028 -20.552  1.00  0.00     0.120 C 
BRANCH   3   4
HETATM    4  C13 UNL     1       0.698  52.570 -20.129  1.00  0.00     0.112 C 
BRANCH   4   5
HETATM    5  C12 UNL     1       0.460  52.387 -18.643  1.00  0.00     0.217 C 
HETATM    6  N2  UNL     1       1.534  52.781 -17.877  1.00  0.00    -0.361 N 
HETATM    7  H22 UNL     1       2.318  53.250 -18.320  1.00  0.00     0.162 HD
HETATM    8  O2  UNL     1      -0.571  51.911 -18.178  1.00  0.00    -0.274 OA
BRANCH   6   9
HETATM    9  C11 UNL     1       1.485  52.715 -16.433  1.00  0.00     0.122 C 
BRANCH   9  10
HETATM   10  C10 UNL     1       2.113  51.445 -15.864  1.00  0.00     0.020 C 
BRANCH  10  11
HETATM   11  C9  UNL     1       3.228  51.679 -14.833  1.00  0.00     0.002 C 
BRANCH  11  12
HETATM   12  C8  UNL     1       2.809  51.429 -13.381  1.00  0.00     0.009 C 
BRANCH  12  13
HETATM   13  C7  UNL     1       1.412  51.977 -13.077  1.00  0.00     0.103 C 
BRANCH  13  14
HETATM   14  C6  UNL     1       1.253  52.417 -11.631  1.00  0.00     0.218 C 
HETATM   15  N1  UNL     1       0.786  53.708 -11.507  1.00  0.00    -0.346 N 
HETATM   16  H11 UNL     1       0.260  54.080 -12.291  1.00  0.00     0.163 HD
HETATM   17  O1  UNL     1       1.498  51.694 -10.672  1.00  0.00    -0.274 OA
BRANCH  15  18
HETATM   18  C5  UNL     1       0.455  54.251 -10.185  1.00  0.00     0.186 C 
BRANCH  18  19
HETATM   19  C3  UNL     1       1.380  55.440  -9.820  1.00  0.00     0.014 C 
HETATM   20  C4  UNL     1       1.395  55.675  -8.302  1.00  0.00     0.012 C 
BRANCH  19  21
HETATM   21  C2  UNL     1       2.814  55.206 -10.351  1.00  0.00     0.002 C 
HETATM   22  C1  UNL     1       3.386  56.384 -11.129  1.00  0.00     0.005 C 
ENDBRANCH  19  21
ENDBRANCH  18  19
BRANCH  18  23
HETATM   23  C37 UNL     1      -1.010  54.690 -10.263  1.00  0.00     0.163 C 
HETATM   24  O8  UNL     1      -1.423  55.831 -10.112  1.00  0.00    -0.648 OA
BRANCH  23  25
HETATM   25  O9  UNL     1      -1.862  53.671 -10.500  1.00  0.00    -0.775 OA
HETATM   26  H56 UNL     1      -2.739  54.099 -10.566  1.00  0.00     0.167 HD
ENDBRANCH  23  25
ENDBRANCH  18  23
ENDBRANCH  15  18
ENDBRANCH  13  14
ENDBRANCH  12  13
ENDBRANCH  11  12
ENDBRANCH  10  11
ENDBRANCH   9  10
ENDBRANCH   6   9
ENDBRANCH   4   5
ENDBRANCH   3   4
ENDBRANCH   1   3
BRANCH   1  27
HETATM   27  O4  UNL     1       0.628  54.636 -22.861  1.00  0.00    -0.314 OA
BRANCH  27  28
HETATM   28  C16 UNL     1       0.849  53.754 -23.958  1.00  0.00     0.260 C 
BRANCH  28  29
HETATM   29  C17 UNL     1       0.128  53.885 -25.315  1.00  0.00     0.185 C 
HETATM   30  O5  UNL     1       0.166  54.965 -25.915  1.00  0.00    -0.292 OA
BRANCH  29  31
HETATM   31  C18 UNL     1      -0.777  52.709 -25.769  1.00  0.00     0.128 C 
HETATM   32  C19 UNL     1       0.123  51.616 -26.405  1.00  0.00     0.047 C 
HETATM   33  C20 UNL     1      -0.560  50.263 -26.125  1.00  0.00     0.009 C 
HETATM   34  C21 UNL     1      -1.892  50.625 -25.463  1.00  0.00     0.002 C 
HETATM   35  C22 UNL     1      -2.581  49.521 -24.633  1.00  0.00    -0.004 C 
HETATM   36  C35 UNL     1      -1.569  51.915 -24.665  1.00  0.00    -0.002 C 
HETATM   37  C23 UNL     1      -3.081  48.390 -25.559  1.00  0.00     0.010 C 
HETATM   38  C32 UNL     1      -3.699  50.128 -23.699  1.00  0.00     0.002 C 
HETATM   39  C24 UNL     1      -4.531  48.580 -25.984  1.00  0.00     0.035 C 
HETATM   40  C25 UNL     1      -5.470  48.644 -24.807  1.00  0.00    -0.068 C 
HETATM   41  C26 UNL     1      -6.754  48.272 -24.962  1.00  0.00     0.053 C 
HETATM   42  C30 UNL     1      -4.913  49.151 -23.477  1.00  0.00    -0.016 C 
HETATM   43  C27 UNL     1      -7.732  48.337 -23.846  1.00  0.00     0.149 C 
HETATM   44  O7  UNL     1      -8.863  47.884 -24.012  1.00  0.00    -0.293 OA
HETATM   45  C28 UNL     1      -7.291  48.925 -22.525  1.00  0.00     0.084 C 
HETATM   46  C29 UNL     1      -6.078  49.838 -22.707  1.00  0.00     0.022 C 
HETATM   47  C31 UNL     1      -4.424  47.949 -22.618  1.00  0.00     0.020 C 
HETATM   48  C33 UNL     1      -4.083  51.561 -24.154  1.00  0.00     0.007 C 
HETATM   49  C34 UNL     1      -2.896  52.544 -24.186  1.00  0.00     0.013 C 
HETATM   50  C36 UNL     1      -0.692  51.604 -23.418  1.00  0.00     0.019 C 
BRANCH  31  51
HETATM   51  O6  UNL     1      -1.677  53.119 -26.809  1.00  0.00    -0.381 OA
HETATM   52  H29 UNL     1      -2.254  53.805 -26.433  1.00  0.00     0.211 HD
ENDBRANCH  31  51
ENDBRANCH  29  31
ENDBRANCH  28  29
ENDBRANCH  27  28
ENDBRANCH   1  27
TORSDOF 19
ENDMDL
MODEL 3
REMARK minimizedAffinity -8.58689213
REMARK CNNscore 0.624183416
REMARK CNNaffinity 7.58457565
REMARK  19 active torsions:
REMARK  status: ('A' for Active; 'I' for Inactive)
REMARK    1  A    between atoms: C2_2  and  C3_3 
REMARK    2  A    between atoms: C3_3  and  C5_5 
REMARK    3  A    between atoms: C5_5  and  N1_6 
REMARK    4  A    between atoms: C5_5  and  C37_46 
REMARK       I    between atoms: N1_6  and  C6_7 
REMARK    5  A    between atoms: C6_7  and  C7_9 
REMARK    6  A    between atoms: C7_9  and  C8_10 
REMARK    7  A    between atoms: C8_10  and  C9_11 
REMARK    8  A    between atoms: C9_11  and  C10_12 
REMARK    9  A    between atoms: C10_12  and  C11_13 
REMARK   10  A    between atoms: C11_13  and  N2_14 
REMARK       I    between atoms: N2_14  and  C12_15 
REMARK   11  A    between atoms: C12_15  and  C13_17 
REMARK   12  A    between atoms: C13_17  and  C14_18 
REMARK   13  A    between atoms: C14_18  and  C15_19 
REMARK   14  A    between atoms: C15_19  and  O4_21 
REMARK   15  A    between atoms: O4_21  and  C16_22 
REMARK   16  A    between atoms: C16_22  and  C17_23 
REMARK   17  A    between atoms: C17_23  and  C18_25 
REMARK   18  A    between atoms: C18_25  and  O6_26 
REMARK   19  A    between atoms: C37_46  and  O9_48 
ROOT
HETATM    1  C15 UNL     1       1.146  53.649 -21.635  1.00  0.00     0.259 C 
HETATM    2  O3  UNL     1       1.776  54.696 -21.546  1.00  0.00    -0.265 OA
ENDROOT
BRANCH   1   3
HETATM    3  C14 UNL     1       1.017  52.674 -20.488  1.00  0.00     0.120 C 
BRANCH   3   4
HETATM    4  C13 UNL     1       0.605  53.284 -19.156  1.00  0.00     0.112 C 
BRANCH   4   5
HETATM    5  C12 UNL     1       0.936  52.375 -17.988  1.00  0.00     0.217 C 
HETATM    6  N2  UNL     1       2.084  52.751 -17.328  1.00  0.00    -0.361 N 
HETATM    7  H22 UNL     1       2.541  53.624 -17.575  1.00  0.00     0.162 HD
HETATM    8  O2  UNL     1       0.265  51.395 -17.684  1.00  0.00    -0.274 OA
BRANCH   6   9
HETATM    9  C11 UNL     1       2.547  52.027 -16.164  1.00  0.00     0.122 C 
BRANCH   9  10
HETATM   10  C10 UNL     1       1.750  52.342 -14.899  1.00  0.00     0.020 C 
BRANCH  10  11
HETATM   11  C9  UNL     1       2.181  51.560 -13.650  1.00  0.00     0.002 C 
BRANCH  11  12
HETATM   12  C8  UNL     1       1.376  51.889 -12.388  1.00  0.00     0.009 C 
BRANCH  12  13
HETATM   13  C7  UNL     1       2.197  51.696 -11.110  1.00  0.00     0.103 C 
BRANCH  13  14
HETATM   14  C6  UNL     1       2.383  52.986 -10.329  1.00  0.00     0.218 C 
HETATM   15  N1  UNL     1       1.978  54.105 -11.028  1.00  0.00    -0.346 N 
HETATM   16  H11 UNL     1       1.292  53.960 -11.762  1.00  0.00     0.163 HD
HETATM   17  O1  UNL     1       2.830  53.030  -9.189  1.00  0.00    -0.274 OA
BRANCH  15  18
HETATM   18  C5  UNL     1       1.970  55.419 -10.378  1.00  0.00     0.186 C 
BRANCH  18  19
HETATM   19  C3  UNL     1       1.428  55.325  -8.929  1.00  0.00     0.014 C 
HETATM   20  C4  UNL     1       1.860  56.546  -8.103  1.00  0.00     0.012 C 
BRANCH  19  21
HETATM   21  C2  UNL     1      -0.113  55.183  -8.927  1.00  0.00     0.002 C 
HETATM   22  C1  UNL     1      -0.635  54.122  -7.966  1.00  0.00     0.005 C 
ENDBRANCH  19  21
ENDBRANCH  18  19
BRANCH  18  23
HETATM   23  C37 UNL     1       3.423  55.907 -10.396  1.00  0.00     0.163 C 
HETATM   24  O8  UNL     1       4.253  55.647 -11.255  1.00  0.00    -0.648 OA
BRANCH  23  25
HETATM   25  O9  UNL     1       3.746  56.665  -9.328  1.00  0.00    -0.775 OA
HETATM   26  H56 UNL     1       4.671  56.935  -9.495  1.00  0.00     0.167 HD
ENDBRANCH  23  25
ENDBRANCH  18  23
ENDBRANCH  15  18
ENDBRANCH  13  14
ENDBRANCH  12  13
ENDBRANCH  11  12
ENDBRANCH  10  11
ENDBRANCH   9  10
ENDBRANCH   6   9
ENDBRANCH   4   5
ENDBRANCH   3   4
ENDBRANCH   1   3
BRANCH   1  27
HETATM   27  O4  UNL     1       0.625  53.170 -22.792  1.00  0.00    -0.314 OA
BRANCH  27  28
HETATM   28  C16 UNL     1       0.991  53.862 -23.982  1.00  0.00     0.260 C 
BRANCH  28  29
HETATM   29  C17 UNL     1       0.033  54.077 -25.171  1.00  0.00     0.185 C 
HETATM   30  O5  UNL     1      -0.258  55.231 -25.508  1.00  0.00    -0.292 OA
BRANCH  29  31
HETATM   31  C18 UNL     1      -0.674  52.830 -25.765  1.00  0.00     0.128 C 
HETATM   32  C19 UNL     1       0.410  51.787 -26.147  1.00  0.00     0.047 C 
HETATM   33  C20 UNL     1      -0.231  50.398 -25.970  1.00  0.00     0.009 C 
HETATM   34  C21 UNL     1      -1.696  50.681 -25.628  1.00  0.00     0.002 C 
HETATM   35  C22 UNL     1      -2.479  49.552 -24.925  1.00  0.00    -0.004 C 
HETATM   36  C35 UNL     1      -1.637  52.009 -24.830  1.00  0.00    -0.002 C 
HETATM   37  C23 UNL     1      -2.692  48.367 -25.893  1.00  0.00     0.010 C 
HETATM   38  C32 UNL     1      -3.812  50.103 -24.281  1.00  0.00     0.002 C 
HETATM   39  C24 UNL     1      -4.022  48.445 -26.630  1.00  0.00     0.035 C 
HETATM   40  C25 UNL     1      -5.199  48.472 -25.689  1.00  0.00    -0.068 C 
HETATM   41  C26 UNL     1      -6.391  48.008 -26.105  1.00  0.00     0.053 C 
HETATM   42  C30 UNL     1      -4.981  49.048 -24.291  1.00  0.00    -0.016 C 
HETATM   43  C27 UNL     1      -7.593  48.031 -25.232  1.00  0.00     0.149 C 
HETATM   44  O7  UNL     1      -8.629  47.497 -25.622  1.00  0.00    -0.293 OA
HETATM   45  C28 UNL     1      -7.490  48.681 -23.870  1.00  0.00     0.084 C 
HETATM   46  C29 UNL     1      -6.327  49.671 -23.820  1.00  0.00     0.022 C 
HETATM   47  C31 UNL     1      -4.618  47.905 -23.300  1.00  0.00     0.020 C 
HETATM   48  C33 UNL     1      -4.175  51.493 -24.864  1.00  0.00     0.007 C 
HETATM   49  C34 UNL     1      -3.074  52.556 -24.675  1.00  0.00     0.013 C 
HETATM   50  C36 UNL     1      -1.039  51.791 -23.411  1.00  0.00     0.019 C 
BRANCH  31  51
HETATM   51  O6  UNL     1      -1.348  53.151 -26.991  1.00  0.00    -0.381 OA
HETATM   52  H29 UNL     1      -2.035  53.804 -26.776  1.00  0.00     0.211 HD
ENDBRANCH  31  51
ENDBRANCH  29  31
ENDBRANCH  28  29
ENDBRANCH  27  28
ENDBRANCH   1  27
TORSDOF 19
ENDMDL
MODEL 4
REMARK minimizedAffinity -8.62389755
REMARK CNNscore 0.613229752
REMARK CNNaffinity 7.53182983
REMARK  19 active torsions:
REMARK  status: ('A' for Active; 'I' for Inactive)
REMARK    1  A    between atoms: C2_2  and  C3_3 
REMARK    2  A    between atoms: C3_3  and  C5_5 
REMARK    3  A    between atoms: C5_5  and  N1_6 
REMARK    4  A    between atoms: C5_5  and  C37_46 
REMARK       I    between atoms: N1_6  and  C6_7 
REMARK    5  A    between atoms: C6_7  and  C7_9 
REMARK    6  A    between atoms: C7_9  and  C8_10 
REMARK    7  A    between atoms: C8_10  and  C9_11 
REMARK    8  A    between atoms: C9_11  and  C10_12 
REMARK    9  A    between atoms: C10_12  and  C11_13 
REMARK   10  A    between atoms: C11_13  and  N2_14 
REMARK       I    between atoms: N2_14  and  C12_15 
REMARK   11  A    between atoms: C12_15  and  C13_17 
REMARK   12  A    between atoms: C13_17  and  C14_18 
REMARK   13  A    between atoms: C14_18  and  C15_19 
REMARK   14  A    between atoms: C15_19  and  O4_21 
REMARK   15  A    between atoms: O4_21  and  C16_22 
REMARK   16  A    between atoms: C16_22  and  C17_23 
REMARK   17  A    between atoms: C17_23  and  C18_25 
REMARK   18  A    between atoms: C18_25  and  O6_26 
REMARK   19  A    between atoms: C37_46  and  O9_48 
ROOT
HETATM    1  C15 UNL     1       1.280  53.686 -21.605  1.00  0.00     0.259 C 
HETATM    2  O3  UNL     1       1.979  54.688 -21.690  1.00  0.00    -0.265 OA
ENDROOT
BRANCH   1   3
HETATM    3  C14 UNL     1       1.357  52.735 -20.434  1.00  0.00     0.120 C 
BRANCH   3   4
HETATM    4  C13 UNL     1       0.695  53.221 -19.153  1.00  0.00     0.112 C 
BRANCH   4   5
HETATM    5  C12 UNL     1       1.044  52.346 -17.965  1.00  0.00     0.217 C 
HETATM    6  N2  UNL     1       1.990  52.915 -17.142  1.00  0.00    -0.361 N 
HETATM    7  H22 UNL     1       2.287  53.872 -17.308  1.00  0.00     0.162 HD
HETATM    8  O2  UNL     1       0.553  51.238 -17.775  1.00  0.00    -0.274 OA
BRANCH   6   9
HETATM    9  C11 UNL     1       2.429  52.247 -15.936  1.00  0.00     0.122 C 
BRANCH   9  10
HETATM   10  C10 UNL     1       1.282  51.873 -15.000  1.00  0.00     0.020 C 
BRANCH  10  11
HETATM   11  C9  UNL     1       1.368  50.462 -14.401  1.00  0.00     0.002 C 
BRANCH  11  12
HETATM   12  C8  UNL     1       0.128  50.034 -13.609  1.00  0.00     0.009 C 
BRANCH  12  13
HETATM   13  C7  UNL     1       0.444  49.773 -12.134  1.00  0.00     0.103 C 
BRANCH  13  14
HETATM   14  C6  UNL     1      -0.050  50.883 -11.220  1.00  0.00     0.218 C 
HETATM   15  N1  UNL     1      -0.520  51.981 -11.909  1.00  0.00    -0.346 N 
HETATM   16  H11 UNL     1      -0.840  51.820 -12.859  1.00  0.00     0.163 HD
HETATM   17  O1  UNL     1      -0.049  50.805  -9.997  1.00  0.00    -0.274 OA
BRANCH  15  18
HETATM   18  C5  UNL     1      -1.150  53.092 -11.188  1.00  0.00     0.186 C 
BRANCH  18  19
HETATM   19  C3  UNL     1      -1.818  52.602  -9.878  1.00  0.00     0.014 C 
HETATM   20  C4  UNL     1      -1.430  53.504  -8.697  1.00  0.00     0.012 C 
BRANCH  19  21
HETATM   21  C2  UNL     1      -3.356  52.539 -10.034  1.00  0.00     0.002 C 
HETATM   22  C1  UNL     1      -3.982  53.837 -10.528  1.00  0.00     0.005 C 
ENDBRANCH  19  21
ENDBRANCH  18  19
BRANCH  18  23
HETATM   23  C37 UNL     1      -0.030  54.096 -10.899  1.00  0.00     0.163 C 
HETATM   24  O8  UNL     1      -0.176  55.209 -10.414  1.00  0.00    -0.648 OA
BRANCH  23  25
HETATM   25  O9  UNL     1       1.192  53.651 -11.258  1.00  0.00    -0.775 OA
HETATM   26  H56 UNL     1       1.800  54.365 -10.979  1.00  0.00     0.167 HD
ENDBRANCH  23  25
ENDBRANCH  18  23
ENDBRANCH  15  18
ENDBRANCH  13  14
ENDBRANCH  12  13
ENDBRANCH  11  12
ENDBRANCH  10  11
ENDBRANCH   9  10
ENDBRANCH   6   9
ENDBRANCH   4   5
ENDBRANCH   3   4
ENDBRANCH   1   3
BRANCH   1  27
HETATM   27  O4  UNL     1       0.476  53.232 -22.599  1.00  0.00    -0.314 OA
BRANCH  27  28
HETATM   28  C16 UNL     1       0.911  53.491 -23.930  1.00  0.00     0.260 C 
BRANCH  28  29
HETATM   29  C17 UNL     1      -0.050  53.791 -25.097  1.00  0.00     0.185 C 
HETATM   30  O5  UNL     1      -0.249  54.966 -25.426  1.00  0.00    -0.292 OA
BRANCH  29  31
HETATM   31  C18 UNL     1      -0.873  52.611 -25.677  1.00  0.00     0.128 C 
HETATM   32  C19 UNL     1       0.115  51.526 -26.183  1.00  0.00     0.047 C 
HETATM   33  C20 UNL     1      -0.591  50.168 -26.006  1.00  0.00     0.009 C 
HETATM   34  C21 UNL     1      -2.006  50.518 -25.536  1.00  0.00     0.002 C 
HETATM   35  C22 UNL     1      -2.796  49.406 -24.815  1.00  0.00    -0.004 C 
HETATM   36  C35 UNL     1      -1.807  51.807 -24.698  1.00  0.00    -0.002 C 
HETATM   37  C23 UNL     1      -3.154  48.275 -25.805  1.00  0.00     0.010 C 
HETATM   38  C32 UNL     1      -4.040  50.003 -24.045  1.00  0.00     0.002 C 
HETATM   39  C24 UNL     1      -4.531  48.458 -26.429  1.00  0.00     0.035 C 
HETATM   40  C25 UNL     1      -5.626  48.511 -25.395  1.00  0.00    -0.068 C 
HETATM   41  C26 UNL     1      -6.873  48.131 -25.730  1.00  0.00     0.053 C 
HETATM   42  C30 UNL     1      -5.266  49.017 -23.999  1.00  0.00    -0.016 C 
HETATM   43  C27 UNL     1      -7.999  48.186 -24.762  1.00  0.00     0.149 C 
HETATM   44  O7  UNL     1      -9.092  47.726 -25.087  1.00  0.00    -0.293 OA
HETATM   45  C28 UNL     1      -7.752  48.772 -23.391  1.00  0.00     0.084 C 
HETATM   46  C29 UNL     1      -6.532  49.694 -23.398  1.00  0.00     0.022 C 
HETATM   47  C31 UNL     1      -4.894  47.816 -23.083  1.00  0.00     0.020 C 
HETATM   48  C33 UNL     1      -4.365  51.435 -24.546  1.00  0.00     0.007 C 
HETATM   49  C34 UNL     1      -3.193  52.426 -24.408  1.00  0.00     0.013 C 
HETATM   50  C36 UNL     1      -1.113  51.497 -23.341  1.00  0.00     0.019 C 
BRANCH  31  51
HETATM   51  O6  UNL     1      -1.622  53.018 -26.832  1.00  0.00    -0.381 OA
HETATM   52  H29 UNL     1      -2.250  53.699 -26.539  1.00  0.00     0.211 HD
ENDBRANCH  31  51
ENDBRANCH  29  31
ENDBRANCH  28  29
ENDBRANCH  27  28
ENDBRANCH   1  27
TORSDOF 19
ENDMDL
MODEL 5
REMARK minimizedAffinity -9.20579815
REMARK CNNscore 0.551740289
REMARK CNNaffinity 7.57714462
REMARK  19 active torsions:
REMARK  status: ('A' for Active; 'I' for Inactive)
REMARK    1  A    between atoms: C2_2  and  C3_3 
REMARK    2  A    between atoms: C3_3  and  C5_5 
REMARK    3  A    between atoms: C5_5  and  N1_6 
REMARK    4  A    between atoms: C5_5  and  C37_46 
REMARK       I    between atoms: N1_6  and  C6_7 
REMARK    5  A    between atoms: C6_7  and  C7_9 
REMARK    6  A    between atoms: C7_9  and  C8_10 
REMARK    7  A    between atoms: C8_10  and  C9_11 
REMARK    8  A    between atoms: C9_11  and  C10_12 
REMARK    9  A    between atoms: C10_12  and  C11_13 
REMARK   10  A    between atoms: C11_13  and  N2_14 
REMARK       I    between atoms: N2_14  and  C12_15 
REMARK   11  A    between atoms: C12_15  and  C13_17 
REMARK   12  A    between atoms: C13_17  and  C14_18 
REMARK   13  A    between atoms: C14_18  and  C15_19 
REMARK   14  A    between atoms: C15_19  and  O4_21 
REMARK   15  A    between atoms: O4_21  and  C16_22 
REMARK   16  A    between atoms: C16_22  and  C17_23 
REMARK   17  A    between atoms: C17_23  and  C18_25 
REMARK   18  A    between atoms: C18_25  and  O6_26 
REMARK   19  A    between atoms: C37_46  and  O9_48 
ROOT
HETATM    1  C15 UNL     1       1.435  54.239 -21.885  1.00  0.00     0.259 C 
HETATM    2  O3  UNL     1       2.504  54.486 -21.340  1.00  0.00    -0.265 OA
ENDROOT
BRANCH   1   3
HETATM    3  C14 UNL     1       0.366  53.390 -21.237  1.00  0.00     0.120 C 
BRANCH   3   4
HETATM    4  C13 UNL     1       0.080  53.704 -19.775  1.00  0.00     0.112 C 
BRANCH   4   5
HETATM    5  C12 UNL     1       0.658  52.655 -18.845  1.00  0.00     0.217 C 
HETATM    6  N2  UNL     1       1.673  53.144 -18.053  1.00  0.00    -0.361 N 
HETATM    7  H22 UNL     1       1.876  54.140 -18.058  1.00  0.00     0.162 HD
HETATM    8  O2  UNL     1       0.278  51.489 -18.823  1.00  0.00    -0.274 OA
BRANCH   6   9
HETATM    9  C11 UNL     1       2.329  52.303 -17.075  1.00  0.00     0.122 C 
BRANCH   9  10
HETATM   10  C10 UNL     1       1.621  52.286 -15.722  1.00  0.00     0.020 C 
BRANCH  10  11
HETATM   11  C9  UNL     1       0.818  51.011 -15.427  1.00  0.00     0.002 C 
BRANCH  11  12
HETATM   12  C8  UNL     1      -0.467  51.243 -14.625  1.00  0.00     0.009 C 
BRANCH  12  13
HETATM   13  C7  UNL     1      -0.265  52.243 -13.483  1.00  0.00     0.103 C 
BRANCH  13  14
HETATM   14  C6  UNL     1      -1.088  51.904 -12.251  1.00  0.00     0.218 C 
HETATM   15  N1  UNL     1      -1.744  52.995 -11.722  1.00  0.00    -0.346 N 
HETATM   16  H11 UNL     1      -1.931  53.766 -12.356  1.00  0.00     0.163 HD
HETATM   17  O1  UNL     1      -1.176  50.774 -11.785  1.00  0.00    -0.274 OA
BRANCH  15  18
HETATM   18  C5  UNL     1      -2.682  52.825 -10.607  1.00  0.00     0.186 C 
BRANCH  18  19
HETATM   19  C3  UNL     1      -2.044  53.268  -9.266  1.00  0.00     0.014 C 
HETATM   20  C4  UNL     1      -1.602  52.049  -8.442  1.00  0.00     0.012 C 
BRANCH  19  21
HETATM   21  C2  UNL     1      -0.850  54.222  -9.512  1.00  0.00     0.002 C 
HETATM   22  C1  UNL     1      -1.259  55.645  -9.871  1.00  0.00     0.005 C 
ENDBRANCH  19  21
ENDBRANCH  18  19
BRANCH  18  23
HETATM   23  C37 UNL     1      -3.904  53.682 -10.950  1.00  0.00     0.163 C 
HETATM   24  O8  UNL     1      -4.646  54.224 -10.143  1.00  0.00    -0.648 OA
BRANCH  23  25
HETATM   25  O9  UNL     1      -4.131  53.783 -12.276  1.00  0.00    -0.775 OA
HETATM   26  H56 UNL     1      -4.901  54.383 -12.345  1.00  0.00     0.167 HD
ENDBRANCH  23  25
ENDBRANCH  18  23
ENDBRANCH  15  18
ENDBRANCH  13  14
ENDBRANCH  12  13
ENDBRANCH  11  12
ENDBRANCH  10  11
ENDBRANCH   9  10
ENDBRANCH   6   9
ENDBRANCH   4   5
ENDBRANCH   3   4
ENDBRANCH   1   3
BRANCH   1  27
HETATM   27  O4  UNL     1       1.142  54.562 -23.169  1.00  0.00    -0.314 OA
BRANCH  27  28
HETATM   28  C16 UNL     1       0.739  53.487 -24.013  1.00  0.00     0.260 C 
BRANCH  28  29
HETATM   29  C17 UNL     1      -0.009  53.685 -25.346  1.00  0.00     0.185 C 
HETATM   30  O5  UNL     1       0.034  54.789 -25.902  1.00  0.00    -0.292 OA
BRANCH  29  31
HETATM   31  C18 UNL     1      -0.942  52.543 -25.828  1.00  0.00     0.128 C 
HETATM   32  C19 UNL     1      -0.069  51.441 -26.486  1.00  0.00     0.047 C 
HETATM   33  C20 UNL     1      -0.787  50.101 -26.237  1.00  0.00     0.009 C 
HETATM   34  C21 UNL     1      -2.112  50.482 -25.569  1.00  0.00     0.002 C 
HETATM   35  C22 UNL     1      -2.830  49.378 -24.765  1.00  0.00    -0.004 C 
HETATM   36  C35 UNL     1      -1.757  51.745 -24.743  1.00  0.00    -0.002 C 
HETATM   37  C23 UNL     1      -3.357  48.281 -25.717  1.00  0.00     0.010 C 
HETATM   38  C32 UNL     1      -3.935  49.994 -23.820  1.00  0.00     0.002 C 
HETATM   39  C24 UNL     1      -4.800  48.518 -26.141  1.00  0.00     0.035 C 
HETATM   40  C25 UNL     1      -5.740  48.580 -24.964  1.00  0.00    -0.068 C 
HETATM   41  C26 UNL     1      -7.033  48.245 -25.130  1.00  0.00     0.053 C 
HETATM   42  C30 UNL     1      -5.174  49.043 -23.622  1.00  0.00    -0.016 C 
HETATM   43  C27 UNL     1      -8.012  48.310 -24.014  1.00  0.00     0.149 C 
HETATM   44  O7  UNL     1      -9.154  47.891 -24.193  1.00  0.00    -0.293 OA
HETATM   45  C28 UNL     1      -7.559  48.858 -22.680  1.00  0.00     0.084 C 
HETATM   46  C29 UNL     1      -6.323  49.743 -22.840  1.00  0.00     0.022 C 
HETATM   47  C31 UNL     1      -4.719  47.811 -22.789  1.00  0.00     0.020 C 
HETATM   48  C33 UNL     1      -4.280  51.445 -24.245  1.00  0.00     0.007 C 
HETATM   49  C34 UNL     1      -3.069  52.398 -24.253  1.00  0.00     0.013 C 
HETATM   50  C36 UNL     1      -0.892  51.385 -23.501  1.00  0.00     0.019 C 
BRANCH  31  51
HETATM   51  O6  UNL     1      -1.829  52.998 -26.860  1.00  0.00    -0.381 OA
HETATM   52  H29 UNL     1      -2.389  53.691 -26.470  1.00  0.00     0.211 HD
ENDBRANCH  31  51
ENDBRANCH  29  31
ENDBRANCH  28  29
ENDBRANCH  27  28
ENDBRANCH   1  27
TORSDOF 19
ENDMDL
MODEL 6
REMARK minimizedAffinity -8.35709095
REMARK CNNscore 0.460634679
REMARK CNNaffinity 6.35719681
REMARK  19 active torsions:
REMARK  status: ('A' for Active; 'I' for Inactive)
REMARK    1  A    between atoms: C2_2  and  C3_3 
REMARK    2  A    between atoms: C3_3  and  C5_5 
REMARK    3  A    between atoms: C5_5  and  N1_6 
REMARK    4  A    between atoms: C5_5  and  C37_46 
REMARK       I    between atoms: N1_6  and  C6_7 
REMARK    5  A    between atoms: C6_7  and  C7_9 
REMARK    6  A    between atoms: C7_9  and  C8_10 
REMARK    7  A    between atoms: C8_10  and  C9_11 
REMARK    8  A    between atoms: C9_11  and  C10_12 
REMARK    9  A    between atoms: C10_12  and  C11_13 
REMARK   10  A    between atoms: C11_13  and  N2_14 
REMARK       I    between atoms: N2_14  and  C12_15 
REMARK   11  A    between atoms: C12_15  and  C13_17 
REMARK   12  A    between atoms: C13_17  and  C14_18 
REMARK   13  A    between atoms: C14_18  and  C15_19 
REMARK   14  A    between atoms: C15_19  and  O4_21 
REMARK   15  A    between atoms: O4_21  and  C16_22 
REMARK   16  A    between atoms: C16_22  and  C17_23 
REMARK   17  A    between atoms: C17_23  and  C18_25 
REMARK   18  A    between atoms: C18_25  and  O6_26 
REMARK   19  A    between atoms: C37_46  and  O9_48 
ROOT
HETATM    1  C15 UNL     1      -9.385  47.763 -16.975  1.00  0.00     0.259 C 
HETATM    2  O3  UNL     1      -8.610  46.954 -16.478  1.00  0.00    -0.265 OA
ENDROOT
BRANCH   1   3
HETATM    3  C14 UNL     1      -8.950  48.785 -17.999  1.00  0.00     0.120 C 
BRANCH   3   4
HETATM    4  C13 UNL     1      -8.371  48.215 -19.286  1.00  0.00     0.112 C 
BRANCH   4   5
HETATM    5  C12 UNL     1      -7.235  49.063 -19.823  1.00  0.00     0.217 C 
HETATM    6  N2  UNL     1      -6.238  48.313 -20.406  1.00  0.00    -0.361 N 
HETATM    7  H22 UNL     1      -6.374  47.316 -20.538  1.00  0.00     0.162 HD
HETATM    8  O2  UNL     1      -7.198  50.285 -19.721  1.00  0.00    -0.274 OA
BRANCH   6   9
HETATM    9  C11 UNL     1      -5.084  48.945 -21.008  1.00  0.00     0.122 C 
BRANCH   9  10
HETATM   10  C10 UNL     1      -5.381  49.584 -22.363  1.00  0.00     0.020 C 
BRANCH  10  11
HETATM   11  C9  UNL     1      -4.232  50.411 -22.956  1.00  0.00     0.002 C 
BRANCH  11  12
HETATM   12  C8  UNL     1      -4.672  51.715 -23.630  1.00  0.00     0.009 C 
BRANCH  12  13
HETATM   13  C7  UNL     1      -4.000  51.920 -24.990  1.00  0.00     0.103 C 
BRANCH  13  14
HETATM   14  C6  UNL     1      -2.524  51.557 -24.978  1.00  0.00     0.218 C 
HETATM   15  N1  UNL     1      -1.709  52.593 -25.383  1.00  0.00    -0.346 N 
HETATM   16  H11 UNL     1      -2.081  53.532 -25.281  1.00  0.00     0.163 HD
HETATM   17  O1  UNL     1      -2.098  50.462 -24.627  1.00  0.00    -0.274 OA
BRANCH  15  18
HETATM   18  C5  UNL     1      -0.251  52.457 -25.313  1.00  0.00     0.186 C 
BRANCH  18  19
HETATM   19  C3  UNL     1       0.278  51.505 -26.416  1.00  0.00     0.014 C 
HETATM   20  C4  UNL     1      -0.043  52.056 -27.813  1.00  0.00     0.012 C 
BRANCH  19  21
HETATM   21  C2  UNL     1       1.799  51.270 -26.258  1.00  0.00     0.002 C 
HETATM   22  C1  UNL     1       2.628  51.773 -27.433  1.00  0.00     0.005 C 
ENDBRANCH  19  21
ENDBRANCH  18  19
BRANCH  18  23
HETATM   23  C37 UNL     1       0.313  53.871 -25.483  1.00  0.00     0.163 C 
HETATM   24  O8  UNL     1       0.100  54.617 -26.429  1.00  0.00    -0.648 OA
BRANCH  23  25
HETATM   25  O9  UNL     1       1.125  54.248 -24.473  1.00  0.00    -0.775 OA
HETATM   26  H56 UNL     1       1.370  55.170 -24.692  1.00  0.00     0.167 HD
ENDBRANCH  23  25
ENDBRANCH  18  23
ENDBRANCH  15  18
ENDBRANCH  13  14
ENDBRANCH  12  13
ENDBRANCH  11  12
ENDBRANCH  10  11
ENDBRANCH   9  10
ENDBRANCH   6   9
ENDBRANCH   4   5
ENDBRANCH   3   4
ENDBRANCH   1   3
BRANCH   1  27
HETATM   27  O4  UNL     1     -10.665  47.940 -16.567  1.00  0.00    -0.314 OA
BRANCH  27  28
HETATM   28  C16 UNL     1     -11.640  47.088 -17.161  1.00  0.00     0.260 C 
BRANCH  28  29
HETATM   29  C17 UNL     1     -13.095  47.519 -17.434  1.00  0.00     0.185 C 
HETATM   30  O5  UNL     1     -13.907  47.525 -16.502  1.00  0.00    -0.292 OA
BRANCH  29  31
HETATM   31  C18 UNL     1     -13.518  47.737 -18.911  1.00  0.00     0.128 C 
HETATM   32  C19 UNL     1     -12.244  47.703 -19.797  1.00  0.00     0.047 C 
HETATM   33  C20 UNL     1     -12.672  47.142 -21.166  1.00  0.00     0.009 C 
HETATM   34  C21 UNL     1     -14.195  47.001 -21.075  1.00  0.00     0.002 C 
HETATM   35  C22 UNL     1     -14.866  46.033 -22.072  1.00  0.00    -0.004 C 
HETATM   36  C35 UNL     1     -14.444  46.657 -19.584  1.00  0.00    -0.002 C 
HETATM   37  C23 UNL     1     -14.771  46.594 -23.508  1.00  0.00     0.010 C 
HETATM   38  C32 UNL     1     -16.337  45.681 -21.616  1.00  0.00     0.002 C 
HETATM   39  C24 UNL     1     -15.999  47.403 -23.903  1.00  0.00     0.035 C 
HETATM   40  C25 UNL     1     -17.268  46.595 -23.821  1.00  0.00    -0.068 C 
HETATM   41  C26 UNL     1     -18.314  46.921 -24.603  1.00  0.00     0.053 C 
HETATM   42  C30 UNL     1     -17.313  45.436 -22.826  1.00  0.00    -0.016 C 
HETATM   43  C27 UNL     1     -19.599  46.178 -24.549  1.00  0.00     0.149 C 
HETATM   44  O7  UNL     1     -20.483  46.449 -25.360  1.00  0.00    -0.293 OA
HETATM   45  C28 UNL     1     -19.764  45.085 -23.518  1.00  0.00     0.084 C 
HETATM   46  C29 UNL     1     -18.788  45.271 -22.357  1.00  0.00     0.022 C 
HETATM   47  C31 UNL     1     -16.894  44.116 -23.535  1.00  0.00     0.020 C 
HETATM   48  C33 UNL     1     -16.844  46.692 -20.555  1.00  0.00     0.007 C 
HETATM   49  C34 UNL     1     -15.957  46.774 -19.297  1.00  0.00     0.013 C 
HETATM   50  C36 UNL     1     -13.992  45.205 -19.256  1.00  0.00     0.019 C 
BRANCH  31  51
HETATM   51  O6  UNL     1     -14.084  49.042 -19.101  1.00  0.00    -0.381 OA
HETATM   52  H29 UNL     1     -14.887  49.088 -18.555  1.00  0.00     0.211 HD
ENDBRANCH  31  51
ENDBRANCH  29  31
ENDBRANCH  28  29
ENDBRANCH  27  28
ENDBRANCH   1  27
TORSDOF 19
ENDMDL
MODEL 7
REMARK minimizedAffinity -8.50133896
REMARK CNNscore 0.451199651
REMARK CNNaffinity 7.47454262
REMARK  19 active torsions:
REMARK  status: ('A' for Active; 'I' for Inactive)
REMARK    1  A    between atoms: C2_2  and  C3_3 
REMARK    2  A    between atoms: C3_3  and  C5_5 
REMARK    3  A    between atoms: C5_5  and  N1_6 
REMARK    4  A    between atoms: C5_5  and  C37_46 
REMARK       I    between atoms: N1_6  and  C6_7 
REMARK    5  A    between atoms: C6_7  and  C7_9 
REMARK    6  A    between atoms: C7_9  and  C8_10 
REMARK    7  A    between atoms: C8_10  and  C9_11 
REMARK    8  A    between atoms: C9_11  and  C10_12 
REMARK    9  A    between atoms: C10_12  and  C11_13 
REMARK   10  A    between atoms: C11_13  and  N2_14 
REMARK       I    between atoms: N2_14  and  C12_15 
REMARK   11  A    between atoms: C12_15  and  C13_17 
REMARK   12  A    between atoms: C13_17  and  C14_18 
REMARK   13  A    between atoms: C14_18  and  C15_19 
REMARK   14  A    between atoms: C15_19  and  O4_21 
REMARK   15  A    between atoms: O4_21  and  C16_22 
REMARK   16  A    between atoms: C16_22  and  C17_23 
REMARK   17  A    between atoms: C17_23  and  C18_25 
REMARK   18  A    between atoms: C18_25  and  O6_26 
REMARK   19  A    between atoms: C37_46  and  O9_48 
ROOT
HETATM    1  C15 UNL     1       1.378  54.034 -21.679  1.00  0.00     0.259 C 
HETATM    2  O3  UNL     1       2.314  54.822 -21.727  1.00  0.00    -0.265 OA
ENDROOT
BRANCH   1   3
HETATM    3  C14 UNL     1       1.252  52.981 -20.603  1.00  0.00     0.120 C 
BRANCH   3   4
HETATM    4  C13 UNL     1      -0.069  52.975 -19.846  1.00  0.00     0.112 C 
BRANCH   4   5
HETATM    5  C12 UNL     1       0.080  52.409 -18.447  1.00  0.00     0.217 C 
HETATM    6  N2  UNL     1       1.168  52.922 -17.776  1.00  0.00    -0.361 N 
HETATM    7  H22 UNL     1       1.697  53.684 -18.190  1.00  0.00     0.162 HD
HETATM    8  O2  UNL     1      -0.674  51.564 -17.977  1.00  0.00    -0.274 OA
BRANCH   6   9
HETATM    9  C11 UNL     1       1.458  52.530 -16.414  1.00  0.00     0.122 C 
BRANCH   9  10
HETATM   10  C10 UNL     1       1.168  51.057 -16.134  1.00  0.00     0.020 C 
BRANCH  10  11
HETATM   11  C9  UNL     1       1.322  50.634 -14.666  1.00  0.00     0.002 C 
BRANCH  11  12
HETATM   12  C8  UNL     1       0.099  49.918 -14.082  1.00  0.00     0.009 C 
BRANCH  12  13
HETATM   13  C7  UNL     1      -0.658  50.790 -13.077  1.00  0.00     0.103 C 
BRANCH  13  14
HETATM   14  C6  UNL     1      -2.033  50.239 -12.737  1.00  0.00     0.218 C 
HETATM   15  N1  UNL     1      -2.129  49.791 -11.436  1.00  0.00    -0.346 N 
HETATM   16  H11 UNL     1      -1.478  50.190 -10.768  1.00  0.00     0.163 HD
HETATM   17  O1  UNL     1      -2.967  50.211 -13.530  1.00  0.00    -0.274 OA
BRANCH  15  18
HETATM   18  C5  UNL     1      -3.420  49.343 -10.903  1.00  0.00     0.186 C 
BRANCH  18  19
HETATM   19  C3  UNL     1      -4.452  50.500 -10.888  1.00  0.00     0.014 C 
HETATM   20  C4  UNL     1      -5.705  50.104 -10.092  1.00  0.00     0.012 C 
BRANCH  19  21
HETATM   21  C2  UNL     1      -3.823  51.791 -10.310  1.00  0.00     0.002 C 
HETATM   22  C1  UNL     1      -4.060  53.030 -11.165  1.00  0.00     0.005 C 
ENDBRANCH  19  21
ENDBRANCH  18  19
BRANCH  18  23
HETATM   23  C37 UNL     1      -3.880  48.201 -11.814  1.00  0.00     0.163 C 
HETATM   24  O8  UNL     1      -5.020  48.025 -12.219  1.00  0.00    -0.648 OA
BRANCH  23  25
HETATM   25  O9  UNL     1      -2.890  47.343 -12.137  1.00  0.00    -0.775 OA
HETATM   26  H56 UNL     1      -3.312  46.705 -12.746  1.00  0.00     0.167 HD
ENDBRANCH  23  25
ENDBRANCH  18  23
ENDBRANCH  15  18
ENDBRANCH  13  14
ENDBRANCH  12  13
ENDBRANCH  11  12
ENDBRANCH  10  11
ENDBRANCH   9  10
ENDBRANCH   6   9
ENDBRANCH   4   5
ENDBRANCH   3   4
ENDBRANCH   1   3
BRANCH   1  27
HETATM   27  O4  UNL     1       0.438  53.909 -22.648  1.00  0.00    -0.314 OA
BRANCH  27  28
HETATM   28  C16 UNL     1       0.908  53.537 -23.939  1.00  0.00     0.260 C 
BRANCH  28  29
HETATM   29  C17 UNL     1       0.106  53.762 -25.236  1.00  0.00     0.185 C 
HETATM   30  O5  UNL     1       0.092  54.887 -25.749  1.00  0.00    -0.292 OA
BRANCH  29  31
HETATM   31  C18 UNL     1      -0.807  52.608 -25.730  1.00  0.00     0.128 C 
HETATM   32  C19 UNL     1       0.089  51.509 -26.360  1.00  0.00     0.047 C 
HETATM   33  C20 UNL     1      -0.623  50.165 -26.118  1.00  0.00     0.009 C 
HETATM   34  C21 UNL     1      -1.966  50.540 -25.483  1.00  0.00     0.002 C 
HETATM   35  C22 UNL     1      -2.693  49.436 -24.687  1.00  0.00    -0.004 C 
HETATM   36  C35 UNL     1      -1.640  51.812 -24.658  1.00  0.00    -0.002 C 
HETATM   37  C23 UNL     1      -3.190  48.328 -25.642  1.00  0.00     0.010 C 
HETATM   38  C32 UNL     1      -3.824  50.049 -23.771  1.00  0.00     0.002 C 
HETATM   39  C24 UNL     1      -4.625  48.550 -26.099  1.00  0.00     0.035 C 
HETATM   40  C25 UNL     1      -5.592  48.613 -24.945  1.00  0.00    -0.068 C 
HETATM   41  C26 UNL     1      -6.878  48.266 -25.137  1.00  0.00     0.053 C 
HETATM   42  C30 UNL     1      -5.060  49.090 -23.594  1.00  0.00    -0.016 C 
HETATM   43  C27 UNL     1      -7.882  48.331 -24.044  1.00  0.00     0.149 C 
HETATM   44  O7  UNL     1      -9.016  47.901 -24.245  1.00  0.00    -0.293 OA
HETATM   45  C28 UNL     1      -7.463  48.893 -22.704  1.00  0.00     0.084 C 
HETATM   46  C29 UNL     1      -6.231  49.786 -22.842  1.00  0.00     0.022 C 
HETATM   47  C31 UNL     1      -4.613  47.868 -22.742  1.00  0.00     0.020 C 
HETATM   48  C33 UNL     1      -4.171  51.495 -24.214  1.00  0.00     0.007 C 
HETATM   49  C34 UNL     1      -2.968  52.457 -24.202  1.00  0.00     0.013 C 
HETATM   50  C36 UNL     1      -0.800  51.467 -23.395  1.00  0.00     0.019 C 
BRANCH  31  51
HETATM   51  O6  UNL     1      -1.675  53.049 -26.785  1.00  0.00    -0.381 OA
HETATM   52  H29 UNL     1      -2.249  53.740 -26.413  1.00  0.00     0.211 HD
ENDBRANCH  31  51
ENDBRANCH  29  31
ENDBRANCH  28  29
ENDBRANCH  27  28
ENDBRANCH   1  27
TORSDOF 19
ENDMDL
MODEL 8
REMARK minimizedAffinity -7.70618629
REMARK CNNscore 0.444342852
REMARK CNNaffinity 6.25936747
REMARK  19 active torsions:
REMARK  status: ('A' for Active; 'I' for Inactive)
REMARK    1  A    between atoms: C2_2  and  C3_3 
REMARK    2  A    between atoms: C3_3  and  C5_5 
REMARK    3  A    between atoms: C5_5  and  N1_6 
REMARK    4  A    between atoms: C5_5  and  C37_46 
REMARK       I    between atoms: N1_6  and  C6_7 
REMARK    5  A    between atoms: C6_7  and  C7_9 
REMARK    6  A    between atoms: C7_9  and  C8_10 
REMARK    7  A    between atoms: C8_10  and  C9_11 
REMARK    8  A    between atoms: C9_11  and  C10_12 
REMARK    9  A    between atoms: C10_12  and  C11_13 
REMARK   10  A    between atoms: C11_13  and  N2_14 
REMARK       I    between atoms: N2_14  and  C12_15 
REMARK   11  A    between atoms: C12_15  and  C13_17 
REMARK   12  A    between atoms: C13_17  and  C14_18 
REMARK   13  A    between atoms: C14_18  and  C15_19 
REMARK   14  A    between atoms: C15_19  and  O4_21 
REMARK   15  A    between atoms: O4_21  and  C16_22 
REMARK   16  A    between atoms: C16_22  and  C17_23 
REMARK   17  A    between atoms: C17_23  and  C18_25 
REMARK   18  A    between atoms: C18_25  and  O6_26 
REMARK   19  A    between atoms: C37_46  and  O9_48 
ROOT
HETATM    1  C15 UNL     1      -8.190  47.336 -24.614  1.00  0.00     0.259 C 
HETATM    2  O3  UNL     1      -7.180  47.615 -25.248  1.00  0.00    -0.265 OA
ENDROOT
BRANCH   1   3
HETATM    3  C14 UNL     1      -9.259  46.411 -25.146  1.00  0.00     0.120 C 
BRANCH   3   4
HETATM    4  C13 UNL     1     -10.690  46.908 -24.993  1.00  0.00     0.112 C 
BRANCH   4   5
HETATM    5  C12 UNL     1     -11.274  47.374 -26.311  1.00  0.00     0.217 C 
HETATM    6  N2  UNL     1     -10.850  46.619 -27.381  1.00  0.00    -0.361 N 
HETATM    7  H22 UNL     1     -10.303  45.780 -27.215  1.00  0.00     0.162 HD
HETATM    8  O2  UNL     1     -12.024  48.340 -26.413  1.00  0.00    -0.274 OA
BRANCH   6   9
HETATM    9  C11 UNL     1     -11.326  46.889 -28.721  1.00  0.00     0.122 C 
BRANCH   9  10
HETATM   10  C10 UNL     1     -12.350  45.869 -29.215  1.00  0.00     0.020 C 
BRANCH  10  11
HETATM   11  C9  UNL     1     -13.762  46.036 -28.635  1.00  0.00     0.002 C 
BRANCH  11  12
HETATM   12  C8  UNL     1     -14.050  45.163 -27.409  1.00  0.00     0.009 C 
BRANCH  12  13
HETATM   13  C7  UNL     1     -14.935  45.876 -26.384  1.00  0.00     0.103 C 
BRANCH  13  14
HETATM   14  C6  UNL     1     -16.318  45.255 -26.267  1.00  0.00     0.218 C 
HETATM   15  N1  UNL     1     -17.003  45.670 -25.144  1.00  0.00    -0.346 N 
HETATM   16  H11 UNL     1     -16.728  46.561 -24.746  1.00  0.00     0.163 HD
HETATM   17  O1  UNL     1     -16.784  44.479 -27.093  1.00  0.00    -0.274 OA
BRANCH  15  18
HETATM   18  C5  UNL     1     -18.399  45.267 -24.940  1.00  0.00     0.186 C 
BRANCH  18  19
HETATM   19  C3  UNL     1     -18.576  44.526 -23.590  1.00  0.00     0.014 C 
HETATM   20  C4  UNL     1     -17.886  45.292 -22.452  1.00  0.00     0.012 C 
BRANCH  19  21
HETATM   21  C2  UNL     1     -20.075  44.310 -23.273  1.00  0.00     0.002 C 
HETATM   22  C1  UNL     1     -20.333  43.640 -21.930  1.00  0.00     0.005 C 
ENDBRANCH  19  21
ENDBRANCH  18  19
BRANCH  18  23
HETATM   23  C37 UNL     1     -19.220  46.559 -24.976  1.00  0.00     0.163 C 
HETATM   24  O8  UNL     1     -18.783  47.689 -24.809  1.00  0.00    -0.648 OA
BRANCH  23  25
HETATM   25  O9  UNL     1     -20.536  46.351 -25.191  1.00  0.00    -0.775 OA
HETATM   26  H56 UNL     1     -20.919  47.250 -25.232  1.00  0.00     0.167 HD
ENDBRANCH  23  25
ENDBRANCH  18  23
ENDBRANCH  15  18
ENDBRANCH  13  14
ENDBRANCH  12  13
ENDBRANCH  11  12
ENDBRANCH  10  11
ENDBRANCH   9  10
ENDBRANCH   6   9
ENDBRANCH   4   5
ENDBRANCH   3   4
ENDBRANCH   1   3
BRANCH   1  27
HETATM   27  O4  UNL     1      -8.543  47.928 -23.446  1.00  0.00    -0.314 OA
BRANCH  27  28
HETATM   28  C16 UNL     1      -7.635  48.896 -22.930  1.00  0.00     0.260 C 
BRANCH  28  29
HETATM   29  C17 UNL     1      -6.523  48.566 -21.915  1.00  0.00     0.185 C 
HETATM   30  O5  UNL     1      -6.719  47.683 -21.072  1.00  0.00    -0.292 OA
BRANCH  29  31
HETATM   31  C18 UNL     1      -5.279  49.494 -21.878  1.00  0.00     0.128 C 
HETATM   32  C19 UNL     1      -4.295  48.952 -20.807  1.00  0.00     0.047 C 
HETATM   33  C20 UNL     1      -2.876  49.314 -21.288  1.00  0.00     0.009 C 
HETATM   34  C21 UNL     1      -3.091  50.168 -22.541  1.00  0.00     0.002 C 
HETATM   35  C22 UNL     1      -1.904  50.281 -23.520  1.00  0.00    -0.004 C 
HETATM   36  C35 UNL     1      -4.383  49.583 -23.168  1.00  0.00    -0.002 C 
HETATM   37  C23 UNL     1      -0.757  51.094 -22.878  1.00  0.00     0.010 C 
HETATM   38  C32 UNL     1      -2.376  50.832 -24.922  1.00  0.00     0.002 C 
HETATM   39  C24 UNL     1      -0.822  52.574 -23.230  1.00  0.00     0.035 C 
HETATM   40  C25 UNL     1      -0.763  52.813 -24.717  1.00  0.00    -0.068 C 
HETATM   41  C26 UNL     1      -0.276  53.978 -25.183  1.00  0.00     0.053 C 
HETATM   42  C30 UNL     1      -1.282  51.709 -25.638  1.00  0.00    -0.016 C 
HETATM   43  C27 UNL     1      -0.216  54.281 -26.636  1.00  0.00     0.149 C 
HETATM   44  O7  UNL     1       0.336  55.313 -27.011  1.00  0.00    -0.293 OA
HETATM   45  C28 UNL     1      -0.806  53.287 -27.611  1.00  0.00     0.084 C 
HETATM   46  C29 UNL     1      -1.834  52.387 -26.926  1.00  0.00     0.022 C 
HETATM   47  C31 UNL     1      -0.108  50.780 -26.060  1.00  0.00     0.020 C 
HETATM   48  C33 UNL     1      -3.778  51.487 -24.815  1.00  0.00     0.007 C 
HETATM   49  C34 UNL     1      -4.869  50.541 -24.278  1.00  0.00     0.013 C 
HETATM   50  C36 UNL     1      -4.120  48.187 -23.802  1.00  0.00     0.019 C 
BRANCH  31  51
HETATM   51  O6  UNL     1      -5.632  50.815 -21.443  1.00  0.00    -0.381 OA
HETATM   52  H29 UNL     1      -6.249  51.177 -22.101  1.00  0.00     0.211 HD
ENDBRANCH  31  51
ENDBRANCH  29  31
ENDBRANCH  28  29
ENDBRANCH  27  28
ENDBRANCH   1  27
TORSDOF 19
ENDMDL
MODEL 9
REMARK minimizedAffinity -8.05698776
REMARK CNNscore 0.343236476
REMARK CNNaffinity 7.12340164
REMARK  19 active torsions:
REMARK  status: ('A' for Active; 'I' for Inactive)
REMARK    1  A    between atoms: C2_2  and  C3_3 
REMARK    2  A    between atoms: C3_3  and  C5_5 
REMARK    3  A    between atoms: C5_5  and  N1_6 
REMARK    4  A    between atoms: C5_5  and  C37_46 
REMARK       I    between atoms: N1_6  and  C6_7 
REMARK    5  A    between atoms: C6_7  and  C7_9 
REMARK    6  A    between atoms: C7_9  and  C8_10 
REMARK    7  A    between atoms: C8_10  and  C9_11 
REMARK    8  A    between atoms: C9_11  and  C10_12 
REMARK    9  A    between atoms: C10_12  and  C11_13 
REMARK   10  A    between atoms: C11_13  and  N2_14 
REMARK       I    between atoms: N2_14  and  C12_15 
REMARK   11  A    between atoms: C12_15  and  C13_17 
REMARK   12  A    between atoms: C13_17  and  C14_18 
REMARK   13  A    between atoms: C14_18  and  C15_19 
REMARK   14  A    between atoms: C15_19  and  O4_21 
REMARK   15  A    between atoms: O4_21  and  C16_22 
REMARK   16  A    between atoms: C16_22  and  C17_23 
REMARK   17  A    between atoms: C17_23  and  C18_25 
REMARK   18  A    between atoms: C18_25  and  O6_26 
REMARK   19  A    between atoms: C37_46  and  O9_48 
ROOT
HETATM    1  C15 UNL     1       1.242  53.836 -21.994  1.00  0.00     0.259 C 
HETATM    2  O3  UNL     1       2.038  54.734 -21.749  1.00  0.00    -0.265 OA
ENDROOT
BRANCH   1   3
HETATM    3  C14 UNL     1       0.615  52.985 -20.914  1.00  0.00     0.120 C 
BRANCH   3   4
HETATM    4  C13 UNL     1       0.604  53.601 -19.521  1.00  0.00     0.112 C 
BRANCH   4   5
HETATM    5  C12 UNL     1       0.693  52.549 -18.434  1.00  0.00     0.217 C 
HETATM    6  N2  UNL     1       1.489  52.936 -17.379  1.00  0.00    -0.361 N 
HETATM    7  H22 UNL     1       1.845  53.887 -17.344  1.00  0.00     0.162 HD
HETATM    8  O2  UNL     1       0.136  51.458 -18.503  1.00  0.00    -0.274 OA
BRANCH   6   9
HETATM    9  C11 UNL     1       1.670  52.080 -16.227  1.00  0.00     0.122 C 
BRANCH   9  10
HETATM   10  C10 UNL     1       3.066  52.176 -15.616  1.00  0.00     0.020 C 
BRANCH  10  11
HETATM   11  C9  UNL     1       3.254  51.400 -14.304  1.00  0.00     0.002 C 
BRANCH  11  12
HETATM   12  C8  UNL     1       2.296  51.814 -13.181  1.00  0.00     0.009 C 
BRANCH  12  13
HETATM   13  C7  UNL     1       2.934  51.680 -11.796  1.00  0.00     0.103 C 
BRANCH  13  14
HETATM   14  C6  UNL     1       2.570  52.826 -10.867  1.00  0.00     0.218 C 
HETATM   15  N1  UNL     1       1.968  53.881 -11.520  1.00  0.00    -0.346 N 
HETATM   16  H11 UNL     1       1.502  53.669 -12.396  1.00  0.00     0.163 HD
HETATM   17  O1  UNL     1       2.772  52.809  -9.658  1.00  0.00    -0.274 OA
BRANCH  15  18
HETATM   18  C5  UNL     1       1.438  55.017 -10.758  1.00  0.00     0.186 C 
BRANCH  18  19
HETATM   19  C3  UNL     1       0.476  54.541  -9.639  1.00  0.00     0.014 C 
HETATM   20  C4  UNL     1       0.276  55.641  -8.586  1.00  0.00     0.012 C 
BRANCH  19  21
HETATM   21  C2  UNL     1      -0.883  54.101 -10.234  1.00  0.00     0.002 C 
HETATM   22  C1  UNL     1      -0.910  52.656 -10.713  1.00  0.00     0.005 C 
ENDBRANCH  19  21
ENDBRANCH  18  19
BRANCH  18  23
HETATM   23  C37 UNL     1       2.657  55.737 -10.172  1.00  0.00     0.163 C 
HETATM   24  O8  UNL     1       3.398  56.498 -10.779  1.00  0.00    -0.648 OA
BRANCH  23  25
HETATM   25  O9  UNL     1       2.884  55.437  -8.876  1.00  0.00    -0.775 OA
HETATM   26  H56 UNL     1       3.651  55.992  -8.630  1.00  0.00     0.167 HD
ENDBRANCH  23  25
ENDBRANCH  18  23
ENDBRANCH  15  18
ENDBRANCH  13  14
ENDBRANCH  12  13
ENDBRANCH  11  12
ENDBRANCH  10  11
ENDBRANCH   9  10
ENDBRANCH   6   9
ENDBRANCH   4   5
ENDBRANCH   3   4
ENDBRANCH   1   3
BRANCH   1  27
HETATM   27  O4  UNL     1       0.945  53.401 -23.243  1.00  0.00    -0.314 OA
BRANCH  27  28
HETATM   28  C16 UNL     1       0.345  52.112 -23.336  1.00  0.00     0.260 C 
BRANCH  28  29
HETATM   29  C17 UNL     1      -0.991  51.844 -24.057  1.00  0.00     0.185 C 
HETATM   30  O5  UNL     1      -1.235  52.439 -25.113  1.00  0.00    -0.292 OA
BRANCH  29  31
HETATM   31  C18 UNL     1      -2.051  50.984 -23.319  1.00  0.00     0.128 C 
HETATM   32  C19 UNL     1      -2.541  51.772 -22.075  1.00  0.00     0.047 C 
HETATM   33  C20 UNL     1      -4.007  51.360 -21.840  1.00  0.00     0.009 C 
HETATM   34  C21 UNL     1      -4.274  50.253 -22.864  1.00  0.00     0.002 C 
HETATM   35  C22 UNL     1      -5.749  49.971 -23.218  1.00  0.00    -0.004 C 
HETATM   36  C35 UNL     1      -3.391  50.651 -24.075  1.00  0.00    -0.002 C 
HETATM   37  C23 UNL     1      -6.480  49.349 -22.008  1.00  0.00     0.010 C 
HETATM   38  C32 UNL     1      -5.861  49.120 -24.544  1.00  0.00     0.002 C 
HETATM   39  C24 UNL     1      -6.476  47.827 -22.042  1.00  0.00     0.035 C 
HETATM   40  C25 UNL     1      -7.125  47.279 -23.287  1.00  0.00    -0.068 C 
HETATM   41  C26 UNL     1      -7.689  46.057 -23.258  1.00  0.00     0.053 C 
HETATM   42  C30 UNL     1      -7.097  48.145 -24.546  1.00  0.00    -0.016 C 
HETATM   43  C27 UNL     1      -8.321  45.454 -24.460  1.00  0.00     0.149 C 
HETATM   44  O7  UNL     1      -8.915  44.384 -24.352  1.00  0.00    -0.293 OA
HETATM   45  C28 UNL     1      -8.244  46.199 -25.773  1.00  0.00     0.084 C 
HETATM   46  C29 UNL     1      -7.081  47.191 -25.776  1.00  0.00     0.022 C 
HETATM   47  C31 UNL     1      -8.394  48.999 -24.627  1.00  0.00     0.020 C 
HETATM   48  C33 UNL     1      -4.501  48.459 -24.893  1.00  0.00     0.007 C 
HETATM   49  C34 UNL     1      -3.345  49.464 -25.063  1.00  0.00     0.013 C 
HETATM   50  C36 UNL     1      -3.974  51.887 -24.817  1.00  0.00     0.019 C 
BRANCH  31  51
HETATM   51  O6  UNL     1      -1.472  49.775 -22.806  1.00  0.00    -0.381 OA
HETATM   52  H29 UNL     1      -1.158  49.263 -23.570  1.00  0.00     0.211 HD
ENDBRANCH  31  51
ENDBRANCH  29  31
ENDBRANCH  28  29
ENDBRANCH  27  28
ENDBRANCH   1  27
TORSDOF 19
ENDMDL
