MODEL 1
REMARK minimizedAffinity -9.03265095
REMARK CNNscore 0.596263826
REMARK CNNaffinity 7.14755869
REMARK  9 active torsions:
REMARK  status: ('A' for Active; 'I' for Inactive)
REMARK    1  A    between atoms: C7_8  and  O1_9 
REMARK    2  A    between atoms: O1_9  and  C8_10 
REMARK    3  A    between atoms: C8_10  and  C9_11 
REMARK       I    between atoms: C9_11  and  N1_13 
REMARK    4  A    between atoms: N1_13  and  N2_14 
REMARK    5  A    between atoms: C10_16  and  C11_17 
REMARK    6  A    between atoms: C14_20  and  O3_21 
REMARK    7  A    between atoms: C16_23  and  O4_24 
REMARK    8  A    between atoms: C25_33  and  C26_34 
REMARK    9  A    between atoms: C32_42  and  O7_43 
ROOT
HETATM    1  C11 UNL     1       0.207  52.468 -10.913  1.00  0.00     0.028 C 
HETATM    2  C12 UNL     1       0.191  50.913 -10.847  1.00  0.00     0.021 C 
HETATM    3  C13 UNL     1      -1.046  50.290 -11.508  1.00  0.00     0.033 C 
HETATM    4  C14 UNL     1      -2.362  50.881 -11.009  1.00  0.00     0.121 C 
HETATM    5  C15 UNL     1      -2.363  52.411 -11.023  1.00  0.00     0.070 C 
HETATM    6  C16 UNL     1      -1.134  53.021 -10.321  1.00  0.00     0.073 C 
HETATM    7  C17 UNL     1      -1.171  54.562 -10.342  1.00  0.00     0.039 C 
HETATM    8  C18 UNL     1       0.017  55.169  -9.569  1.00  0.00     0.011 C 
HETATM    9  C19 UNL     1       1.379  54.633 -10.056  1.00  0.00     0.026 C 
HETATM   10  C20 UNL     1       1.409  53.066 -10.104  1.00  0.00     0.009 C 
HETATM   11  C21 UNL     1       2.789  52.541 -10.574  1.00  0.00     0.007 C 
HETATM   12  C22 UNL     1       3.967  53.128  -9.778  1.00  0.00     0.013 C 
HETATM   13  C23 UNL     1       3.930  54.665  -9.773  1.00  0.00    -0.005 C 
HETATM   14  C24 UNL     1       4.215  55.162 -11.227  1.00  0.00     0.019 C 
HETATM   15  C25 UNL     1       4.955  55.417  -8.856  1.00  0.00     0.028 C 
HETATM   16  C30 UNL     1       4.240  56.782  -8.591  1.00  0.00     0.013 C 
HETATM   17  C31 UNL     1       2.768  56.636  -9.043  1.00  0.00     0.040 C 
HETATM   18  C32 UNL     1       2.567  55.134  -9.197  1.00  0.00     0.070 C 
ENDROOT
BRANCH   1  19
HETATM   19  C10 UNL     1       0.354  52.907 -12.385  1.00  0.00     0.093 C 
HETATM   20  N2  UNL     1       0.985  52.179 -13.260  1.00  0.00    -0.312 N 
ATOM     21  H2  UNL     1       1.406  51.284 -13.011  1.00  0.00     0.185 HD
BRANCH  20  22
HETATM   22  N1  UNL     1       1.051  52.677 -14.523  1.00  0.00    -0.269 N 
HETATM   23  C9  UNL     1       1.256  51.800 -15.590  1.00  0.00     0.260 C 
HETATM   24  O2  UNL     1       1.437  50.589 -15.470  1.00  0.00    -0.269 OA
HETATM   25  H9  UNL     1       1.005  53.683 -14.678  1.00  0.00     0.190 HD
BRANCH  23  26
HETATM   26  C8  UNL     1       1.254  52.527 -16.945  1.00  0.00     0.280 C 
BRANCH  26  27
HETATM   27  O1  UNL     1       0.207  52.207 -17.840  1.00  0.00    -0.342 OA
BRANCH  27  28
HETATM   28  C7  UNL     1       0.379  52.518 -19.164  1.00  0.00     0.075 A 
HETATM   29  C2  UNL     1      -0.007  51.517 -20.078  1.00  0.00    -0.027 A 
HETATM   30  C1  UNL     1      -0.618  50.232 -19.594  1.00  0.00     0.051 C 
HETATM   31  C3  UNL     1       0.142  51.739 -21.458  1.00  0.00     0.033 A 
HETATM   32  C4  UNL     1       0.677  52.941 -21.915  1.00  0.00     0.034 A 
HETATM   33 CL1  UNL     1       0.854  53.212 -23.609  1.00  0.00    -0.084 Cl
HETATM   34  C5  UNL     1       1.072  53.927 -21.016  1.00  0.00     0.026 A 
HETATM   35  C6  UNL     1       0.924  53.716 -19.641  1.00  0.00     0.039 A 
ENDBRANCH  27  28
ENDBRANCH  26  27
ENDBRANCH  23  26
ENDBRANCH  20  22
ENDBRANCH   1  19
BRANCH   6  36
HETATM   36  O4  UNL     1      -1.270  52.728  -8.920  1.00  0.00    -0.389 OA
HETATM   37  H19 UNL     1      -0.945  51.823  -8.727  1.00  0.00     0.210 HD
ENDBRANCH   6  36
BRANCH   4  38
HETATM   38  O3  UNL     1      -2.611  50.413  -9.679  1.00  0.00    -0.395 OA
HETATM   39  H16 UNL     1      -2.668  49.444  -9.722  1.00  0.00     0.210 HD
ENDBRANCH   4  38
BRANCH  18  40
HETATM   40  O7  UNL     1       2.404  54.598  -7.875  1.00  0.00    -0.389 OA
HETATM   41  H41 UNL     1       1.663  55.046  -7.442  1.00  0.00     0.210 HD
ENDBRANCH  18  40
BRANCH  15  42
HETATM   42  C26 UNL     1       5.429  54.701  -7.616  1.00  0.00    -0.045 A 
HETATM   43  C27 UNL     1       5.045  54.841  -6.348  1.00  0.00     0.087 A 
HETATM   44  C28 UNL     1       5.858  53.927  -5.540  1.00  0.00     0.283 A 
HETATM   45  O5  UNL     1       5.754  53.779  -4.333  1.00  0.00    -0.260 OA
HETATM   46  O6  UNL     1       6.731  53.266  -6.352  1.00  0.00    -0.314 OA
HETATM   47  C29 UNL     1       6.536  53.705  -7.696  1.00  0.00     0.213 A 
ENDBRANCH  15  42
TORSDOF 9
ENDMDL
MODEL 2
REMARK minimizedAffinity -7.69453287
REMARK CNNscore 0.351557463
REMARK CNNaffinity 6.23160315
REMARK  9 active torsions:
REMARK  status: ('A' for Active; 'I' for Inactive)
REMARK    1  A    between atoms: C7_8  and  O1_9 
REMARK    2  A    between atoms: O1_9  and  C8_10 
REMARK    3  A    between atoms: C8_10  and  C9_11 
REMARK       I    between atoms: C9_11  and  N1_13 
REMARK    4  A    between atoms: N1_13  and  N2_14 
REMARK    5  A    between atoms: C10_16  and  C11_17 
REMARK    6  A    between atoms: C14_20  and  O3_21 
REMARK    7  A    between atoms: C16_23  and  O4_24 
REMARK    8  A    between atoms: C25_33  and  C26_34 
REMARK    9  A    between atoms: C32_42  and  O7_43 
ROOT
HETATM    1  C11 UNL     1       1.611  53.509  -9.275  1.00  0.00     0.028 C 
HETATM    2  C12 UNL     1       2.964  52.808  -9.589  1.00  0.00     0.021 C 
HETATM    3  C13 UNL     1       4.164  53.465  -8.892  1.00  0.00     0.033 C 
HETATM    4  C14 UNL     1       4.250  54.971  -9.127  1.00  0.00     0.121 C 
HETATM    5  C15 UNL     1       2.921  55.685  -8.867  1.00  0.00     0.070 C 
HETATM    6  C16 UNL     1       1.734  55.035  -9.605  1.00  0.00     0.073 C 
HETATM    7  C17 UNL     1       0.414  55.784  -9.331  1.00  0.00     0.039 C 
HETATM    8  C18 UNL     1      -0.756  55.181 -10.134  1.00  0.00     0.011 C 
HETATM    9  C19 UNL     1      -0.913  53.663  -9.906  1.00  0.00     0.026 C 
HETATM   10  C20 UNL     1       0.437  52.896 -10.116  1.00  0.00     0.009 C 
HETATM   11  C21 UNL     1       0.261  51.371  -9.906  1.00  0.00     0.007 C 
HETATM   12  C22 UNL     1      -0.889  50.773 -10.733  1.00  0.00     0.013 C 
HETATM   13  C23 UNL     1      -2.209  51.524 -10.486  1.00  0.00    -0.005 C 
HETATM   14  C24 UNL     1      -2.659  51.244  -9.016  1.00  0.00     0.019 C 
HETATM   15  C25 UNL     1      -3.438  51.157 -11.386  1.00  0.00     0.028 C 
HETATM   16  C30 UNL     1      -4.298  52.461 -11.340  1.00  0.00     0.013 C 
HETATM   17  C31 UNL     1      -3.417  53.583 -10.743  1.00  0.00     0.040 C 
HETATM   18  C32 UNL     1      -1.999  53.028 -10.810  1.00  0.00     0.070 C 
ENDROOT
BRANCH   1  19
HETATM   19  C10 UNL     1       1.280  53.317  -7.780  1.00  0.00     0.093 C 
HETATM   20  N2  UNL     1       0.053  53.267  -7.349  1.00  0.00    -0.312 N 
ATOM     21  H2  UNL     1      -0.742  53.349  -7.980  1.00  0.00     0.185 HD
BRANCH  20  22
HETATM   22  N1  UNL     1      -0.108  53.101  -6.008  1.00  0.00    -0.269 N 
HETATM   23  C9  UNL     1      -0.522  54.185  -5.233  1.00  0.00     0.260 C 
HETATM   24  O2  UNL     1      -0.708  55.321  -5.669  1.00  0.00    -0.269 OA
HETATM   25  H9  UNL     1       0.124  52.209  -5.574  1.00  0.00     0.190 HD
BRANCH  23  26
HETATM   26  C8  UNL     1      -0.700  53.805  -3.754  1.00  0.00     0.280 C 
BRANCH  26  27
HETATM   27  O1  UNL     1      -1.123  54.831  -2.877  1.00  0.00    -0.342 OA
BRANCH  27  28
HETATM   28  C7  UNL     1      -2.461  55.128  -2.837  1.00  0.00     0.075 A 
HETATM   29  C2  UNL     1      -2.793  56.351  -2.220  1.00  0.00    -0.027 A 
HETATM   30  C1  UNL     1      -1.717  57.267  -1.707  1.00  0.00     0.051 C 
HETATM   31  C3  UNL     1      -4.140  56.738  -2.120  1.00  0.00     0.033 A 
HETATM   32  C4  UNL     1      -5.141  55.909  -2.624  1.00  0.00     0.034 A 
HETATM   33 CL1  UNL     1      -6.792  56.389  -2.505  1.00  0.00    -0.084 Cl
HETATM   34  C5  UNL     1      -4.818  54.694  -3.222  1.00  0.00     0.026 A 
HETATM   35  C6  UNL     1      -3.479  54.303  -3.328  1.00  0.00     0.039 A 
ENDBRANCH  27  28
ENDBRANCH  26  27
ENDBRANCH  23  26
ENDBRANCH  20  22
ENDBRANCH   1  19
BRANCH   6  36
HETATM   36  O4  UNL     1       1.938  55.272 -11.008  1.00  0.00    -0.389 OA
HETATM   37  H19 UNL     1       2.551  54.604 -11.382  1.00  0.00     0.210 HD
ENDBRANCH   6  36
BRANCH   4  38
HETATM   38  O3  UNL     1       4.667  55.211 -10.475  1.00  0.00    -0.395 OA
HETATM   39  H16 UNL     1       5.541  54.800 -10.583  1.00  0.00     0.210 HD
ENDBRANCH   4  38
BRANCH  18  40
HETATM   40  O7  UNL     1      -1.564  53.160 -12.173  1.00  0.00    -0.389 OA
HETATM   41  H41 UNL     1      -1.629  54.090 -12.435  1.00  0.00     0.210 HD
ENDBRANCH  18  40
BRANCH  15  42
HETATM   42  C26 UNL     1      -3.149  50.639 -12.773  1.00  0.00    -0.045 A 
HETATM   43  C27 UNL     1      -3.098  51.289 -13.936  1.00  0.00     0.087 A 
HETATM   44  C28 UNL     1      -2.818  50.299 -14.979  1.00  0.00     0.283 A 
HETATM   45  O5  UNL     1      -2.680  50.553 -16.166  1.00  0.00    -0.260 OA
HETATM   46  O6  UNL     1      -2.723  49.063 -14.412  1.00  0.00    -0.314 OA
HETATM   47  C29 UNL     1      -2.932  49.182 -13.005  1.00  0.00     0.213 A 
ENDBRANCH  15  42
TORSDOF 9
ENDMDL
MODEL 3
REMARK minimizedAffinity -9.42033386
REMARK CNNscore 0.323076725
REMARK CNNaffinity 6.31739426
REMARK  9 active torsions:
REMARK  status: ('A' for Active; 'I' for Inactive)
REMARK    1  A    between atoms: C7_8  and  O1_9 
REMARK    2  A    between atoms: O1_9  and  C8_10 
REMARK    3  A    between atoms: C8_10  and  C9_11 
REMARK       I    between atoms: C9_11  and  N1_13 
REMARK    4  A    between atoms: N1_13  and  N2_14 
REMARK    5  A    between atoms: C10_16  and  C11_17 
REMARK    6  A    between atoms: C14_20  and  O3_21 
REMARK    7  A    between atoms: C16_23  and  O4_24 
REMARK    8  A    between atoms: C25_33  and  C26_34 
REMARK    9  A    between atoms: C32_42  and  O7_43 
ROOT
HETATM    1  C11 UNL     1      -8.587  46.032 -30.216  1.00  0.00     0.028 C 
HETATM    2  C12 UNL     1      -8.038  44.756 -30.917  1.00  0.00     0.021 C 
HETATM    3  C13 UNL     1      -6.703  44.986 -31.638  1.00  0.00     0.033 C 
HETATM    4  C14 UNL     1      -6.728  46.177 -32.592  1.00  0.00     0.121 C 
HETATM    5  C15 UNL     1      -7.303  47.439 -31.945  1.00  0.00     0.070 C 
HETATM    6  C16 UNL     1      -8.662  47.199 -31.259  1.00  0.00     0.073 C 
HETATM    7  C17 UNL     1      -9.218  48.491 -30.628  1.00  0.00     0.039 C 
HETATM    8  C18 UNL     1     -10.614  48.266 -30.014  1.00  0.00     0.011 C 
HETATM    9  C19 UNL     1     -10.640  47.093 -29.011  1.00  0.00     0.026 C 
HETATM   10  C20 UNL     1     -10.016  45.790 -29.617  1.00  0.00     0.009 C 
HETATM   11  C21 UNL     1     -10.068  44.615 -28.608  1.00  0.00     0.007 C 
HETATM   12  C22 UNL     1     -11.471  44.378 -28.023  1.00  0.00     0.013 C 
HETATM   13  C23 UNL     1     -12.048  45.664 -27.408  1.00  0.00    -0.005 C 
HETATM   14  C24 UNL     1     -11.201  46.020 -26.143  1.00  0.00     0.019 C 
HETATM   15  C25 UNL     1     -13.540  45.641 -26.930  1.00  0.00     0.028 C 
HETATM   16  C30 UNL     1     -13.949  47.147 -27.009  1.00  0.00     0.013 C 
HETATM   17  C31 UNL     1     -12.857  47.888 -27.816  1.00  0.00     0.040 C 
HETATM   18  C32 UNL     1     -12.065  46.776 -28.492  1.00  0.00     0.070 C 
ENDROOT
BRANCH   1  19
HETATM   19  C10 UNL     1      -7.641  46.418 -29.060  1.00  0.00     0.093 C 
HETATM   20  N2  UNL     1      -7.260  47.647 -28.865  1.00  0.00    -0.312 N 
ATOM     21  H2  UNL     1      -7.574  48.409 -29.465  1.00  0.00     0.185 HD
BRANCH  20  22
HETATM   22  N1  UNL     1      -6.421  47.859 -27.816  1.00  0.00    -0.269 N 
HETATM   23  C9  UNL     1      -5.091  48.199 -28.066  1.00  0.00     0.260 C 
HETATM   24  O2  UNL     1      -4.592  48.276 -29.189  1.00  0.00    -0.269 OA
HETATM   25  H9  UNL     1      -6.751  47.716 -26.862  1.00  0.00     0.190 HD
BRANCH  23  26
HETATM   26  C8  UNL     1      -4.303  48.450 -26.770  1.00  0.00     0.280 C 
BRANCH  26  27
HETATM   27  O1  UNL     1      -2.894  48.498 -26.878  1.00  0.00    -0.342 OA
BRANCH  27  28
HETATM   28  C7  UNL     1      -2.224  49.416 -26.111  1.00  0.00     0.075 A 
HETATM   29  C2  UNL     1      -2.545  49.409 -24.738  1.00  0.00    -0.027 A 
HETATM   30  C1  UNL     1      -3.516  48.405 -24.183  1.00  0.00     0.051 C 
HETATM   31  C3  UNL     1      -1.918  50.322 -23.872  1.00  0.00     0.033 A 
HETATM   32  C4  UNL     1      -0.992  51.233 -24.374  1.00  0.00     0.034 A 
HETATM   33 CL1  UNL     1      -0.222  52.348 -23.309  1.00  0.00    -0.084 Cl
HETATM   34  C5  UNL     1      -0.683  51.253 -25.731  1.00  0.00     0.026 A 
HETATM   35  C6  UNL     1      -1.299  50.345 -26.600  1.00  0.00     0.039 A 
ENDBRANCH  27  28
ENDBRANCH  26  27
ENDBRANCH  23  26
ENDBRANCH  20  22
ENDBRANCH   1  19
BRANCH   6  36
HETATM   36  O4  UNL     1      -9.612  46.932 -32.305  1.00  0.00    -0.389 OA
HETATM   37  H19 UNL     1      -9.569  45.990 -32.574  1.00  0.00     0.210 HD
ENDBRANCH   6  36
BRANCH   4  38
HETATM   38  O3  UNL     1      -7.502  45.835 -33.747  1.00  0.00    -0.395 OA
HETATM   39  H16 UNL     1      -7.070  45.072 -34.166  1.00  0.00     0.210 HD
ENDBRANCH   4  38
BRANCH  18  40
HETATM   40  O7  UNL     1     -12.847  46.329 -29.611  1.00  0.00    -0.389 OA
HETATM   41  H41 UNL     1     -13.027  47.084 -30.190  1.00  0.00     0.210 HD
ENDBRANCH  18  40
BRANCH  15  42
HETATM   42  C26 UNL     1     -14.477  44.694 -27.637  1.00  0.00    -0.045 A 
HETATM   43  C27 UNL     1     -15.574  44.949 -28.350  1.00  0.00     0.087 A 
HETATM   44  C28 UNL     1     -16.127  43.661 -28.778  1.00  0.00     0.283 A 
HETATM   45  O5  UNL     1     -17.123  43.523 -29.472  1.00  0.00    -0.260 OA
HETATM   46  O6  UNL     1     -15.348  42.654 -28.293  1.00  0.00    -0.314 OA
HETATM   47  C29 UNL     1     -14.275  43.220 -27.542  1.00  0.00     0.213 A 
ENDBRANCH  15  42
TORSDOF 9
ENDMDL
MODEL 4
REMARK minimizedAffinity -8.23706627
REMARK CNNscore 0.199401468
REMARK CNNaffinity 5.98163223
REMARK  9 active torsions:
REMARK  status: ('A' for Active; 'I' for Inactive)
REMARK    1  A    between atoms: C7_8  and  O1_9 
REMARK    2  A    between atoms: O1_9  and  C8_10 
REMARK    3  A    between atoms: C8_10  and  C9_11 
REMARK       I    between atoms: C9_11  and  N1_13 
REMARK    4  A    between atoms: N1_13  and  N2_14 
REMARK    5  A    between atoms: C10_16  and  C11_17 
REMARK    6  A    between atoms: C14_20  and  O3_21 
REMARK    7  A    between atoms: C16_23  and  O4_24 
REMARK    8  A    between atoms: C25_33  and  C26_34 
REMARK    9  A    between atoms: C32_42  and  O7_43 
ROOT
HETATM    1  C11 UNL     1      -2.734  49.461 -10.868  1.00  0.00     0.028 C 
HETATM    2  C12 UNL     1      -2.175  48.160 -10.222  1.00  0.00     0.021 C 
HETATM    3  C13 UNL     1      -2.924  46.895 -10.659  1.00  0.00     0.033 C 
HETATM    4  C14 UNL     1      -4.438  46.996 -10.485  1.00  0.00     0.121 C 
HETATM    5  C15 UNL     1      -5.014  48.286 -11.074  1.00  0.00     0.070 C 
HETATM    6  C16 UNL     1      -4.274  49.550 -10.593  1.00  0.00     0.073 C 
HETATM    7  C17 UNL     1      -4.885  50.831 -11.195  1.00  0.00     0.039 C 
HETATM    8  C18 UNL     1      -4.196  52.098 -10.650  1.00  0.00     0.011 C 
HETATM    9  C19 UNL     1      -2.664  52.067 -10.833  1.00  0.00     0.026 C 
HETATM   10  C20 UNL     1      -2.036  50.739 -10.286  1.00  0.00     0.009 C 
HETATM   11  C21 UNL     1      -0.496  50.729 -10.455  1.00  0.00     0.007 C 
HETATM   12  C22 UNL     1       0.187  51.983  -9.882  1.00  0.00     0.013 C 
HETATM   13  C23 UNL     1      -0.427  53.270 -10.458  1.00  0.00    -0.005 C 
HETATM   14  C24 UNL     1      -0.065  53.344 -11.976  1.00  0.00     0.019 C 
HETATM   15  C25 UNL     1       0.030  54.637  -9.843  1.00  0.00     0.028 C 
HETATM   16  C30 UNL     1      -1.184  55.573 -10.146  1.00  0.00     0.013 C 
HETATM   17  C31 UNL     1      -2.369  54.678 -10.582  1.00  0.00     0.040 C 
HETATM   18  C32 UNL     1      -1.953  53.272 -10.169  1.00  0.00     0.070 C 
ENDROOT
BRANCH   1  19
HETATM   19  C10 UNL     1      -2.471  49.421 -12.388  1.00  0.00     0.093 C 
HETATM   20  N2  UNL     1      -3.414  49.647 -13.255  1.00  0.00    -0.312 N 
ATOM     21  H2  UNL     1      -4.368  49.864 -12.967  1.00  0.00     0.185 HD
BRANCH  20  22
HETATM   22  N1  UNL     1      -3.058  49.577 -14.566  1.00  0.00    -0.269 N 
HETATM   23  C9  UNL     1      -3.071  50.741 -15.337  1.00  0.00     0.260 C 
HETATM   24  O2  UNL     1      -3.437  51.842 -14.928  1.00  0.00    -0.269 OA
HETATM   25  H9  UNL     1      -2.837  48.676 -14.986  1.00  0.00     0.190 HD
BRANCH  23  26
HETATM   26  C8  UNL     1      -2.593  50.487 -16.776  1.00  0.00     0.280 C 
BRANCH  26  27
HETATM   27  O1  UNL     1      -2.919  51.468 -17.740  1.00  0.00    -0.342 OA
BRANCH  27  28
HETATM   28  C7  UNL     1      -2.029  51.683 -18.761  1.00  0.00     0.075 A 
HETATM   29  C2  UNL     1      -2.485  51.330 -20.047  1.00  0.00    -0.027 A 
HETATM   30  C1  UNL     1      -3.882  50.814 -20.251  1.00  0.00     0.051 C 
HETATM   31  C3  UNL     1      -1.640  51.504 -21.157  1.00  0.00     0.033 A 
HETATM   32  C4  UNL     1      -0.355  52.014 -20.980  1.00  0.00     0.034 A 
HETATM   33 CL1  UNL     1       0.677  52.230 -22.344  1.00  0.00    -0.084 Cl
HETATM   34  C5  UNL     1       0.103  52.351 -19.710  1.00  0.00     0.026 A 
HETATM   35  C6  UNL     1      -0.733  52.185 -18.600  1.00  0.00     0.039 A 
ENDBRANCH  27  28
ENDBRANCH  26  27
ENDBRANCH  23  26
ENDBRANCH  20  22
ENDBRANCH   1  19
BRANCH   6  36
HETATM   36  O4  UNL     1      -4.568  49.696  -9.194  1.00  0.00    -0.389 OA
HETATM   37  H19 UNL     1      -3.972  49.130  -8.659  1.00  0.00     0.210 HD
ENDBRANCH   6  36
BRANCH   4  38
HETATM   38  O3  UNL     1      -4.753  46.922  -9.091  1.00  0.00    -0.395 OA
HETATM   39  H16 UNL     1      -4.431  46.064  -8.768  1.00  0.00     0.210 HD
ENDBRANCH   4  38
BRANCH  18  40
HETATM   40  O7  UNL     1      -2.163  53.175  -8.751  1.00  0.00    -0.389 OA
HETATM   41  H41 UNL     1      -3.090  53.379  -8.556  1.00  0.00     0.210 HD
ENDBRANCH  18  40
BRANCH  15  42
HETATM   42  C26 UNL     1       0.479  54.631  -8.403  1.00  0.00    -0.045 A 
HETATM   43  C27 UNL     1       0.035  53.914  -7.371  1.00  0.00     0.087 A 
HETATM   44  C28 UNL     1       0.794  54.331  -6.189  1.00  0.00     0.283 A 
HETATM   45  O5  UNL     1       0.662  53.860  -5.070  1.00  0.00    -0.260 OA
HETATM   46  O6  UNL     1       1.673  55.311  -6.542  1.00  0.00    -0.314 OA
HETATM   47  C29 UNL     1       1.535  55.576  -7.938  1.00  0.00     0.213 A 
ENDBRANCH  15  42
TORSDOF 9
ENDMDL
MODEL 5
REMARK minimizedAffinity -8.29257774
REMARK CNNscore 0.19812429
REMARK CNNaffinity 5.88286734
REMARK  9 active torsions:
REMARK  status: ('A' for Active; 'I' for Inactive)
REMARK    1  A    between atoms: C7_8  and  O1_9 
REMARK    2  A    between atoms: O1_9  and  C8_10 
REMARK    3  A    between atoms: C8_10  and  C9_11 
REMARK       I    between atoms: C9_11  and  N1_13 
REMARK    4  A    between atoms: N1_13  and  N2_14 
REMARK    5  A    between atoms: C10_16  and  C11_17 
REMARK    6  A    between atoms: C14_20  and  O3_21 
REMARK    7  A    between atoms: C16_23  and  O4_24 
REMARK    8  A    between atoms: C25_33  and  C26_34 
REMARK    9  A    between atoms: C32_42  and  O7_43 
ROOT
HETATM    1  C11 UNL     1      -9.395  46.824 -27.990  1.00  0.00     0.028 C 
HETATM    2  C12 UNL     1     -10.630  47.719 -27.683  1.00  0.00     0.021 C 
HETATM    3  C13 UNL     1     -10.676  48.212 -26.231  1.00  0.00     0.033 C 
HETATM    4  C14 UNL     1     -10.533  47.091 -25.205  1.00  0.00     0.121 C 
HETATM    5  C15 UNL     1      -9.350  46.167 -25.503  1.00  0.00     0.070 C 
HETATM    6  C16 UNL     1      -9.341  45.650 -26.955  1.00  0.00     0.073 C 
HETATM    7  C17 UNL     1      -8.144  44.714 -27.219  1.00  0.00     0.039 C 
HETATM    8  C18 UNL     1      -8.182  44.134 -28.647  1.00  0.00     0.011 C 
HETATM    9  C19 UNL     1      -8.291  45.228 -29.730  1.00  0.00     0.026 C 
HETATM   10  C20 UNL     1      -9.463  46.227 -29.439  1.00  0.00     0.009 C 
HETATM   11  C21 UNL     1      -9.574  47.306 -30.544  1.00  0.00     0.007 C 
HETATM   12  C22 UNL     1      -9.642  46.718 -31.964  1.00  0.00     0.013 C 
HETATM   13  C23 UNL     1      -8.465  45.766 -32.234  1.00  0.00    -0.005 C 
HETATM   14  C24 UNL     1      -7.153  46.614 -32.275  1.00  0.00     0.019 C 
HETATM   15  C25 UNL     1      -8.482  44.943 -33.568  1.00  0.00     0.028 C 
HETATM   16  C30 UNL     1      -7.600  43.701 -33.215  1.00  0.00     0.013 C 
HETATM   17  C31 UNL     1      -7.412  43.680 -31.680  1.00  0.00     0.040 C 
HETATM   18  C32 UNL     1      -8.465  44.649 -31.156  1.00  0.00     0.070 C 
ENDROOT
BRANCH   1  19
HETATM   19  C10 UNL     1      -8.115  47.680 -27.884  1.00  0.00     0.093 C 
HETATM   20  N2  UNL     1      -7.028  47.224 -27.334  1.00  0.00    -0.312 N 
ATOM     21  H2  UNL     1      -6.972  46.280 -26.953  1.00  0.00     0.185 HD
BRANCH  20  22
HETATM   22  N1  UNL     1      -5.969  48.077 -27.295  1.00  0.00    -0.269 N 
HETATM   23  C9  UNL     1      -5.105  48.140 -28.391  1.00  0.00     0.260 C 
HETATM   24  O2  UNL     1      -5.200  47.431 -29.392  1.00  0.00    -0.269 OA
HETATM   25  H9  UNL     1      -5.782  48.621 -26.454  1.00  0.00     0.190 HD
BRANCH  23  26
HETATM   26  C8  UNL     1      -3.998  49.189 -28.196  1.00  0.00     0.280 C 
BRANCH  26  27
HETATM   27  O1  UNL     1      -3.809  49.683 -26.885  1.00  0.00    -0.342 OA
BRANCH  27  28
HETATM   28  C7  UNL     1      -2.625  50.313 -26.603  1.00  0.00     0.075 A 
HETATM   29  C2  UNL     1      -2.156  50.162 -25.282  1.00  0.00    -0.027 A 
HETATM   30  C1  UNL     1      -2.904  49.308 -24.297  1.00  0.00     0.051 C 
HETATM   31  C3  UNL     1      -0.955  50.781 -24.894  1.00  0.00     0.033 A 
HETATM   32  C4  UNL     1      -0.239  51.546 -25.811  1.00  0.00     0.034 A 
HETATM   33 CL1  UNL     1       1.236  52.300 -25.334  1.00  0.00    -0.084 Cl
HETATM   34  C5  UNL     1      -0.706  51.710 -27.113  1.00  0.00     0.026 A 
HETATM   35  C6  UNL     1      -1.898  51.094 -27.509  1.00  0.00     0.039 A 
ENDBRANCH  27  28
ENDBRANCH  26  27
ENDBRANCH  23  26
ENDBRANCH  20  22
ENDBRANCH   1  19
BRANCH   6  36
HETATM   36  O4  UNL     1     -10.463  44.760 -27.085  1.00  0.00    -0.389 OA
HETATM   37  H19 UNL     1     -11.283  45.268 -27.259  1.00  0.00     0.210 HD
ENDBRANCH   6  36
BRANCH   4  38
HETATM   38  O3  UNL     1     -11.743  46.326 -25.176  1.00  0.00    -0.395 OA
HETATM   39  H16 UNL     1     -12.459  46.932 -24.921  1.00  0.00     0.210 HD
ENDBRANCH   4  38
BRANCH  18  40
HETATM   40  O7  UNL     1      -9.723  43.957 -31.195  1.00  0.00    -0.389 OA
HETATM   41  H41 UNL     1      -9.651  43.143 -30.674  1.00  0.00     0.210 HD
ENDBRANCH  18  40
BRANCH  15  42
HETATM   42  C26 UNL     1      -9.830  44.613 -34.159  1.00  0.00    -0.045 A 
HETATM   43  C27 UNL     1     -10.542  43.488 -34.091  1.00  0.00     0.087 A 
HETATM   44  C28 UNL     1     -11.761  43.694 -34.878  1.00  0.00     0.283 A 
HETATM   45  O5  UNL     1     -12.654  42.871 -35.012  1.00  0.00    -0.260 OA
HETATM   46  O6  UNL     1     -11.742  44.945 -35.417  1.00  0.00    -0.314 OA
HETATM   47  C29 UNL     1     -10.540  45.602 -35.020  1.00  0.00     0.213 A 
ENDBRANCH  15  42
TORSDOF 9
ENDMDL
MODEL 6
REMARK minimizedAffinity -8.31576347
REMARK CNNscore 0.193108931
REMARK CNNaffinity 6.11463213
REMARK  9 active torsions:
REMARK  status: ('A' for Active; 'I' for Inactive)
REMARK    1  A    between atoms: C7_8  and  O1_9 
REMARK    2  A    between atoms: O1_9  and  C8_10 
REMARK    3  A    between atoms: C8_10  and  C9_11 
REMARK       I    between atoms: C9_11  and  N1_13 
REMARK    4  A    between atoms: N1_13  and  N2_14 
REMARK    5  A    between atoms: C10_16  and  C11_17 
REMARK    6  A    between atoms: C14_20  and  O3_21 
REMARK    7  A    between atoms: C16_23  and  O4_24 
REMARK    8  A    between atoms: C25_33  and  C26_34 
REMARK    9  A    between atoms: C32_42  and  O7_43 
ROOT
HETATM    1  C11 UNL     1       0.602  48.628 -13.363  1.00  0.00     0.028 C 
HETATM    2  C12 UNL     1       2.119  48.880 -13.602  1.00  0.00     0.021 C 
HETATM    3  C13 UNL     1       2.834  47.695 -14.265  1.00  0.00     0.033 C 
HETATM    4  C14 UNL     1       2.597  46.367 -13.550  1.00  0.00     0.121 C 
HETATM    5  C15 UNL     1       1.116  46.109 -13.263  1.00  0.00     0.070 C 
HETATM    6  C16 UNL     1       0.422  47.295 -12.562  1.00  0.00     0.073 C 
HETATM    7  C17 UNL     1      -1.063  46.998 -12.277  1.00  0.00     0.039 C 
HETATM    8  C18 UNL     1      -1.733  48.151 -11.504  1.00  0.00     0.011 C 
HETATM    9  C19 UNL     1      -1.556  49.516 -12.202  1.00  0.00     0.026 C 
HETATM   10  C20 UNL     1      -0.056  49.802 -12.558  1.00  0.00     0.009 C 
HETATM   11  C21 UNL     1       0.111  51.184 -13.238  1.00  0.00     0.007 C 
HETATM   12  C22 UNL     1      -0.534  52.333 -12.445  1.00  0.00     0.013 C 
HETATM   13  C23 UNL     1      -2.012  52.042 -12.135  1.00  0.00    -0.005 C 
HETATM   14  C24 UNL     1      -2.804  52.065 -13.482  1.00  0.00     0.019 C 
HETATM   15  C25 UNL     1      -2.767  53.028 -11.180  1.00  0.00     0.028 C 
HETATM   16  C30 UNL     1      -3.905  52.132 -10.592  1.00  0.00     0.013 C 
HETATM   17  C31 UNL     1      -3.571  50.662 -10.937  1.00  0.00     0.040 C 
HETATM   18  C32 UNL     1      -2.109  50.697 -11.365  1.00  0.00     0.070 C 
ENDROOT
BRANCH   1  19
HETATM   19  C10 UNL     1      -0.111  48.524 -14.728  1.00  0.00     0.093 C 
HETATM   20  N2  UNL     1       0.415  49.004 -15.817  1.00  0.00    -0.312 N 
ATOM     21  H2  UNL     1       1.324  49.466 -15.816  1.00  0.00     0.185 HD
BRANCH  20  22
HETATM   22  N1  UNL     1      -0.314  48.855 -16.955  1.00  0.00    -0.269 N 
HETATM   23  C9  UNL     1      -0.300  49.873 -17.910  1.00  0.00     0.260 C 
HETATM   24  O2  UNL     1       0.294  50.942 -17.778  1.00  0.00    -0.269 OA
HETATM   25  H9  UNL     1      -0.903  48.033 -17.079  1.00  0.00     0.190 HD
BRANCH  23  26
HETATM   26  C8  UNL     1      -1.136  49.515 -19.150  1.00  0.00     0.280 C 
BRANCH  26  27
HETATM   27  O1  UNL     1      -0.725  50.076 -20.381  1.00  0.00    -0.342 OA
BRANCH  27  28
HETATM   28  C7  UNL     1      -1.373  49.668 -21.518  1.00  0.00     0.075 A 
HETATM   29  C2  UNL     1      -1.313  50.563 -22.605  1.00  0.00    -0.027 A 
HETATM   30  C1  UNL     1      -0.529  51.842 -22.503  1.00  0.00     0.051 C 
HETATM   31  C3  UNL     1      -1.957  50.238 -23.812  1.00  0.00     0.033 A 
HETATM   32  C4  UNL     1      -2.658  49.039 -23.925  1.00  0.00     0.034 A 
HETATM   33 CL1  UNL     1      -3.442  48.641 -25.408  1.00  0.00    -0.084 Cl
HETATM   34  C5  UNL     1      -2.731  48.159 -22.850  1.00  0.00     0.026 A 
HETATM   35  C6  UNL     1      -2.090  48.473 -21.646  1.00  0.00     0.039 A 
ENDBRANCH  27  28
ENDBRANCH  26  27
ENDBRANCH  23  26
ENDBRANCH  20  22
ENDBRANCH   1  19
BRANCH   6  36
HETATM   36  O4  UNL     1       0.980  47.377 -11.239  1.00  0.00    -0.389 OA
HETATM   37  H19 UNL     1       1.828  47.868 -11.256  1.00  0.00     0.210 HD
ENDBRANCH   6  36
BRANCH   4  38
HETATM   38  O3  UNL     1       3.332  46.360 -12.321  1.00  0.00    -0.395 OA
HETATM   39  H16 UNL     1       4.271  46.461 -12.548  1.00  0.00     0.210 HD
ENDBRANCH   4  38
BRANCH  18  40
HETATM   40  O7  UNL     1      -1.325  50.785 -10.164  1.00  0.00    -0.389 OA
HETATM   41  H41 UNL     1      -1.544  50.036  -9.591  1.00  0.00     0.210 HD
ENDBRANCH  18  40
BRANCH  15  42
HETATM   42  C26 UNL     1      -1.943  53.759 -10.149  1.00  0.00    -0.045 A 
HETATM   43  C27 UNL     1      -1.100  54.781 -10.295  1.00  0.00     0.087 A 
HETATM   44  C28 UNL     1      -0.535  55.075  -8.976  1.00  0.00     0.283 A 
HETATM   45  O5  UNL     1       0.258  55.973  -8.738  1.00  0.00    -0.260 OA
HETATM   46  O6  UNL     1      -1.046  54.202  -8.063  1.00  0.00    -0.314 OA
HETATM   47  C29 UNL     1      -1.948  53.315  -8.726  1.00  0.00     0.213 A 
ENDBRANCH  15  42
TORSDOF 9
ENDMDL
MODEL 7
REMARK minimizedAffinity -8.68283653
REMARK CNNscore 0.188580319
REMARK CNNaffinity 6.16729403
REMARK  9 active torsions:
REMARK  status: ('A' for Active; 'I' for Inactive)
REMARK    1  A    between atoms: C7_8  and  O1_9 
REMARK    2  A    between atoms: O1_9  and  C8_10 
REMARK    3  A    between atoms: C8_10  and  C9_11 
REMARK       I    between atoms: C9_11  and  N1_13 
REMARK    4  A    between atoms: N1_13  and  N2_14 
REMARK    5  A    between atoms: C10_16  and  C11_17 
REMARK    6  A    between atoms: C14_20  and  O3_21 
REMARK    7  A    between atoms: C16_23  and  O4_24 
REMARK    8  A    between atoms: C25_33  and  C26_34 
REMARK    9  A    between atoms: C32_42  and  O7_43 
ROOT
HETATM    1  C11 UNL     1      -1.635  53.011 -10.253  1.00  0.00     0.028 C 
HETATM    2  C12 UNL     1      -2.292  54.415 -10.118  1.00  0.00     0.021 C 
HETATM    3  C13 UNL     1      -1.277  55.565 -10.163  1.00  0.00     0.033 C 
HETATM    4  C14 UNL     1      -0.123  55.394  -9.178  1.00  0.00     0.121 C 
HETATM    5  C15 UNL     1       0.518  54.006  -9.257  1.00  0.00     0.070 C 
HETATM    6  C16 UNL     1      -0.512  52.862  -9.172  1.00  0.00     0.073 C 
HETATM    7  C17 UNL     1       0.166  51.479  -9.242  1.00  0.00     0.039 C 
HETATM    8  C18 UNL     1      -0.857  50.338  -9.075  1.00  0.00     0.011 C 
HETATM    9  C19 UNL     1      -2.030  50.440 -10.072  1.00  0.00     0.026 C 
HETATM   10  C20 UNL     1      -2.687  51.863 -10.059  1.00  0.00     0.009 C 
HETATM   11  C21 UNL     1      -3.877  51.946 -11.048  1.00  0.00     0.007 C 
HETATM   12  C22 UNL     1      -4.908  50.821 -10.855  1.00  0.00     0.013 C 
HETATM   13  C23 UNL     1      -4.242  49.435 -10.902  1.00  0.00    -0.005 C 
HETATM   14  C24 UNL     1      -3.733  49.191 -12.359  1.00  0.00     0.019 C 
HETATM   15  C25 UNL     1      -5.122  48.190 -10.542  1.00  0.00     0.028 C 
HETATM   16  C30 UNL     1      -4.061  47.149 -10.058  1.00  0.00     0.013 C 
HETATM   17  C31 UNL     1      -2.730  47.905  -9.834  1.00  0.00     0.040 C 
HETATM   18  C32 UNL     1      -3.128  49.376  -9.822  1.00  0.00     0.070 C 
ENDROOT
BRANCH   1  19
HETATM   19  C10 UNL     1      -1.030  52.872 -11.665  1.00  0.00     0.093 C 
HETATM   20  N2  UNL     1       0.245  53.016 -11.883  1.00  0.00    -0.312 N 
ATOM     21  H2  UNL     1       0.900  53.223 -11.130  1.00  0.00     0.185 HD
BRANCH  20  22
HETATM   22  N1  UNL     1       0.656  52.876 -13.172  1.00  0.00    -0.269 N 
HETATM   23  C9  UNL     1       1.396  51.748 -13.531  1.00  0.00     0.260 C 
HETATM   24  O2  UNL     1       1.759  50.875 -12.744  1.00  0.00    -0.269 OA
HETATM   25  H9  UNL     1       0.469  53.613 -13.850  1.00  0.00     0.190 HD
BRANCH  23  26
HETATM   26  C8  UNL     1       1.731  51.729 -15.032  1.00  0.00     0.280 C 
BRANCH  26  27
HETATM   27  O1  UNL     1       0.969  50.859 -15.846  1.00  0.00    -0.342 OA
BRANCH  27  28
HETATM   28  C7  UNL     1       0.652  51.281 -17.111  1.00  0.00     0.075 A 
HETATM   29  C2  UNL     1      -0.139  50.391 -17.866  1.00  0.00    -0.027 A 
HETATM   30  C1  UNL     1      -0.631  49.104 -17.266  1.00  0.00     0.051 C 
HETATM   31  C3  UNL     1      -0.508  50.730 -19.180  1.00  0.00     0.033 A 
HETATM   32  C4  UNL     1      -0.083  51.937 -19.731  1.00  0.00     0.034 A 
HETATM   33 CL1  UNL     1      -0.541  52.353 -21.341  1.00  0.00    -0.084 Cl
HETATM   34  C5  UNL     1       0.709  52.812 -18.994  1.00  0.00     0.026 A 
HETATM   35  C6  UNL     1       1.077  52.484 -17.684  1.00  0.00     0.039 A 
ENDBRANCH  27  28
ENDBRANCH  26  27
ENDBRANCH  23  26
ENDBRANCH  20  22
ENDBRANCH   1  19
BRANCH   6  36
HETATM   36  O4  UNL     1      -1.040  52.879  -7.834  1.00  0.00    -0.389 OA
HETATM   37  H19 UNL     1      -1.757  53.544  -7.758  1.00  0.00     0.210 HD
ENDBRANCH   6  36
BRANCH   4  38
HETATM   38  O3  UNL     1      -0.604  55.626  -7.850  1.00  0.00    -0.395 OA
HETATM   39  H16 UNL     1      -0.942  56.536  -7.822  1.00  0.00     0.210 HD
ENDBRANCH   4  38
BRANCH  18  40
HETATM   40  O7  UNL     1      -3.706  49.640  -8.534  1.00  0.00    -0.389 OA
HETATM   41  H41 UNL     1      -3.064  49.406  -7.847  1.00  0.00     0.210 HD
ENDBRANCH  18  40
BRANCH  15  42
HETATM   42  C26 UNL     1      -6.272  48.407  -9.591  1.00  0.00    -0.045 A 
HETATM   43  C27 UNL     1      -7.187  49.376  -9.563  1.00  0.00     0.087 A 
HETATM   44  C28 UNL     1      -8.050  49.130  -8.404  1.00  0.00     0.283 A 
HETATM   45  O5  UNL     1      -9.012  49.813  -8.090  1.00  0.00    -0.260 OA
HETATM   46  O6  UNL     1      -7.617  48.015  -7.750  1.00  0.00    -0.314 OA
HETATM   47  C29 UNL     1      -6.477  47.492  -8.432  1.00  0.00     0.213 A 
ENDBRANCH  15  42
TORSDOF 9
ENDMDL
MODEL 8
REMARK minimizedAffinity -8.08632851
REMARK CNNscore 0.178884253
REMARK CNNaffinity 6.35535431
REMARK  9 active torsions:
REMARK  status: ('A' for Active; 'I' for Inactive)
REMARK    1  A    between atoms: C7_8  and  O1_9 
REMARK    2  A    between atoms: O1_9  and  C8_10 
REMARK    3  A    between atoms: C8_10  and  C9_11 
REMARK       I    between atoms: C9_11  and  N1_13 
REMARK    4  A    between atoms: N1_13  and  N2_14 
REMARK    5  A    between atoms: C10_16  and  C11_17 
REMARK    6  A    between atoms: C14_20  and  O3_21 
REMARK    7  A    between atoms: C16_23  and  O4_24 
REMARK    8  A    between atoms: C25_33  and  C26_34 
REMARK    9  A    between atoms: C32_42  and  O7_43 
ROOT
HETATM    1  C11 UNL     1      -4.825  47.168 -19.482  1.00  0.00     0.028 C 
HETATM    2  C12 UNL     1      -3.975  46.338 -18.478  1.00  0.00     0.021 C 
HETATM    3  C13 UNL     1      -4.809  45.363 -17.636  1.00  0.00     0.033 C 
HETATM    4  C14 UNL     1      -5.998  46.025 -16.944  1.00  0.00     0.121 C 
HETATM    5  C15 UNL     1      -6.832  46.883 -17.897  1.00  0.00     0.070 C 
HETATM    6  C16 UNL     1      -5.983  47.884 -18.707  1.00  0.00     0.073 C 
HETATM    7  C17 UNL     1      -6.854  48.740 -19.647  1.00  0.00     0.039 C 
HETATM    8  C18 UNL     1      -6.013  49.794 -20.395  1.00  0.00     0.011 C 
HETATM    9  C19 UNL     1      -4.814  49.176 -21.145  1.00  0.00     0.026 C 
HETATM   10  C20 UNL     1      -3.957  48.248 -20.216  1.00  0.00     0.009 C 
HETATM   11  C21 UNL     1      -2.746  47.651 -20.975  1.00  0.00     0.007 C 
HETATM   12  C22 UNL     1      -1.895  48.713 -21.693  1.00  0.00     0.013 C 
HETATM   13  C23 UNL     1      -2.754  49.589 -22.620  1.00  0.00    -0.005 C 
HETATM   14  C24 UNL     1      -3.260  48.696 -23.800  1.00  0.00     0.019 C 
HETATM   15  C25 UNL     1      -2.074  50.833 -23.288  1.00  0.00     0.028 C 
HETATM   16  C30 UNL     1      -3.287  51.781 -23.560  1.00  0.00     0.013 C 
HETATM   17  C31 UNL     1      -4.498  51.234 -22.769  1.00  0.00     0.040 C 
HETATM   18  C32 UNL     1      -3.890  50.240 -21.786  1.00  0.00     0.070 C 
ENDROOT
BRANCH   1  19
HETATM   19  C10 UNL     1      -5.413  46.219 -20.548  1.00  0.00     0.093 C 
HETATM   20  N2  UNL     1      -4.981  45.001 -20.696  1.00  0.00    -0.312 N 
ATOM     21  H2  UNL     1      -4.239  44.618 -20.110  1.00  0.00     0.185 HD
BRANCH  20  22
HETATM   22  N1  UNL     1      -5.575  44.265 -21.674  1.00  0.00    -0.269 N 
HETATM   23  C9  UNL     1      -6.509  43.290 -21.320  1.00  0.00     0.260 C 
HETATM   24  O2  UNL     1      -6.807  43.001 -20.162  1.00  0.00    -0.269 OA
HETATM   25  H9  UNL     1      -5.298  44.392 -22.646  1.00  0.00     0.190 HD
BRANCH  23  26
HETATM   26  C8  UNL     1      -7.113  42.594 -22.550  1.00  0.00     0.280 C 
BRANCH  26  27
HETATM   27  O1  UNL     1      -8.303  43.147 -23.077  1.00  0.00    -0.342 OA
BRANCH  27  28
HETATM   28  C7  UNL     1      -8.229  43.791 -24.285  1.00  0.00     0.075 A 
HETATM   29  C2  UNL     1      -8.357  45.194 -24.234  1.00  0.00    -0.027 A 
HETATM   30  C1  UNL     1      -8.503  45.903 -22.915  1.00  0.00     0.051 C 
HETATM   31  C3  UNL     1      -8.305  45.943 -25.422  1.00  0.00     0.033 A 
HETATM   32  C4  UNL     1      -8.136  45.296 -26.644  1.00  0.00     0.034 A 
HETATM   33 CL1  UNL     1      -8.068  46.217 -28.100  1.00  0.00    -0.084 Cl
HETATM   34  C5  UNL     1      -8.023  43.910 -26.701  1.00  0.00     0.026 A 
HETATM   35  C6  UNL     1      -8.070  43.157 -25.522  1.00  0.00     0.039 A 
ENDBRANCH  27  28
ENDBRANCH  26  27
ENDBRANCH  23  26
ENDBRANCH  20  22
ENDBRANCH   1  19
BRANCH   6  36
HETATM   36  O4  UNL     1      -5.489  48.858 -17.772  1.00  0.00    -0.389 OA
HETATM   37  H19 UNL     1      -4.685  48.523 -17.321  1.00  0.00     0.210 HD
ENDBRANCH   6  36
BRANCH   4  38
HETATM   38  O3  UNL     1      -5.519  46.834 -15.864  1.00  0.00    -0.395 OA
HETATM   39  H16 UNL     1      -5.052  46.244 -15.249  1.00  0.00     0.210 HD
ENDBRANCH   4  38
BRANCH  18  40
HETATM   40  O7  UNL     1      -3.309  51.010 -20.721  1.00  0.00    -0.389 OA
HETATM   41  H41 UNL     1      -3.993  51.574 -20.330  1.00  0.00     0.210 HD
ENDBRANCH  18  40
BRANCH  15  42
HETATM   42  C26 UNL     1      -0.926  51.473 -22.547  1.00  0.00    -0.045 A 
HETATM   43  C27 UNL     1      -0.373  52.675 -22.702  1.00  0.00     0.087 A 
HETATM   44  C28 UNL     1       0.738  52.771 -21.750  1.00  0.00     0.283 A 
HETATM   45  O5  UNL     1       1.451  53.752 -21.604  1.00  0.00    -0.260 OA
HETATM   46  O6  UNL     1       0.834  51.605 -21.052  1.00  0.00    -0.314 OA
HETATM   47  C29 UNL     1      -0.183  50.711 -21.503  1.00  0.00     0.213 A 
ENDBRANCH  15  42
TORSDOF 9
ENDMDL
MODEL 9
REMARK minimizedAffinity -9.67955399
REMARK CNNscore 0.17879127
REMARK CNNaffinity 6.68964148
REMARK  9 active torsions:
REMARK  status: ('A' for Active; 'I' for Inactive)
REMARK    1  A    between atoms: C7_8  and  O1_9 
REMARK    2  A    between atoms: O1_9  and  C8_10 
REMARK    3  A    between atoms: C8_10  and  C9_11 
REMARK       I    between atoms: C9_11  and  N1_13 
REMARK    4  A    between atoms: N1_13  and  N2_14 
REMARK    5  A    between atoms: C10_16  and  C11_17 
REMARK    6  A    between atoms: C14_20  and  O3_21 
REMARK    7  A    between atoms: C16_23  and  O4_24 
REMARK    8  A    between atoms: C25_33  and  C26_34 
REMARK    9  A    between atoms: C32_42  and  O7_43 
ROOT
HETATM    1  C11 UNL     1      -4.672  49.075 -22.233  1.00  0.00     0.028 C 
HETATM    2  C12 UNL     1      -5.351  47.676 -22.185  1.00  0.00     0.021 C 
HETATM    3  C13 UNL     1      -6.440  47.494 -23.251  1.00  0.00     0.033 C 
HETATM    4  C14 UNL     1      -7.477  48.615 -23.256  1.00  0.00     0.121 C 
HETATM    5  C15 UNL     1      -6.840  50.006 -23.260  1.00  0.00     0.070 C 
HETATM    6  C16 UNL     1      -5.775  50.185 -22.159  1.00  0.00     0.073 C 
HETATM    7  C17 UNL     1      -5.162  51.599 -22.183  1.00  0.00     0.039 C 
HETATM    8  C18 UNL     1      -4.158  51.801 -21.031  1.00  0.00     0.011 C 
HETATM    9  C19 UNL     1      -3.063  50.714 -20.999  1.00  0.00     0.026 C 
HETATM   10  C20 UNL     1      -3.670  49.269 -21.041  1.00  0.00     0.009 C 
HETATM   11  C21 UNL     1      -2.563  48.188 -20.987  1.00  0.00     0.007 C 
HETATM   12  C22 UNL     1      -1.583  48.379 -19.816  1.00  0.00     0.013 C 
HETATM   13  C23 UNL     1      -0.979  49.794 -19.816  1.00  0.00    -0.005 C 
HETATM   14  C24 UNL     1      -0.052  49.926 -21.067  1.00  0.00     0.019 C 
HETATM   15  C25 UNL     1      -0.100  50.212 -18.588  1.00  0.00     0.028 C 
HETATM   16  C30 UNL     1      -0.229  51.770 -18.589  1.00  0.00     0.013 C 
HETATM   17  C31 UNL     1      -1.389  52.144 -19.542  1.00  0.00     0.040 C 
HETATM   18  C32 UNL     1      -2.131  50.833 -19.767  1.00  0.00     0.070 C 
ENDROOT
BRANCH   1  19
HETATM   19  C10 UNL     1      -3.880  49.206 -23.551  1.00  0.00     0.093 C 
HETATM   20  N2  UNL     1      -4.058  50.207 -24.363  1.00  0.00    -0.312 N 
ATOM     21  H2  UNL     1      -4.725  50.951 -24.161  1.00  0.00     0.185 HD
BRANCH  20  22
HETATM   22  N1  UNL     1      -3.304  50.206 -25.495  1.00  0.00    -0.269 N 
HETATM   23  C9  UNL     1      -3.017  51.419 -26.122  1.00  0.00     0.260 C 
HETATM   24  O2  UNL     1      -3.445  52.511 -25.752  1.00  0.00    -0.269 OA
HETATM   25  H9  UNL     1      -3.001  49.323 -25.904  1.00  0.00     0.190 HD
BRANCH  23  26
HETATM   26  C8  UNL     1      -2.116  51.235 -27.354  1.00  0.00     0.280 C 
BRANCH  26  27
HETATM   27  O1  UNL     1      -0.719  51.279 -27.137  1.00  0.00    -0.342 OA
BRANCH  27  28
HETATM   28  C7  UNL     1      -0.260  52.013 -26.074  1.00  0.00     0.075 A 
HETATM   29  C2  UNL     1      -0.021  53.377 -26.338  1.00  0.00    -0.027 A 
HETATM   30  C1  UNL     1      -0.322  53.961 -27.691  1.00  0.00     0.051 C 
HETATM   31  C3  UNL     1       0.462  54.211 -25.314  1.00  0.00     0.033 A 
HETATM   32  C4  UNL     1       0.711  53.684 -24.049  1.00  0.00     0.034 A 
HETATM   33 CL1  UNL     1       1.299  54.710 -22.794  1.00  0.00    -0.084 Cl
HETATM   34  C5  UNL     1       0.490  52.335 -23.788  1.00  0.00     0.026 A 
HETATM   35  C6  UNL     1       0.006  51.499 -24.800  1.00  0.00     0.039 A 
ENDBRANCH  27  28
ENDBRANCH  26  27
ENDBRANCH  23  26
ENDBRANCH  20  22
ENDBRANCH   1  19
BRANCH   6  36
HETATM   36  O4  UNL     1      -6.474  50.173 -20.902  1.00  0.00    -0.389 OA
HETATM   37  H19 UNL     1      -6.637  49.251 -20.610  1.00  0.00     0.210 HD
ENDBRANCH   6  36
BRANCH   4  38
HETATM   38  O3  UNL     1      -8.320  48.477 -22.107  1.00  0.00    -0.395 OA
HETATM   39  H16 UNL     1      -8.756  47.611 -22.173  1.00  0.00     0.210 HD
ENDBRANCH   4  38
BRANCH  18  40
HETATM   40  O7  UNL     1      -2.927  50.598 -18.594  1.00  0.00    -0.389 OA
HETATM   41  H41 UNL     1      -3.513  51.357 -18.455  1.00  0.00     0.210 HD
ENDBRANCH  18  40
BRANCH  15  42
HETATM   42  C26 UNL     1      -0.404  49.555 -17.265  1.00  0.00    -0.045 A 
HETATM   43  C27 UNL     1      -1.332  48.651 -16.951  1.00  0.00     0.087 A 
HETATM   44  C28 UNL     1      -1.216  48.385 -15.514  1.00  0.00     0.283 A 
HETATM   45  O5  UNL     1      -1.899  47.585 -14.893  1.00  0.00    -0.260 OA
HETATM   46  O6  UNL     1      -0.220  49.155 -14.993  1.00  0.00    -0.314 OA
HETATM   47  C29 UNL     1       0.349  49.944 -16.038  1.00  0.00     0.213 A 
ENDBRANCH  15  42
TORSDOF 9
ENDMDL
