MODEL 1
REMARK minimizedAffinity -9.18966961
REMARK  6 active torsions:
REMARK  status: ('A' for Active; 'I' for Inactive)
REMARK    1  A    between atoms: C2_2  and  C30_31 
REMARK    2  A    between atoms: C3_3  and  C4_4 
REMARK    3  A    between atoms: C4_4  and  C5_5 
REMARK    4  A    between atoms: C5_5  and  C6_6 
REMARK    5  A    between atoms: C6_6  and  C8_8 
REMARK    6  A    between atoms: C30_31  and  O3_33 
ROOT
HETATM    1  C8  UNL     1      -2.485   5.407  12.499  1.00  0.00    -0.002 C 
HETATM    2  C9  UNL     1      -1.015   4.980  12.760  1.00  0.00     0.007 C 
HETATM    3  C10 UNL     1      -0.339   6.136  13.540  1.00  0.00     0.015 C 
HETATM    4  C11 UNL     1      -1.331   7.317  13.436  1.00  0.00    -0.013 C 
HETATM    5  C12 UNL     1      -1.035   7.993  12.061  1.00  0.00     0.021 C 
HETATM    6  C13 UNL     1      -1.355   8.418  14.492  1.00  0.00    -0.070 C 
HETATM    7  C14 UNL     1      -0.521   8.456  15.548  1.00  0.00    -0.022 C 
HETATM    8  C15 UNL     1      -0.661   9.409  16.699  1.00  0.00     0.034 C 
HETATM    9  C16 UNL     1      -2.050  10.085  16.745  1.00  0.00     0.013 C 
HETATM   10  C17 UNL     1      -2.282  11.079  17.950  1.00  0.00     0.018 C 
HETATM   11  C18 UNL     1      -3.430  10.547  18.839  1.00  0.00     0.023 C 
HETATM   12  C19 UNL     1      -1.044  11.238  18.859  1.00  0.00     0.023 C 
HETATM   13  C20 UNL     1      -2.721  12.481  17.493  1.00  0.00     0.135 C 
HETATM   14  O1  UNL     1      -2.354  13.503  18.082  1.00  0.00    -0.297 OA
HETATM   15  C21 UNL     1      -3.705  12.610  16.352  1.00  0.00     0.080 C 
HETATM   16  C22 UNL     1      -3.761  11.388  15.449  1.00  0.00     0.017 C 
HETATM   17  C23 UNL     1      -2.415  10.645  15.334  1.00  0.00    -0.031 C 
HETATM   18  C24 UNL     1      -1.331  11.635  14.811  1.00  0.00     0.016 C 
HETATM   19  C25 UNL     1      -2.489   9.446  14.302  1.00  0.00     0.024 C 
HETATM   20  C26 UNL     1      -3.860   8.723  14.209  1.00  0.00     0.010 C 
HETATM   21  C27 UNL     1      -3.867   7.507  13.255  1.00  0.00     0.011 C 
HETATM   22  C28 UNL     1      -2.699   6.544  13.544  1.00  0.00    -0.029 C 
HETATM   23  C29 UNL     1      -2.942   5.927  14.960  1.00  0.00     0.016 C 
ENDROOT
BRANCH   1  24
HETATM   24  C6  UNL     1      -3.564   4.286  12.437  1.00  0.00    -0.014 C 
HETATM   25  C7  UNL     1      -3.819   3.670  11.058  1.00  0.00     0.010 C 
BRANCH  24  26
HETATM   26  C5  UNL     1      -4.902   4.738  13.077  1.00  0.00     0.008 C 
BRANCH  26  27
HETATM   27  C4  UNL     1      -6.113   3.840  12.783  1.00  0.00     0.028 C 
BRANCH  27  28
HETATM   28  C3  UNL     1      -7.376   4.654  12.654  1.00  0.00    -0.013 C 
HETATM   29  C2  UNL     1      -8.034   5.305  13.634  1.00  0.00     0.008 C 
HETATM   30  C1  UNL     1      -9.303   6.060  13.357  1.00  0.00     0.055 C 
BRANCH  29  31
HETATM   31  C30 UNL     1      -7.506   5.373  15.018  1.00  0.00     0.171 C 
HETATM   32  O2  UNL     1      -6.767   6.219  15.486  1.00  0.00    -0.646 OA
BRANCH  31  33
HETATM   33  O3  UNL     1      -7.959   4.360  15.777  1.00  0.00    -0.773 OA
HETATM   34  H46 UNL     1      -7.558   4.532  16.652  1.00  0.00     0.167 HD
ENDBRANCH  31  33
ENDBRANCH  29  31
ENDBRANCH  27  28
ENDBRANCH  26  27
ENDBRANCH  24  26
ENDBRANCH   1  24
TORSDOF 6
ENDMDL
MODEL 2
REMARK minimizedAffinity -8.9036808
REMARK  6 active torsions:
REMARK  status: ('A' for Active; 'I' for Inactive)
REMARK    1  A    between atoms: C2_2  and  C30_31 
REMARK    2  A    between atoms: C3_3  and  C4_4 
REMARK    3  A    between atoms: C4_4  and  C5_5 
REMARK    4  A    between atoms: C5_5  and  C6_6 
REMARK    5  A    between atoms: C6_6  and  C8_8 
REMARK    6  A    between atoms: C30_31  and  O3_33 
ROOT
HETATM    1  C8  UNL     1      -0.954   6.562  12.150  1.00  0.00    -0.002 C 
HETATM    2  C9  UNL     1      -0.671   5.276  11.328  1.00  0.00     0.007 C 
HETATM    3  C10 UNL     1       0.791   5.372  10.825  1.00  0.00     0.015 C 
HETATM    4  C11 UNL     1       1.210   6.834  11.101  1.00  0.00    -0.013 C 
HETATM    5  C12 UNL     1       0.677   7.658   9.888  1.00  0.00     0.021 C 
HETATM    6  C13 UNL     1       2.676   7.207  11.300  1.00  0.00    -0.070 C 
HETATM    7  C14 UNL     1       3.687   6.321  11.226  1.00  0.00    -0.022 C 
HETATM    8  C15 UNL     1       5.104   6.625  11.619  1.00  0.00     0.034 C 
HETATM    9  C16 UNL     1       5.225   7.917  12.458  1.00  0.00     0.013 C 
HETATM   10  C17 UNL     1       6.685   8.284  12.934  1.00  0.00     0.018 C 
HETATM   11  C18 UNL     1       6.740   8.262  14.480  1.00  0.00     0.023 C 
HETATM   12  C19 UNL     1       7.759   7.295  12.431  1.00  0.00     0.023 C 
HETATM   13  C20 UNL     1       7.111   9.703  12.519  1.00  0.00     0.135 C 
HETATM   14  O1  UNL     1       8.274   9.965  12.196  1.00  0.00    -0.297 OA
HETATM   15  C21 UNL     1       6.104  10.828  12.600  1.00  0.00     0.080 C 
HETATM   16  C22 UNL     1       4.658  10.360  12.589  1.00  0.00     0.017 C 
HETATM   17  C23 UNL     1       4.434   9.073  11.768  1.00  0.00    -0.031 C 
HETATM   18  C24 UNL     1       4.921   9.311  10.307  1.00  0.00     0.016 C 
HETATM   19  C25 UNL     1       2.901   8.682  11.691  1.00  0.00     0.024 C 
HETATM   20  C26 UNL     1       2.053   9.042  12.941  1.00  0.00     0.010 C 
HETATM   21  C27 UNL     1       0.583   8.568  12.862  1.00  0.00     0.011 C 
HETATM   22  C28 UNL     1       0.480   7.080  12.475  1.00  0.00    -0.029 C 
HETATM   23  C29 UNL     1       1.093   6.249  13.649  1.00  0.00     0.016 C 
ENDROOT
BRANCH   1  24
HETATM   24  C6  UNL     1      -1.957   6.457  13.336  1.00  0.00    -0.014 C 
HETATM   25  C7  UNL     1      -1.573   5.492  14.462  1.00  0.00     0.010 C 
BRANCH  24  26
HETATM   26  C5  UNL     1      -3.399   6.161  12.847  1.00  0.00     0.008 C 
BRANCH  26  27
HETATM   27  C4  UNL     1      -3.729   4.679  12.616  1.00  0.00     0.028 C 
BRANCH  27  28
HETATM   28  C3  UNL     1      -5.182   4.393  12.902  1.00  0.00    -0.013 C 
HETATM   29  C2  UNL     1      -5.965   3.465  12.315  1.00  0.00     0.008 C 
HETATM   30  C1  UNL     1      -7.412   3.312  12.688  1.00  0.00     0.055 C 
BRANCH  29  31
HETATM   31  C30 UNL     1      -5.426   2.502  11.325  1.00  0.00     0.171 C 
HETATM   32  O2  UNL     1      -5.253   1.307  11.476  1.00  0.00    -0.646 OA
BRANCH  31  33
HETATM   33  O3  UNL     1      -5.141   3.095  10.152  1.00  0.00    -0.773 OA
HETATM   34  H46 UNL     1      -4.819   2.359   9.595  1.00  0.00     0.167 HD
ENDBRANCH  31  33
ENDBRANCH  29  31
ENDBRANCH  27  28
ENDBRANCH  26  27
ENDBRANCH  24  26
ENDBRANCH   1  24
TORSDOF 6
ENDMDL
MODEL 3
REMARK minimizedAffinity -8.71676159
REMARK  6 active torsions:
REMARK  status: ('A' for Active; 'I' for Inactive)
REMARK    1  A    between atoms: C2_2  and  C30_31 
REMARK    2  A    between atoms: C3_3  and  C4_4 
REMARK    3  A    between atoms: C4_4  and  C5_5 
REMARK    4  A    between atoms: C5_5  and  C6_6 
REMARK    5  A    between atoms: C6_6  and  C8_8 
REMARK    6  A    between atoms: C30_31  and  O3_33 
ROOT
HETATM    1  C8  UNL     1      -1.180   6.587  12.196  1.00  0.00    -0.002 C 
HETATM    2  C9  UNL     1      -0.939   5.264  11.421  1.00  0.00     0.007 C 
HETATM    3  C10 UNL     1       0.513   5.314  10.881  1.00  0.00     0.015 C 
HETATM    4  C11 UNL     1       0.962   6.778  11.086  1.00  0.00    -0.013 C 
HETATM    5  C12 UNL     1       0.414   7.562   9.854  1.00  0.00     0.021 C 
HETATM    6  C13 UNL     1       2.439   7.133  11.236  1.00  0.00    -0.070 C 
HETATM    7  C14 UNL     1       3.433   6.229  11.174  1.00  0.00    -0.022 C 
HETATM    8  C15 UNL     1       4.863   6.523  11.520  1.00  0.00     0.034 C 
HETATM    9  C16 UNL     1       5.026   7.845  12.303  1.00  0.00     0.013 C 
HETATM   10  C17 UNL     1       6.503   8.206  12.730  1.00  0.00     0.018 C 
HETATM   11  C18 UNL     1       6.595   8.246  14.273  1.00  0.00     0.023 C 
HETATM   12  C19 UNL     1       7.548   7.179  12.242  1.00  0.00     0.023 C 
HETATM   13  C20 UNL     1       6.942   9.599  12.247  1.00  0.00     0.135 C 
HETATM   14  O1  UNL     1       8.101   9.828  11.887  1.00  0.00    -0.297 OA
HETATM   15  C21 UNL     1       5.956  10.744  12.306  1.00  0.00     0.080 C 
HETATM   16  C22 UNL     1       4.503  10.301  12.348  1.00  0.00     0.017 C 
HETATM   17  C23 UNL     1       4.238   8.986  11.586  1.00  0.00    -0.031 C 
HETATM   18  C24 UNL     1       4.693   9.157  10.105  1.00  0.00     0.016 C 
HETATM   19  C25 UNL     1       2.698   8.619  11.561  1.00  0.00     0.024 C 
HETATM   20  C26 UNL     1       1.885   9.044  12.814  1.00  0.00     0.010 C 
HETATM   21  C27 UNL     1       0.406   8.593  12.790  1.00  0.00     0.011 C 
HETATM   22  C28 UNL     1       0.270   7.092  12.467  1.00  0.00    -0.029 C 
HETATM   23  C29 UNL     1       0.897   6.299  13.658  1.00  0.00     0.016 C 
ENDROOT
BRANCH   1  24
HETATM   24  C6  UNL     1      -2.156   6.547  13.409  1.00  0.00    -0.014 C 
HETATM   25  C7  UNL     1      -1.848   5.507  14.489  1.00  0.00     0.010 C 
BRANCH  24  26
HETATM   26  C5  UNL     1      -3.634   6.426  12.955  1.00  0.00     0.008 C 
BRANCH  26  27
HETATM   27  C4  UNL     1      -4.418   5.250  13.557  1.00  0.00     0.028 C 
BRANCH  27  28
HETATM   28  C3  UNL     1      -4.575   4.132  12.558  1.00  0.00    -0.013 C 
HETATM   29  C2  UNL     1      -5.700   3.449  12.265  1.00  0.00     0.008 C 
HETATM   30  C1  UNL     1      -5.699   2.335  11.257  1.00  0.00     0.055 C 
BRANCH  29  31
HETATM   31  C30 UNL     1      -7.009   3.804  12.866  1.00  0.00     0.171 C 
HETATM   32  O2  UNL     1      -7.527   4.904  12.909  1.00  0.00    -0.646 OA
BRANCH  31  33
HETATM   33  O3  UNL     1      -7.632   2.729  13.379  1.00  0.00    -0.773 OA
HETATM   34  H46 UNL     1      -8.474   3.093  13.719  1.00  0.00     0.167 HD
ENDBRANCH  31  33
ENDBRANCH  29  31
ENDBRANCH  27  28
ENDBRANCH  26  27
ENDBRANCH  24  26
ENDBRANCH   1  24
TORSDOF 6
ENDMDL
MODEL 4
REMARK minimizedAffinity -8.71199322
REMARK  6 active torsions:
REMARK  status: ('A' for Active; 'I' for Inactive)
REMARK    1  A    between atoms: C2_2  and  C30_31 
REMARK    2  A    between atoms: C3_3  and  C4_4 
REMARK    3  A    between atoms: C4_4  and  C5_5 
REMARK    4  A    between atoms: C5_5  and  C6_6 
REMARK    5  A    between atoms: C6_6  and  C8_8 
REMARK    6  A    between atoms: C30_31  and  O3_33 
ROOT
HETATM    1  C8  UNL     1      -3.257   7.572  14.649  1.00  0.00    -0.002 C 
HETATM    2  C9  UNL     1      -4.032   8.411  13.597  1.00  0.00     0.007 C 
HETATM    3  C10 UNL     1      -2.986   8.953  12.590  1.00  0.00     0.015 C 
HETATM    4  C11 UNL     1      -1.617   8.679  13.255  1.00  0.00    -0.013 C 
HETATM    5  C12 UNL     1      -1.381   9.871  14.234  1.00  0.00     0.021 C 
HETATM    6  C13 UNL     1      -0.354   8.519  12.414  1.00  0.00    -0.070 C 
HETATM    7  C14 UNL     1      -0.332   8.626  11.073  1.00  0.00    -0.022 C 
HETATM    8  C15 UNL     1       0.849   8.272  10.218  1.00  0.00     0.034 C 
HETATM    9  C16 UNL     1       1.899   7.427  10.975  1.00  0.00     0.013 C 
HETATM   10  C17 UNL     1       3.158   6.989  10.128  1.00  0.00     0.018 C 
HETATM   11  C18 UNL     1       3.200   5.446  10.034  1.00  0.00     0.023 C 
HETATM   12  C19 UNL     1       3.139   7.529   8.681  1.00  0.00     0.023 C 
HETATM   13  C20 UNL     1       4.490   7.406  10.775  1.00  0.00     0.135 C 
HETATM   14  O1  UNL     1       5.460   7.760  10.099  1.00  0.00    -0.297 OA
HETATM   15  C21 UNL     1       4.649   7.290  12.275  1.00  0.00     0.080 C 
HETATM   16  C22 UNL     1       3.331   7.264  13.031  1.00  0.00     0.017 C 
HETATM   17  C23 UNL     1       2.216   8.087  12.354  1.00  0.00    -0.031 C 
HETATM   18  C24 UNL     1       2.699   9.559  12.190  1.00  0.00     0.016 C 
HETATM   19  C25 UNL     1       0.896   8.124  13.228  1.00  0.00     0.024 C 
HETATM   20  C26 UNL     1       0.610   6.849  14.068  1.00  0.00     0.010 C 
HETATM   21  C27 UNL     1      -0.729   6.890  14.840  1.00  0.00     0.011 C 
HETATM   22  C28 UNL     1      -1.906   7.283  13.926  1.00  0.00    -0.029 C 
HETATM   23  C29 UNL     1      -2.094   6.133  12.885  1.00  0.00     0.016 C 
ENDROOT
BRANCH   1  24
HETATM   24  C6  UNL     1      -3.992   6.360  15.292  1.00  0.00    -0.014 C 
HETATM   25  C7  UNL     1      -3.279   5.008  15.194  1.00  0.00     0.010 C 
BRANCH  24  26
HETATM   26  C5  UNL     1      -5.451   6.233  14.779  1.00  0.00     0.008 C 
BRANCH  26  27
HETATM   27  C4  UNL     1      -5.610   6.097  13.258  1.00  0.00     0.028 C 
BRANCH  27  28
HETATM   28  C3  UNL     1      -5.564   4.651  12.832  1.00  0.00    -0.013 C 
HETATM   29  C2  UNL     1      -6.606   3.807  12.691  1.00  0.00     0.008 C 
HETATM   30  C1  UNL     1      -6.404   2.376  12.280  1.00  0.00     0.055 C 
BRANCH  29  31
HETATM   31  C30 UNL     1      -8.008   4.260  12.861  1.00  0.00     0.171 C 
HETATM   32  O2  UNL     1      -8.421   5.404  12.842  1.00  0.00    -0.646 OA
BRANCH  31  33
HETATM   33  O3  UNL     1      -8.851   3.226  13.029  1.00  0.00    -0.773 OA
HETATM   34  H46 UNL     1      -9.726   3.655  13.109  1.00  0.00     0.167 HD
ENDBRANCH  31  33
ENDBRANCH  29  31
ENDBRANCH  27  28
ENDBRANCH  26  27
ENDBRANCH  24  26
ENDBRANCH   1  24
TORSDOF 6
ENDMDL
MODEL 5
REMARK minimizedAffinity -8.68817043
REMARK  6 active torsions:
REMARK  status: ('A' for Active; 'I' for Inactive)
REMARK    1  A    between atoms: C2_2  and  C30_31 
REMARK    2  A    between atoms: C3_3  and  C4_4 
REMARK    3  A    between atoms: C4_4  and  C5_5 
REMARK    4  A    between atoms: C5_5  and  C6_6 
REMARK    5  A    between atoms: C6_6  and  C8_8 
REMARK    6  A    between atoms: C30_31  and  O3_33 
ROOT
HETATM    1  C8  UNL     1      -4.870   5.374  13.140  1.00  0.00    -0.002 C 
HETATM    2  C9  UNL     1      -3.639   4.475  13.437  1.00  0.00     0.007 C 
HETATM    3  C10 UNL     1      -2.565   5.380  14.090  1.00  0.00     0.015 C 
HETATM    4  C11 UNL     1      -3.074   6.823  13.870  1.00  0.00    -0.013 C 
HETATM    5  C12 UNL     1      -2.615   7.215  12.431  1.00  0.00     0.021 C 
HETATM    6  C13 UNL     1      -2.661   7.954  14.807  1.00  0.00    -0.070 C 
HETATM    7  C14 UNL     1      -1.825   7.790  15.849  1.00  0.00    -0.022 C 
HETATM    8  C15 UNL     1      -1.569   8.834  16.897  1.00  0.00     0.034 C 
HETATM    9  C16 UNL     1      -2.623   9.964  16.881  1.00  0.00     0.013 C 
HETATM   10  C17 UNL     1      -2.436  11.084  17.977  1.00  0.00     0.018 C 
HETATM   11  C18 UNL     1      -3.660  11.085  18.922  1.00  0.00     0.023 C 
HETATM   12  C19 UNL     1      -1.186  10.873  18.859  1.00  0.00     0.023 C 
HETATM   13  C20 UNL     1      -2.366  12.501  17.381  1.00  0.00     0.135 C 
HETATM   14  O1  UNL     1      -1.635  13.373  17.860  1.00  0.00    -0.297 OA
HETATM   15  C21 UNL     1      -3.286  12.865  16.237  1.00  0.00     0.080 C 
HETATM   16  C22 UNL     1      -3.811  11.665  15.466  1.00  0.00     0.017 C 
HETATM   17  C23 UNL     1      -2.823  10.482  15.421  1.00  0.00    -0.031 C 
HETATM   18  C24 UNL     1      -1.481  10.963  14.793  1.00  0.00     0.016 C 
HETATM   19  C25 UNL     1      -3.361   9.297  14.518  1.00  0.00     0.024 C 
HETATM   20  C26 UNL     1      -4.903   9.108  14.507  1.00  0.00     0.010 C 
HETATM   21  C27 UNL     1      -5.382   7.891  13.683  1.00  0.00     0.011 C 
HETATM   22  C28 UNL     1      -4.623   6.605  14.064  1.00  0.00    -0.029 C 
HETATM   23  C29 UNL     1      -5.010   6.253  15.537  1.00  0.00     0.016 C 
ENDROOT
BRANCH   1  24
HETATM   24  C6  UNL     1      -6.279   4.714  13.199  1.00  0.00    -0.014 C 
HETATM   25  C7  UNL     1      -6.362   3.258  12.730  1.00  0.00     0.010 C 
BRANCH  24  26
HETATM   26  C5  UNL     1      -7.349   5.571  12.474  1.00  0.00     0.008 C 
BRANCH  26  27
HETATM   27  C4  UNL     1      -8.714   5.657  13.173  1.00  0.00     0.028 C 
BRANCH  27  28
HETATM   28  C3  UNL     1      -8.608   6.387  14.487  1.00  0.00    -0.013 C 
HETATM   29  C2  UNL     1      -9.528   7.196  15.051  1.00  0.00     0.008 C 
HETATM   30  C1  UNL     1      -9.270   7.879  16.364  1.00  0.00     0.055 C 
BRANCH  29  31
HETATM   31  C30 UNL     1     -10.867   7.397  14.446  1.00  0.00     0.171 C 
HETATM   32  O2  UNL     1     -11.211   8.292  13.696  1.00  0.00    -0.646 OA
BRANCH  31  33
HETATM   33  O3  UNL     1     -11.728   6.429  14.803  1.00  0.00    -0.773 OA
HETATM   34  H46 UNL     1     -12.550   6.668  14.330  1.00  0.00     0.167 HD
ENDBRANCH  31  33
ENDBRANCH  29  31
ENDBRANCH  27  28
ENDBRANCH  26  27
ENDBRANCH  24  26
ENDBRANCH   1  24
TORSDOF 6
ENDMDL
MODEL 6
REMARK minimizedAffinity -8.32563782
REMARK  6 active torsions:
REMARK  status: ('A' for Active; 'I' for Inactive)
REMARK    1  A    between atoms: C2_2  and  C30_31 
REMARK    2  A    between atoms: C3_3  and  C4_4 
REMARK    3  A    between atoms: C4_4  and  C5_5 
REMARK    4  A    between atoms: C5_5  and  C6_6 
REMARK    5  A    between atoms: C6_6  and  C8_8 
REMARK    6  A    between atoms: C30_31  and  O3_33 
ROOT
HETATM    1  C8  UNL     1      -1.667   6.242  12.709  1.00  0.00    -0.002 C 
HETATM    2  C9  UNL     1      -0.830   7.031  11.665  1.00  0.00     0.007 C 
HETATM    3  C10 UNL     1      -0.794   8.507  12.136  1.00  0.00     0.015 C 
HETATM    4  C11 UNL     1      -1.858   8.592  13.254  1.00  0.00    -0.013 C 
HETATM    5  C12 UNL     1      -3.221   8.796  12.522  1.00  0.00     0.021 C 
HETATM    6  C13 UNL     1      -1.763   9.649  14.350  1.00  0.00    -0.070 C 
HETATM    7  C14 UNL     1      -0.790  10.577  14.409  1.00  0.00    -0.022 C 
HETATM    8  C15 UNL     1      -0.563  11.488  15.580  1.00  0.00     0.034 C 
HETATM    9  C16 UNL     1      -1.305  11.018  16.852  1.00  0.00     0.013 C 
HETATM   10  C17 UNL     1      -1.088  11.912  18.135  1.00  0.00     0.018 C 
HETATM   11  C18 UNL     1      -0.394  11.072  19.232  1.00  0.00     0.023 C 
HETATM   12  C19 UNL     1      -0.193  13.144  17.877  1.00  0.00     0.023 C 
HETATM   13  C20 UNL     1      -2.408  12.402  18.754  1.00  0.00     0.135 C 
HETATM   14  O1  UNL     1      -2.510  13.518  19.271  1.00  0.00    -0.297 OA
HETATM   15  C21 UNL     1      -3.587  11.457  18.818  1.00  0.00     0.080 C 
HETATM   16  C22 UNL     1      -3.513  10.315  17.818  1.00  0.00     0.017 C 
HETATM   17  C23 UNL     1      -2.792  10.690  16.507  1.00  0.00    -0.031 C 
HETATM   18  C24 UNL     1      -3.515  11.908  15.860  1.00  0.00     0.016 C 
HETATM   19  C25 UNL     1      -2.833   9.509  15.453  1.00  0.00     0.024 C 
HETATM   20  C26 UNL     1      -2.807   8.075  16.048  1.00  0.00     0.010 C 
HETATM   21  C27 UNL     1      -2.763   6.952  14.986  1.00  0.00     0.011 C 
HETATM   22  C28 UNL     1      -1.651   7.191  13.945  1.00  0.00    -0.029 C 
HETATM   23  C29 UNL     1      -0.281   7.074  14.690  1.00  0.00     0.016 C 
ENDROOT
BRANCH   1  24
HETATM   24  C6  UNL     1      -1.295   4.749  12.954  1.00  0.00    -0.014 C 
HETATM   25  C7  UNL     1      -0.003   4.258  12.295  1.00  0.00     0.010 C 
BRANCH  24  26
HETATM   26  C5  UNL     1      -2.470   3.798  12.604  1.00  0.00     0.008 C 
BRANCH  26  27
HETATM   27  C4  UNL     1      -3.637   4.440  11.840  1.00  0.00     0.028 C 
BRANCH  27  28
HETATM   28  C3  UNL     1      -4.949   4.191  12.540  1.00  0.00    -0.013 C 
HETATM   29  C2  UNL     1      -5.873   3.257  12.239  1.00  0.00     0.008 C 
HETATM   30  C1  UNL     1      -7.154   3.143  13.017  1.00  0.00     0.055 C 
BRANCH  29  31
HETATM   31  C30 UNL     1      -5.647   2.248  11.176  1.00  0.00     0.171 C 
HETATM   32  O2  UNL     1      -5.540   1.043  11.312  1.00  0.00    -0.646 OA
BRANCH  31  33
HETATM   33  O3  UNL     1      -5.584   2.811   9.957  1.00  0.00    -0.773 OA
HETATM   34  H46 UNL     1      -5.453   2.048   9.359  1.00  0.00     0.167 HD
ENDBRANCH  31  33
ENDBRANCH  29  31
ENDBRANCH  27  28
ENDBRANCH  26  27
ENDBRANCH  24  26
ENDBRANCH   1  24
TORSDOF 6
ENDMDL
MODEL 7
REMARK minimizedAffinity -8.31336689
REMARK  6 active torsions:
REMARK  status: ('A' for Active; 'I' for Inactive)
REMARK    1  A    between atoms: C2_2  and  C30_31 
REMARK    2  A    between atoms: C3_3  and  C4_4 
REMARK    3  A    between atoms: C4_4  and  C5_5 
REMARK    4  A    between atoms: C5_5  and  C6_6 
REMARK    5  A    between atoms: C6_6  and  C8_8 
REMARK    6  A    between atoms: C30_31  and  O3_33 
ROOT
HETATM    1  C8  UNL     1      -2.335   5.847  13.167  1.00  0.00    -0.002 C 
HETATM    2  C9  UNL     1      -3.854   5.848  12.845  1.00  0.00     0.007 C 
HETATM    3  C10 UNL     1      -4.502   6.949  13.722  1.00  0.00     0.015 C 
HETATM    4  C11 UNL     1      -3.409   7.337  14.744  1.00  0.00    -0.013 C 
HETATM    5  C12 UNL     1      -3.511   6.281  15.889  1.00  0.00     0.021 C 
HETATM    6  C13 UNL     1      -3.394   8.717  15.392  1.00  0.00    -0.070 C 
HETATM    7  C14 UNL     1      -4.320   9.664  15.152  1.00  0.00    -0.022 C 
HETATM    8  C15 UNL     1      -4.212  11.087  15.617  1.00  0.00     0.034 C 
HETATM    9  C16 UNL     1      -2.782  11.457  16.070  1.00  0.00     0.013 C 
HETATM   10  C17 UNL     1      -2.584  12.950  16.545  1.00  0.00     0.018 C 
HETATM   11  C18 UNL     1      -1.577  13.656  15.607  1.00  0.00     0.023 C 
HETATM   12  C19 UNL     1      -3.887  13.779  16.513  1.00  0.00     0.023 C 
HETATM   13  C20 UNL     1      -1.985  13.055  17.958  1.00  0.00     0.135 C 
HETATM   14  O1  UNL     1      -2.320  13.949  18.742  1.00  0.00    -0.297 OA
HETATM   15  C21 UNL     1      -0.888  12.098  18.367  1.00  0.00     0.080 C 
HETATM   16  C22 UNL     1      -0.849  10.822  17.543  1.00  0.00     0.017 C 
HETATM   17  C23 UNL     1      -2.236  10.366  17.046  1.00  0.00    -0.031 C 
HETATM   18  C24 UNL     1      -3.176  10.169  18.273  1.00  0.00     0.016 C 
HETATM   19  C25 UNL     1      -2.164   8.978  16.286  1.00  0.00     0.024 C 
HETATM   20  C26 UNL     1      -0.856   8.715  15.491  1.00  0.00     0.010 C 
HETATM   21  C27 UNL     1      -0.859   7.389  14.695  1.00  0.00     0.011 C 
HETATM   22  C28 UNL     1      -2.127   7.241  13.831  1.00  0.00    -0.029 C 
HETATM   23  C29 UNL     1      -2.077   8.353  12.733  1.00  0.00     0.016 C 
ENDROOT
BRANCH   1  24
HETATM   24  C6  UNL     1      -1.354   5.451  12.025  1.00  0.00    -0.014 C 
HETATM   25  C7  UNL     1      -1.876   4.429  11.010  1.00  0.00     0.010 C 
BRANCH  24  26
HETATM   26  C5  UNL     1       0.023   5.000  12.577  1.00  0.00     0.008 C 
BRANCH  26  27
HETATM   27  C4  UNL     1       1.072   4.627  11.519  1.00  0.00     0.028 C 
BRANCH  27  28
HETATM   28  C3  UNL     1       2.022   5.771  11.268  1.00  0.00    -0.013 C 
HETATM   29  C2  UNL     1       3.023   5.820  10.365  1.00  0.00     0.008 C 
HETATM   30  C1  UNL     1       3.910   7.027  10.245  1.00  0.00     0.055 C 
BRANCH  29  31
HETATM   31  C30 UNL     1       3.257   4.721   9.397  1.00  0.00     0.171 C 
HETATM   32  O2  UNL     1       3.468   4.821   8.203  1.00  0.00    -0.646 OA
BRANCH  31  33
HETATM   33  O3  UNL     1       3.236   3.516   9.993  1.00  0.00    -0.773 OA
HETATM   34  H46 UNL     1       3.419   2.895   9.261  1.00  0.00     0.167 HD
ENDBRANCH  31  33
ENDBRANCH  29  31
ENDBRANCH  27  28
ENDBRANCH  26  27
ENDBRANCH  24  26
ENDBRANCH   1  24
TORSDOF 6
ENDMDL
MODEL 8
REMARK minimizedAffinity -8.18508816
REMARK  6 active torsions:
REMARK  status: ('A' for Active; 'I' for Inactive)
REMARK    1  A    between atoms: C2_2  and  C30_31 
REMARK    2  A    between atoms: C3_3  and  C4_4 
REMARK    3  A    between atoms: C4_4  and  C5_5 
REMARK    4  A    between atoms: C5_5  and  C6_6 
REMARK    5  A    between atoms: C6_6  and  C8_8 
REMARK    6  A    between atoms: C30_31  and  O3_33 
ROOT
HETATM    1  C8  UNL     1      -2.031   7.773  13.912  1.00  0.00    -0.002 C 
HETATM    2  C9  UNL     1      -2.147   9.094  14.719  1.00  0.00     0.007 C 
HETATM    3  C10 UNL     1      -0.710   9.648  14.890  1.00  0.00     0.015 C 
HETATM    4  C11 UNL     1       0.216   8.488  14.457  1.00  0.00    -0.013 C 
HETATM    5  C12 UNL     1       0.355   7.572  15.712  1.00  0.00     0.021 C 
HETATM    6  C13 UNL     1       1.621   8.759  13.929  1.00  0.00    -0.070 C 
HETATM    7  C14 UNL     1       2.155   9.991  13.829  1.00  0.00    -0.022 C 
HETATM    8  C15 UNL     1       3.446  10.295  13.127  1.00  0.00     0.034 C 
HETATM    9  C16 UNL     1       3.915   9.139  12.216  1.00  0.00     0.013 C 
HETATM   10  C17 UNL     1       5.253   9.400  11.420  1.00  0.00     0.018 C 
HETATM   11  C18 UNL     1       4.959   9.372   9.902  1.00  0.00     0.023 C 
HETATM   12  C19 UNL     1       5.891  10.772  11.731  1.00  0.00     0.023 C 
HETATM   13  C20 UNL     1       6.316   8.314  11.661  1.00  0.00     0.135 C 
HETATM   14  O1  UNL     1       7.520   8.582  11.713  1.00  0.00    -0.297 OA
HETATM   15  C21 UNL     1       5.886   6.867  11.741  1.00  0.00     0.080 C 
HETATM   16  C22 UNL     1       4.417   6.681  12.086  1.00  0.00     0.017 C 
HETATM   17  C23 UNL     1       3.855   7.789  13.000  1.00  0.00    -0.031 C 
HETATM   18  C24 UNL     1       4.699   7.846  14.309  1.00  0.00     0.016 C 
HETATM   19  C25 UNL     1       2.356   7.501  13.424  1.00  0.00     0.024 C 
HETATM   20  C26 UNL     1       1.491   6.759  12.369  1.00  0.00     0.010 C 
HETATM   21  C27 UNL     1       0.013   6.572  12.786  1.00  0.00     0.011 C 
HETATM   22  C28 UNL     1      -0.621   7.894  13.261  1.00  0.00    -0.029 C 
HETATM   23  C29 UNL     1      -0.684   8.852  12.026  1.00  0.00     0.016 C 
ENDROOT
BRANCH   1  24
HETATM   24  C6  UNL     1      -3.216   7.391  12.976  1.00  0.00    -0.014 C 
HETATM   25  C7  UNL     1      -4.386   8.378  12.930  1.00  0.00     0.010 C 
BRANCH  24  26
HETATM   26  C5  UNL     1      -3.736   5.957  13.260  1.00  0.00     0.008 C 
BRANCH  26  27
HETATM   27  C4  UNL     1      -5.251   5.833  13.477  1.00  0.00     0.028 C 
BRANCH  27  28
HETATM   28  C3  UNL     1      -5.729   4.432  13.193  1.00  0.00    -0.013 C 
HETATM   29  C2  UNL     1      -6.994   4.032  12.951  1.00  0.00     0.008 C 
HETATM   30  C1  UNL     1      -7.326   2.586  12.708  1.00  0.00     0.055 C 
BRANCH  29  31
HETATM   31  C30 UNL     1      -8.112   5.000  12.841  1.00  0.00     0.171 C 
HETATM   32  O2  UNL     1      -8.537   5.524  11.828  1.00  0.00    -0.646 OA
BRANCH  31  33
HETATM   33  O3  UNL     1      -8.674   5.254  14.035  1.00  0.00    -0.773 OA
HETATM   34  H46 UNL     1      -9.395   5.880  13.821  1.00  0.00     0.167 HD
ENDBRANCH  31  33
ENDBRANCH  29  31
ENDBRANCH  27  28
ENDBRANCH  26  27
ENDBRANCH  24  26
ENDBRANCH   1  24
TORSDOF 6
ENDMDL
MODEL 9
REMARK minimizedAffinity -8.07731438
REMARK  6 active torsions:
REMARK  status: ('A' for Active; 'I' for Inactive)
REMARK    1  A    between atoms: C2_2  and  C30_31 
REMARK    2  A    between atoms: C3_3  and  C4_4 
REMARK    3  A    between atoms: C4_4  and  C5_5 
REMARK    4  A    between atoms: C5_5  and  C6_6 
REMARK    5  A    between atoms: C6_6  and  C8_8 
REMARK    6  A    between atoms: C30_31  and  O3_33 
ROOT
HETATM    1  C8  UNL     1      -0.855  11.565  17.382  1.00  0.00    -0.002 C 
HETATM    2  C9  UNL     1      -1.623  12.747  16.730  1.00  0.00     0.007 C 
HETATM    3  C10 UNL     1      -2.492  12.149  15.595  1.00  0.00     0.015 C 
HETATM    4  C11 UNL     1      -1.974  10.704  15.417  1.00  0.00    -0.013 C 
HETATM    5  C12 UNL     1      -0.729  10.817  14.484  1.00  0.00     0.021 C 
HETATM    6  C13 UNL     1      -2.874   9.611  14.850  1.00  0.00    -0.070 C 
HETATM    7  C14 UNL     1      -4.141   9.822  14.448  1.00  0.00    -0.022 C 
HETATM    8  C15 UNL     1      -5.103   8.729  14.082  1.00  0.00     0.034 C 
HETATM    9  C16 UNL     1      -4.632   7.338  14.561  1.00  0.00     0.013 C 
HETATM   10  C17 UNL     1      -5.611   6.141  14.238  1.00  0.00     0.018 C 
HETATM   11  C18 UNL     1      -6.104   5.513  15.562  1.00  0.00     0.023 C 
HETATM   12  C19 UNL     1      -6.866   6.574  13.449  1.00  0.00     0.023 C 
HETATM   13  C20 UNL     1      -4.928   5.002  13.462  1.00  0.00     0.135 C 
HETATM   14  O1  UNL     1      -5.526   4.353  12.598  1.00  0.00    -0.297 OA
HETATM   15  C21 UNL     1      -3.518   4.600  13.832  1.00  0.00     0.080 C 
HETATM   16  C22 UNL     1      -2.745   5.682  14.568  1.00  0.00     0.017 C 
HETATM   17  C23 UNL     1      -3.142   7.113  14.153  1.00  0.00    -0.031 C 
HETATM   18  C24 UNL     1      -2.935   7.273  12.617  1.00  0.00     0.016 C 
HETATM   19  C25 UNL     1      -2.239   8.205  14.861  1.00  0.00     0.024 C 
HETATM   20  C26 UNL     1      -1.750   7.848  16.291  1.00  0.00     0.010 C 
HETATM   21  C27 UNL     1      -0.944   8.973  16.980  1.00  0.00     0.011 C 
HETATM   22  C28 UNL     1      -1.678  10.326  16.918  1.00  0.00    -0.029 C 
HETATM   23  C29 UNL     1      -2.975  10.194  17.781  1.00  0.00     0.016 C 
ENDROOT
BRANCH   1  24
HETATM   24  C6  UNL     1      -0.522  11.669  18.900  1.00  0.00    -0.014 C 
HETATM   25  C7  UNL     1      -0.540  13.078  19.500  1.00  0.00     0.010 C 
BRANCH  24  26
HETATM   26  C5  UNL     1       0.810  10.956  19.249  1.00  0.00     0.008 C 
BRANCH  26  27
HETATM   27  C4  UNL     1       1.014  10.623  20.734  1.00  0.00     0.028 C 
BRANCH  27  28
HETATM   28  C3  UNL     1       2.480  10.576  21.085  1.00  0.00    -0.013 C 
HETATM   29  C2  UNL     1       3.084   9.751  21.965  1.00  0.00     0.008 C 
HETATM   30  C1  UNL     1       4.560   9.837  22.232  1.00  0.00     0.055 C 
BRANCH  29  31
HETATM   31  C30 UNL     1       2.343   8.672  22.660  1.00  0.00     0.171 C 
HETATM   32  O2  UNL     1       1.791   7.711  22.156  1.00  0.00    -0.646 OA
BRANCH  31  33
HETATM   33  O3  UNL     1       2.346   8.841  23.994  1.00  0.00    -0.773 OA
HETATM   34  H46 UNL     1       1.849   8.066  24.325  1.00  0.00     0.167 HD
ENDBRANCH  31  33
ENDBRANCH  29  31
ENDBRANCH  27  28
ENDBRANCH  26  27
ENDBRANCH  24  26
ENDBRANCH   1  24
TORSDOF 6
ENDMDL
