MODEL 1
REMARK minimizedAffinity -10.1149769
REMARK  9 active torsions:
REMARK  status: ('A' for Active; 'I' for Inactive)
REMARK    1  A    between atoms: C3_3  and  O1_4 
REMARK    2  A    between atoms: N1_14  and  O2_16 
REMARK    3  A    between atoms: O2_16  and  C13_17 
REMARK    4  A    between atoms: C13_17  and  C14_18 
REMARK       I    between atoms: C14_18  and  N2_20 
REMARK    5  A    between atoms: N2_20  and  C15_21 
REMARK    6  A    between atoms: C15_21  and  C16_22 
REMARK    7  A    between atoms: C15_21  and  C17_25 
REMARK    8  A    between atoms: C16_22  and  O5_24 
REMARK    9  A    between atoms: C17_25  and  C19_27 
ROOT
HETATM    1  C1  UNL     1      -2.127  51.015 -27.663  1.00  0.00     0.015 C 
HETATM    2  C2  UNL     1      -1.352  51.329 -26.801  1.00  0.00    -0.078 C 
HETATM    3  C3  UNL     1      -0.391  51.700 -25.752  1.00  0.00     0.128 C 
HETATM    4  C4  UNL     1       0.202  53.114 -25.963  1.00  0.00     0.052 C 
HETATM    5  C5  UNL     1       0.448  53.696 -24.554  1.00  0.00     0.010 C 
HETATM    6  C6  UNL     1       0.150  52.542 -23.602  1.00  0.00     0.002 C 
HETATM    7  C7  UNL     1      -0.162  52.858 -22.135  1.00  0.00    -0.004 C 
HETATM    8  C8  UNL     1       0.983  53.638 -21.475  1.00  0.00     0.010 C 
HETATM    9  C9  UNL     1       0.681  53.926 -20.010  1.00  0.00     0.035 C 
HETATM   10  C10 UNL     1       0.363  52.669 -19.235  1.00  0.00    -0.069 C 
HETATM   11  C11 UNL     1       0.993  52.433 -18.070  1.00  0.00     0.030 C 
HETATM   12  C12 UNL     1       0.637  51.283 -17.201  1.00  0.00     0.032 C 
HETATM   13  N1  UNL     1       1.328  51.107 -16.110  1.00  0.00    -0.271 N 
ATOM     14  H1  UNL     1       2.121  51.686 -15.834  1.00  0.00     0.194 HD
HETATM   15  C21 UNL     1      -0.549  50.434 -17.612  1.00  0.00     0.060 C 
HETATM   16  C22 UNL     1      -0.650  50.353 -19.128  1.00  0.00     0.020 C 
HETATM   17  C23 UNL     1      -0.699  51.738 -19.835  1.00  0.00    -0.016 C 
HETATM   18  C24 UNL     1      -2.087  52.375 -19.594  1.00  0.00     0.020 C 
HETATM   19  C25 UNL     1      -0.405  51.520 -21.368  1.00  0.00     0.002 C 
HETATM   20  C26 UNL     1      -1.447  50.622 -22.087  1.00  0.00     0.007 C 
HETATM   21  C27 UNL     1      -1.156  50.426 -23.586  1.00  0.00     0.014 C 
HETATM   22  C28 UNL     1      -0.985  51.769 -24.316  1.00  0.00     0.003 C 
HETATM   23  C29 UNL     1      -2.340  52.536 -24.314  1.00  0.00     0.020 C 
ENDROOT
BRANCH   3  24
HETATM   24  O1  UNL     1       0.689  50.763 -25.791  1.00  0.00    -0.377 OA
HETATM   25  H2  UNL     1       0.990  50.716 -26.715  1.00  0.00     0.211 HD
ENDBRANCH   3  24
BRANCH  13  26
HETATM   26  O2  UNL     1       0.847  50.023 -15.366  1.00  0.00    -0.271 OA
BRANCH  26  27
HETATM   27  C13 UNL     1       0.936  50.336 -13.978  1.00  0.00     0.303 C 
BRANCH  27  28
HETATM   28  C14 UNL     1      -0.025  51.467 -13.615  1.00  0.00     0.244 C 
HETATM   29  O3  UNL     1       0.244  52.647 -13.825  1.00  0.00    -0.271 OA
HETATM   30  N2  UNL     1      -1.194  51.058 -13.017  1.00  0.00    -0.344 N 
HETATM   31  H16 UNL     1      -1.404  50.063 -13.063  1.00  0.00     0.163 HD
BRANCH  30  32
HETATM   32  C15 UNL     1      -2.289  51.965 -12.686  1.00  0.00     0.186 C 
BRANCH  32  33
HETATM   33  C16 UNL     1      -3.201  52.069 -13.911  1.00  0.00     0.163 C 
HETATM   34  O4  UNL     1      -3.340  51.221 -14.781  1.00  0.00    -0.648 OA
BRANCH  33  35
HETATM   35  O5  UNL     1      -3.898  53.222 -13.963  1.00  0.00    -0.775 OA
HETATM   36  H18 UNL     1      -4.420  53.149 -14.789  1.00  0.00     0.167 HD
ENDBRANCH  33  35
ENDBRANCH  32  33
BRANCH  32  37
HETATM   37  C17 UNL     1      -3.079  51.556 -11.421  1.00  0.00     0.014 C 
HETATM   38  C18 UNL     1      -3.544  50.098 -11.492  1.00  0.00     0.012 C 
BRANCH  37  39
HETATM   39  C19 UNL     1      -4.230  52.503 -11.008  1.00  0.00     0.002 C 
HETATM   40  C20 UNL     1      -3.839  53.886 -10.507  1.00  0.00     0.005 C 
ENDBRANCH  37  39
ENDBRANCH  32  37
ENDBRANCH  30  32
ENDBRANCH  27  28
ENDBRANCH  26  27
ENDBRANCH  13  26
TORSDOF 9
ENDMDL
MODEL 2
REMARK minimizedAffinity -9.37715435
REMARK  9 active torsions:
REMARK  status: ('A' for Active; 'I' for Inactive)
REMARK    1  A    between atoms: C3_3  and  O1_4 
REMARK    2  A    between atoms: N1_14  and  O2_16 
REMARK    3  A    between atoms: O2_16  and  C13_17 
REMARK    4  A    between atoms: C13_17  and  C14_18 
REMARK       I    between atoms: C14_18  and  N2_20 
REMARK    5  A    between atoms: N2_20  and  C15_21 
REMARK    6  A    between atoms: C15_21  and  C16_22 
REMARK    7  A    between atoms: C15_21  and  C17_25 
REMARK    8  A    between atoms: C16_22  and  O5_24 
REMARK    9  A    between atoms: C17_25  and  C19_27 
ROOT
HETATM    1  C1  UNL     1      -0.067  53.612 -28.229  1.00  0.00     0.015 C 
HETATM    2  C2  UNL     1      -0.782  52.978 -27.503  1.00  0.00    -0.078 C 
HETATM    3  C3  UNL     1      -1.671  52.213 -26.615  1.00  0.00     0.128 C 
HETATM    4  C4  UNL     1      -2.033  50.823 -27.193  1.00  0.00     0.052 C 
HETATM    5  C5  UNL     1      -2.182  49.876 -25.982  1.00  0.00     0.010 C 
HETATM    6  C6  UNL     1      -2.070  50.788 -24.763  1.00  0.00     0.002 C 
HETATM    7  C7  UNL     1      -1.709  50.167 -23.408  1.00  0.00    -0.004 C 
HETATM    8  C8  UNL     1      -2.716  49.080 -23.006  1.00  0.00     0.010 C 
HETATM    9  C9  UNL     1      -2.370  48.485 -21.647  1.00  0.00     0.035 C 
HETATM   10  C10 UNL     1      -2.255  49.542 -20.574  1.00  0.00    -0.069 C 
HETATM   11  C11 UNL     1      -2.913  49.379 -19.412  1.00  0.00     0.030 C 
HETATM   12  C12 UNL     1      -2.743  50.316 -18.272  1.00  0.00     0.032 C 
HETATM   13  N1  UNL     1      -3.452  50.105 -17.200  1.00  0.00    -0.271 N 
ATOM     14  H1  UNL     1      -4.143  49.360 -17.106  1.00  0.00     0.194 HD
HETATM   15  C21 UNL     1      -1.706  51.412 -18.415  1.00  0.00     0.060 C 
HETATM   16  C22 UNL     1      -1.622  51.884 -19.859  1.00  0.00     0.020 C 
HETATM   17  C23 UNL     1      -1.354  50.744 -20.884  1.00  0.00    -0.016 C 
HETATM   18  C24 UNL     1       0.117  50.289 -20.754  1.00  0.00     0.020 C 
HETATM   19  C25 UNL     1      -1.681  51.291 -22.326  1.00  0.00     0.002 C 
HETATM   20  C26 UNL     1      -0.795  52.490 -22.760  1.00  0.00     0.007 C 
HETATM   21  C27 UNL     1      -1.115  53.007 -24.174  1.00  0.00     0.014 C 
HETATM   22  C28 UNL     1      -1.072  51.879 -25.219  1.00  0.00     0.003 C 
HETATM   23  C29 UNL     1       0.387  51.354 -25.354  1.00  0.00     0.020 C 
ENDROOT
BRANCH   3  24
HETATM   24  O1  UNL     1      -2.886  52.953 -26.464  1.00  0.00    -0.377 OA
HETATM   25  H2  UNL     1      -3.191  53.183 -27.358  1.00  0.00     0.211 HD
ENDBRANCH   3  24
BRANCH  13  26
HETATM   26  O2  UNL     1      -3.148  51.029 -16.193  1.00  0.00    -0.271 OA
BRANCH  26  27
HETATM   27  C13 UNL     1      -2.293  50.409 -15.236  1.00  0.00     0.303 C 
BRANCH  27  28
HETATM   28  C14 UNL     1      -2.758  50.715 -13.814  1.00  0.00     0.244 C 
HETATM   29  O3  UNL     1      -3.429  49.921 -13.159  1.00  0.00    -0.271 OA
HETATM   30  N2  UNL     1      -2.385  51.951 -13.340  1.00  0.00    -0.344 N 
HETATM   31  H16 UNL     1      -1.677  52.449 -13.876  1.00  0.00     0.163 HD
BRANCH  30  32
HETATM   32  C15 UNL     1      -2.636  52.399 -11.974  1.00  0.00     0.186 C 
BRANCH  32  33
HETATM   33  C16 UNL     1      -3.823  53.363 -12.004  1.00  0.00     0.163 C 
HETATM   34  O4  UNL     1      -4.345  53.896 -11.034  1.00  0.00    -0.648 OA
BRANCH  33  35
HETATM   35  O5  UNL     1      -4.276  53.616 -13.248  1.00  0.00    -0.775 OA
HETATM   36  H18 UNL     1      -5.028  54.230 -13.110  1.00  0.00     0.167 HD
ENDBRANCH  33  35
ENDBRANCH  32  33
BRANCH  32  37
HETATM   37  C17 UNL     1      -2.863  51.244 -10.970  1.00  0.00     0.014 C 
HETATM   38  C18 UNL     1      -4.279  51.277 -10.383  1.00  0.00     0.012 C 
BRANCH  37  39
HETATM   39  C19 UNL     1      -1.791  51.088  -9.866  1.00  0.00     0.002 C 
HETATM   40  C20 UNL     1      -2.281  51.083  -8.425  1.00  0.00     0.005 C 
ENDBRANCH  37  39
ENDBRANCH  32  37
ENDBRANCH  30  32
ENDBRANCH  27  28
ENDBRANCH  26  27
ENDBRANCH  13  26
TORSDOF 9
ENDMDL
MODEL 3
REMARK minimizedAffinity -9.20234203
REMARK  9 active torsions:
REMARK  status: ('A' for Active; 'I' for Inactive)
REMARK    1  A    between atoms: C3_3  and  O1_4 
REMARK    2  A    between atoms: N1_14  and  O2_16 
REMARK    3  A    between atoms: O2_16  and  C13_17 
REMARK    4  A    between atoms: C13_17  and  C14_18 
REMARK       I    between atoms: C14_18  and  N2_20 
REMARK    5  A    between atoms: N2_20  and  C15_21 
REMARK    6  A    between atoms: C15_21  and  C16_22 
REMARK    7  A    between atoms: C15_21  and  C17_25 
REMARK    8  A    between atoms: C16_22  and  O5_24 
REMARK    9  A    between atoms: C17_25  and  C19_27 
ROOT
HETATM    1  C1  UNL     1       0.136  53.345 -28.457  1.00  0.00     0.015 C 
HETATM    2  C2  UNL     1      -0.617  52.773 -27.717  1.00  0.00    -0.078 C 
HETATM    3  C3  UNL     1      -1.553  52.087 -26.813  1.00  0.00     0.128 C 
HETATM    4  C4  UNL     1      -2.016  50.718 -27.368  1.00  0.00     0.052 C 
HETATM    5  C5  UNL     1      -2.223  49.801 -26.143  1.00  0.00     0.010 C 
HETATM    6  C6  UNL     1      -2.038  50.719 -24.938  1.00  0.00     0.002 C 
HETATM    7  C7  UNL     1      -1.713  50.093 -23.576  1.00  0.00    -0.004 C 
HETATM    8  C8  UNL     1      -2.791  49.086 -23.153  1.00  0.00     0.010 C 
HETATM    9  C9  UNL     1      -2.479  48.487 -21.787  1.00  0.00     0.035 C 
HETATM   10  C10 UNL     1      -2.282  49.548 -20.730  1.00  0.00    -0.069 C 
HETATM   11  C11 UNL     1      -2.941  49.450 -19.562  1.00  0.00     0.030 C 
HETATM   12  C12 UNL     1      -2.697  50.388 -18.438  1.00  0.00     0.032 C 
HETATM   13  N1  UNL     1      -3.412  50.243 -17.358  1.00  0.00    -0.271 N 
ATOM     14  H1  UNL     1      -4.153  49.550 -17.249  1.00  0.00     0.194 HD
HETATM   15  C21 UNL     1      -1.586  51.405 -18.602  1.00  0.00     0.060 C 
HETATM   16  C22 UNL     1      -1.478  51.850 -20.053  1.00  0.00     0.020 C 
HETATM   17  C23 UNL     1      -1.300  50.679 -21.063  1.00  0.00    -0.016 C 
HETATM   18  C24 UNL     1       0.137  50.123 -20.936  1.00  0.00     0.020 C 
HETATM   19  C25 UNL     1      -1.597  51.228 -22.511  1.00  0.00     0.002 C 
HETATM   20  C26 UNL     1      -0.631  52.354 -22.968  1.00  0.00     0.007 C 
HETATM   21  C27 UNL     1      -0.924  52.873 -24.387  1.00  0.00     0.014 C 
HETATM   22  C28 UNL     1      -0.968  51.730 -25.416  1.00  0.00     0.003 C 
HETATM   23  C29 UNL     1       0.449  51.101 -25.552  1.00  0.00     0.020 C 
ENDROOT
BRANCH   3  24
HETATM   24  O1  UNL     1      -2.710  52.913 -26.665  1.00  0.00    -0.377 OA
HETATM   25  H2  UNL     1      -3.005  53.151 -27.561  1.00  0.00     0.211 HD
ENDBRANCH   3  24
BRANCH  13  26
HETATM   26  O2  UNL     1      -3.036  51.157 -16.366  1.00  0.00    -0.271 OA
BRANCH  26  27
HETATM   27  C13 UNL     1      -2.730  50.445 -15.169  1.00  0.00     0.303 C 
BRANCH  27  28
HETATM   28  C14 UNL     1      -1.535  51.072 -14.455  1.00  0.00     0.244 C 
HETATM   29  O3  UNL     1      -1.668  51.909 -13.566  1.00  0.00    -0.271 OA
HETATM   30  N2  UNL     1      -0.307  50.641 -14.903  1.00  0.00    -0.344 N 
HETATM   31  H16 UNL     1      -0.305  49.816 -15.498  1.00  0.00     0.163 HD
BRANCH  30  32
HETATM   32  C15 UNL     1       0.957  51.034 -14.288  1.00  0.00     0.186 C 
BRANCH  32  33
HETATM   33  C16 UNL     1       1.725  49.759 -13.932  1.00  0.00     0.163 C 
HETATM   34  O4  UNL     1       2.457  49.604 -12.965  1.00  0.00    -0.648 OA
BRANCH  33  35
HETATM   35  O5  UNL     1       1.515  48.749 -14.800  1.00  0.00    -0.775 OA
HETATM   36  H18 UNL     1       2.067  48.016 -14.454  1.00  0.00     0.167 HD
ENDBRANCH  33  35
ENDBRANCH  32  33
BRANCH  32  37
HETATM   37  C17 UNL     1       1.807  51.987 -15.161  1.00  0.00     0.014 C 
HETATM   38  C18 UNL     1       1.492  51.820 -16.651  1.00  0.00     0.012 C 
BRANCH  37  39
HETATM   39  C19 UNL     1       3.331  51.967 -14.894  1.00  0.00     0.002 C 
HETATM   40  C20 UNL     1       4.242  52.260 -16.077  1.00  0.00     0.005 C 
ENDBRANCH  37  39
ENDBRANCH  32  37
ENDBRANCH  30  32
ENDBRANCH  27  28
ENDBRANCH  26  27
ENDBRANCH  13  26
TORSDOF 9
ENDMDL
MODEL 4
REMARK minimizedAffinity -9.1843605
REMARK  9 active torsions:
REMARK  status: ('A' for Active; 'I' for Inactive)
REMARK    1  A    between atoms: C3_3  and  O1_4 
REMARK    2  A    between atoms: N1_14  and  O2_16 
REMARK    3  A    between atoms: O2_16  and  C13_17 
REMARK    4  A    between atoms: C13_17  and  C14_18 
REMARK       I    between atoms: C14_18  and  N2_20 
REMARK    5  A    between atoms: N2_20  and  C15_21 
REMARK    6  A    between atoms: C15_21  and  C16_22 
REMARK    7  A    between atoms: C15_21  and  C17_25 
REMARK    8  A    between atoms: C16_22  and  O5_24 
REMARK    9  A    between atoms: C17_25  and  C19_27 
ROOT
HETATM    1  C1  UNL     1      -2.098  51.566 -27.471  1.00  0.00     0.015 C 
HETATM    2  C2  UNL     1      -1.341  51.724 -26.554  1.00  0.00    -0.078 C 
HETATM    3  C3  UNL     1      -0.401  51.904 -25.437  1.00  0.00     0.128 C 
HETATM    4  C4  UNL     1       0.259  53.305 -25.436  1.00  0.00     0.052 C 
HETATM    5  C5  UNL     1       0.481  53.680 -23.955  1.00  0.00     0.010 C 
HETATM    6  C6  UNL     1       0.101  52.422 -23.178  1.00  0.00     0.002 C 
HETATM    7  C7  UNL     1      -0.248  52.551 -21.690  1.00  0.00    -0.004 C 
HETATM    8  C8  UNL     1       0.906  53.181 -20.898  1.00  0.00     0.010 C 
HETATM    9  C9  UNL     1       0.566  53.282 -19.417  1.00  0.00     0.035 C 
HETATM   10  C10 UNL     1       0.170  51.948 -18.830  1.00  0.00    -0.069 C 
HETATM   11  C11 UNL     1       0.749  51.527 -17.691  1.00  0.00     0.030 C 
HETATM   12  C12 UNL     1       0.315  50.288 -16.997  1.00  0.00     0.032 C 
HETATM   13  N1  UNL     1       0.960  49.935 -15.922  1.00  0.00    -0.271 N 
ATOM     14  H1  UNL     1       1.767  50.434 -15.546  1.00  0.00     0.194 HD
HETATM   15  C21 UNL     1      -0.892  49.560 -17.553  1.00  0.00     0.060 C 
HETATM   16  C22 UNL     1      -0.944  49.689 -19.068  1.00  0.00     0.020 C 
HETATM   17  C23 UNL     1      -0.910  51.158 -19.580  1.00  0.00    -0.016 C 
HETATM   18  C24 UNL     1      -2.277  51.820 -19.295  1.00  0.00     0.020 C 
HETATM   19  C25 UNL     1      -0.573  51.135 -21.120  1.00  0.00     0.002 C 
HETATM   20  C26 UNL     1      -1.627  50.392 -21.985  1.00  0.00     0.007 C 
HETATM   21  C27 UNL     1      -1.293  50.387 -23.487  1.00  0.00     0.014 C 
HETATM   22  C28 UNL     1      -1.041  51.807 -24.022  1.00  0.00     0.003 C 
HETATM   23  C29 UNL     1      -2.361  52.628 -23.953  1.00  0.00     0.020 C 
ENDROOT
BRANCH   3  24
HETATM   24  O1  UNL     1       0.639  50.932 -25.573  1.00  0.00    -0.377 OA
HETATM   25  H2  UNL     1       0.969  50.996 -26.486  1.00  0.00     0.211 HD
ENDBRANCH   3  24
BRANCH  13  26
HETATM   26  O2  UNL     1       0.408  48.784 -15.346  1.00  0.00    -0.271 OA
BRANCH  26  27
HETATM   27  C13 UNL     1       0.979  48.591 -14.054  1.00  0.00     0.303 C 
BRANCH  27  28
HETATM   28  C14 UNL     1       0.081  49.182 -12.970  1.00  0.00     0.244 C 
HETATM   29  O3  UNL     1      -0.319  48.518 -12.017  1.00  0.00    -0.271 OA
HETATM   30  N2  UNL     1      -0.259  50.501 -13.161  1.00  0.00    -0.344 N 
HETATM   31  H16 UNL     1       0.272  51.010 -13.865  1.00  0.00     0.163 HD
BRANCH  30  32
HETATM   32  C15 UNL     1      -1.020  51.285 -12.192  1.00  0.00     0.186 C 
BRANCH  32  33
HETATM   33  C16 UNL     1      -0.539  52.734 -12.277  1.00  0.00     0.163 C 
HETATM   34  O4  UNL     1      -0.658  53.586 -11.407  1.00  0.00    -0.648 OA
BRANCH  33  35
HETATM   35  O5  UNL     1       0.080  53.027 -13.438  1.00  0.00    -0.775 OA
HETATM   36  H18 UNL     1       0.321  53.973 -13.351  1.00  0.00     0.167 HD
ENDBRANCH  33  35
ENDBRANCH  32  33
BRANCH  32  37
HETATM   37  C17 UNL     1      -2.553  51.181 -12.372  1.00  0.00     0.014 C 
HETATM   38  C18 UNL     1      -3.030  51.950 -13.609  1.00  0.00     0.012 C 
BRANCH  37  39
HETATM   39  C19 UNL     1      -3.402  51.521 -11.125  1.00  0.00     0.002 C 
HETATM   40  C20 UNL     1      -4.147  52.848 -11.139  1.00  0.00     0.005 C 
ENDBRANCH  37  39
ENDBRANCH  32  37
ENDBRANCH  30  32
ENDBRANCH  27  28
ENDBRANCH  26  27
ENDBRANCH  13  26
TORSDOF 9
ENDMDL
MODEL 5
REMARK minimizedAffinity -9.13174343
REMARK  9 active torsions:
REMARK  status: ('A' for Active; 'I' for Inactive)
REMARK    1  A    between atoms: C3_3  and  O1_4 
REMARK    2  A    between atoms: N1_14  and  O2_16 
REMARK    3  A    between atoms: O2_16  and  C13_17 
REMARK    4  A    between atoms: C13_17  and  C14_18 
REMARK       I    between atoms: C14_18  and  N2_20 
REMARK    5  A    between atoms: N2_20  and  C15_21 
REMARK    6  A    between atoms: C15_21  and  C16_22 
REMARK    7  A    between atoms: C15_21  and  C17_25 
REMARK    8  A    between atoms: C16_22  and  O5_24 
REMARK    9  A    between atoms: C17_25  and  C19_27 
ROOT
HETATM    1  C1  UNL     1      -2.382  50.745 -27.496  1.00  0.00     0.015 C 
HETATM    2  C2  UNL     1      -1.563  51.109 -26.698  1.00  0.00    -0.078 C 
HETATM    3  C3  UNL     1      -0.547  51.542 -25.725  1.00  0.00     0.128 C 
HETATM    4  C4  UNL     1       0.012  52.951 -26.039  1.00  0.00     0.052 C 
HETATM    5  C5  UNL     1       0.331  53.604 -24.677  1.00  0.00     0.010 C 
HETATM    6  C6  UNL     1       0.105  52.494 -23.654  1.00  0.00     0.002 C 
HETATM    7  C7  UNL     1      -0.127  52.879 -22.188  1.00  0.00    -0.004 C 
HETATM    8  C8  UNL     1       1.044  53.703 -21.635  1.00  0.00     0.010 C 
HETATM    9  C9  UNL     1       0.822  54.059 -20.170  1.00  0.00     0.035 C 
HETATM   10  C10 UNL     1       0.568  52.838 -19.318  1.00  0.00    -0.069 C 
HETATM   11  C11 UNL     1       1.267  52.666 -18.182  1.00  0.00     0.030 C 
HETATM   12  C12 UNL     1       0.979  51.557 -17.239  1.00  0.00     0.032 C 
HETATM   13  N1  UNL     1       1.734  51.442 -16.183  1.00  0.00    -0.271 N 
ATOM     14  H1  UNL     1       2.533  52.044 -15.982  1.00  0.00     0.194 HD
HETATM   15  C21 UNL     1      -0.217  50.676 -17.538  1.00  0.00     0.060 C 
HETATM   16  C22 UNL     1      -0.404  50.519 -19.040  1.00  0.00     0.020 C 
HETATM   17  C23 UNL     1      -0.514  51.867 -19.809  1.00  0.00    -0.016 C 
HETATM   18  C24 UNL     1      -1.894  52.499 -19.519  1.00  0.00     0.020 C 
HETATM   19  C25 UNL     1      -0.306  51.577 -21.344  1.00  0.00     0.002 C 
HETATM   20  C26 UNL     1      -1.375  50.633 -21.957  1.00  0.00     0.007 C 
HETATM   21  C27 UNL     1      -1.168  50.368 -23.459  1.00  0.00     0.014 C 
HETATM   22  C28 UNL     1      -1.059  51.675 -24.262  1.00  0.00     0.003 C 
HETATM   23  C29 UNL     1      -2.422  52.425 -24.218  1.00  0.00     0.020 C 
ENDROOT
BRANCH   3  24
HETATM   24  O1  UNL     1       0.541  50.616 -25.782  1.00  0.00    -0.377 OA
HETATM   25  H2  UNL     1       0.789  50.527 -26.719  1.00  0.00     0.211 HD
ENDBRANCH   3  24
BRANCH  13  26
HETATM   26  O2  UNL     1       1.312  50.391 -15.361  1.00  0.00    -0.271 OA
BRANCH  26  27
HETATM   27  C13 UNL     1       1.505  50.761 -13.998  1.00  0.00     0.303 C 
BRANCH  27  28
HETATM   28  C14 UNL     1       0.528  51.862 -13.590  1.00  0.00     0.244 C 
HETATM   29  O3  UNL     1      -0.355  52.264 -14.343  1.00  0.00    -0.271 OA
HETATM   30  N2  UNL     1       0.733  52.376 -12.331  1.00  0.00    -0.344 N 
HETATM   31  H16 UNL     1       1.357  51.850 -11.722  1.00  0.00     0.163 HD
BRANCH  30  32
HETATM   32  C15 UNL     1      -0.149  53.358 -11.709  1.00  0.00     0.186 C 
BRANCH  32  33
HETATM   33  C16 UNL     1      -1.450  52.648 -11.328  1.00  0.00     0.163 C 
HETATM   34  O4  UNL     1      -1.617  51.918 -10.360  1.00  0.00    -0.648 OA
BRANCH  33  35
HETATM   35  O5  UNL     1      -2.469  52.908 -12.170  1.00  0.00    -0.775 OA
HETATM   36  H18 UNL     1      -3.218  52.389 -11.810  1.00  0.00     0.167 HD
ENDBRANCH  33  35
ENDBRANCH  32  33
BRANCH  32  37
HETATM   37  C17 UNL     1       0.480  54.084 -10.497  1.00  0.00     0.014 C 
HETATM   38  C18 UNL     1      -0.436  55.191  -9.964  1.00  0.00     0.012 C 
BRANCH  37  39
HETATM   39  C19 UNL     1       1.930  54.586 -10.690  1.00  0.00     0.002 C 
HETATM   40  C20 UNL     1       2.883  54.410  -9.516  1.00  0.00     0.005 C 
ENDBRANCH  37  39
ENDBRANCH  32  37
ENDBRANCH  30  32
ENDBRANCH  27  28
ENDBRANCH  26  27
ENDBRANCH  13  26
TORSDOF 9
ENDMDL
MODEL 6
REMARK minimizedAffinity -9.08040524
REMARK  9 active torsions:
REMARK  status: ('A' for Active; 'I' for Inactive)
REMARK    1  A    between atoms: C3_3  and  O1_4 
REMARK    2  A    between atoms: N1_14  and  O2_16 
REMARK    3  A    between atoms: O2_16  and  C13_17 
REMARK    4  A    between atoms: C13_17  and  C14_18 
REMARK       I    between atoms: C14_18  and  N2_20 
REMARK    5  A    between atoms: N2_20  and  C15_21 
REMARK    6  A    between atoms: C15_21  and  C16_22 
REMARK    7  A    between atoms: C15_21  and  C17_25 
REMARK    8  A    between atoms: C16_22  and  O5_24 
REMARK    9  A    between atoms: C17_25  and  C19_27 
ROOT
HETATM    1  C1  UNL     1       0.419  48.449 -14.749  1.00  0.00     0.015 C 
HETATM    2  C2  UNL     1      -0.528  48.753 -15.422  1.00  0.00    -0.078 C 
HETATM    3  C3  UNL     1      -1.696  49.110 -16.242  1.00  0.00     0.128 C 
HETATM    4  C4  UNL     1      -2.378  50.416 -15.766  1.00  0.00     0.052 C 
HETATM    5  C5  UNL     1      -2.932  51.102 -17.034  1.00  0.00     0.010 C 
HETATM    6  C6  UNL     1      -2.699  50.091 -18.153  1.00  0.00     0.002 C 
HETATM    7  C7  UNL     1      -2.692  50.586 -19.604  1.00  0.00    -0.004 C 
HETATM    8  C8  UNL     1      -4.009  51.287 -19.963  1.00  0.00     0.010 C 
HETATM    9  C9  UNL     1      -4.009  51.752 -21.413  1.00  0.00     0.035 C 
HETATM   10  C10 UNL     1      -3.715  50.625 -22.374  1.00  0.00    -0.069 C 
HETATM   11  C11 UNL     1      -4.519  50.433 -23.435  1.00  0.00     0.030 C 
HETATM   12  C12 UNL     1      -4.215  49.425 -24.482  1.00  0.00     0.032 C 
HETATM   13  N1  UNL     1      -5.072  49.278 -25.453  1.00  0.00    -0.271 N 
ATOM     14  H1  UNL     1      -5.955  49.784 -25.520  1.00  0.00     0.194 HD
HETATM   15  C21 UNL     1      -2.896  48.687 -24.383  1.00  0.00     0.060 C 
HETATM   16  C22 UNL     1      -2.514  48.468 -22.926  1.00  0.00     0.020 C 
HETATM   17  C23 UNL     1      -2.474  49.772 -22.079  1.00  0.00    -0.016 C 
HETATM   18  C24 UNL     1      -1.223  50.589 -22.474  1.00  0.00     0.020 C 
HETATM   19  C25 UNL     1      -2.461  49.369 -20.554  1.00  0.00     0.002 C 
HETATM   20  C26 UNL     1      -1.222  48.534 -20.134  1.00  0.00     0.007 C 
HETATM   21  C27 UNL     1      -1.215  48.157 -18.642  1.00  0.00     0.014 C 
HETATM   22  C28 UNL     1      -1.382  49.392 -17.740  1.00  0.00     0.003 C 
HETATM   23  C29 UNL     1      -0.133  50.309 -17.881  1.00  0.00     0.020 C 
ENDROOT
BRANCH   3  24
HETATM   24  O1  UNL     1      -2.652  48.052 -16.131  1.00  0.00    -0.377 OA
HETATM   25  H2  UNL     1      -2.774  47.878 -15.182  1.00  0.00     0.211 HD
ENDBRANCH   3  24
BRANCH  13  26
HETATM   26  O2  UNL     1      -4.630  48.338 -26.391  1.00  0.00    -0.271 OA
BRANCH  26  27
HETATM   27  C13 UNL     1      -3.216  48.453 -26.533  1.00  0.00     0.303 C 
BRANCH  27  28
HETATM   28  C14 UNL     1      -2.854  49.641 -27.421  1.00  0.00     0.244 C 
HETATM   29  O3  UNL     1      -3.495  49.923 -28.431  1.00  0.00    -0.271 OA
HETATM   30  N2  UNL     1      -1.748  50.349 -27.012  1.00  0.00    -0.344 N 
HETATM   31  H16 UNL     1      -1.408  50.158 -26.072  1.00  0.00     0.163 HD
BRANCH  30  32
HETATM   32  C15 UNL     1      -1.295  51.578 -27.657  1.00  0.00     0.186 C 
BRANCH  32  33
HETATM   33  C16 UNL     1      -2.274  52.693 -27.286  1.00  0.00     0.163 C 
HETATM   34  O4  UNL     1      -3.041  52.693 -26.333  1.00  0.00    -0.648 OA
BRANCH  33  35
HETATM   35  O5  UNL     1      -2.222  53.751 -28.120  1.00  0.00    -0.775 OA
HETATM   36  H18 UNL     1      -2.897  54.369 -27.768  1.00  0.00     0.167 HD
ENDBRANCH  33  35
ENDBRANCH  32  33
BRANCH  32  37
HETATM   37  C17 UNL     1       0.164  51.962 -27.314  1.00  0.00     0.014 C 
HETATM   38  C18 UNL     1       1.109  51.697 -28.490  1.00  0.00     0.012 C 
BRANCH  37  39
HETATM   39  C19 UNL     1       0.720  51.384 -25.991  1.00  0.00     0.002 C 
HETATM   40  C20 UNL     1       1.005  52.375 -24.872  1.00  0.00     0.005 C 
ENDBRANCH  37  39
ENDBRANCH  32  37
ENDBRANCH  30  32
ENDBRANCH  27  28
ENDBRANCH  26  27
ENDBRANCH  13  26
TORSDOF 9
ENDMDL
MODEL 7
REMARK minimizedAffinity -9.02264023
REMARK  9 active torsions:
REMARK  status: ('A' for Active; 'I' for Inactive)
REMARK    1  A    between atoms: C3_3  and  O1_4 
REMARK    2  A    between atoms: N1_14  and  O2_16 
REMARK    3  A    between atoms: O2_16  and  C13_17 
REMARK    4  A    between atoms: C13_17  and  C14_18 
REMARK       I    between atoms: C14_18  and  N2_20 
REMARK    5  A    between atoms: N2_20  and  C15_21 
REMARK    6  A    between atoms: C15_21  and  C16_22 
REMARK    7  A    between atoms: C15_21  and  C17_25 
REMARK    8  A    between atoms: C16_22  and  O5_24 
REMARK    9  A    between atoms: C17_25  and  C19_27 
ROOT
HETATM    1  C1  UNL     1      -2.253  51.467 -27.760  1.00  0.00     0.015 C 
HETATM    2  C2  UNL     1      -1.513  51.617 -26.826  1.00  0.00    -0.078 C 
HETATM    3  C3  UNL     1      -0.595  51.787 -25.689  1.00  0.00     0.128 C 
HETATM    4  C4  UNL     1       0.052  53.193 -25.655  1.00  0.00     0.052 C 
HETATM    5  C5  UNL     1       0.244  53.547 -24.164  1.00  0.00     0.010 C 
HETATM    6  C6  UNL     1      -0.139  52.274 -23.414  1.00  0.00     0.002 C 
HETATM    7  C7  UNL     1      -0.516  52.378 -21.931  1.00  0.00    -0.004 C 
HETATM    8  C8  UNL     1       0.618  53.004 -21.108  1.00  0.00     0.010 C 
HETATM    9  C9  UNL     1       0.250  53.080 -19.632  1.00  0.00     0.035 C 
HETATM   10  C10 UNL     1      -0.146  51.734 -19.073  1.00  0.00    -0.069 C 
HETATM   11  C11 UNL     1       0.416  51.301 -17.930  1.00  0.00     0.030 C 
HETATM   12  C12 UNL     1      -0.020  50.048 -17.263  1.00  0.00     0.032 C 
HETATM   13  N1  UNL     1       0.608  49.683 -16.182  1.00  0.00    -0.271 N 
ATOM     14  H1  UNL     1       1.404  50.183 -15.785  1.00  0.00     0.194 HD
HETATM   15  C21 UNL     1      -1.210  49.318 -17.852  1.00  0.00     0.060 C 
HETATM   16  C22 UNL     1      -1.236  49.470 -19.366  1.00  0.00     0.020 C 
HETATM   17  C23 UNL     1      -1.205  50.946 -19.855  1.00  0.00    -0.016 C 
HETATM   18  C24 UNL     1      -2.583  51.593 -19.585  1.00  0.00     0.020 C 
HETATM   19  C25 UNL     1      -0.840  50.950 -21.389  1.00  0.00     0.002 C 
HETATM   20  C26 UNL     1      -1.872  50.212 -22.284  1.00  0.00     0.007 C 
HETATM   21  C27 UNL     1      -1.511  50.233 -23.779  1.00  0.00     0.014 C 
HETATM   22  C28 UNL     1      -1.260  51.663 -24.288  1.00  0.00     0.003 C 
HETATM   23  C29 UNL     1      -2.588  52.472 -24.231  1.00  0.00     0.020 C 
ENDROOT
BRANCH   3  24
HETATM   24  O1  UNL     1       0.455  50.826 -25.821  1.00  0.00    -0.377 OA
HETATM   25  H2  UNL     1       0.801  50.907 -26.727  1.00  0.00     0.211 HD
ENDBRANCH   3  24
BRANCH  13  26
HETATM   26  O2  UNL     1       0.056  48.519 -15.634  1.00  0.00    -0.271 OA
BRANCH  26  27
HETATM   27  C13 UNL     1      -0.636  48.853 -14.434  1.00  0.00     0.303 C 
BRANCH  27  28
HETATM   28  C14 UNL     1       0.227  49.737 -13.537  1.00  0.00     0.244 C 
HETATM   29  O3  UNL     1      -0.243  50.664 -12.882  1.00  0.00    -0.271 OA
HETATM   30  N2  UNL     1       1.568  49.427 -13.543  1.00  0.00    -0.344 N 
HETATM   31  H16 UNL     1       1.826  48.535 -13.959  1.00  0.00     0.163 HD
BRANCH  30  32
HETATM   32  C15 UNL     1       2.548  50.078 -12.679  1.00  0.00     0.186 C 
BRANCH  32  33
HETATM   33  C16 UNL     1       3.702  49.099 -12.454  1.00  0.00     0.163 C 
HETATM   34  O4  UNL     1       3.648  48.054 -11.821  1.00  0.00    -0.648 OA
BRANCH  33  35
HETATM   35  O5  UNL     1       4.850  49.478 -13.050  1.00  0.00    -0.775 OA
HETATM   36  H18 UNL     1       5.487  48.771 -12.816  1.00  0.00     0.167 HD
ENDBRANCH  33  35
ENDBRANCH  32  33
BRANCH  32  37
HETATM   37  C17 UNL     1       3.051  51.438 -13.220  1.00  0.00     0.014 C 
HETATM   38  C18 UNL     1       2.693  52.589 -12.274  1.00  0.00     0.012 C 
BRANCH  37  39
HETATM   39  C19 UNL     1       2.674  51.763 -14.684  1.00  0.00     0.002 C 
HETATM   40  C20 UNL     1       3.808  52.165 -15.615  1.00  0.00     0.005 C 
ENDBRANCH  37  39
ENDBRANCH  32  37
ENDBRANCH  30  32
ENDBRANCH  27  28
ENDBRANCH  26  27
ENDBRANCH  13  26
TORSDOF 9
ENDMDL
MODEL 8
REMARK minimizedAffinity -8.96947384
REMARK  9 active torsions:
REMARK  status: ('A' for Active; 'I' for Inactive)
REMARK    1  A    between atoms: C3_3  and  O1_4 
REMARK    2  A    between atoms: N1_14  and  O2_16 
REMARK    3  A    between atoms: O2_16  and  C13_17 
REMARK    4  A    between atoms: C13_17  and  C14_18 
REMARK       I    between atoms: C14_18  and  N2_20 
REMARK    5  A    between atoms: N2_20  and  C15_21 
REMARK    6  A    between atoms: C15_21  and  C16_22 
REMARK    7  A    between atoms: C15_21  and  C17_25 
REMARK    8  A    between atoms: C16_22  and  O5_24 
REMARK    9  A    between atoms: C17_25  and  C19_27 
ROOT
HETATM    1  C1  UNL     1      -3.409  44.714 -15.898  1.00  0.00     0.015 C 
HETATM    2  C2  UNL     1      -3.846  44.686 -17.016  1.00  0.00    -0.078 C 
HETATM    3  C3  UNL     1      -4.370  44.637 -18.389  1.00  0.00     0.128 C 
HETATM    4  C4  UNL     1      -5.872  44.265 -18.438  1.00  0.00     0.052 C 
HETATM    5  C5  UNL     1      -6.468  45.024 -19.644  1.00  0.00     0.010 C 
HETATM    6  C6  UNL     1      -5.264  45.659 -20.333  1.00  0.00     0.002 C 
HETATM    7  C7  UNL     1      -5.495  46.847 -21.275  1.00  0.00    -0.004 C 
HETATM    8  C8  UNL     1      -6.461  46.480 -22.410  1.00  0.00     0.010 C 
HETATM    9  C9  UNL     1      -6.667  47.653 -23.359  1.00  0.00     0.035 C 
HETATM   10  C10 UNL     1      -5.361  48.180 -23.907  1.00  0.00    -0.069 C 
HETATM   11  C11 UNL     1      -5.226  48.366 -25.232  1.00  0.00     0.030 C 
HETATM   12  C12 UNL     1      -4.017  48.995 -25.821  1.00  0.00     0.032 C 
HETATM   13  N1  UNL     1      -3.954  49.098 -27.118  1.00  0.00    -0.271 N 
ATOM     14  H1  UNL     1      -4.664  48.740 -27.757  1.00  0.00     0.194 HD
HETATM   15  C21 UNL     1      -2.973  49.536 -24.865  1.00  0.00     0.060 C 
HETATM   16  C22 UNL     1      -2.898  48.676 -23.612  1.00  0.00     0.020 C 
HETATM   17  C23 UNL     1      -4.261  48.496 -22.885  1.00  0.00    -0.016 C 
HETATM   18  C24 UNL     1      -4.629  49.819 -22.175  1.00  0.00     0.020 C 
HETATM   19  C25 UNL     1      -4.124  47.297 -21.869  1.00  0.00     0.002 C 
HETATM   20  C26 UNL     1      -3.061  47.529 -20.762  1.00  0.00     0.007 C 
HETATM   21  C27 UNL     1      -2.945  46.358 -19.770  1.00  0.00     0.014 C 
HETATM   22  C28 UNL     1      -4.308  45.986 -19.161  1.00  0.00     0.003 C 
HETATM   23  C29 UNL     1      -4.814  47.158 -18.270  1.00  0.00     0.020 C 
ENDROOT
BRANCH   3  24
HETATM   24  O1  UNL     1      -3.647  43.630 -19.102  1.00  0.00    -0.377 OA
HETATM   25  H2  UNL     1      -3.670  42.825 -18.556  1.00  0.00     0.211 HD
ENDBRANCH   3  24
BRANCH  13  26
HETATM   26  O2  UNL     1      -2.789  49.759 -27.526  1.00  0.00    -0.271 OA
BRANCH  26  27
HETATM   27  C13 UNL     1      -3.127  51.078 -27.947  1.00  0.00     0.303 C 
BRANCH  27  28
HETATM   28  C14 UNL     1      -2.119  52.093 -27.412  1.00  0.00     0.244 C 
HETATM   29  O3  UNL     1      -2.431  52.962 -26.602  1.00  0.00    -0.271 OA
HETATM   30  N2  UNL     1      -0.849  51.968 -27.925  1.00  0.00    -0.344 N 
HETATM   31  H16 UNL     1      -0.647  51.110 -28.434  1.00  0.00     0.163 HD
BRANCH  30  32
HETATM   32  C15 UNL     1       0.285  52.767 -27.472  1.00  0.00     0.186 C 
BRANCH  32  33
HETATM   33  C16 UNL     1      -0.194  54.209 -27.296  1.00  0.00     0.163 C 
HETATM   34  O4  UNL     1       0.147  54.980 -26.409  1.00  0.00    -0.648 OA
BRANCH  33  35
HETATM   35  O5  UNL     1      -1.057  54.607 -28.252  1.00  0.00    -0.775 OA
HETATM   36  H18 UNL     1      -1.278  55.530 -28.008  1.00  0.00     0.167 HD
ENDBRANCH  33  35
ENDBRANCH  32  33
BRANCH  32  37
HETATM   37  C17 UNL     1       0.954  52.228 -26.185  1.00  0.00     0.014 C 
HETATM   38  C18 UNL     1       2.070  51.227 -26.505  1.00  0.00     0.012 C 
BRANCH  37  39
HETATM   39  C19 UNL     1      -0.007  51.685 -25.102  1.00  0.00     0.002 C 
HETATM   40  C20 UNL     1      -0.086  52.464 -23.797  1.00  0.00     0.005 C 
ENDBRANCH  37  39
ENDBRANCH  32  37
ENDBRANCH  30  32
ENDBRANCH  27  28
ENDBRANCH  26  27
ENDBRANCH  13  26
TORSDOF 9
ENDMDL
MODEL 9
REMARK minimizedAffinity -8.93490982
REMARK  9 active torsions:
REMARK  status: ('A' for Active; 'I' for Inactive)
REMARK    1  A    between atoms: C3_3  and  O1_4 
REMARK    2  A    between atoms: N1_14  and  O2_16 
REMARK    3  A    between atoms: O2_16  and  C13_17 
REMARK    4  A    between atoms: C13_17  and  C14_18 
REMARK       I    between atoms: C14_18  and  N2_20 
REMARK    5  A    between atoms: N2_20  and  C15_21 
REMARK    6  A    between atoms: C15_21  and  C16_22 
REMARK    7  A    between atoms: C15_21  and  C17_25 
REMARK    8  A    between atoms: C16_22  and  O5_24 
REMARK    9  A    between atoms: C17_25  and  C19_27 
ROOT
HETATM    1  C1  UNL     1       1.494  54.553 -22.493  1.00  0.00     0.015 C 
HETATM    2  C2  UNL     1       0.882  53.962 -23.341  1.00  0.00    -0.078 C 
HETATM    3  C3  UNL     1       0.125  53.256 -24.386  1.00  0.00     0.128 C 
HETATM    4  C4  UNL     1       1.045  52.508 -25.381  1.00  0.00     0.052 C 
HETATM    5  C5  UNL     1       0.274  51.242 -25.816  1.00  0.00     0.010 C 
HETATM    6  C6  UNL     1      -1.110  51.399 -25.192  1.00  0.00     0.002 C 
HETATM    7  C7  UNL     1      -1.984  50.152 -25.014  1.00  0.00    -0.004 C 
HETATM    8  C8  UNL     1      -2.225  49.443 -26.354  1.00  0.00     0.010 C 
HETATM    9  C9  UNL     1      -3.117  48.220 -26.177  1.00  0.00     0.035 C 
HETATM   10  C10 UNL     1      -4.424  48.561 -25.501  1.00  0.00    -0.069 C 
HETATM   11  C11 UNL     1      -5.580  48.141 -26.045  1.00  0.00     0.030 C 
HETATM   12  C12 UNL     1      -6.886  48.334 -25.367  1.00  0.00     0.032 C 
HETATM   13  N1  UNL     1      -7.960  47.932 -25.987  1.00  0.00    -0.271 N 
ATOM     14  H1  UNL     1      -7.964  47.528 -26.923  1.00  0.00     0.194 HD
HETATM   15  C21 UNL     1      -6.871  48.923 -23.971  1.00  0.00     0.060 C 
HETATM   16  C22 UNL     1      -5.738  49.929 -23.827  1.00  0.00     0.020 C 
HETATM   17  C23 UNL     1      -4.337  49.361 -24.195  1.00  0.00    -0.016 C 
HETATM   18  C24 UNL     1      -3.874  48.404 -23.073  1.00  0.00     0.020 C 
HETATM   19  C25 UNL     1      -3.348  50.575 -24.384  1.00  0.00     0.002 C 
HETATM   20  C26 UNL     1      -3.154  51.434 -23.105  1.00  0.00     0.007 C 
HETATM   21  C27 UNL     1      -2.177  52.607 -23.299  1.00  0.00     0.014 C 
HETATM   22  C28 UNL     1      -0.825  52.140 -23.863  1.00  0.00     0.003 C 
HETATM   23  C29 UNL     1      -0.105  51.249 -22.810  1.00  0.00     0.020 C 
ENDROOT
BRANCH   3  24
HETATM   24  O1  UNL     1      -0.620  54.228 -25.125  1.00  0.00    -0.377 OA
HETATM   25  H2  UNL     1       0.004  54.928 -25.382  1.00  0.00     0.211 HD
ENDBRANCH   3  24
BRANCH  13  26
HETATM   26  O2  UNL     1      -9.107  48.126 -25.208  1.00  0.00    -0.271 OA
BRANCH  26  27
HETATM   27  C13 UNL     1     -10.254  47.758 -25.969  1.00  0.00     0.303 C 
BRANCH  27  28
HETATM   28  C14 UNL     1      -9.873  47.471 -27.420  1.00  0.00     0.244 C 
HETATM   29  O3  UNL     1      -9.400  46.394 -27.772  1.00  0.00    -0.271 OA
HETATM   30  N2  UNL     1     -10.082  48.518 -28.287  1.00  0.00    -0.344 N 
HETATM   31  H16 UNL     1     -10.650  49.288 -27.941  1.00  0.00     0.163 HD
BRANCH  30  32
HETATM   32  C15 UNL     1      -9.884  48.420 -29.730  1.00  0.00     0.186 C 
BRANCH  32  33
HETATM   33  C16 UNL     1      -8.466  48.898 -30.045  1.00  0.00     0.163 C 
HETATM   34  O4  UNL     1      -8.103  49.456 -31.072  1.00  0.00    -0.648 OA
BRANCH  33  35
HETATM   35  O5  UNL     1      -7.588  48.667 -29.048  1.00  0.00    -0.775 OA
HETATM   36  H18 UNL     1      -6.738  49.013 -29.391  1.00  0.00     0.167 HD
ENDBRANCH  33  35
ENDBRANCH  32  33
BRANCH  32  37
HETATM   37  C17 UNL     1     -10.150  47.008 -30.303  1.00  0.00     0.014 C 
HETATM   38  C18 UNL     1      -9.221  46.691 -31.479  1.00  0.00     0.012 C 
BRANCH  37  39
HETATM   39  C19 UNL     1     -11.625  46.681 -30.635  1.00  0.00     0.002 C 
HETATM   40  C20 UNL     1     -12.680  47.193 -29.666  1.00  0.00     0.005 C 
ENDBRANCH  37  39
ENDBRANCH  32  37
ENDBRANCH  30  32
ENDBRANCH  27  28
ENDBRANCH  26  27
ENDBRANCH  13  26
TORSDOF 9
ENDMDL
