MODEL 1
REMARK minimizedAffinity -8.38515186
REMARK  8 active torsions:
REMARK  status: ('A' for Active; 'I' for Inactive)
REMARK    1  A    between atoms: C4_4  and  C5_5 
REMARK    2  A    between atoms: C5_5  and  C6_6 
REMARK    3  A    between atoms: C6_6  and  C7_7 
REMARK    4  A    between atoms: C7_7  and  C9_9 
REMARK    5  A    between atoms: C21_21  and  C22_22 
REMARK    6  A    between atoms: C22_22  and  C23_23 
REMARK    7  A    between atoms: C23_23  and  C24_24 
REMARK    8  A    between atoms: C24_24  and  O1_25 
ROOT
HETATM    1  C9  UNL     1      -5.665   6.758  14.624  1.00  0.00    -0.002 C 
HETATM    2  C10 UNL     1      -6.049   7.894  13.622  1.00  0.00     0.006 C 
HETATM    3  C11 UNL     1      -4.728   8.453  13.043  1.00  0.00     0.011 C 
HETATM    4  C12 UNL     1      -3.635   7.891  13.973  1.00  0.00    -0.032 C 
HETATM    5  C13 UNL     1      -3.659   8.816  15.237  1.00  0.00     0.016 C 
HETATM    6  C14 UNL     1      -2.211   7.797  13.360  1.00  0.00     0.003 C 
HETATM    7  C15 UNL     1      -1.627   9.131  12.840  1.00  0.00     0.010 C 
HETATM    8  C16 UNL     1      -0.148   9.027  12.453  1.00  0.00     0.035 C 
HETATM    9  C17 UNL     1       0.227   7.611  12.076  1.00  0.00    -0.073 C 
HETATM   10  C18 UNL     1       0.622   7.269  10.822  1.00  0.00    -0.085 C 
HETATM   11  C19 UNL     1       0.979   5.870  10.380  1.00  0.00     0.043 C 
HETATM   12  C20 UNL     1       0.744   8.285   9.709  1.00  0.00     0.043 C 
HETATM   13  C21 UNL     1       0.039   6.596  13.229  1.00  0.00     0.023 C 
HETATM   14  C25 UNL     1      -1.165   6.982  14.225  1.00  0.00    -0.032 C 
HETATM   15  C26 UNL     1      -0.655   7.793  15.445  1.00  0.00     0.016 C 
HETATM   16  C27 UNL     1      -1.816   5.668  14.796  1.00  0.00     0.011 C 
HETATM   17  C28 UNL     1      -3.286   5.756  15.268  1.00  0.00     0.011 C 
HETATM   18  C29 UNL     1      -4.193   6.430  14.224  1.00  0.00    -0.032 C 
HETATM   19  C30 UNL     1      -4.202   5.512  12.963  1.00  0.00     0.016 C 
ENDROOT
BRANCH   1  20
HETATM   20  C7  UNL     1      -6.773   5.674  14.803  1.00  0.00    -0.014 C 
HETATM   21  C8  UNL     1      -8.223   6.139  14.633  1.00  0.00     0.010 C 
BRANCH  20  22
HETATM   22  C6  UNL     1      -6.470   4.420  13.944  1.00  0.00     0.008 C 
BRANCH  22  23
HETATM   23  C5  UNL     1      -7.688   3.543  13.606  1.00  0.00     0.028 C 
BRANCH  23  24
HETATM   24  C4  UNL     1      -7.342   2.285  12.859  1.00  0.00    -0.025 C 
HETATM   25  C2  UNL     1      -6.535   2.152  11.788  1.00  0.00    -0.091 C 
HETATM   26  C1  UNL     1      -6.271   0.794  11.192  1.00  0.00     0.042 C 
HETATM   27  C3  UNL     1      -5.825   3.282  11.096  1.00  0.00     0.042 C 
ENDBRANCH  23  24
ENDBRANCH  22  23
ENDBRANCH  20  22
ENDBRANCH   1  20
BRANCH  13  28
HETATM   28  C22 UNL     1       1.433   6.320  13.854  1.00  0.00     0.012 C 
BRANCH  28  29
HETATM   29  C23 UNL     1       2.395   7.514  13.827  1.00  0.00     0.027 C 
BRANCH  29  30
HETATM   30  C24 UNL     1       3.063   7.760  15.179  1.00  0.00     0.164 C 
BRANCH  30  31
HETATM   31  O1  UNL     1       3.369   6.534  15.829  1.00  0.00    -0.401 OA
HETATM   32  H42 UNL     1       4.141   6.149  15.381  1.00  0.00     0.209 HD
ENDBRANCH  30  31
ENDBRANCH  29  30
ENDBRANCH  28  29
ENDBRANCH  13  28
TORSDOF 8
ENDMDL
MODEL 2
REMARK minimizedAffinity -8.07907009
REMARK  8 active torsions:
REMARK  status: ('A' for Active; 'I' for Inactive)
REMARK    1  A    between atoms: C4_4  and  C5_5 
REMARK    2  A    between atoms: C5_5  and  C6_6 
REMARK    3  A    between atoms: C6_6  and  C7_7 
REMARK    4  A    between atoms: C7_7  and  C9_9 
REMARK    5  A    between atoms: C21_21  and  C22_22 
REMARK    6  A    between atoms: C22_22  and  C23_23 
REMARK    7  A    between atoms: C23_23  and  C24_24 
REMARK    8  A    between atoms: C24_24  and  O1_25 
ROOT
HETATM    1  C9  UNL     1      -5.773   6.485  14.618  1.00  0.00    -0.002 C 
HETATM    2  C10 UNL     1      -6.241   7.575  13.602  1.00  0.00     0.006 C 
HETATM    3  C11 UNL     1      -4.964   8.209  13.001  1.00  0.00     0.011 C 
HETATM    4  C12 UNL     1      -3.829   7.737  13.929  1.00  0.00    -0.032 C 
HETATM    5  C13 UNL     1      -3.903   8.680  15.178  1.00  0.00     0.016 C 
HETATM    6  C14 UNL     1      -2.407   7.727  13.304  1.00  0.00     0.003 C 
HETATM    7  C15 UNL     1      -1.917   9.087  12.757  1.00  0.00     0.010 C 
HETATM    8  C16 UNL     1      -0.437   9.074  12.358  1.00  0.00     0.035 C 
HETATM    9  C17 UNL     1       0.027   7.679  12.001  1.00  0.00    -0.073 C 
HETATM   10  C18 UNL     1       0.433   7.342  10.748  1.00  0.00    -0.085 C 
HETATM   11  C19 UNL     1       0.878   5.962  10.326  1.00  0.00     0.043 C 
HETATM   12  C20 UNL     1       0.478   8.345   9.618  1.00  0.00     0.043 C 
HETATM   13  C21 UNL     1      -0.084   6.674  13.172  1.00  0.00     0.023 C 
HETATM   14  C25 UNL     1      -1.302   6.997  14.173  1.00  0.00    -0.032 C 
HETATM   15  C26 UNL     1      -0.836   7.861  15.374  1.00  0.00     0.016 C 
HETATM   16  C27 UNL     1      -1.860   5.653  14.771  1.00  0.00     0.011 C 
HETATM   17  C28 UNL     1      -3.329   5.652  15.256  1.00  0.00     0.011 C 
HETATM   18  C29 UNL     1      -4.287   6.246  14.210  1.00  0.00    -0.032 C 
HETATM   19  C30 UNL     1      -4.246   5.309  12.965  1.00  0.00     0.016 C 
ENDROOT
BRANCH   1  20
HETATM   20  C7  UNL     1      -6.806   5.333  14.826  1.00  0.00    -0.014 C 
HETATM   21  C8  UNL     1      -7.827   5.521  15.953  1.00  0.00     0.010 C 
BRANCH  20  22
HETATM   22  C6  UNL     1      -7.492   4.951  13.490  1.00  0.00     0.008 C 
BRANCH  22  23
HETATM   23  C5  UNL     1      -8.502   5.980  12.951  1.00  0.00     0.028 C 
BRANCH  23  24
HETATM   24  C4  UNL     1      -9.714   6.156  13.824  1.00  0.00    -0.025 C 
HETATM   25  C2  UNL     1     -10.848   6.829  13.543  1.00  0.00    -0.091 C 
HETATM   26  C1  UNL     1     -11.983   6.864  14.532  1.00  0.00     0.042 C 
HETATM   27  C3  UNL     1     -11.112   7.579  12.268  1.00  0.00     0.042 C 
ENDBRANCH  23  24
ENDBRANCH  22  23
ENDBRANCH  20  22
ENDBRANCH   1  20
BRANCH  13  28
HETATM   28  C22 UNL     1       1.331   6.501  13.787  1.00  0.00     0.012 C 
BRANCH  28  29
HETATM   29  C23 UNL     1       2.096   7.810  14.013  1.00  0.00     0.027 C 
BRANCH  29  30
HETATM   30  C24 UNL     1       3.300   7.635  14.938  1.00  0.00     0.164 C 
BRANCH  30  31
HETATM   31  O1  UNL     1       3.083   6.581  15.865  1.00  0.00    -0.401 OA
HETATM   32  H42 UNL     1       3.177   5.742  15.384  1.00  0.00     0.209 HD
ENDBRANCH  30  31
ENDBRANCH  29  30
ENDBRANCH  28  29
ENDBRANCH  13  28
TORSDOF 8
ENDMDL
MODEL 3
REMARK minimizedAffinity -7.62936211
REMARK  8 active torsions:
REMARK  status: ('A' for Active; 'I' for Inactive)
REMARK    1  A    between atoms: C4_4  and  C5_5 
REMARK    2  A    between atoms: C5_5  and  C6_6 
REMARK    3  A    between atoms: C6_6  and  C7_7 
REMARK    4  A    between atoms: C7_7  and  C9_9 
REMARK    5  A    between atoms: C21_21  and  C22_22 
REMARK    6  A    between atoms: C22_22  and  C23_23 
REMARK    7  A    between atoms: C23_23  and  C24_24 
REMARK    8  A    between atoms: C24_24  and  O1_25 
ROOT
HETATM    1  C9  UNL     1      -0.102   7.366  13.299  1.00  0.00    -0.002 C 
HETATM    2  C10 UNL     1       0.150   5.995  14.005  1.00  0.00     0.006 C 
HETATM    3  C11 UNL     1      -1.187   5.569  14.656  1.00  0.00     0.011 C 
HETATM    4  C12 UNL     1      -2.052   6.844  14.622  1.00  0.00    -0.032 C 
HETATM    5  C13 UNL     1      -1.554   7.708  15.830  1.00  0.00     0.016 C 
HETATM    6  C14 UNL     1      -3.588   6.618  14.676  1.00  0.00     0.003 C 
HETATM    7  C15 UNL     1      -4.098   5.839  15.910  1.00  0.00     0.010 C 
HETATM    8  C16 UNL     1      -5.626   5.837  16.027  1.00  0.00     0.035 C 
HETATM    9  C17 UNL     1      -6.284   6.024  14.679  1.00  0.00    -0.073 C 
HETATM   10  C18 UNL     1      -7.051   5.063  14.099  1.00  0.00    -0.085 C 
HETATM   11  C19 UNL     1      -7.708   5.180  12.745  1.00  0.00     0.043 C 
HETATM   12  C20 UNL     1      -7.328   3.738  14.773  1.00  0.00     0.043 C 
HETATM   13  C21 UNL     1      -5.934   7.371  14.003  1.00  0.00     0.023 C 
HETATM   14  C25 UNL     1      -4.462   7.904  14.376  1.00  0.00    -0.032 C 
HETATM   15  C26 UNL     1      -4.500   8.880  15.581  1.00  0.00     0.016 C 
HETATM   16  C27 UNL     1      -3.871   8.710  13.160  1.00  0.00     0.011 C 
HETATM   17  C28 UNL     1      -2.330   8.798  13.052  1.00  0.00     0.011 C 
HETATM   18  C29 UNL     1      -1.658   7.423  13.201  1.00  0.00    -0.032 C 
HETATM   19  C30 UNL     1      -2.122   6.551  11.994  1.00  0.00     0.016 C 
ENDROOT
BRANCH   1  20
HETATM   20  C7  UNL     1       0.849   7.637  12.091  1.00  0.00    -0.014 C 
HETATM   21  C8  UNL     1       2.247   7.014  12.165  1.00  0.00     0.010 C 
BRANCH  20  22
HETATM   22  C6  UNL     1       0.149   7.315  10.747  1.00  0.00     0.008 C 
BRANCH  22  23
HETATM   23  C5  UNL     1       0.150   8.456   9.714  1.00  0.00     0.028 C 
BRANCH  23  24
HETATM   24  C4  UNL     1       0.478   8.010   8.316  1.00  0.00    -0.025 C 
HETATM   25  C2  UNL     1       1.695   7.786   7.782  1.00  0.00    -0.091 C 
HETATM   26  C1  UNL     1       1.830   7.298   6.363  1.00  0.00     0.042 C 
HETATM   27  C3  UNL     1       3.001   7.973   8.500  1.00  0.00     0.042 C 
ENDBRANCH  23  24
ENDBRANCH  22  23
ENDBRANCH  20  22
ENDBRANCH   1  20
BRANCH  13  28
HETATM   28  C22 UNL     1      -7.129   8.338  14.218  1.00  0.00     0.012 C 
BRANCH  28  29
HETATM   29  C23 UNL     1      -8.120   7.901  15.303  1.00  0.00     0.027 C 
BRANCH  29  30
HETATM   30  C24 UNL     1      -9.548   7.774  14.777  1.00  0.00     0.164 C 
BRANCH  30  31
HETATM   31  O1  UNL     1     -10.221   6.681  15.387  1.00  0.00    -0.401 OA
HETATM   32  H42 UNL     1     -10.450   6.945  16.294  1.00  0.00     0.209 HD
ENDBRANCH  30  31
ENDBRANCH  29  30
ENDBRANCH  28  29
ENDBRANCH  13  28
TORSDOF 8
ENDMDL
MODEL 4
REMARK minimizedAffinity -7.59827805
REMARK  8 active torsions:
REMARK  status: ('A' for Active; 'I' for Inactive)
REMARK    1  A    between atoms: C4_4  and  C5_5 
REMARK    2  A    between atoms: C5_5  and  C6_6 
REMARK    3  A    between atoms: C6_6  and  C7_7 
REMARK    4  A    between atoms: C7_7  and  C9_9 
REMARK    5  A    between atoms: C21_21  and  C22_22 
REMARK    6  A    between atoms: C22_22  and  C23_23 
REMARK    7  A    between atoms: C23_23  and  C24_24 
REMARK    8  A    between atoms: C24_24  and  O1_25 
ROOT
HETATM    1  C9  UNL     1      -1.876   7.734  13.920  1.00  0.00    -0.002 C 
HETATM    2  C10 UNL     1      -1.196   6.640  14.805  1.00  0.00     0.006 C 
HETATM    3  C11 UNL     1       0.022   6.110  14.012  1.00  0.00     0.011 C 
HETATM    4  C12 UNL     1      -0.196   6.635  12.580  1.00  0.00    -0.032 C 
HETATM    5  C13 UNL     1      -1.241   5.658  11.940  1.00  0.00     0.016 C 
HETATM    6  C14 UNL     1       1.082   6.758  11.705  1.00  0.00     0.003 C 
HETATM    7  C15 UNL     1       1.882   5.448  11.518  1.00  0.00     0.010 C 
HETATM    8  C16 UNL     1       2.998   5.573  10.475  1.00  0.00     0.035 C 
HETATM    9  C17 UNL     1       3.465   7.004  10.332  1.00  0.00    -0.073 C 
HETATM   10  C18 UNL     1       4.722   7.400  10.665  1.00  0.00    -0.085 C 
HETATM   11  C19 UNL     1       5.235   8.817  10.572  1.00  0.00     0.043 C 
HETATM   12  C20 UNL     1       5.763   6.432  11.179  1.00  0.00     0.043 C 
HETATM   13  C21 UNL     1       2.355   7.970   9.852  1.00  0.00     0.023 C 
HETATM   14  C25 UNL     1       0.884   7.539  10.342  1.00  0.00    -0.032 C 
HETATM   15  C26 UNL     1       0.159   6.679   9.273  1.00  0.00     0.016 C 
HETATM   16  C27 UNL     1       0.005   8.827  10.559  1.00  0.00     0.011 C 
HETATM   17  C28 UNL     1      -1.179   8.715  11.548  1.00  0.00     0.011 C 
HETATM   18  C29 UNL     1      -0.761   8.083  12.886  1.00  0.00    -0.032 C 
HETATM   19  C30 UNL     1       0.263   9.052  13.552  1.00  0.00     0.016 C 
ENDROOT
BRANCH   1  20
HETATM   20  C7  UNL     1      -2.661   8.807  14.737  1.00  0.00    -0.014 C 
HETATM   21  C8  UNL     1      -2.128  10.242  14.677  1.00  0.00     0.010 C 
BRANCH  20  22
HETATM   22  C6  UNL     1      -4.178   8.746  14.424  1.00  0.00     0.008 C 
BRANCH  22  23
HETATM   23  C5  UNL     1      -4.572   7.828  13.253  1.00  0.00     0.028 C 
BRANCH  23  24
HETATM   24  C4  UNL     1      -5.692   6.879  13.577  1.00  0.00    -0.025 C 
HETATM   25  C2  UNL     1      -5.707   5.538  13.440  1.00  0.00    -0.091 C 
HETATM   26  C1  UNL     1      -6.915   4.740  13.857  1.00  0.00     0.042 C 
HETATM   27  C3  UNL     1      -4.576   4.712  12.896  1.00  0.00     0.042 C 
ENDBRANCH  23  24
ENDBRANCH  22  23
ENDBRANCH  20  22
ENDBRANCH   1  20
BRANCH  13  28
HETATM   28  C22 UNL     1       2.567   8.223   8.335  1.00  0.00     0.012 C 
BRANCH  28  29
HETATM   29  C23 UNL     1       1.560   7.515   7.421  1.00  0.00     0.027 C 
BRANCH  29  30
HETATM   30  C24 UNL     1       2.229   6.535   6.458  1.00  0.00     0.164 C 
BRANCH  30  31
HETATM   31  O1  UNL     1       2.711   5.390   7.147  1.00  0.00    -0.401 OA
HETATM   32  H42 UNL     1       1.944   4.836   7.370  1.00  0.00     0.209 HD
ENDBRANCH  30  31
ENDBRANCH  29  30
ENDBRANCH  28  29
ENDBRANCH  13  28
TORSDOF 8
ENDMDL
MODEL 5
REMARK minimizedAffinity -7.30824041
REMARK  8 active torsions:
REMARK  status: ('A' for Active; 'I' for Inactive)
REMARK    1  A    between atoms: C4_4  and  C5_5 
REMARK    2  A    between atoms: C5_5  and  C6_6 
REMARK    3  A    between atoms: C6_6  and  C7_7 
REMARK    4  A    between atoms: C7_7  and  C9_9 
REMARK    5  A    between atoms: C21_21  and  C22_22 
REMARK    6  A    between atoms: C22_22  and  C23_23 
REMARK    7  A    between atoms: C23_23  and  C24_24 
REMARK    8  A    between atoms: C24_24  and  O1_25 
ROOT
HETATM    1  C9  UNL     1      -0.810   6.692  13.615  1.00  0.00    -0.002 C 
HETATM    2  C10 UNL     1      -0.644   5.146  13.460  1.00  0.00     0.006 C 
HETATM    3  C11 UNL     1       0.598   4.912  12.568  1.00  0.00     0.011 C 
HETATM    4  C12 UNL     1       0.890   6.292  11.949  1.00  0.00    -0.032 C 
HETATM    5  C13 UNL     1      -0.129   6.435  10.768  1.00  0.00     0.016 C 
HETATM    6  C14 UNL     1       2.352   6.522  11.475  1.00  0.00     0.003 C 
HETATM    7  C15 UNL     1       2.871   5.511  10.426  1.00  0.00     0.010 C 
HETATM    8  C16 UNL     1       4.226   5.910   9.831  1.00  0.00     0.035 C 
HETATM    9  C17 UNL     1       5.011   6.788  10.780  1.00  0.00    -0.073 C 
HETATM   10  C18 UNL     1       6.187   6.395  11.336  1.00  0.00    -0.085 C 
HETATM   11  C19 UNL     1       6.998   7.214  12.311  1.00  0.00     0.043 C 
HETATM   12  C20 UNL     1       6.818   5.056  11.027  1.00  0.00     0.043 C 
HETATM   13  C21 UNL     1       4.305   8.125  11.108  1.00  0.00     0.023 C 
HETATM   14  C25 UNL     1       2.700   8.018  11.089  1.00  0.00    -0.032 C 
HETATM   15  C26 UNL     1       2.121   8.416   9.706  1.00  0.00     0.016 C 
HETATM   16  C27 UNL     1       2.094   9.021  12.139  1.00  0.00     0.011 C 
HETATM   17  C28 UNL     1       0.692   8.690  12.704  1.00  0.00     0.011 C 
HETATM   18  C29 UNL     1       0.589   7.234  13.188  1.00  0.00    -0.032 C 
HETATM   19  C30 UNL     1       1.581   7.074  14.381  1.00  0.00     0.016 C 
ENDROOT
BRANCH   1  20
HETATM   20  C7  UNL     1      -1.536   7.120  14.929  1.00  0.00    -0.014 C 
HETATM   21  C8  UNL     1      -1.522   8.615  15.266  1.00  0.00     0.010 C 
BRANCH  20  22
HETATM   22  C6  UNL     1      -2.969   6.532  14.991  1.00  0.00     0.008 C 
BRANCH  22  23
HETATM   23  C5  UNL     1      -3.762   6.593  13.673  1.00  0.00     0.028 C 
BRANCH  23  24
HETATM   24  C4  UNL     1      -4.798   5.512  13.538  1.00  0.00    -0.025 C 
HETATM   25  C2  UNL     1      -4.782   4.447  12.712  1.00  0.00    -0.091 C 
HETATM   26  C1  UNL     1      -5.898   3.436  12.744  1.00  0.00     0.042 C 
HETATM   27  C3  UNL     1      -3.699   4.144  11.714  1.00  0.00     0.042 C 
ENDBRANCH  23  24
ENDBRANCH  22  23
ENDBRANCH  20  22
ENDBRANCH   1  20
BRANCH  13  28
HETATM   28  C22 UNL     1       4.966   9.236  10.249  1.00  0.00     0.012 C 
BRANCH  28  29
HETATM   29  C23 UNL     1       6.396   9.601  10.662  1.00  0.00     0.027 C 
BRANCH  29  30
HETATM   30  C24 UNL     1       6.466  10.908  11.449  1.00  0.00     0.164 C 
BRANCH  30  31
HETATM   31  O1  UNL     1       5.165  11.378  11.775  1.00  0.00    -0.401 OA
HETATM   32  H42 UNL     1       4.823  10.822  12.495  1.00  0.00     0.209 HD
ENDBRANCH  30  31
ENDBRANCH  29  30
ENDBRANCH  28  29
ENDBRANCH  13  28
TORSDOF 8
ENDMDL
MODEL 6
REMARK minimizedAffinity -7.2826767
REMARK  8 active torsions:
REMARK  status: ('A' for Active; 'I' for Inactive)
REMARK    1  A    between atoms: C4_4  and  C5_5 
REMARK    2  A    between atoms: C5_5  and  C6_6 
REMARK    3  A    between atoms: C6_6  and  C7_7 
REMARK    4  A    between atoms: C7_7  and  C9_9 
REMARK    5  A    between atoms: C21_21  and  C22_22 
REMARK    6  A    between atoms: C22_22  and  C23_23 
REMARK    7  A    between atoms: C23_23  and  C24_24 
REMARK    8  A    between atoms: C24_24  and  O1_25 
ROOT
HETATM    1  C9  UNL     1       1.282   7.228  11.018  1.00  0.00    -0.002 C 
HETATM    2  C10 UNL     1       0.592   5.890  10.601  1.00  0.00     0.006 C 
HETATM    3  C11 UNL     1      -0.485   5.584  11.669  1.00  0.00     0.011 C 
HETATM    4  C12 UNL     1      -0.148   6.534  12.834  1.00  0.00    -0.032 C 
HETATM    5  C13 UNL     1       1.034   5.842  13.597  1.00  0.00     0.016 C 
HETATM    6  C14 UNL     1      -1.324   6.873  13.790  1.00  0.00     0.003 C 
HETATM    7  C15 UNL     1      -1.996   5.656  14.466  1.00  0.00     0.010 C 
HETATM    8  C16 UNL     1      -2.994   6.053  15.559  1.00  0.00     0.035 C 
HETATM    9  C17 UNL     1      -3.550   7.440  15.323  1.00  0.00    -0.073 C 
HETATM   10  C18 UNL     1      -4.863   7.666  15.054  1.00  0.00    -0.085 C 
HETATM   11  C19 UNL     1      -5.468   9.022  14.781  1.00  0.00     0.043 C 
HETATM   12  C20 UNL     1      -5.878   6.547  14.996  1.00  0.00     0.043 C 
HETATM   13  C21 UNL     1      -2.470   8.548  15.341  1.00  0.00     0.023 C 
HETATM   14  C25 UNL     1      -1.034   8.044  14.816  1.00  0.00    -0.032 C 
HETATM   15  C26 UNL     1      -0.130   7.583  15.990  1.00  0.00     0.016 C 
HETATM   16  C27 UNL     1      -0.286   9.234  14.108  1.00  0.00     0.011 C 
HETATM   17  C28 UNL     1       0.784   8.867  13.053  1.00  0.00     0.011 C 
HETATM   18  C29 UNL     1       0.268   7.837  12.035  1.00  0.00    -0.032 C 
HETATM   19  C30 UNL     1      -0.896   8.514  11.247  1.00  0.00     0.016 C 
ENDROOT
BRANCH   1  20
HETATM   20  C7  UNL     1       1.886   8.026   9.820  1.00  0.00    -0.014 C 
HETATM   21  C8  UNL     1       3.410   8.189   9.802  1.00  0.00     0.010 C 
BRANCH  20  22
HETATM   22  C6  UNL     1       1.353   7.490   8.467  1.00  0.00     0.008 C 
BRANCH  22  23
HETATM   23  C5  UNL     1       2.364   6.683   7.634  1.00  0.00     0.028 C 
BRANCH  23  24
HETATM   24  C4  UNL     1       3.046   5.586   8.403  1.00  0.00    -0.025 C 
HETATM   25  C2  UNL     1       3.582   4.446   7.922  1.00  0.00    -0.091 C 
HETATM   26  C1  UNL     1       4.268   3.473   8.845  1.00  0.00     0.042 C 
HETATM   27  C3  UNL     1       3.574   4.031   6.478  1.00  0.00     0.042 C 
ENDBRANCH  23  24
ENDBRANCH  22  23
ENDBRANCH  20  22
ENDBRANCH   1  20
BRANCH  13  28
HETATM   28  C22 UNL     1      -2.528   9.249  16.725  1.00  0.00     0.012 C 
BRANCH  28  29
HETATM   29  C23 UNL     1      -2.524  10.781  16.668  1.00  0.00     0.027 C 
BRANCH  29  30
HETATM   30  C24 UNL     1      -2.870  11.318  15.280  1.00  0.00     0.164 C 
BRANCH  30  31
HETATM   31  O1  UNL     1      -2.244  12.572  15.047  1.00  0.00    -0.401 OA
HETATM   32  H42 UNL     1      -1.301  12.404  14.880  1.00  0.00     0.209 HD
ENDBRANCH  30  31
ENDBRANCH  29  30
ENDBRANCH  28  29
ENDBRANCH  13  28
TORSDOF 8
ENDMDL
MODEL 7
REMARK minimizedAffinity -7.2574048
REMARK  8 active torsions:
REMARK  status: ('A' for Active; 'I' for Inactive)
REMARK    1  A    between atoms: C4_4  and  C5_5 
REMARK    2  A    between atoms: C5_5  and  C6_6 
REMARK    3  A    between atoms: C6_6  and  C7_7 
REMARK    4  A    between atoms: C7_7  and  C9_9 
REMARK    5  A    between atoms: C21_21  and  C22_22 
REMARK    6  A    between atoms: C22_22  and  C23_23 
REMARK    7  A    between atoms: C23_23  and  C24_24 
REMARK    8  A    between atoms: C24_24  and  O1_25 
ROOT
HETATM    1  C9  UNL     1      -5.952   7.355  15.030  1.00  0.00    -0.002 C 
HETATM    2  C10 UNL     1      -5.327   8.506  15.883  1.00  0.00     0.006 C 
HETATM    3  C11 UNL     1      -3.803   8.491  15.615  1.00  0.00     0.011 C 
HETATM    4  C12 UNL     1      -3.550   7.138  14.921  1.00  0.00    -0.032 C 
HETATM    5  C13 UNL     1      -3.520   6.084  16.079  1.00  0.00     0.016 C 
HETATM    6  C14 UNL     1      -2.271   7.060  14.043  1.00  0.00     0.003 C 
HETATM    7  C15 UNL     1      -0.947   7.371  14.777  1.00  0.00     0.010 C 
HETATM    8  C16 UNL     1       0.293   7.065  13.930  1.00  0.00     0.035 C 
HETATM    9  C17 UNL     1      -0.016   7.134  12.451  1.00  0.00    -0.073 C 
HETATM   10  C18 UNL     1       0.543   8.061  11.629  1.00  0.00    -0.085 C 
HETATM   11  C19 UNL     1       0.250   8.198  10.155  1.00  0.00     0.043 C 
HETATM   12  C20 UNL     1       1.541   9.082  12.127  1.00  0.00     0.043 C 
HETATM   13  C21 UNL     1      -1.080   6.107  11.995  1.00  0.00     0.023 C 
HETATM   14  C25 UNL     1      -2.164   5.767  13.134  1.00  0.00    -0.032 C 
HETATM   15  C26 UNL     1      -1.758   4.511  13.949  1.00  0.00     0.016 C 
HETATM   16  C27 UNL     1      -3.549   5.442  12.461  1.00  0.00     0.011 C 
HETATM   17  C28 UNL     1      -4.820   5.666  13.315  1.00  0.00     0.011 C 
HETATM   18  C29 UNL     1      -4.829   7.047  13.991  1.00  0.00    -0.032 C 
HETATM   19  C30 UNL     1      -4.883   8.114  12.855  1.00  0.00     0.016 C 
ENDROOT
BRANCH   1  20
HETATM   20  C7  UNL     1      -7.444   7.597  14.641  1.00  0.00    -0.014 C 
HETATM   21  C8  UNL     1      -8.414   6.436  14.884  1.00  0.00     0.010 C 
BRANCH  20  22
HETATM   22  C6  UNL     1      -7.971   8.920  15.253  1.00  0.00     0.008 C 
BRANCH  22  23
HETATM   23  C5  UNL     1      -9.445   8.899  15.697  1.00  0.00     0.028 C 
BRANCH  23  24
HETATM   24  C4  UNL     1     -10.387   9.521  14.704  1.00  0.00    -0.025 C 
HETATM   25  C2  UNL     1     -11.357   8.915  13.991  1.00  0.00    -0.091 C 
HETATM   26  C1  UNL     1     -12.238   9.713  13.066  1.00  0.00     0.042 C 
HETATM   27  C3  UNL     1     -11.673   7.447  14.035  1.00  0.00     0.042 C 
ENDBRANCH  23  24
ENDBRANCH  22  23
ENDBRANCH  20  22
ENDBRANCH   1  20
BRANCH  13  28
HETATM   28  C22 UNL     1      -0.339   4.918  11.326  1.00  0.00     0.012 C 
BRANCH  28  29
HETATM   29  C23 UNL     1      -0.405   3.600  12.106  1.00  0.00     0.027 C 
BRANCH  29  30
HETATM   30  C24 UNL     1      -0.970   2.451  11.272  1.00  0.00     0.164 C 
BRANCH  30  31
HETATM   31  O1  UNL     1       0.061   1.567  10.856  1.00  0.00    -0.401 OA
HETATM   32  H42 UNL     1       0.325   1.038  11.628  1.00  0.00     0.209 HD
ENDBRANCH  30  31
ENDBRANCH  29  30
ENDBRANCH  28  29
ENDBRANCH  13  28
TORSDOF 8
ENDMDL
MODEL 8
REMARK minimizedAffinity -7.17433405
REMARK  8 active torsions:
REMARK  status: ('A' for Active; 'I' for Inactive)
REMARK    1  A    between atoms: C4_4  and  C5_5 
REMARK    2  A    between atoms: C5_5  and  C6_6 
REMARK    3  A    between atoms: C6_6  and  C7_7 
REMARK    4  A    between atoms: C7_7  and  C9_9 
REMARK    5  A    between atoms: C21_21  and  C22_22 
REMARK    6  A    between atoms: C22_22  and  C23_23 
REMARK    7  A    between atoms: C23_23  and  C24_24 
REMARK    8  A    between atoms: C24_24  and  O1_25 
ROOT
HETATM    1  C9  UNL     1      -2.223   6.977  13.969  1.00  0.00    -0.002 C 
HETATM    2  C10 UNL     1      -3.020   7.591  12.774  1.00  0.00     0.006 C 
HETATM    3  C11 UNL     1      -1.992   7.920  11.666  1.00  0.00     0.011 C 
HETATM    4  C12 UNL     1      -0.626   7.829  12.373  1.00  0.00    -0.032 C 
HETATM    5  C13 UNL     1      -0.472   9.186  13.141  1.00  0.00     0.016 C 
HETATM    6  C14 UNL     1       0.593   7.552  11.451  1.00  0.00     0.003 C 
HETATM    7  C15 UNL     1       0.812   8.583  10.319  1.00  0.00     0.010 C 
HETATM    8  C16 UNL     1       2.142   8.391   9.584  1.00  0.00     0.035 C 
HETATM    9  C17 UNL     1       2.624   6.960   9.677  1.00  0.00    -0.073 C 
HETATM   10  C18 UNL     1       2.737   6.154   8.588  1.00  0.00    -0.085 C 
HETATM   11  C19 UNL     1       3.183   4.712   8.623  1.00  0.00     0.043 C 
HETATM   12  C20 UNL     1       2.414   6.635   7.192  1.00  0.00     0.043 C 
HETATM   13  C21 UNL     1       2.895   6.494  11.127  1.00  0.00     0.023 C 
HETATM   14  C25 UNL     1       1.938   7.202  12.210  1.00  0.00    -0.032 C 
HETATM   15  C26 UNL     1       2.608   8.459  12.825  1.00  0.00     0.016 C 
HETATM   16  C27 UNL     1       1.665   6.207  13.399  1.00  0.00     0.011 C 
HETATM   17  C28 UNL     1       0.367   6.420  14.214  1.00  0.00     0.011 C 
HETATM   18  C29 UNL     1      -0.868   6.574  13.310  1.00  0.00    -0.032 C 
HETATM   19  C30 UNL     1      -1.054   5.224  12.551  1.00  0.00     0.016 C 
ENDROOT
BRANCH   1  20
HETATM   20  C7  UNL     1      -3.067   6.014  14.862  1.00  0.00    -0.014 C 
HETATM   21  C8  UNL     1      -4.204   6.648  15.671  1.00  0.00     0.010 C 
BRANCH  20  22
HETATM   22  C6  UNL     1      -3.557   4.787  14.052  1.00  0.00     0.008 C 
BRANCH  22  23
HETATM   23  C5  UNL     1      -4.823   5.018  13.209  1.00  0.00     0.028 C 
BRANCH  23  24
HETATM   24  C4  UNL     1      -5.643   3.776  12.993  1.00  0.00    -0.025 C 
HETATM   25  C2  UNL     1      -6.986   3.660  12.995  1.00  0.00    -0.091 C 
HETATM   26  C1  UNL     1      -7.639   2.331  12.718  1.00  0.00     0.042 C 
HETATM   27  C3  UNL     1      -7.950   4.784  13.248  1.00  0.00     0.042 C 
ENDBRANCH  23  24
ENDBRANCH  22  23
ENDBRANCH  20  22
ENDBRANCH   1  20
BRANCH  13  28
HETATM   28  C22 UNL     1       4.427   6.553  11.369  1.00  0.00     0.012 C 
BRANCH  28  29
HETATM   29  C23 UNL     1       5.169   7.602  10.534  1.00  0.00     0.027 C 
BRANCH  29  30
HETATM   30  C24 UNL     1       6.648   7.708  10.901  1.00  0.00     0.164 C 
BRANCH  30  31
HETATM   31  O1  UNL     1       6.934   6.976  12.085  1.00  0.00    -0.401 OA
HETATM   32  H42 UNL     1       6.934   6.032  11.854  1.00  0.00     0.209 HD
ENDBRANCH  30  31
ENDBRANCH  29  30
ENDBRANCH  28  29
ENDBRANCH  13  28
TORSDOF 8
ENDMDL
MODEL 9
REMARK minimizedAffinity -7.16523838
REMARK  8 active torsions:
REMARK  status: ('A' for Active; 'I' for Inactive)
REMARK    1  A    between atoms: C4_4  and  C5_5 
REMARK    2  A    between atoms: C5_5  and  C6_6 
REMARK    3  A    between atoms: C6_6  and  C7_7 
REMARK    4  A    between atoms: C7_7  and  C9_9 
REMARK    5  A    between atoms: C21_21  and  C22_22 
REMARK    6  A    between atoms: C22_22  and  C23_23 
REMARK    7  A    between atoms: C23_23  and  C24_24 
REMARK    8  A    between atoms: C24_24  and  O1_25 
ROOT
HETATM    1  C9  UNL     1      -5.962   7.450  15.202  1.00  0.00    -0.002 C 
HETATM    2  C10 UNL     1      -5.267   8.649  15.926  1.00  0.00     0.006 C 
HETATM    3  C11 UNL     1      -3.763   8.582  15.569  1.00  0.00     0.011 C 
HETATM    4  C12 UNL     1      -3.575   7.176  14.967  1.00  0.00    -0.032 C 
HETATM    5  C13 UNL     1      -3.491   6.211  16.198  1.00  0.00     0.016 C 
HETATM    6  C14 UNL     1      -2.354   7.005  14.021  1.00  0.00     0.003 C 
HETATM    7  C15 UNL     1      -0.982   7.342  14.649  1.00  0.00     0.010 C 
HETATM    8  C16 UNL     1       0.198   6.948  13.754  1.00  0.00     0.035 C 
HETATM    9  C17 UNL     1      -0.201   6.912  12.296  1.00  0.00    -0.073 C 
HETATM   10  C18 UNL     1       0.322   7.763  11.373  1.00  0.00    -0.085 C 
HETATM   11  C19 UNL     1      -0.059   7.794   9.913  1.00  0.00     0.043 C 
HETATM   12  C20 UNL     1       1.365   8.797  11.731  1.00  0.00     0.043 C 
HETATM   13  C21 UNL     1      -1.307   5.876  11.984  1.00  0.00     0.023 C 
HETATM   14  C25 UNL     1      -2.325   5.646  13.209  1.00  0.00    -0.032 C 
HETATM   15  C26 UNL     1      -1.889   4.446  14.092  1.00  0.00     0.016 C 
HETATM   16  C27 UNL     1      -3.753   5.299  12.648  1.00  0.00     0.011 C 
HETATM   17  C28 UNL     1      -4.965   5.613  13.557  1.00  0.00     0.011 C 
HETATM   18  C29 UNL     1      -4.911   7.042  14.124  1.00  0.00    -0.032 C 
HETATM   19  C30 UNL     1      -5.017   8.021  12.915  1.00  0.00     0.016 C 
ENDROOT
BRANCH   1  20
HETATM   20  C7  UNL     1      -7.471   7.694  14.887  1.00  0.00    -0.014 C 
HETATM   21  C8  UNL     1      -8.002   9.111  15.125  1.00  0.00     0.010 C 
BRANCH  20  22
HETATM   22  C6  UNL     1      -7.836   7.175  13.473  1.00  0.00     0.008 C 
BRANCH  22  23
HETATM   23  C5  UNL     1      -8.934   6.099  13.430  1.00  0.00     0.028 C 
BRANCH  23  24
HETATM   24  C4  UNL     1      -8.474   4.783  12.865  1.00  0.00    -0.025 C 
HETATM   25  C2  UNL     1      -7.859   3.773  13.512  1.00  0.00    -0.091 C 
HETATM   26  C1  UNL     1      -7.504   2.503  12.786  1.00  0.00     0.042 C 
HETATM   27  C3  UNL     1      -7.482   3.782  14.967  1.00  0.00     0.042 C 
ENDBRANCH  23  24
ENDBRANCH  22  23
ENDBRANCH  20  22
ENDBRANCH   1  20
BRANCH  13  28
HETATM   28  C22 UNL     1      -0.628   4.625  11.364  1.00  0.00     0.012 C 
BRANCH  28  29
HETATM   29  C23 UNL     1      -1.598   3.597  10.770  1.00  0.00     0.027 C 
BRANCH  29  30
HETATM   30  C24 UNL     1      -1.170   2.157  11.046  1.00  0.00     0.164 C 
BRANCH  30  31
HETATM   31  O1  UNL     1       0.246   2.038  11.057  1.00  0.00    -0.401 OA
HETATM   32  H42 UNL     1       0.567   2.421  11.891  1.00  0.00     0.209 HD
ENDBRANCH  30  31
ENDBRANCH  29  30
ENDBRANCH  28  29
ENDBRANCH  13  28
TORSDOF 8
ENDMDL
