MODEL 1
REMARK minimizedAffinity -7.93469572
REMARK CNNscore 0.345906436
REMARK CNNaffinity 5.70355606
REMARK  5 active torsions:
REMARK  status: ('A' for Active; 'I' for Inactive)
REMARK    1  A    between atoms: C2_2  and  C3_3 
REMARK    2  A    between atoms: C6_6  and  C7_7 
REMARK    3  A    between atoms: C7_7  and  O1_9 
REMARK    4  A    between atoms: C23_29  and  O6_30 
REMARK    5  A    between atoms: C28_36  and  O8_37 
ROOT
HETATM    1  C3  UNL     1       5.656  13.197  22.356  1.00  0.00     0.008 C 
HETATM    2  C4  UNL     1       4.445  12.699  23.124  1.00  0.00    -0.023 C 
HETATM    3  C5  UNL     1       3.314  12.073  22.741  1.00  0.00     0.004 C 
HETATM    4  C6  UNL     1       2.709  11.606  21.426  1.00  0.00     0.183 C 
HETATM    5  O2  UNL     1       3.408  12.060  20.255  1.00  0.00    -0.306 OA
HETATM    6  C9  UNL     1       2.634  12.163  19.131  1.00  0.00     0.289 C 
HETATM    7  O3  UNL     1       1.420  12.037  19.064  1.00  0.00    -0.260 OA
HETATM    8  C10 UNL     1       3.508  12.446  17.966  1.00  0.00     0.010 C 
HETATM    9  C11 UNL     1       3.516  13.858  17.493  1.00  0.00     0.054 C 
HETATM   10  C12 UNL     1       4.279  11.415  17.565  1.00  0.00     0.004 C 
HETATM   11  C13 UNL     1       5.622  11.529  16.866  1.00  0.00     0.147 C 
HETATM   12  C14 UNL     1       6.005  10.278  16.057  1.00  0.00     0.233 C 
HETATM   13  O4  UNL     1       5.347   9.755  15.175  1.00  0.00    -0.272 OA
HETATM   14  N1  UNL     1       7.258   9.839  16.469  1.00  0.00    -0.327 N 
HETATM   15  C15 UNL     1       7.775  10.570  17.488  1.00  0.00     0.056 C 
HETATM   16  C16 UNL     1       8.939  10.423  18.130  1.00  0.00     0.084 C 
HETATM   17  C17 UNL     1       9.199  11.370  19.268  1.00  0.00     0.185 C 
HETATM   18  O5  UNL     1      10.045  11.104  20.107  1.00  0.00    -0.287 OA
HETATM   19  C18 UNL     1       8.459  12.680  19.262  1.00  0.00     0.040 C 
HETATM   20  C19 UNL     1       7.438  12.855  18.316  1.00  0.00    -0.001 C 
HETATM   21  C20 UNL     1       7.029  14.148  17.981  1.00  0.00     0.021 C 
HETATM   22  C21 UNL     1       7.534  15.251  18.685  1.00  0.00    -0.027 C 
HETATM   23  C22 UNL     1       7.067  16.637  18.344  1.00  0.00     0.051 C 
HETATM   24  C23 UNL     1       8.327  15.015  19.816  1.00  0.00     0.086 C 
HETATM   25  C24 UNL     1       8.706  13.709  20.153  1.00  0.00     0.058 C 
HETATM   26  C25 UNL     1       8.930  13.415  21.590  1.00  0.00     0.163 C 
HETATM   27  O7  UNL     1       9.631  14.193  22.239  1.00  0.00    -0.292 OA
HETATM   28  C26 UNL     1       8.115  12.294  22.236  1.00  0.00     0.084 C 
HETATM   29  C27 UNL     1       6.963  12.791  23.124  1.00  0.00     0.016 C 
HETATM   30  C28 UNL     1       6.757  11.573  17.931  1.00  0.00     0.143 C 
HETATM   31  H20 UNL     1       7.702   9.043  16.028  1.00  0.00     0.168 HD
ENDROOT
BRANCH   4  32
HETATM   32  C7  UNL     1       2.575  10.050  21.413  1.00  0.00     0.147 C 
HETATM   33  C8  UNL     1       3.606   9.344  22.288  1.00  0.00     0.042 C 
BRANCH  32  34
HETATM   34  O1  UNL     1       2.708   9.492  20.095  1.00  0.00    -0.393 OA
HETATM   35  H14 UNL     1       2.432  10.164  19.436  1.00  0.00     0.210 HD
ENDBRANCH  32  34
ENDBRANCH   4  32
BRANCH   1  36
HETATM   36  C2  UNL     1       5.571  14.742  22.273  1.00  0.00     0.004 C 
HETATM   37  C1  UNL     1       6.372  15.470  23.347  1.00  0.00     0.006 C 
ENDBRANCH   1  36
BRANCH  30  38
HETATM   38  O8  UNL     1       6.288  11.055  19.206  1.00  0.00    -0.377 OA
HETATM   39  H31 UNL     1       6.022  10.129  19.082  1.00  0.00     0.211 HD
ENDBRANCH  30  38
BRANCH  24  40
HETATM   40  O6  UNL     1       8.637  16.084  20.620  1.00  0.00    -0.359 OA
HETATM   41  H26 UNL     1       9.137  15.736  21.395  1.00  0.00     0.217 HD
ENDBRANCH  24  40
TORSDOF 5
ENDMDL
MODEL 2
REMARK minimizedAffinity -6.17846918
REMARK CNNscore 0.331673652
REMARK CNNaffinity 5.78322029
REMARK  5 active torsions:
REMARK  status: ('A' for Active; 'I' for Inactive)
REMARK    1  A    between atoms: C2_2  and  C3_3 
REMARK    2  A    between atoms: C6_6  and  C7_7 
REMARK    3  A    between atoms: C7_7  and  O1_9 
REMARK    4  A    between atoms: C23_29  and  O6_30 
REMARK    5  A    between atoms: C28_36  and  O8_37 
ROOT
HETATM    1  C3  UNL     1       4.998  12.622  18.339  1.00  0.00     0.008 C 
HETATM    2  C4  UNL     1       4.710  12.857  19.811  1.00  0.00    -0.023 C 
HETATM    3  C5  UNL     1       3.651  12.565  20.593  1.00  0.00     0.004 C 
HETATM    4  C6  UNL     1       2.288  11.920  20.399  1.00  0.00     0.183 C 
HETATM    5  O2  UNL     1       1.930  11.686  19.026  1.00  0.00    -0.306 OA
HETATM    6  C9  UNL     1       0.583  11.663  18.782  1.00  0.00     0.289 C 
HETATM    7  O3  UNL     1      -0.308  11.944  19.569  1.00  0.00    -0.260 OA
HETATM    8  C10 UNL     1       0.353  11.221  17.385  1.00  0.00     0.010 C 
HETATM    9  C11 UNL     1       0.013  12.298  16.414  1.00  0.00     0.054 C 
HETATM   10  C12 UNL     1       0.605   9.917  17.148  1.00  0.00     0.004 C 
HETATM   11  C13 UNL     1       1.037   9.323  15.819  1.00  0.00     0.147 C 
HETATM   12  C14 UNL     1       0.727   7.823  15.684  1.00  0.00     0.233 C 
HETATM   13  O4  UNL     1      -0.362   7.291  15.814  1.00  0.00    -0.272 OA
HETATM   14  N1  UNL     1       1.897   7.147  15.354  1.00  0.00    -0.327 N 
HETATM   15  C15 UNL     1       2.986   7.955  15.297  1.00  0.00     0.056 C 
HETATM   16  C16 UNL     1       4.257   7.643  15.023  1.00  0.00     0.084 C 
HETATM   17  C17 UNL     1       5.251   8.768  15.096  1.00  0.00     0.185 C 
HETATM   18  O5  UNL     1       6.444   8.528  15.200  1.00  0.00    -0.287 OA
HETATM   19  C18 UNL     1       4.726  10.169  14.932  1.00  0.00     0.040 C 
HETATM   20  C19 UNL     1       3.336  10.353  14.918  1.00  0.00    -0.001 C 
HETATM   21  C20 UNL     1       2.805  11.516  14.353  1.00  0.00     0.021 C 
HETATM   22  C21 UNL     1       3.657  12.547  13.933  1.00  0.00    -0.027 C 
HETATM   23  C22 UNL     1       3.082  13.809  13.355  1.00  0.00     0.051 C 
HETATM   24  C23 UNL     1       5.022  12.449  14.233  1.00  0.00     0.086 C 
HETATM   25  C24 UNL     1       5.534  11.287  14.825  1.00  0.00     0.058 C 
HETATM   26  C25 UNL     1       6.723  11.436  15.699  1.00  0.00     0.163 C 
HETATM   27  O7  UNL     1       7.674  12.097  15.278  1.00  0.00    -0.292 OA
HETATM   28  C26 UNL     1       6.626  10.948  17.145  1.00  0.00     0.084 C 
HETATM   29  C27 UNL     1       6.461  12.076  18.176  1.00  0.00     0.016 C 
HETATM   30  C28 UNL     1       2.591   9.332  15.729  1.00  0.00     0.143 C 
HETATM   31  H20 UNL     1       1.892   6.149  15.186  1.00  0.00     0.168 HD
ENDROOT
BRANCH   4  32
HETATM   32  C7  UNL     1       2.192  10.597  21.222  1.00  0.00     0.147 C 
HETATM   33  C8  UNL     1       2.995  10.627  22.518  1.00  0.00     0.042 C 
BRANCH  32  34
HETATM   34  O1  UNL     1       2.650   9.450  20.485  1.00  0.00    -0.393 OA
HETATM   35  H14 UNL     1       2.527   9.618  19.527  1.00  0.00     0.210 HD
ENDBRANCH  32  34
ENDBRANCH   4  32
BRANCH   1  36
HETATM   36  C2  UNL     1       4.873  13.978  17.602  1.00  0.00     0.004 C 
HETATM   37  C1  UNL     1       6.198  14.701  17.393  1.00  0.00     0.006 C 
ENDBRANCH   1  36
BRANCH  30  38
HETATM   38  O8  UNL     1       3.183   9.466  17.050  1.00  0.00    -0.377 OA
HETATM   39  H31 UNL     1       2.914   8.703  17.587  1.00  0.00     0.211 HD
ENDBRANCH  30  38
BRANCH  24  40
HETATM   40  O6  UNL     1       5.811  13.552  14.015  1.00  0.00    -0.359 OA
HETATM   41  H26 UNL     1       6.717  13.336  14.336  1.00  0.00     0.217 HD
ENDBRANCH  24  40
TORSDOF 5
ENDMDL
MODEL 3
REMARK minimizedAffinity -5.90331697
REMARK CNNscore 0.303751975
REMARK CNNaffinity 5.61982107
REMARK  5 active torsions:
REMARK  status: ('A' for Active; 'I' for Inactive)
REMARK    1  A    between atoms: C2_2  and  C3_3 
REMARK    2  A    between atoms: C6_6  and  C7_7 
REMARK    3  A    between atoms: C7_7  and  O1_9 
REMARK    4  A    between atoms: C23_29  and  O6_30 
REMARK    5  A    between atoms: C28_36  and  O8_37 
ROOT
HETATM    1  C3  UNL     1     -16.977  -5.512  30.635  1.00  0.00     0.008 C 
HETATM    2  C4  UNL     1     -18.332  -5.547  29.949  1.00  0.00    -0.023 C 
HETATM    3  C5  UNL     1     -18.818  -6.276  28.925  1.00  0.00     0.004 C 
HETATM    4  C6  UNL     1     -18.280  -7.341  27.982  1.00  0.00     0.183 C 
HETATM    5  O2  UNL     1     -16.859  -7.545  28.064  1.00  0.00    -0.306 OA
HETATM    6  C9  UNL     1     -16.283  -8.022  26.918  1.00  0.00     0.289 C 
HETATM    7  O3  UNL     1     -16.822  -8.159  25.830  1.00  0.00    -0.260 OA
HETATM    8  C10 UNL     1     -14.868  -8.371  27.197  1.00  0.00     0.010 C 
HETATM    9  C11 UNL     1     -13.854  -7.393  26.715  1.00  0.00     0.054 C 
HETATM   10  C12 UNL     1     -14.689  -9.467  27.962  1.00  0.00     0.004 C 
HETATM   11  C13 UNL     1     -13.507  -9.728  28.877  1.00  0.00     0.147 C 
HETATM   12  C14 UNL     1     -13.283 -11.219  29.186  1.00  0.00     0.233 C 
HETATM   13  O4  UNL     1     -13.128 -12.114  28.373  1.00  0.00    -0.272 OA
HETATM   14  N1  UNL     1     -13.252 -11.395  30.565  1.00  0.00    -0.327 N 
HETATM   15  C15 UNL     1     -13.479 -10.251  31.258  1.00  0.00     0.056 C 
HETATM   16  C16 UNL     1     -13.532 -10.059  32.580  1.00  0.00     0.084 C 
HETATM   17  C17 UNL     1     -13.865  -8.667  33.041  1.00  0.00     0.185 C 
HETATM   18  O5  UNL     1     -14.264  -8.476  34.179  1.00  0.00    -0.287 OA
HETATM   19  C18 UNL     1     -13.588  -7.537  32.087  1.00  0.00     0.040 C 
HETATM   20  C19 UNL     1     -13.225  -7.860  30.771  1.00  0.00    -0.001 C 
HETATM   21  C20 UNL     1     -12.556  -6.912  29.992  1.00  0.00     0.021 C 
HETATM   22  C21 UNL     1     -12.376  -5.607  30.474  1.00  0.00    -0.027 C 
HETATM   23  C22 UNL     1     -11.683  -4.582  29.621  1.00  0.00     0.051 C 
HETATM   24  C23 UNL     1     -13.009  -5.242  31.668  1.00  0.00     0.086 C 
HETATM   25  C24 UNL     1     -13.699  -6.199  32.424  1.00  0.00     0.058 C 
HETATM   26  C25 UNL     1     -14.847  -5.727  33.236  1.00  0.00     0.163 C 
HETATM   27  O7  UNL     1     -14.685  -4.730  33.943  1.00  0.00    -0.292 OA
HETATM   28  C26 UNL     1     -16.216  -6.363  32.996  1.00  0.00     0.084 C 
HETATM   29  C27 UNL     1     -17.183  -5.480  32.191  1.00  0.00     0.016 C 
HETATM   30  C28 UNL     1     -13.811  -9.157  30.292  1.00  0.00     0.143 C 
HETATM   31  H20 UNL     1     -13.078 -12.307  30.969  1.00  0.00     0.168 HD
ENDROOT
BRANCH   4  32
HETATM   32  C7  UNL     1     -19.039  -8.688  28.197  1.00  0.00     0.147 C 
HETATM   33  C8  UNL     1     -18.413  -9.574  29.270  1.00  0.00     0.042 C 
BRANCH  32  34
HETATM   34  O1  UNL     1     -19.107  -9.484  27.001  1.00  0.00    -0.393 OA
HETATM   35  H14 UNL     1     -19.065  -8.890  26.222  1.00  0.00     0.210 HD
ENDBRANCH  32  34
ENDBRANCH   4  32
BRANCH   1  36
HETATM   36  C2  UNL     1     -16.246  -4.221  30.190  1.00  0.00     0.004 C 
HETATM   37  C1  UNL     1     -15.440  -4.371  28.904  1.00  0.00     0.006 C 
ENDBRANCH   1  36
BRANCH  30  38
HETATM   38  O8  UNL     1     -15.241  -8.957  30.471  1.00  0.00    -0.377 OA
HETATM   39  H31 UNL     1     -15.684  -9.816  30.387  1.00  0.00     0.211 HD
ENDBRANCH  30  38
BRANCH  24  40
HETATM   40  O6  UNL     1     -13.007  -3.914  32.020  1.00  0.00    -0.359 OA
HETATM   41  H26 UNL     1     -13.545  -3.825  32.840  1.00  0.00     0.217 HD
ENDBRANCH  24  40
TORSDOF 5
ENDMDL
MODEL 4
REMARK minimizedAffinity -7.45732832
REMARK CNNscore 0.288600594
REMARK CNNaffinity 5.2916894
REMARK  5 active torsions:
REMARK  status: ('A' for Active; 'I' for Inactive)
REMARK    1  A    between atoms: C2_2  and  C3_3 
REMARK    2  A    between atoms: C6_6  and  C7_7 
REMARK    3  A    between atoms: C7_7  and  O1_9 
REMARK    4  A    between atoms: C23_29  and  O6_30 
REMARK    5  A    between atoms: C28_36  and  O8_37 
ROOT
HETATM    1  C3  UNL     1      12.841  -4.262   4.466  1.00  0.00     0.008 C 
HETATM    2  C4  UNL     1      11.822  -5.014   5.304  1.00  0.00    -0.023 C 
HETATM    3  C5  UNL     1      11.935  -5.790   6.400  1.00  0.00     0.004 C 
HETATM    4  C6  UNL     1      13.072  -6.294   7.276  1.00  0.00     0.183 C 
HETATM    5  O2  UNL     1      14.386  -6.031   6.756  1.00  0.00    -0.306 OA
HETATM    6  C9  UNL     1      15.350  -6.911   7.165  1.00  0.00     0.289 C 
HETATM    7  O3  UNL     1      15.179  -7.941   7.801  1.00  0.00    -0.260 OA
HETATM    8  C10 UNL     1      16.677  -6.416   6.723  1.00  0.00     0.010 C 
HETATM    9  C11 UNL     1      17.256  -7.095   5.531  1.00  0.00     0.054 C 
HETATM   10  C12 UNL     1      17.130  -5.328   7.380  1.00  0.00     0.004 C 
HETATM   11  C13 UNL     1      18.073  -4.280   6.819  1.00  0.00     0.147 C 
HETATM   12  C14 UNL     1      18.836  -3.494   7.899  1.00  0.00     0.233 C 
HETATM   13  O4  UNL     1      19.535  -3.963   8.781  1.00  0.00    -0.272 OA
HETATM   14  N1  UNL     1      18.630  -2.133   7.698  1.00  0.00    -0.327 N 
HETATM   15  C15 UNL     1      17.788  -1.864   6.669  1.00  0.00     0.056 C 
HETATM   16  C16 UNL     1      17.365  -0.681   6.210  1.00  0.00     0.084 C 
HETATM   17  C17 UNL     1      16.377  -0.719   5.078  1.00  0.00     0.185 C 
HETATM   18  O5  UNL     1      15.691   0.260   4.828  1.00  0.00    -0.287 OA
HETATM   19  C18 UNL     1      16.351  -1.956   4.222  1.00  0.00     0.040 C 
HETATM   20  C19 UNL     1      17.100  -3.064   4.643  1.00  0.00    -0.001 C 
HETATM   21  C20 UNL     1      17.457  -4.044   3.713  1.00  0.00     0.021 C 
HETATM   22  C21 UNL     1      16.951  -3.991   2.406  1.00  0.00    -0.027 C 
HETATM   23  C22 UNL     1      17.311  -5.063   1.417  1.00  0.00     0.051 C 
HETATM   24  C23 UNL     1      15.973  -3.033   2.107  1.00  0.00     0.086 C 
HETATM   25  C24 UNL     1      15.608  -2.074   3.060  1.00  0.00     0.058 C 
HETATM   26  C25 UNL     1      14.219  -1.556   3.006  1.00  0.00     0.163 C 
HETATM   27  O7  UNL     1      13.777  -1.192   1.915  1.00  0.00    -0.292 OA
HETATM   28  C26 UNL     1      13.343  -1.697   4.252  1.00  0.00     0.084 C 
HETATM   29  C27 UNL     1      12.300  -2.821   4.158  1.00  0.00     0.016 C 
HETATM   30  C28 UNL     1      17.247  -3.152   6.135  1.00  0.00     0.143 C 
HETATM   31  H20 UNL     1      19.081  -1.446   8.289  1.00  0.00     0.168 HD
ENDROOT
BRANCH   4  32
HETATM   32  C7  UNL     1      12.933  -5.727   8.724  1.00  0.00     0.147 C 
HETATM   33  C8  UNL     1      11.704  -6.244   9.465  1.00  0.00     0.042 C 
BRANCH  32  34
HETATM   34  O1  UNL     1      12.852  -4.291   8.752  1.00  0.00    -0.393 OA
HETATM   35  H14 UNL     1      13.312  -3.931   7.965  1.00  0.00     0.210 HD
ENDBRANCH  32  34
ENDBRANCH   4  32
BRANCH   1  36
HETATM   36  C2  UNL     1      13.031  -5.032   3.135  1.00  0.00     0.004 C 
HETATM   37  C1  UNL     1      14.067  -6.148   3.201  1.00  0.00     0.006 C 
ENDBRANCH   1  36
BRANCH  30  38
HETATM   38  O8  UNL     1      15.868  -3.170   6.599  1.00  0.00    -0.377 OA
HETATM   39  H31 UNL     1      15.865  -3.013   7.557  1.00  0.00     0.211 HD
ENDBRANCH  30  38
BRANCH  24  40
HETATM   40  O6  UNL     1      15.330  -3.125   0.897  1.00  0.00    -0.359 OA
HETATM   41  H26 UNL     1      14.637  -2.425   0.876  1.00  0.00     0.217 HD
ENDBRANCH  24  40
TORSDOF 5
ENDMDL
MODEL 5
REMARK minimizedAffinity -5.92580223
REMARK CNNscore 0.287081689
REMARK CNNaffinity 5.35474396
REMARK  5 active torsions:
REMARK  status: ('A' for Active; 'I' for Inactive)
REMARK    1  A    between atoms: C2_2  and  C3_3 
REMARK    2  A    between atoms: C6_6  and  C7_7 
REMARK    3  A    between atoms: C7_7  and  O1_9 
REMARK    4  A    between atoms: C23_29  and  O6_30 
REMARK    5  A    between atoms: C28_36  and  O8_37 
ROOT
HETATM    1  C3  UNL     1     -18.964   0.202  13.397  1.00  0.00     0.008 C 
HETATM    2  C4  UNL     1     -18.700   1.613  13.893  1.00  0.00    -0.023 C 
HETATM    3  C5  UNL     1     -17.819   2.119  14.779  1.00  0.00     0.004 C 
HETATM    4  C6  UNL     1     -16.734   1.563  15.689  1.00  0.00     0.183 C 
HETATM    5  O2  UNL     1     -16.709   0.129  15.778  1.00  0.00    -0.306 OA
HETATM    6  C9  UNL     1     -16.190  -0.363  16.945  1.00  0.00     0.289 C 
HETATM    7  O3  UNL     1     -15.881   0.280  17.937  1.00  0.00    -0.260 OA
HETATM    8  C10 UNL     1     -16.041  -1.834  16.825  1.00  0.00     0.010 C 
HETATM    9  C11 UNL     1     -17.079  -2.647  17.518  1.00  0.00     0.054 C 
HETATM   10  C12 UNL     1     -15.057  -2.245  15.999  1.00  0.00     0.004 C 
HETATM   11  C13 UNL     1     -15.031  -3.552  15.229  1.00  0.00     0.147 C 
HETATM   12  C14 UNL     1     -13.617  -4.004  14.825  1.00  0.00     0.233 C 
HETATM   13  O4  UNL     1     -12.669  -4.175  15.572  1.00  0.00    -0.272 OA
HETATM   14  N1  UNL     1     -13.586  -4.222  13.452  1.00  0.00    -0.327 N 
HETATM   15  C15 UNL     1     -14.760  -3.932  12.836  1.00  0.00     0.056 C 
HETATM   16  C16 UNL     1     -15.077  -4.014  11.540  1.00  0.00     0.084 C 
HETATM   17  C17 UNL     1     -16.459  -3.560  11.160  1.00  0.00     0.185 C 
HETATM   18  O5  UNL     1     -16.716  -3.279  10.000  1.00  0.00    -0.287 OA
HETATM   19  C18 UNL     1     -17.512  -3.571  12.235  1.00  0.00     0.040 C 
HETATM   20  C19 UNL     1     -17.102  -3.813  13.555  1.00  0.00    -0.001 C 
HETATM   21  C20 UNL     1     -18.039  -4.255  14.493  1.00  0.00     0.021 C 
HETATM   22  C21 UNL     1     -19.398  -4.320  14.153  1.00  0.00    -0.027 C 
HETATM   23  C22 UNL     1     -20.407  -4.766  15.174  1.00  0.00     0.051 C 
HETATM   24  C23 UNL     1     -19.804  -3.792  12.921  1.00  0.00     0.086 C 
HETATM   25  C24 UNL     1     -18.854  -3.328  12.003  1.00  0.00     0.058 C 
HETATM   26  C25 UNL     1     -19.267  -2.234  11.090  1.00  0.00     0.163 C 
HETATM   27  O7  UNL     1     -20.342  -2.348  10.498  1.00  0.00    -0.292 OA
HETATM   28  C26 UNL     1     -18.452  -0.940  11.092  1.00  0.00     0.084 C 
HETATM   29  C27 UNL     1     -19.129   0.222  11.836  1.00  0.00     0.016 C 
HETATM   30  C28 UNL     1     -15.703  -3.347  13.840  1.00  0.00     0.143 C 
HETATM   31  H20 UNL     1     -12.747  -4.560  12.998  1.00  0.00     0.168 HD
ENDROOT
BRANCH   4  32
HETATM   32  C7  UNL     1     -15.335   2.109  15.262  1.00  0.00     0.147 C 
HETATM   33  C8  UNL     1     -15.380   3.529  14.707  1.00  0.00     0.042 C 
BRANCH  32  34
HETATM   34  O1  UNL     1     -14.706   1.298  14.255  1.00  0.00    -0.393 OA
HETATM   35  H14 UNL     1     -15.037   0.378  14.336  1.00  0.00     0.210 HD
ENDBRANCH  32  34
ENDBRANCH   4  32
BRANCH   1  36
HETATM   36  C2  UNL     1     -20.281  -0.296  14.044  1.00  0.00     0.004 C 
HETATM   37  C1  UNL     1     -21.517  -0.103  13.173  1.00  0.00     0.006 C 
ENDBRANCH   1  36
BRANCH  30  38
HETATM   38  O8  UNL     1     -15.750  -1.936  13.493  1.00  0.00    -0.377 OA
HETATM   39  H31 UNL     1     -14.840  -1.601  13.443  1.00  0.00     0.211 HD
ENDBRANCH  30  38
BRANCH  24  40
HETATM   40  O6  UNL     1     -21.152  -3.663  12.688  1.00  0.00    -0.359 OA
HETATM   41  H26 UNL     1     -21.260  -3.220  11.814  1.00  0.00     0.217 HD
ENDBRANCH  24  40
TORSDOF 5
ENDMDL
MODEL 6
REMARK minimizedAffinity -6.48665047
REMARK CNNscore 0.284577787
REMARK CNNaffinity 4.99113083
REMARK  5 active torsions:
REMARK  status: ('A' for Active; 'I' for Inactive)
REMARK    1  A    between atoms: C2_2  and  C3_3 
REMARK    2  A    between atoms: C6_6  and  C7_7 
REMARK    3  A    between atoms: C7_7  and  O1_9 
REMARK    4  A    between atoms: C23_29  and  O6_30 
REMARK    5  A    between atoms: C28_36  and  O8_37 
ROOT
HETATM    1  C3  UNL     1     -17.886   2.359  28.335  1.00  0.00     0.008 C 
HETATM    2  C4  UNL     1     -19.138   1.567  28.002  1.00  0.00    -0.023 C 
HETATM    3  C5  UNL     1     -19.730   1.244  26.835  1.00  0.00     0.004 C 
HETATM    4  C6  UNL     1     -19.475   1.518  25.361  1.00  0.00     0.183 C 
HETATM    5  O2  UNL     1     -18.444   2.486  25.106  1.00  0.00    -0.306 OA
HETATM    6  C9  UNL     1     -18.572   3.159  23.920  1.00  0.00     0.289 C 
HETATM    7  O3  UNL     1     -19.519   3.110  23.149  1.00  0.00    -0.260 OA
HETATM    8  C10 UNL     1     -17.353   3.973  23.692  1.00  0.00     0.010 C 
HETATM    9  C11 UNL     1     -17.488   5.430  23.968  1.00  0.00     0.054 C 
HETATM   10  C12 UNL     1     -16.244   3.269  23.385  1.00  0.00     0.004 C 
HETATM   11  C13 UNL     1     -14.815   3.692  23.676  1.00  0.00     0.147 C 
HETATM   12  C14 UNL     1     -13.774   3.014  22.769  1.00  0.00     0.233 C 
HETATM   13  O4  UNL     1     -13.758   3.021  21.550  1.00  0.00    -0.272 OA
HETATM   14  N1  UNL     1     -12.813   2.399  23.565  1.00  0.00    -0.327 N 
HETATM   15  C15 UNL     1     -13.068   2.505  24.893  1.00  0.00     0.056 C 
HETATM   16  C16 UNL     1     -12.369   2.029  25.929  1.00  0.00     0.084 C 
HETATM   17  C17 UNL     1     -12.953   2.266  27.294  1.00  0.00     0.185 C 
HETATM   18  O5  UNL     1     -12.584   1.595  28.245  1.00  0.00    -0.287 OA
HETATM   19  C18 UNL     1     -13.912   3.416  27.447  1.00  0.00     0.040 C 
HETATM   20  C19 UNL     1     -14.351   4.066  26.284  1.00  0.00    -0.001 C 
HETATM   21  C20 UNL     1     -14.871   5.360  26.377  1.00  0.00     0.021 C 
HETATM   22  C21 UNL     1     -15.081   5.945  27.634  1.00  0.00    -0.027 C 
HETATM   23  C22 UNL     1     -15.669   7.324  27.732  1.00  0.00     0.051 C 
HETATM   24  C23 UNL     1     -14.905   5.154  28.777  1.00  0.00     0.086 C 
HETATM   25  C24 UNL     1     -14.408   3.849  28.664  1.00  0.00     0.058 C 
HETATM   26  C25 UNL     1     -14.841   2.865  29.686  1.00  0.00     0.163 C 
HETATM   27  O7  UNL     1     -14.775   3.194  30.872  1.00  0.00    -0.292 OA
HETATM   28  C26 UNL     1     -15.539   1.588  29.215  1.00  0.00     0.084 C 
HETATM   29  C27 UNL     1     -17.061   1.593  29.429  1.00  0.00     0.016 C 
HETATM   30  C28 UNL     1     -14.396   3.169  25.080  1.00  0.00     0.143 C 
HETATM   31  H20 UNL     1     -12.020   1.926  23.150  1.00  0.00     0.168 HD
ENDROOT
BRANCH   4  32
HETATM   32  C7  UNL     1     -19.171   0.185  24.607  1.00  0.00     0.147 C 
HETATM   33  C8  UNL     1     -20.301  -0.263  23.685  1.00  0.00     0.042 C 
BRANCH  32  34
HETATM   34  O1  UNL     1     -18.914  -0.912  25.500  1.00  0.00    -0.393 OA
HETATM   35  H14 UNL     1     -18.560  -0.560  26.343  1.00  0.00     0.210 HD
ENDBRANCH  32  34
ENDBRANCH   4  32
BRANCH   1  36
HETATM   36  C2  UNL     1     -18.323   3.736  28.896  1.00  0.00     0.004 C 
HETATM   37  C1  UNL     1     -18.566   4.797  27.829  1.00  0.00     0.006 C 
ENDBRANCH   1  36
BRANCH  30  38
HETATM   38  O8  UNL     1     -15.269   2.088  25.509  1.00  0.00    -0.377 OA
HETATM   39  H31 UNL     1     -15.187   1.357  24.875  1.00  0.00     0.211 HD
ENDBRANCH  30  38
BRANCH  24  40
HETATM   40  O6  UNL     1     -15.318   5.663  29.984  1.00  0.00    -0.359 OA
HETATM   41  H26 UNL     1     -15.184   4.962  30.663  1.00  0.00     0.217 HD
ENDBRANCH  24  40
TORSDOF 5
ENDMDL
MODEL 7
REMARK minimizedAffinity -5.73733425
REMARK CNNscore 0.277359784
REMARK CNNaffinity 5.43677378
REMARK  5 active torsions:
REMARK  status: ('A' for Active; 'I' for Inactive)
REMARK    1  A    between atoms: C2_2  and  C3_3 
REMARK    2  A    between atoms: C6_6  and  C7_7 
REMARK    3  A    between atoms: C7_7  and  O1_9 
REMARK    4  A    between atoms: C23_29  and  O6_30 
REMARK    5  A    between atoms: C28_36  and  O8_37 
ROOT
HETATM    1  C3  UNL     1       3.234  18.990  -1.794  1.00  0.00     0.008 C 
HETATM    2  C4  UNL     1       4.470  19.847  -2.001  1.00  0.00    -0.023 C 
HETATM    3  C5  UNL     1       5.789  19.566  -1.986  1.00  0.00     0.004 C 
HETATM    4  C6  UNL     1       6.647  18.335  -1.743  1.00  0.00     0.183 C 
HETATM    5  O2  UNL     1       5.924  17.194  -1.249  1.00  0.00    -0.306 OA
HETATM    6  C9  UNL     1       6.672  16.321  -0.507  1.00  0.00     0.289 C 
HETATM    7  O3  UNL     1       7.822  16.482  -0.126  1.00  0.00    -0.260 OA
HETATM    8  C10 UNL     1       5.865  15.107  -0.230  1.00  0.00     0.010 C 
HETATM    9  C11 UNL     1       5.289  15.011   1.140  1.00  0.00     0.054 C 
HETATM   10  C12 UNL     1       5.652  14.307  -1.295  1.00  0.00     0.004 C 
HETATM   11  C13 UNL     1       4.457  13.393  -1.494  1.00  0.00     0.147 C 
HETATM   12  C14 UNL     1       4.722  12.234  -2.471  1.00  0.00     0.233 C 
HETATM   13  O4  UNL     1       5.614  11.408  -2.392  1.00  0.00    -0.272 OA
HETATM   14  N1  UNL     1       3.750  12.250  -3.466  1.00  0.00    -0.327 N 
HETATM   15  C15 UNL     1       2.883  13.287  -3.353  1.00  0.00     0.056 C 
HETATM   16  C16 UNL     1       1.846  13.611  -4.132  1.00  0.00     0.084 C 
HETATM   17  C17 UNL     1       1.105  14.868  -3.771  1.00  0.00     0.185 C 
HETATM   18  O5  UNL     1       0.388  15.416  -4.593  1.00  0.00    -0.287 OA
HETATM   19  C18 UNL     1       1.206  15.346  -2.347  1.00  0.00     0.040 C 
HETATM   20  C19 UNL     1       2.129  14.711  -1.504  1.00  0.00    -0.001 C 
HETATM   21  C20 UNL     1       1.968  14.805  -0.118  1.00  0.00     0.021 C 
HETATM   22  C21 UNL     1       0.978  15.640   0.420  1.00  0.00    -0.027 C 
HETATM   23  C22 UNL     1       0.828  15.763   1.910  1.00  0.00     0.051 C 
HETATM   24  C23 UNL     1       0.270  16.482  -0.447  1.00  0.00     0.086 C 
HETATM   25  C24 UNL     1       0.463  16.394  -1.832  1.00  0.00     0.058 C 
HETATM   26  C25 UNL     1       0.265  17.631  -2.626  1.00  0.00     0.163 C 
HETATM   27  O7  UNL     1      -0.756  18.291  -2.427  1.00  0.00    -0.292 OA
HETATM   28  C26 UNL     1       1.425  18.132  -3.488  1.00  0.00     0.084 C 
HETATM   29  C27 UNL     1       2.169  19.339  -2.893  1.00  0.00     0.016 C 
HETATM   30  C28 UNL     1       3.327  14.170  -2.230  1.00  0.00     0.143 C 
HETATM   31  H20 UNL     1       3.733  11.540  -4.187  1.00  0.00     0.168 HD
ENDROOT
BRANCH   4  32
HETATM   32  C7  UNL     1       7.439  17.962  -3.035  1.00  0.00     0.147 C 
HETATM   33  C8  UNL     1       6.652  17.077  -3.997  1.00  0.00     0.042 C 
BRANCH  32  34
HETATM   34  O1  UNL     1       8.666  17.267  -2.754  1.00  0.00    -0.393 OA
HETATM   35  H14 UNL     1       8.981  17.527  -1.862  1.00  0.00     0.210 HD
ENDBRANCH  32  34
ENDBRANCH   4  32
BRANCH   1  36
HETATM   36  C2  UNL     1       2.651  19.316  -0.396  1.00  0.00     0.004 C 
HETATM   37  C1  UNL     1       3.253  18.497   0.739  1.00  0.00     0.006 C 
ENDBRANCH   1  36
BRANCH  30  38
HETATM   38  O8  UNL     1       3.862  15.345  -2.901  1.00  0.00    -0.377 OA
HETATM   39  H31 UNL     1       4.510  15.052  -3.562  1.00  0.00     0.211 HD
ENDBRANCH  30  38
BRANCH  24  40
HETATM   40  O6  UNL     1      -0.539  17.444   0.106  1.00  0.00    -0.359 OA
HETATM   41  H26 UNL     1      -0.905  17.984  -0.633  1.00  0.00     0.217 HD
ENDBRANCH  24  40
TORSDOF 5
ENDMDL
MODEL 8
REMARK minimizedAffinity -5.93233442
REMARK CNNscore 0.270246774
REMARK CNNaffinity 5.36327314
REMARK  5 active torsions:
REMARK  status: ('A' for Active; 'I' for Inactive)
REMARK    1  A    between atoms: C2_2  and  C3_3 
REMARK    2  A    between atoms: C6_6  and  C7_7 
REMARK    3  A    between atoms: C7_7  and  O1_9 
REMARK    4  A    between atoms: C23_29  and  O6_30 
REMARK    5  A    between atoms: C28_36  and  O8_37 
ROOT
HETATM    1  C3  UNL     1     -15.991  -7.897  31.993  1.00  0.00     0.008 C 
HETATM    2  C4  UNL     1     -17.224  -7.896  32.878  1.00  0.00    -0.023 C 
HETATM    3  C5  UNL     1     -18.366  -7.179  32.853  1.00  0.00     0.004 C 
HETATM    4  C6  UNL     1     -18.943  -6.063  31.997  1.00  0.00     0.183 C 
HETATM    5  O2  UNL     1     -18.014  -5.488  31.064  1.00  0.00    -0.306 OA
HETATM    6  C9  UNL     1     -18.280  -4.191  30.718  1.00  0.00     0.289 C 
HETATM    7  O3  UNL     1     -19.125  -3.460  31.211  1.00  0.00    -0.260 OA
HETATM    8  C10 UNL     1     -17.374  -3.789  29.613  1.00  0.00     0.010 C 
HETATM    9  C11 UNL     1     -16.220  -2.932  30.003  1.00  0.00     0.054 C 
HETATM   10  C12 UNL     1     -17.641  -4.357  28.419  1.00  0.00     0.004 C 
HETATM   11  C13 UNL     1     -16.630  -4.630  27.320  1.00  0.00     0.147 C 
HETATM   12  C14 UNL     1     -17.258  -4.758  25.922  1.00  0.00     0.233 C 
HETATM   13  O4  UNL     1     -17.965  -3.936  25.365  1.00  0.00    -0.272 OA
HETATM   14  N1  UNL     1     -16.867  -5.969  25.359  1.00  0.00    -0.327 N 
HETATM   15  C15 UNL     1     -16.105  -6.724  26.188  1.00  0.00     0.056 C 
HETATM   16  C16 UNL     1     -15.572  -7.933  25.980  1.00  0.00     0.084 C 
HETATM   17  C17 UNL     1     -14.817  -8.538  27.130  1.00  0.00     0.185 C 
HETATM   18  O5  UNL     1     -14.597  -9.738  27.158  1.00  0.00    -0.287 OA
HETATM   19  C18 UNL     1     -14.266  -7.597  28.168  1.00  0.00     0.040 C 
HETATM   20  C19 UNL     1     -14.651  -6.250  28.106  1.00  0.00    -0.001 C 
HETATM   21  C20 UNL     1     -13.867  -5.283  28.740  1.00  0.00     0.021 C 
HETATM   22  C21 UNL     1     -12.786  -5.671  29.546  1.00  0.00    -0.027 C 
HETATM   23  C22 UNL     1     -11.964  -4.630  30.251  1.00  0.00     0.051 C 
HETATM   24  C23 UNL     1     -12.612  -7.034  29.819  1.00  0.00     0.086 C 
HETATM   25  C24 UNL     1     -13.425  -7.989  29.195  1.00  0.00     0.058 C 
HETATM   26  C25 UNL     1     -13.688  -9.247  29.936  1.00  0.00     0.163 C 
HETATM   27  O7  UNL     1     -12.729  -9.835  30.439  1.00  0.00    -0.292 OA
HETATM   28  C26 UNL     1     -15.141  -9.632  30.219  1.00  0.00     0.084 C 
HETATM   29  C27 UNL     1     -15.584  -9.378  31.669  1.00  0.00     0.016 C 
HETATM   30  C28 UNL     1     -16.019  -6.048  27.519  1.00  0.00     0.143 C 
HETATM   31  H20 UNL     1     -17.152  -6.222  24.421  1.00  0.00     0.168 HD
ENDROOT
BRANCH   4  32
HETATM   32  C7  UNL     1     -20.227  -6.555  31.257  1.00  0.00     0.147 C 
HETATM   33  C8  UNL     1     -19.947  -7.134  29.874  1.00  0.00     0.042 C 
BRANCH  32  34
HETATM   34  O1  UNL     1     -21.197  -5.510  31.073  1.00  0.00    -0.393 OA
HETATM   35  H14 UNL     1     -21.084  -4.843  31.782  1.00  0.00     0.210 HD
ENDBRANCH  32  34
ENDBRANCH   4  32
BRANCH   1  36
HETATM   36  C2  UNL     1     -14.840  -7.209  32.770  1.00  0.00     0.004 C 
HETATM   37  C1  UNL     1     -13.889  -8.177  33.463  1.00  0.00     0.006 C 
ENDBRANCH   1  36
BRANCH  30  38
HETATM   38  O8  UNL     1     -16.867  -6.858  28.379  1.00  0.00    -0.377 OA
HETATM   39  H31 UNL     1     -17.733  -6.958  27.950  1.00  0.00     0.211 HD
ENDBRANCH  30  38
BRANCH  24  40
HETATM   40  O6  UNL     1     -11.691  -7.387  30.775  1.00  0.00    -0.359 OA
HETATM   41  H26 UNL     1     -11.742  -8.365  30.887  1.00  0.00     0.217 HD
ENDBRANCH  24  40
TORSDOF 5
ENDMDL
MODEL 9
REMARK minimizedAffinity -5.86549902
REMARK CNNscore 0.267059088
REMARK CNNaffinity 5.45776224
REMARK  5 active torsions:
REMARK  status: ('A' for Active; 'I' for Inactive)
REMARK    1  A    between atoms: C2_2  and  C3_3 
REMARK    2  A    between atoms: C6_6  and  C7_7 
REMARK    3  A    between atoms: C7_7  and  O1_9 
REMARK    4  A    between atoms: C23_29  and  O6_30 
REMARK    5  A    between atoms: C28_36  and  O8_37 
ROOT
HETATM    1  C3  UNL     1     -16.569  -7.930  31.446  1.00  0.00     0.008 C 
HETATM    2  C4  UNL     1     -18.083  -7.954  31.557  1.00  0.00    -0.023 C 
HETATM    3  C5  UNL     1     -19.068  -7.785  30.653  1.00  0.00     0.004 C 
HETATM    4  C6  UNL     1     -19.152  -7.476  29.166  1.00  0.00     0.183 C 
HETATM    5  O2  UNL     1     -17.899  -7.113  28.562  1.00  0.00    -0.306 OA
HETATM    6  C9  UNL     1     -18.008  -6.312  27.457  1.00  0.00     0.289 C 
HETATM    7  O3  UNL     1     -19.026  -5.786  27.031  1.00  0.00    -0.260 OA
HETATM    8  C10 UNL     1     -16.673  -6.177  26.824  1.00  0.00     0.010 C 
HETATM    9  C11 UNL     1     -15.963  -4.893  27.079  1.00  0.00     0.054 C 
HETATM   10  C12 UNL     1     -16.220  -7.286  26.203  1.00  0.00     0.004 C 
HETATM   11  C13 UNL     1     -14.762  -7.661  26.007  1.00  0.00     0.147 C 
HETATM   12  C14 UNL     1     -14.527  -8.633  24.839  1.00  0.00     0.233 C 
HETATM   13  O4  UNL     1     -14.865  -8.471  23.680  1.00  0.00    -0.272 OA
HETATM   14  N1  UNL     1     -13.827  -9.741  25.306  1.00  0.00    -0.327 N 
HETATM   15  C15 UNL     1     -13.592  -9.703  26.642  1.00  0.00     0.056 C 
HETATM   16  C16 UNL     1     -12.965 -10.595  27.416  1.00  0.00     0.084 C 
HETATM   17  C17 UNL     1     -12.919 -10.288  28.887  1.00  0.00     0.185 C 
HETATM   18  O5  UNL     1     -12.683 -11.175  29.692  1.00  0.00    -0.287 OA
HETATM   19  C18 UNL     1     -13.070  -8.849  29.299  1.00  0.00     0.040 C 
HETATM   20  C19 UNL     1     -13.435  -7.918  28.317  1.00  0.00    -0.001 C 
HETATM   21  C20 UNL     1     -13.174  -6.561  28.527  1.00  0.00     0.021 C 
HETATM   22  C21 UNL     1     -12.680  -6.123  29.764  1.00  0.00    -0.027 C 
HETATM   23  C22 UNL     1     -12.430  -4.660  29.998  1.00  0.00     0.051 C 
HETATM   24  C23 UNL     1     -12.606  -7.044  30.817  1.00  0.00     0.086 C 
HETATM   25  C24 UNL     1     -12.897  -8.396  30.596  1.00  0.00     0.058 C 
HETATM   26  C25 UNL     1     -13.449  -9.169  31.736  1.00  0.00     0.163 C 
HETATM   27  O7  UNL     1     -12.883  -9.077  32.826  1.00  0.00    -0.292 OA
HETATM   28  C26 UNL     1     -14.800  -9.863  31.555  1.00  0.00     0.084 C 
HETATM   29  C27 UNL     1     -15.969  -9.142  32.244  1.00  0.00     0.016 C 
HETATM   30  C28 UNL     1     -14.278  -8.506  27.221  1.00  0.00     0.143 C 
HETATM   31  H20 UNL     1     -13.544 -10.481  24.677  1.00  0.00     0.168 HD
ENDROOT
BRANCH   4  32
HETATM   32  C7  UNL     1     -19.802  -8.671  28.400  1.00  0.00     0.147 C 
HETATM   33  C8  UNL     1     -19.840  -9.964  29.209  1.00  0.00     0.042 C 
BRANCH  32  34
HETATM   34  O1  UNL     1     -19.122  -8.979  27.171  1.00  0.00    -0.393 OA
HETATM   35  H14 UNL     1     -18.684  -8.168  26.838  1.00  0.00     0.210 HD
ENDBRANCH  32  34
ENDBRANCH   4  32
BRANCH   1  36
HETATM   36  C2  UNL     1     -16.062  -6.606  32.070  1.00  0.00     0.004 C 
HETATM   37  C1  UNL     1     -15.591  -6.735  33.514  1.00  0.00     0.006 C 
ENDBRANCH   1  36
BRANCH  30  38
HETATM   38  O8  UNL     1     -15.409  -9.067  27.943  1.00  0.00    -0.377 OA
HETATM   39  H31 UNL     1     -15.898  -9.651  27.341  1.00  0.00     0.211 HD
ENDBRANCH  30  38
BRANCH  24  40
HETATM   40  O6  UNL     1     -12.329  -6.565  32.075  1.00  0.00    -0.359 OA
HETATM   41  H26 UNL     1     -12.379  -7.326  32.699  1.00  0.00     0.217 HD
ENDBRANCH  24  40
TORSDOF 5
ENDMDL
