MODEL 1
REMARK minimizedAffinity -7.82564116
REMARK CNNscore 0.483570427
REMARK CNNaffinity 6.91268015
REMARK  20 active torsions:
REMARK  status: ('A' for Active; 'I' for Inactive)
REMARK    1  A    between atoms: C2_2  and  C18_26 
REMARK    2  A    between atoms: C3_3  and  C4_4 
REMARK    3  A    between atoms: C4_4  and  O2_6 
REMARK    4  A    between atoms: O2_6  and  C5_7 
REMARK    5  A    between atoms: C5_7  and  C6_8 
REMARK    6  A    between atoms: C6_8  and  C7_9 
REMARK    7  A    between atoms: C7_9  and  C8_10 
REMARK    8  A    between atoms: C8_10  and  C9_11 
REMARK    9  A    between atoms: C9_11  and  C10_12 
REMARK   10  A    between atoms: C10_12  and  C11_13 
REMARK   11  A    between atoms: C11_13  and  C12_14 
REMARK       I    between atoms: C12_14  and  N1_16 
REMARK   12  A    between atoms: N1_16  and  C13_17 
REMARK   13  A    between atoms: C18_26  and  C19_27 
REMARK   14  A    between atoms: C21_29  and  O5_30 
REMARK   15  A    between atoms: C22_31  and  O6_32 
REMARK   16  A    between atoms: C22_31  and  C23_33 
REMARK   17  A    between atoms: C23_33  and  C24_34 
REMARK   18  A    between atoms: C25_35  and  C26_36 
REMARK   19  A    between atoms: C26_36  and  C28_38 
REMARK   20  A    between atoms: C28_38  and  O7_40 
ROOT
HETATM    1  C4  UNL     1      -7.574   3.489  12.716  1.00  0.00     0.283 C 
HETATM    2  O1  UNL     1      -8.707   3.083  12.534  1.00  0.00    -0.260 OA
ENDROOT
BRANCH   1   3
HETATM    3  C3  UNL     1      -6.333   2.678  12.669  1.00  0.00     0.084 C 
HETATM    4  C2  UNL     1      -5.511   2.539  11.608  1.00  0.00    -0.076 C 
HETATM    5  C1  UNL     1      -5.762   3.114  10.239  1.00  0.00     0.043 C 
BRANCH   4   6
HETATM    6  C18 UNL     1      -4.213   1.758  11.751  1.00  0.00     0.066 C 
BRANCH   6   7
HETATM    7  C19 UNL     1      -3.003   2.666  12.044  1.00  0.00     0.128 C 
HETATM    8  C20 UNL     1      -3.438   3.937  12.764  1.00  0.00     0.067 C 
HETATM    9  C21 UNL     1      -2.243   4.853  13.054  1.00  0.00     0.157 C 
HETATM   10  C22 UNL     1      -1.157   4.775  11.949  1.00  0.00     0.108 C 
HETATM   11  C30 UNL     1      -1.830   4.283  10.650  1.00  0.00     0.209 C 
HETATM   12  O8  UNL     1      -2.342   2.950  10.798  1.00  0.00    -0.382 OA
BRANCH   9  13
HETATM   13  O5  UNL     1      -2.778   6.171  13.193  1.00  0.00    -0.392 OA
HETATM   14  H28 UNL     1      -2.623   6.446  14.117  1.00  0.00     0.210 HD
ENDBRANCH   9  13
BRANCH  10  15
HETATM   15  O6  UNL     1      -0.174   3.781  12.324  1.00  0.00    -0.385 OA
HETATM   16  H29 UNL     1      -0.338   2.987  11.778  1.00  0.00     0.210 HD
ENDBRANCH  10  15
BRANCH  10  17
HETATM   17  C23 UNL     1      -0.426   6.114  11.673  1.00  0.00     0.069 C 
BRANCH  17  18
HETATM   18  C24 UNL     1       0.697   6.185  10.662  1.00  0.00    -0.027 C 
HETATM   19  C25 UNL     1       1.198   7.279  10.065  1.00  0.00    -0.024 C 
BRANCH  19  20
HETATM   20  C26 UNL     1       2.345   7.248   9.080  1.00  0.00     0.032 C 
HETATM   21  C27 UNL     1       2.781   5.800   8.832  1.00  0.00     0.017 C 
BRANCH  20  22
HETATM   22  C28 UNL     1       2.009   8.012   7.774  1.00  0.00     0.121 C 
HETATM   23  C29 UNL     1       1.821   7.135   6.539  1.00  0.00     0.040 C 
BRANCH  22  24
HETATM   24  O7  UNL     1       3.054   8.946   7.479  1.00  0.00    -0.395 OA
HETATM   25  H42 UNL     1       3.064   9.601   8.198  1.00  0.00     0.210 HD
ENDBRANCH  22  24
ENDBRANCH  20  22
ENDBRANCH  19  20
ENDBRANCH  17  18
ENDBRANCH  10  17
ENDBRANCH   6   7
ENDBRANCH   4   6
ENDBRANCH   1   3
BRANCH   1  26
HETATM   26  O2  UNL     1      -7.211   4.778  12.954  1.00  0.00    -0.318 OA
BRANCH  26  27
HETATM   27  C5  UNL     1      -6.518   4.997  14.193  1.00  0.00     0.179 C 
BRANCH  27  28
HETATM   28  C6  UNL     1      -7.454   5.653  15.209  1.00  0.00     0.027 C 
BRANCH  28  29
HETATM   29  C7  UNL     1      -7.933   7.029  14.735  1.00  0.00     0.002 C 
BRANCH  29  30
HETATM   30  C8  UNL     1      -9.438   7.093  14.457  1.00  0.00     0.000 C 
BRANCH  30  31
HETATM   31  C9  UNL     1      -9.889   6.629  13.070  1.00  0.00     0.000 C 
BRANCH  31  32
HETATM   32  C10 UNL     1     -11.171   7.270  12.528  1.00  0.00     0.009 C 
BRANCH  32  33
HETATM   33  C11 UNL     1     -11.683   8.478  13.311  1.00  0.00     0.103 C 
BRANCH  33  34
HETATM   34  C12 UNL     1     -13.199   8.573  13.398  1.00  0.00     0.222 C 
HETATM   35  O3  UNL     1     -13.776   9.585  13.777  1.00  0.00    -0.273 OA
HETATM   36  N1  UNL     1     -13.805   7.420  12.950  1.00  0.00    -0.321 N 
HETATM   37  H19 UNL     1     -13.221   6.765  12.438  1.00  0.00     0.169 HD
BRANCH  36  38
HETATM   38  C13 UNL     1     -15.139   7.112  12.921  1.00  0.00     0.123 A 
HETATM   39  C14 UNL     1     -15.959   6.288  13.584  1.00  0.00     0.071 A 
HETATM   40  S1  UNL     1     -15.750   5.110  14.809  1.00  0.00    -0.049 SA
HETATM   41  C16 UNL     1     -17.294   6.384  13.073  1.00  0.00     0.062 A 
HETATM   42  S2  UNL     1     -17.759   4.572  14.878  1.00  0.00    -0.062 SA
HETATM   43  C15 UNL     1     -18.260   5.631  13.588  1.00  0.00     0.088 A 
HETATM   44  N2  UNL     1     -17.295   7.295  12.072  1.00  0.00    -0.320 N 
HETATM   45  C17 UNL     1     -16.021   7.787  11.898  1.00  0.00     0.274 A 
HETATM   46  H21 UNL     1     -18.087   7.581  11.514  1.00  0.00     0.169 HD
HETATM   47  O4  UNL     1     -15.640   8.614  11.087  1.00  0.00    -0.266 OA
ENDBRANCH  36  38
ENDBRANCH  33  34
ENDBRANCH  32  33
ENDBRANCH  31  32
ENDBRANCH  30  31
ENDBRANCH  29  30
ENDBRANCH  28  29
ENDBRANCH  27  28
ENDBRANCH  26  27
ENDBRANCH   1  26
TORSDOF 20
ENDMDL
MODEL 2
REMARK minimizedAffinity -7.76532316
REMARK CNNscore 0.343361974
REMARK CNNaffinity 7.28634787
REMARK  20 active torsions:
REMARK  status: ('A' for Active; 'I' for Inactive)
REMARK    1  A    between atoms: C2_2  and  C18_26 
REMARK    2  A    between atoms: C3_3  and  C4_4 
REMARK    3  A    between atoms: C4_4  and  O2_6 
REMARK    4  A    between atoms: O2_6  and  C5_7 
REMARK    5  A    between atoms: C5_7  and  C6_8 
REMARK    6  A    between atoms: C6_8  and  C7_9 
REMARK    7  A    between atoms: C7_9  and  C8_10 
REMARK    8  A    between atoms: C8_10  and  C9_11 
REMARK    9  A    between atoms: C9_11  and  C10_12 
REMARK   10  A    between atoms: C10_12  and  C11_13 
REMARK   11  A    between atoms: C11_13  and  C12_14 
REMARK       I    between atoms: C12_14  and  N1_16 
REMARK   12  A    between atoms: N1_16  and  C13_17 
REMARK   13  A    between atoms: C18_26  and  C19_27 
REMARK   14  A    between atoms: C21_29  and  O5_30 
REMARK   15  A    between atoms: C22_31  and  O6_32 
REMARK   16  A    between atoms: C22_31  and  C23_33 
REMARK   17  A    between atoms: C23_33  and  C24_34 
REMARK   18  A    between atoms: C25_35  and  C26_36 
REMARK   19  A    between atoms: C26_36  and  C28_38 
REMARK   20  A    between atoms: C28_38  and  O7_40 
ROOT
HETATM    1  C4  UNL     1      -1.503   2.696  11.147  1.00  0.00     0.283 C 
HETATM    2  O1  UNL     1      -0.589   2.085  11.668  1.00  0.00    -0.260 OA
ENDROOT
BRANCH   1   3
HETATM    3  C3  UNL     1      -2.946   2.364  11.237  1.00  0.00     0.084 C 
HETATM    4  C2  UNL     1      -3.835   2.896  12.102  1.00  0.00    -0.076 C 
HETATM    5  C1  UNL     1      -3.496   3.866  13.203  1.00  0.00     0.043 C 
BRANCH   4   6
HETATM    6  C18 UNL     1      -5.308   2.531  11.995  1.00  0.00     0.066 C 
BRANCH   6   7
HETATM    7  C19 UNL     1      -6.234   3.758  12.101  1.00  0.00     0.128 C 
HETATM    8  C20 UNL     1      -5.783   4.684  13.226  1.00  0.00     0.067 C 
HETATM    9  C21 UNL     1      -6.703   5.906  13.347  1.00  0.00     0.157 C 
HETATM   10  C22 UNL     1      -8.176   5.573  12.995  1.00  0.00     0.108 C 
HETATM   11  C30 UNL     1      -8.388   4.058  13.199  1.00  0.00     0.209 C 
HETATM   12  O8  UNL     1      -7.580   3.290  12.294  1.00  0.00    -0.382 OA
BRANCH   9  13
HETATM   13  O5  UNL     1      -6.561   6.377  14.690  1.00  0.00    -0.392 OA
HETATM   14  H28 UNL     1      -6.156   7.264  14.640  1.00  0.00     0.210 HD
ENDBRANCH   9  13
BRANCH  10  15
HETATM   15  O6  UNL     1      -8.399   5.851  11.592  1.00  0.00    -0.385 OA
HETATM   16  H29 UNL     1      -8.425   4.992  11.125  1.00  0.00     0.210 HD
ENDBRANCH  10  15
BRANCH  10  17
HETATM   17  C23 UNL     1      -9.226   6.355  13.826  1.00  0.00     0.069 C 
BRANCH  17  18
HETATM   18  C24 UNL     1     -10.399   7.030  13.149  1.00  0.00    -0.027 C 
HETATM   19  C25 UNL     1     -11.672   7.084  13.572  1.00  0.00    -0.024 C 
BRANCH  19  20
HETATM   20  C26 UNL     1     -12.773   7.809  12.830  1.00  0.00     0.032 C 
HETATM   21  C27 UNL     1     -14.135   7.440  13.426  1.00  0.00     0.017 C 
BRANCH  20  22
HETATM   22  C28 UNL     1     -12.528   9.338  12.777  1.00  0.00     0.121 C 
HETATM   23  C29 UNL     1     -13.768  10.202  12.989  1.00  0.00     0.040 C 
BRANCH  22  24
HETATM   24  O7  UNL     1     -11.972   9.693  11.506  1.00  0.00    -0.395 OA
HETATM   25  H42 UNL     1     -11.102   9.263  11.443  1.00  0.00     0.210 HD
ENDBRANCH  22  24
ENDBRANCH  20  22
ENDBRANCH  19  20
ENDBRANCH  17  18
ENDBRANCH  10  17
ENDBRANCH   6   7
ENDBRANCH   4   6
ENDBRANCH   1   3
BRANCH   1  26
HETATM   26  O2  UNL     1      -1.392   3.837  10.415  1.00  0.00    -0.318 OA
BRANCH  26  27
HETATM   27  C5  UNL     1      -1.151   5.030  11.178  1.00  0.00     0.179 C 
BRANCH  27  28
HETATM   28  C6  UNL     1       0.216   4.949  11.859  1.00  0.00     0.027 C 
BRANCH  28  29
HETATM   29  C7  UNL     1       0.135   5.322  13.343  1.00  0.00     0.002 C 
BRANCH  29  30
HETATM   30  C8  UNL     1       1.141   6.398  13.762  1.00  0.00     0.000 C 
BRANCH  30  31
HETATM   31  C9  UNL     1       0.679   7.850  13.608  1.00  0.00     0.000 C 
BRANCH  31  32
HETATM   32  C10 UNL     1       1.281   8.629  12.434  1.00  0.00     0.009 C 
BRANCH  32  33
HETATM   33  C11 UNL     1       2.799   8.526  12.287  1.00  0.00     0.103 C 
BRANCH  33  34
HETATM   34  C12 UNL     1       3.271   8.144  10.892  1.00  0.00     0.222 C 
HETATM   35  O3  UNL     1       4.304   8.581  10.402  1.00  0.00    -0.273 OA
HETATM   36  N1  UNL     1       2.428   7.223  10.308  1.00  0.00    -0.321 N 
HETATM   37  H19 UNL     1       1.756   6.766  10.918  1.00  0.00     0.169 HD
BRANCH  36  38
HETATM   38  C13 UNL     1       2.494   6.681   9.052  1.00  0.00     0.123 A 
HETATM   39  C14 UNL     1       3.039   5.596   8.492  1.00  0.00     0.071 A 
HETATM   40  S1  UNL     1       4.024   4.314   9.058  1.00  0.00    -0.049 SA
HETATM   41  C16 UNL     1       2.790   5.576   7.081  1.00  0.00     0.062 A 
HETATM   42  S2  UNL     1       4.176   3.379   7.205  1.00  0.00    -0.062 SA
HETATM   43  C15 UNL     1       3.266   4.584   6.335  1.00  0.00     0.088 A 
HETATM   44  N2  UNL     1       2.067   6.675   6.767  1.00  0.00    -0.320 N 
HETATM   45  C17 UNL     1       1.845   7.419   7.905  1.00  0.00     0.274 A 
HETATM   46  H21 UNL     1       1.738   6.943   5.851  1.00  0.00     0.169 HD
HETATM   47  O4  UNL     1       1.241   8.472   8.007  1.00  0.00    -0.266 OA
ENDBRANCH  36  38
ENDBRANCH  33  34
ENDBRANCH  32  33
ENDBRANCH  31  32
ENDBRANCH  30  31
ENDBRANCH  29  30
ENDBRANCH  28  29
ENDBRANCH  27  28
ENDBRANCH  26  27
ENDBRANCH   1  26
TORSDOF 20
ENDMDL
MODEL 3
REMARK minimizedAffinity -7.62125444
REMARK CNNscore 0.258330077
REMARK CNNaffinity 6.52650023
REMARK  20 active torsions:
REMARK  status: ('A' for Active; 'I' for Inactive)
REMARK    1  A    between atoms: C2_2  and  C18_26 
REMARK    2  A    between atoms: C3_3  and  C4_4 
REMARK    3  A    between atoms: C4_4  and  O2_6 
REMARK    4  A    between atoms: O2_6  and  C5_7 
REMARK    5  A    between atoms: C5_7  and  C6_8 
REMARK    6  A    between atoms: C6_8  and  C7_9 
REMARK    7  A    between atoms: C7_9  and  C8_10 
REMARK    8  A    between atoms: C8_10  and  C9_11 
REMARK    9  A    between atoms: C9_11  and  C10_12 
REMARK   10  A    between atoms: C10_12  and  C11_13 
REMARK   11  A    between atoms: C11_13  and  C12_14 
REMARK       I    between atoms: C12_14  and  N1_16 
REMARK   12  A    between atoms: N1_16  and  C13_17 
REMARK   13  A    between atoms: C18_26  and  C19_27 
REMARK   14  A    between atoms: C21_29  and  O5_30 
REMARK   15  A    between atoms: C22_31  and  O6_32 
REMARK   16  A    between atoms: C22_31  and  C23_33 
REMARK   17  A    between atoms: C23_33  and  C24_34 
REMARK   18  A    between atoms: C25_35  and  C26_36 
REMARK   19  A    between atoms: C26_36  and  C28_38 
REMARK   20  A    between atoms: C28_38  and  O7_40 
ROOT
HETATM    1  C4  UNL     1     -13.276   6.793  13.934  1.00  0.00     0.283 C 
HETATM    2  O1  UNL     1     -13.772   6.942  12.832  1.00  0.00    -0.260 OA
ENDROOT
BRANCH   1   3
HETATM    3  C3  UNL     1     -11.827   6.795  14.253  1.00  0.00     0.084 C 
HETATM    4  C2  UNL     1     -10.987   7.845  14.140  1.00  0.00    -0.076 C 
HETATM    5  C1  UNL     1     -11.357   9.192  13.578  1.00  0.00     0.043 C 
BRANCH   4   6
HETATM    6  C18 UNL     1      -9.547   7.718  14.613  1.00  0.00     0.066 C 
BRANCH   6   7
HETATM    7  C19 UNL     1      -8.928   6.348  14.273  1.00  0.00     0.128 C 
HETATM    8  C20 UNL     1      -7.432   6.339  14.566  1.00  0.00     0.067 C 
HETATM    9  C21 UNL     1      -6.803   4.983  14.223  1.00  0.00     0.157 C 
HETATM   10  C22 UNL     1      -7.482   4.309  13.003  1.00  0.00     0.108 C 
HETATM   11  C30 UNL     1      -8.158   5.411  12.160  1.00  0.00     0.209 C 
HETATM   12  O8  UNL     1      -9.210   6.059  12.892  1.00  0.00    -0.382 OA
BRANCH   9  13
HETATM   13  O5  UNL     1      -5.414   5.237  13.998  1.00  0.00    -0.392 OA
HETATM   14  H28 UNL     1      -4.921   4.768  14.698  1.00  0.00     0.210 HD
ENDBRANCH   9  13
BRANCH  10  15
HETATM   15  O6  UNL     1      -8.529   3.428  13.474  1.00  0.00    -0.385 OA
HETATM   16  H29 UNL     1      -9.384   3.872  13.303  1.00  0.00     0.210 HD
ENDBRANCH  10  15
BRANCH  10  17
HETATM   17  C23 UNL     1      -6.518   3.493  12.103  1.00  0.00     0.069 C 
BRANCH  17  18
HETATM   18  C24 UNL     1      -5.081   3.932  11.917  1.00  0.00    -0.027 C 
HETATM   19  C25 UNL     1      -4.076   3.239  11.356  1.00  0.00    -0.024 C 
BRANCH  19  20
HETATM   20  C26 UNL     1      -2.673   3.778  11.195  1.00  0.00     0.032 C 
HETATM   21  C27 UNL     1      -2.417   4.886  12.223  1.00  0.00     0.017 C 
BRANCH  20  22
HETATM   22  C28 UNL     1      -1.610   2.651  11.239  1.00  0.00     0.121 C 
HETATM   23  C29 UNL     1      -0.214   3.093  11.671  1.00  0.00     0.040 C 
BRANCH  22  24
HETATM   24  O7  UNL     1      -1.487   2.053   9.944  1.00  0.00    -0.395 OA
HETATM   25  H42 UNL     1      -2.340   1.632   9.741  1.00  0.00     0.210 HD
ENDBRANCH  22  24
ENDBRANCH  20  22
ENDBRANCH  19  20
ENDBRANCH  17  18
ENDBRANCH  10  17
ENDBRANCH   6   7
ENDBRANCH   4   6
ENDBRANCH   1   3
BRANCH   1  26
HETATM   26  O2  UNL     1     -13.951   6.641  15.104  1.00  0.00    -0.318 OA
BRANCH  26  27
HETATM   27  C5  UNL     1     -15.061   7.535  15.289  1.00  0.00     0.179 C 
BRANCH  27  28
HETATM   28  C6  UNL     1     -16.354   6.736  15.460  1.00  0.00     0.027 C 
BRANCH  28  29
HETATM   29  C7  UNL     1     -16.818   6.115  14.138  1.00  0.00     0.002 C 
BRANCH  29  30
HETATM   30  C8  UNL     1     -17.190   4.634  14.253  1.00  0.00     0.000 C 
BRANCH  30  31
HETATM   31  C9  UNL     1     -16.470   3.840  15.346  1.00  0.00     0.000 C 
BRANCH  31  32
HETATM   32  C10 UNL     1     -17.273   2.710  15.999  1.00  0.00     0.009 C 
BRANCH  32  33
HETATM   33  C11 UNL     1     -16.445   1.640  16.709  1.00  0.00     0.103 C 
BRANCH  33  34
HETATM   34  C12 UNL     1     -15.525   0.847  15.792  1.00  0.00     0.222 C 
HETATM   35  O3  UNL     1     -14.306   0.865  15.903  1.00  0.00    -0.273 OA
HETATM   36  N1  UNL     1     -16.241   0.089  14.891  1.00  0.00    -0.321 N 
HETATM   37  H19 UNL     1     -17.235  -0.021  15.072  1.00  0.00     0.169 HD
BRANCH  36  38
HETATM   38  C13 UNL     1     -15.771  -0.712  13.884  1.00  0.00     0.123 A 
HETATM   39  C14 UNL     1     -15.196  -1.917  13.791  1.00  0.00     0.071 A 
HETATM   40  S1  UNL     1     -14.676  -3.093  14.921  1.00  0.00    -0.049 SA
HETATM   41  C16 UNL     1     -14.888  -2.226  12.426  1.00  0.00     0.062 A 
HETATM   42  S2  UNL     1     -13.949  -4.408  13.482  1.00  0.00    -0.062 SA
HETATM   43  C15 UNL     1     -14.294  -3.375  12.122  1.00  0.00     0.088 A 
HETATM   44  N2  UNL     1     -15.289  -1.186  11.660  1.00  0.00    -0.320 N 
HETATM   45  C17 UNL     1     -15.832  -0.206  12.462  1.00  0.00     0.274 A 
HETATM   46  H21 UNL     1     -15.206  -1.104  10.657  1.00  0.00     0.169 HD
HETATM   47  O4  UNL     1     -16.288   0.872  12.125  1.00  0.00    -0.266 OA
ENDBRANCH  36  38
ENDBRANCH  33  34
ENDBRANCH  32  33
ENDBRANCH  31  32
ENDBRANCH  30  31
ENDBRANCH  29  30
ENDBRANCH  28  29
ENDBRANCH  27  28
ENDBRANCH  26  27
ENDBRANCH   1  26
TORSDOF 20
ENDMDL
MODEL 4
REMARK minimizedAffinity -7.92634678
REMARK CNNscore 0.230340466
REMARK CNNaffinity 5.5917573
REMARK  20 active torsions:
REMARK  status: ('A' for Active; 'I' for Inactive)
REMARK    1  A    between atoms: C2_2  and  C18_26 
REMARK    2  A    between atoms: C3_3  and  C4_4 
REMARK    3  A    between atoms: C4_4  and  O2_6 
REMARK    4  A    between atoms: O2_6  and  C5_7 
REMARK    5  A    between atoms: C5_7  and  C6_8 
REMARK    6  A    between atoms: C6_8  and  C7_9 
REMARK    7  A    between atoms: C7_9  and  C8_10 
REMARK    8  A    between atoms: C8_10  and  C9_11 
REMARK    9  A    between atoms: C9_11  and  C10_12 
REMARK   10  A    between atoms: C10_12  and  C11_13 
REMARK   11  A    between atoms: C11_13  and  C12_14 
REMARK       I    between atoms: C12_14  and  N1_16 
REMARK   12  A    between atoms: N1_16  and  C13_17 
REMARK   13  A    between atoms: C18_26  and  C19_27 
REMARK   14  A    between atoms: C21_29  and  O5_30 
REMARK   15  A    between atoms: C22_31  and  O6_32 
REMARK   16  A    between atoms: C22_31  and  C23_33 
REMARK   17  A    between atoms: C23_33  and  C24_34 
REMARK   18  A    between atoms: C25_35  and  C26_36 
REMARK   19  A    between atoms: C26_36  and  C28_38 
REMARK   20  A    between atoms: C28_38  and  O7_40 
ROOT
HETATM    1  C4  UNL     1       0.589  11.406  19.881  1.00  0.00     0.283 C 
HETATM    2  O1  UNL     1       0.457  12.529  20.332  1.00  0.00    -0.260 OA
ENDROOT
BRANCH   1   3
HETATM    3  C3  UNL     1       0.297  10.977  18.491  1.00  0.00     0.084 C 
HETATM    4  C2  UNL     1      -0.924  10.901  17.920  1.00  0.00    -0.076 C 
HETATM    5  C1  UNL     1      -2.227  11.152  18.630  1.00  0.00     0.043 C 
BRANCH   4   6
HETATM    6  C18 UNL     1      -1.050  10.548  16.446  1.00  0.00     0.066 C 
BRANCH   6   7
HETATM    7  C19 UNL     1      -1.474   9.084  16.219  1.00  0.00     0.128 C 
HETATM    8  C20 UNL     1      -0.281   8.231  15.803  1.00  0.00     0.067 C 
HETATM    9  C21 UNL     1      -0.693   6.772  15.566  1.00  0.00     0.157 C 
HETATM   10  C22 UNL     1      -2.128   6.649  14.990  1.00  0.00     0.108 C 
HETATM   11  C30 UNL     1      -2.481   7.981  14.294  1.00  0.00     0.209 C 
HETATM   12  O8  UNL     1      -2.521   9.067  15.231  1.00  0.00    -0.382 OA
BRANCH   9  13
HETATM   13  O5  UNL     1       0.291   6.221  14.687  1.00  0.00    -0.392 OA
HETATM   14  H28 UNL     1       0.760   5.524  15.184  1.00  0.00     0.210 HD
ENDBRANCH   9  13
BRANCH  10  15
HETATM   15  O6  UNL     1      -3.060   6.478  16.084  1.00  0.00    -0.385 OA
HETATM   16  H29 UNL     1      -3.524   7.330  16.209  1.00  0.00     0.210 HD
ENDBRANCH  10  15
BRANCH  10  17
HETATM   17  C23 UNL     1      -2.319   5.480  13.990  1.00  0.00     0.069 C 
BRANCH  17  18
HETATM   18  C24 UNL     1      -3.691   4.892  13.745  1.00  0.00    -0.027 C 
HETATM   19  C25 UNL     1      -4.083   4.119  12.719  1.00  0.00    -0.024 C 
BRANCH  19  20
HETATM   20  C26 UNL     1      -5.480   3.557  12.576  1.00  0.00     0.032 C 
HETATM   21  C27 UNL     1      -6.514   4.659  12.829  1.00  0.00     0.017 C 
BRANCH  20  22
HETATM   22  C28 UNL     1      -5.680   2.838  11.218  1.00  0.00     0.121 C 
HETATM   23  C29 UNL     1      -5.863   1.325  11.307  1.00  0.00     0.040 C 
BRANCH  22  24
HETATM   24  O7  UNL     1      -4.551   3.082  10.372  1.00  0.00    -0.395 OA
HETATM   25  H42 UNL     1      -4.532   4.037  10.187  1.00  0.00     0.210 HD
ENDBRANCH  22  24
ENDBRANCH  20  22
ENDBRANCH  19  20
ENDBRANCH  17  18
ENDBRANCH  10  17
ENDBRANCH   6   7
ENDBRANCH   4   6
ENDBRANCH   1   3
BRANCH   1  26
HETATM   26  O2  UNL     1       1.076  10.325  20.547  1.00  0.00    -0.318 OA
BRANCH  26  27
HETATM   27  C5  UNL     1       2.463  10.409  20.914  1.00  0.00     0.179 C 
BRANCH  27  28
HETATM   28  C6  UNL     1       2.755   9.461  22.078  1.00  0.00     0.027 C 
BRANCH  28  29
HETATM   29  C7  UNL     1       4.143   9.708  22.677  1.00  0.00     0.002 C 
BRANCH  29  30
HETATM   30  C8  UNL     1       4.465  11.190  22.891  1.00  0.00     0.000 C 
BRANCH  30  31
HETATM   31  C9  UNL     1       5.761  11.699  22.255  1.00  0.00     0.000 C 
BRANCH  31  32
HETATM   32  C10 UNL     1       6.757  12.377  23.202  1.00  0.00     0.009 C 
BRANCH  32  33
HETATM   33  C11 UNL     1       8.201  11.888  23.097  1.00  0.00     0.103 C 
BRANCH  33  34
HETATM   34  C12 UNL     1       9.074  12.708  22.159  1.00  0.00     0.222 C 
HETATM   35  O3  UNL     1       9.446  13.844  22.425  1.00  0.00    -0.273 OA
HETATM   36  N1  UNL     1       9.421  11.990  21.034  1.00  0.00    -0.321 N 
HETATM   37  H19 UNL     1       9.251  10.988  21.061  1.00  0.00     0.169 HD
BRANCH  36  38
HETATM   38  C13 UNL     1      10.150  12.400  19.950  1.00  0.00     0.123 A 
HETATM   39  C14 UNL     1      10.022  13.322  18.988  1.00  0.00     0.071 A 
HETATM   40  S1  UNL     1       8.815  14.458  18.562  1.00  0.00    -0.049 SA
HETATM   41  C16 UNL     1      11.129  13.260  18.080  1.00  0.00     0.062 A 
HETATM   42  S2  UNL     1       9.838  15.187  16.903  1.00  0.00    -0.062 SA
HETATM   43  C15 UNL     1      11.182  14.085  17.039  1.00  0.00     0.088 A 
HETATM   44  N2  UNL     1      11.961  12.279  18.498  1.00  0.00    -0.320 N 
HETATM   45  C17 UNL     1      11.442  11.688  19.629  1.00  0.00     0.274 A 
HETATM   46  H21 UNL     1      12.827  11.993  18.065  1.00  0.00     0.169 HD
HETATM   47  O4  UNL     1      11.910  10.768  20.276  1.00  0.00    -0.266 OA
ENDBRANCH  36  38
ENDBRANCH  33  34
ENDBRANCH  32  33
ENDBRANCH  31  32
ENDBRANCH  30  31
ENDBRANCH  29  30
ENDBRANCH  28  29
ENDBRANCH  27  28
ENDBRANCH  26  27
ENDBRANCH   1  26
TORSDOF 20
ENDMDL
MODEL 5
REMARK minimizedAffinity -7.23485327
REMARK CNNscore 0.206272677
REMARK CNNaffinity 6.43935204
REMARK  20 active torsions:
REMARK  status: ('A' for Active; 'I' for Inactive)
REMARK    1  A    between atoms: C2_2  and  C18_26 
REMARK    2  A    between atoms: C3_3  and  C4_4 
REMARK    3  A    between atoms: C4_4  and  O2_6 
REMARK    4  A    between atoms: O2_6  and  C5_7 
REMARK    5  A    between atoms: C5_7  and  C6_8 
REMARK    6  A    between atoms: C6_8  and  C7_9 
REMARK    7  A    between atoms: C7_9  and  C8_10 
REMARK    8  A    between atoms: C8_10  and  C9_11 
REMARK    9  A    between atoms: C9_11  and  C10_12 
REMARK   10  A    between atoms: C10_12  and  C11_13 
REMARK   11  A    between atoms: C11_13  and  C12_14 
REMARK       I    between atoms: C12_14  and  N1_16 
REMARK   12  A    between atoms: N1_16  and  C13_17 
REMARK   13  A    between atoms: C18_26  and  C19_27 
REMARK   14  A    between atoms: C21_29  and  O5_30 
REMARK   15  A    between atoms: C22_31  and  O6_32 
REMARK   16  A    between atoms: C22_31  and  C23_33 
REMARK   17  A    between atoms: C23_33  and  C24_34 
REMARK   18  A    between atoms: C25_35  and  C26_36 
REMARK   19  A    between atoms: C26_36  and  C28_38 
REMARK   20  A    between atoms: C28_38  and  O7_40 
ROOT
HETATM    1  C4  UNL     1       0.462   5.644  11.498  1.00  0.00     0.283 C 
HETATM    2  O1  UNL     1      -0.352   6.458  11.896  1.00  0.00    -0.260 OA
ENDROOT
BRANCH   1   3
HETATM    3  C3  UNL     1       1.826   5.939  10.996  1.00  0.00     0.084 C 
HETATM    4  C2  UNL     1       2.134   6.712   9.933  1.00  0.00    -0.076 C 
HETATM    5  C1  UNL     1       1.133   7.344   9.004  1.00  0.00     0.043 C 
BRANCH   4   6
HETATM    6  C18 UNL     1       3.591   7.008   9.610  1.00  0.00     0.066 C 
BRANCH   6   7
HETATM    7  C19 UNL     1       4.465   7.146  10.871  1.00  0.00     0.128 C 
HETATM    8  C20 UNL     1       4.906   8.592  11.071  1.00  0.00     0.067 C 
HETATM    9  C21 UNL     1       5.784   8.741  12.320  1.00  0.00     0.157 C 
HETATM   10  C22 UNL     1       6.665   7.490  12.575  1.00  0.00     0.108 C 
HETATM   11  C30 UNL     1       6.840   6.745  11.235  1.00  0.00     0.209 C 
HETATM   12  O8  UNL     1       5.585   6.252  10.742  1.00  0.00    -0.382 OA
BRANCH   9  13
HETATM   13  O5  UNL     1       6.566   9.920  12.116  1.00  0.00    -0.392 OA
HETATM   14  H28 UNL     1       6.293  10.565  12.796  1.00  0.00     0.210 HD
ENDBRANCH   9  13
BRANCH  10  15
HETATM   15  O6  UNL     1       5.965   6.596  13.474  1.00  0.00    -0.385 OA
HETATM   16  H29 UNL     1       5.621   5.854  12.938  1.00  0.00     0.210 HD
ENDBRANCH  10  15
BRANCH  10  17
HETATM   17  C23 UNL     1       8.061   7.801  13.175  1.00  0.00     0.069 C 
BRANCH  17  18
HETATM   18  C24 UNL     1       8.219   8.078  14.655  1.00  0.00    -0.027 C 
HETATM   19  C25 UNL     1       8.080   9.252  15.291  1.00  0.00    -0.024 C 
BRANCH  19  20
HETATM   20  C26 UNL     1       8.237   9.421  16.785  1.00  0.00     0.032 C 
HETATM   21  C27 UNL     1       9.684   9.799  17.119  1.00  0.00     0.017 C 
BRANCH  20  22
HETATM   22  C28 UNL     1       7.200  10.415  17.369  1.00  0.00     0.121 C 
HETATM   23  C29 UNL     1       6.548  11.344  16.350  1.00  0.00     0.040 C 
BRANCH  22  24
HETATM   24  O7  UNL     1       7.826  11.239  18.359  1.00  0.00    -0.395 OA
HETATM   25  H42 UNL     1       8.101  10.654  19.087  1.00  0.00     0.210 HD
ENDBRANCH  22  24
ENDBRANCH  20  22
ENDBRANCH  19  20
ENDBRANCH  17  18
ENDBRANCH  10  17
ENDBRANCH   6   7
ENDBRANCH   4   6
ENDBRANCH   1   3
BRANCH   1  26
HETATM   26  O2  UNL     1       0.301   4.294  11.478  1.00  0.00    -0.318 OA
BRANCH  26  27
HETATM   27  C5  UNL     1      -0.964   3.822  11.966  1.00  0.00     0.179 C 
BRANCH  27  28
HETATM   28  C6  UNL     1      -1.730   3.121  10.844  1.00  0.00     0.027 C 
BRANCH  28  29
HETATM   29  C7  UNL     1      -3.016   2.464  11.357  1.00  0.00     0.002 C 
BRANCH  29  30
HETATM   30  C8  UNL     1      -4.252   3.361  11.242  1.00  0.00     0.000 C 
BRANCH  30  31
HETATM   31  C9  UNL     1      -5.093   3.519  12.511  1.00  0.00     0.000 C 
BRANCH  31  32
HETATM   32  C10 UNL     1      -6.572   3.863  12.302  1.00  0.00     0.009 C 
BRANCH  32  33
HETATM   33  C11 UNL     1      -7.367   4.146  13.576  1.00  0.00     0.103 C 
BRANCH  33  34
HETATM   34  C12 UNL     1      -7.702   5.614  13.795  1.00  0.00     0.222 C 
HETATM   35  O3  UNL     1      -7.038   6.522  13.311  1.00  0.00    -0.273 OA
HETATM   36  N1  UNL     1      -8.851   5.765  14.540  1.00  0.00    -0.321 N 
HETATM   37  H19 UNL     1      -9.429   4.938  14.662  1.00  0.00     0.169 HD
BRANCH  36  38
HETATM   38  C13 UNL     1      -9.438   6.921  14.981  1.00  0.00     0.123 A 
HETATM   39  C14 UNL     1     -10.424   7.725  14.568  1.00  0.00     0.071 A 
HETATM   40  S1  UNL     1     -11.453   7.765  13.200  1.00  0.00    -0.049 SA
HETATM   41  C16 UNL     1     -10.571   8.841  15.456  1.00  0.00     0.062 A 
HETATM   42  S2  UNL     1     -12.442   9.504  13.775  1.00  0.00    -0.062 SA
HETATM   43  C15 UNL     1     -11.490   9.770  15.211  1.00  0.00     0.088 A 
HETATM   44  N2  UNL     1      -9.655   8.714  16.443  1.00  0.00    -0.320 N 
HETATM   45  C17 UNL     1      -8.908   7.577  16.233  1.00  0.00     0.274 A 
HETATM   46  H21 UNL     1      -9.509   9.345  17.218  1.00  0.00     0.169 HD
HETATM   47  O4  UNL     1      -7.990   7.147  16.910  1.00  0.00    -0.266 OA
ENDBRANCH  36  38
ENDBRANCH  33  34
ENDBRANCH  32  33
ENDBRANCH  31  32
ENDBRANCH  30  31
ENDBRANCH  29  30
ENDBRANCH  28  29
ENDBRANCH  27  28
ENDBRANCH  26  27
ENDBRANCH   1  26
TORSDOF 20
ENDMDL
MODEL 6
REMARK minimizedAffinity -7.79763222
REMARK CNNscore 0.203029022
REMARK CNNaffinity 5.76163054
REMARK  20 active torsions:
REMARK  status: ('A' for Active; 'I' for Inactive)
REMARK    1  A    between atoms: C2_2  and  C18_26 
REMARK    2  A    between atoms: C3_3  and  C4_4 
REMARK    3  A    between atoms: C4_4  and  O2_6 
REMARK    4  A    between atoms: O2_6  and  C5_7 
REMARK    5  A    between atoms: C5_7  and  C6_8 
REMARK    6  A    between atoms: C6_8  and  C7_9 
REMARK    7  A    between atoms: C7_9  and  C8_10 
REMARK    8  A    between atoms: C8_10  and  C9_11 
REMARK    9  A    between atoms: C9_11  and  C10_12 
REMARK   10  A    between atoms: C10_12  and  C11_13 
REMARK   11  A    between atoms: C11_13  and  C12_14 
REMARK       I    between atoms: C12_14  and  N1_16 
REMARK   12  A    between atoms: N1_16  and  C13_17 
REMARK   13  A    between atoms: C18_26  and  C19_27 
REMARK   14  A    between atoms: C21_29  and  O5_30 
REMARK   15  A    between atoms: C22_31  and  O6_32 
REMARK   16  A    between atoms: C22_31  and  C23_33 
REMARK   17  A    between atoms: C23_33  and  C24_34 
REMARK   18  A    between atoms: C25_35  and  C26_36 
REMARK   19  A    between atoms: C26_36  and  C28_38 
REMARK   20  A    between atoms: C28_38  and  O7_40 
ROOT
HETATM    1  C4  UNL     1       2.749  10.529  18.854  1.00  0.00     0.283 C 
HETATM    2  O1  UNL     1       3.756  11.210  18.790  1.00  0.00    -0.260 OA
ENDROOT
BRANCH   1   3
HETATM    3  C3  UNL     1       1.666  10.464  17.843  1.00  0.00     0.084 C 
HETATM    4  C2  UNL     1       0.362  10.743  18.053  1.00  0.00    -0.076 C 
HETATM    5  C1  UNL     1      -0.245  11.083  19.388  1.00  0.00     0.043 C 
BRANCH   4   6
HETATM    6  C18 UNL     1      -0.611  10.737  16.884  1.00  0.00     0.066 C 
BRANCH   6   7
HETATM    7  C19 UNL     1      -1.199   9.340  16.606  1.00  0.00     0.128 C 
HETATM    8  C20 UNL     1      -0.154   8.426  15.977  1.00  0.00     0.067 C 
HETATM    9  C21 UNL     1      -0.729   7.034  15.687  1.00  0.00     0.157 C 
HETATM   10  C22 UNL     1      -2.229   7.085  15.295  1.00  0.00     0.108 C 
HETATM   11  C30 UNL     1      -2.534   8.497  14.751  1.00  0.00     0.209 C 
HETATM   12  O8  UNL     1      -2.355   9.498  15.764  1.00  0.00    -0.382 OA
BRANCH   9  13
HETATM   13  O5  UNL     1       0.082   6.478  14.649  1.00  0.00    -0.392 OA
HETATM   14  H28 UNL     1       0.539   5.703  15.029  1.00  0.00     0.210 HD
ENDBRANCH   9  13
BRANCH  10  15
HETATM   15  O6  UNL     1      -3.033   6.901  16.484  1.00  0.00    -0.385 OA
HETATM   16  H29 UNL     1      -3.394   7.776  16.731  1.00  0.00     0.210 HD
ENDBRANCH  10  15
BRANCH  10  17
HETATM   17  C23 UNL     1      -2.653   6.027  14.243  1.00  0.00     0.069 C 
BRANCH  17  18
HETATM   18  C24 UNL     1      -4.038   6.056  13.635  1.00  0.00    -0.027 C 
HETATM   19  C25 UNL     1      -5.093   5.289  13.956  1.00  0.00    -0.024 C 
BRANCH  19  20
HETATM   20  C26 UNL     1      -6.450   5.412  13.301  1.00  0.00     0.032 C 
HETATM   21  C27 UNL     1      -6.822   4.093  12.616  1.00  0.00     0.017 C 
BRANCH  20  22
HETATM   22  C28 UNL     1      -7.531   5.905  14.296  1.00  0.00     0.121 C 
HETATM   23  C29 UNL     1      -7.260   5.580  15.762  1.00  0.00     0.040 C 
BRANCH  22  24
HETATM   24  O7  UNL     1      -8.797   5.328  13.958  1.00  0.00    -0.395 OA
HETATM   25  H42 UNL     1      -9.042   5.668  13.080  1.00  0.00     0.210 HD
ENDBRANCH  22  24
ENDBRANCH  20  22
ENDBRANCH  19  20
ENDBRANCH  17  18
ENDBRANCH  10  17
ENDBRANCH   6   7
ENDBRANCH   4   6
ENDBRANCH   1   3
BRANCH   1  26
HETATM   26  O2  UNL     1       2.436   9.652  19.846  1.00  0.00    -0.318 OA
BRANCH  26  27
HETATM   27  C5  UNL     1       3.190   9.807  21.058  1.00  0.00     0.179 C 
BRANCH  27  28
HETATM   28  C6  UNL     1       2.541  10.870  21.946  1.00  0.00     0.027 C 
BRANCH  28  29
HETATM   29  C7  UNL     1       3.501  11.364  23.034  1.00  0.00     0.002 C 
BRANCH  29  30
HETATM   30  C8  UNL     1       4.973  11.059  22.739  1.00  0.00     0.000 C 
BRANCH  30  31
HETATM   31  C9  UNL     1       5.894  12.271  22.575  1.00  0.00     0.000 C 
BRANCH  31  32
HETATM   32  C10 UNL     1       7.235  12.204  23.312  1.00  0.00     0.009 C 
BRANCH  32  33
HETATM   33  C11 UNL     1       8.356  13.055  22.717  1.00  0.00     0.103 C 
BRANCH  33  34
HETATM   34  C12 UNL     1       8.546  12.885  21.218  1.00  0.00     0.222 C 
HETATM   35  O3  UNL     1       8.117  13.691  20.402  1.00  0.00    -0.273 OA
HETATM   36  N1  UNL     1       9.294  11.765  20.927  1.00  0.00    -0.321 N 
HETATM   37  H19 UNL     1       9.790  11.332  21.701  1.00  0.00     0.169 HD
BRANCH  36  38
HETATM   38  C13 UNL     1       9.632  11.258  19.701  1.00  0.00     0.123 A 
HETATM   39  C14 UNL     1       8.985  10.914  18.581  1.00  0.00     0.071 A 
HETATM   40  S1  UNL     1       7.340  10.866  18.108  1.00  0.00    -0.049 SA
HETATM   41  C16 UNL     1       9.899  10.397  17.607  1.00  0.00     0.062 A 
HETATM   42  S2  UNL     1       7.727  10.121  16.204  1.00  0.00    -0.062 SA
HETATM   43  C15 UNL     1       9.450   9.981  16.427  1.00  0.00     0.088 A 
HETATM   44  N2  UNL     1      11.143  10.431  18.139  1.00  0.00    -0.320 N 
HETATM   45  C17 UNL     1      11.080  10.931  19.421  1.00  0.00     0.274 A 
HETATM   46  H21 UNL     1      11.999  10.131  17.697  1.00  0.00     0.169 HD
HETATM   47  O4  UNL     1      11.997  11.098  20.207  1.00  0.00    -0.266 OA
ENDBRANCH  36  38
ENDBRANCH  33  34
ENDBRANCH  32  33
ENDBRANCH  31  32
ENDBRANCH  30  31
ENDBRANCH  29  30
ENDBRANCH  28  29
ENDBRANCH  27  28
ENDBRANCH  26  27
ENDBRANCH   1  26
TORSDOF 20
ENDMDL
MODEL 7
REMARK minimizedAffinity -7.39625645
REMARK CNNscore 0.201701581
REMARK CNNaffinity 6.62893677
REMARK  20 active torsions:
REMARK  status: ('A' for Active; 'I' for Inactive)
REMARK    1  A    between atoms: C2_2  and  C18_26 
REMARK    2  A    between atoms: C3_3  and  C4_4 
REMARK    3  A    between atoms: C4_4  and  O2_6 
REMARK    4  A    between atoms: O2_6  and  C5_7 
REMARK    5  A    between atoms: C5_7  and  C6_8 
REMARK    6  A    between atoms: C6_8  and  C7_9 
REMARK    7  A    between atoms: C7_9  and  C8_10 
REMARK    8  A    between atoms: C8_10  and  C9_11 
REMARK    9  A    between atoms: C9_11  and  C10_12 
REMARK   10  A    between atoms: C10_12  and  C11_13 
REMARK   11  A    between atoms: C11_13  and  C12_14 
REMARK       I    between atoms: C12_14  and  N1_16 
REMARK   12  A    between atoms: N1_16  and  C13_17 
REMARK   13  A    between atoms: C18_26  and  C19_27 
REMARK   14  A    between atoms: C21_29  and  O5_30 
REMARK   15  A    between atoms: C22_31  and  O6_32 
REMARK   16  A    between atoms: C22_31  and  C23_33 
REMARK   17  A    between atoms: C23_33  and  C24_34 
REMARK   18  A    between atoms: C25_35  and  C26_36 
REMARK   19  A    between atoms: C26_36  and  C28_38 
REMARK   20  A    between atoms: C28_38  and  O7_40 
ROOT
HETATM    1  C4  UNL     1      -1.365   8.779  13.098  1.00  0.00     0.283 C 
HETATM    2  O1  UNL     1      -1.626   9.534  12.180  1.00  0.00    -0.260 OA
ENDROOT
BRANCH   1   3
HETATM    3  C3  UNL     1      -1.416   9.104  14.544  1.00  0.00     0.084 C 
HETATM    4  C2  UNL     1      -1.655  10.319  15.080  1.00  0.00    -0.076 C 
HETATM    5  C1  UNL     1      -1.824  11.592  14.295  1.00  0.00     0.043 C 
BRANCH   4   6
HETATM    6  C18 UNL     1      -1.785  10.469  16.589  1.00  0.00     0.066 C 
BRANCH   6   7
HETATM    7  C19 UNL     1      -0.431  10.356  17.316  1.00  0.00     0.128 C 
HETATM    8  C20 UNL     1      -0.508  10.974  18.708  1.00  0.00     0.067 C 
HETATM    9  C21 UNL     1       0.836  10.875  19.439  1.00  0.00     0.157 C 
HETATM   10  C22 UNL     1       2.044  10.989  18.472  1.00  0.00     0.108 C 
HETATM   11  C30 UNL     1       1.575  11.734  17.205  1.00  0.00     0.209 C 
HETATM   12  O8  UNL     1       0.572  10.987  16.500  1.00  0.00    -0.382 OA
BRANCH   9  13
HETATM   13  O5  UNL     1       0.830  11.914  20.422  1.00  0.00    -0.392 OA
HETATM   14  H28 UNL     1       0.847  11.479  21.296  1.00  0.00     0.210 HD
ENDBRANCH   9  13
BRANCH  10  15
HETATM   15  O6  UNL     1       2.447   9.660  18.064  1.00  0.00    -0.385 OA
HETATM   16  H29 UNL     1       2.131   9.528  17.147  1.00  0.00     0.210 HD
ENDBRANCH  10  15
BRANCH  10  17
HETATM   17  C23 UNL     1       3.276  11.718  19.070  1.00  0.00     0.069 C 
BRANCH  17  18
HETATM   18  C24 UNL     1       3.969  11.176  20.301  1.00  0.00    -0.027 C 
HETATM   19  C25 UNL     1       4.690  11.859  21.206  1.00  0.00    -0.024 C 
BRANCH  19  20
HETATM   20  C26 UNL     1       5.327  11.227  22.422  1.00  0.00     0.032 C 
HETATM   21  C27 UNL     1       6.187  12.259  23.159  1.00  0.00     0.017 C 
BRANCH  20  22
HETATM   22  C28 UNL     1       4.278  10.546  23.339  1.00  0.00     0.121 C 
HETATM   23  C29 UNL     1       3.696   9.242  22.801  1.00  0.00     0.040 C 
BRANCH  22  24
HETATM   24  O7  UNL     1       3.183  11.441  23.565  1.00  0.00    -0.395 OA
HETATM   25  H42 UNL     1       3.533  12.206  24.053  1.00  0.00     0.210 HD
ENDBRANCH  22  24
ENDBRANCH  20  22
ENDBRANCH  19  20
ENDBRANCH  17  18
ENDBRANCH  10  17
ENDBRANCH   6   7
ENDBRANCH   4   6
ENDBRANCH   1   3
BRANCH   1  26
HETATM   26  O2  UNL     1      -1.019   7.468  12.985  1.00  0.00    -0.318 OA
BRANCH  26  27
HETATM   27  C5  UNL     1       0.193   7.218  12.256  1.00  0.00     0.179 C 
BRANCH  27  28
HETATM   28  C6  UNL     1      -0.095   6.315  11.056  1.00  0.00     0.027 C 
BRANCH  28  29
HETATM   29  C7  UNL     1       0.596   4.954  11.191  1.00  0.00     0.002 C 
BRANCH  29  30
HETATM   30  C8  UNL     1      -0.136   3.983  12.123  1.00  0.00     0.000 C 
BRANCH  30  31
HETATM   31  C9  UNL     1      -0.958   2.885  11.443  1.00  0.00     0.000 C 
BRANCH  31  32
HETATM   32  C10 UNL     1      -2.255   3.337  10.764  1.00  0.00     0.009 C 
BRANCH  32  33
HETATM   33  C11 UNL     1      -3.543   2.784  11.374  1.00  0.00     0.103 C 
BRANCH  33  34
HETATM   34  C12 UNL     1      -4.138   3.649  12.475  1.00  0.00     0.222 C 
HETATM   35  O3  UNL     1      -3.471   4.090  13.402  1.00  0.00    -0.273 OA
HETATM   36  N1  UNL     1      -5.475   3.902  12.253  1.00  0.00    -0.321 N 
HETATM   37  H19 UNL     1      -5.834   3.684  11.327  1.00  0.00     0.169 HD
BRANCH  36  38
HETATM   38  C13 UNL     1      -6.355   4.594  13.040  1.00  0.00     0.123 A 
HETATM   39  C14 UNL     1      -6.407   5.808  13.602  1.00  0.00     0.071 A 
HETATM   40  S1  UNL     1      -5.338   7.143  13.684  1.00  0.00    -0.049 SA
HETATM   41  C16 UNL     1      -7.609   5.960  14.366  1.00  0.00     0.062 A 
HETATM   42  S2  UNL     1      -6.602   8.306  14.859  1.00  0.00    -0.062 SA
HETATM   43  C15 UNL     1      -7.843   7.093  15.020  1.00  0.00     0.088 A 
HETATM   44  N2  UNL     1      -8.318   4.812  14.266  1.00  0.00    -0.320 N 
HETATM   45  C17 UNL     1      -7.628   3.912  13.485  1.00  0.00     0.274 A 
HETATM   46  H21 UNL     1      -9.209   4.610  14.696  1.00  0.00     0.169 HD
HETATM   47  O4  UNL     1      -7.951   2.777  13.183  1.00  0.00    -0.266 OA
ENDBRANCH  36  38
ENDBRANCH  33  34
ENDBRANCH  32  33
ENDBRANCH  31  32
ENDBRANCH  30  31
ENDBRANCH  29  30
ENDBRANCH  28  29
ENDBRANCH  27  28
ENDBRANCH  26  27
ENDBRANCH   1  26
TORSDOF 20
ENDMDL
MODEL 8
REMARK minimizedAffinity -7.21335649
REMARK CNNscore 0.195424527
REMARK CNNaffinity 6.31202269
REMARK  20 active torsions:
REMARK  status: ('A' for Active; 'I' for Inactive)
REMARK    1  A    between atoms: C2_2  and  C18_26 
REMARK    2  A    between atoms: C3_3  and  C4_4 
REMARK    3  A    between atoms: C4_4  and  O2_6 
REMARK    4  A    between atoms: O2_6  and  C5_7 
REMARK    5  A    between atoms: C5_7  and  C6_8 
REMARK    6  A    between atoms: C6_8  and  C7_9 
REMARK    7  A    between atoms: C7_9  and  C8_10 
REMARK    8  A    between atoms: C8_10  and  C9_11 
REMARK    9  A    between atoms: C9_11  and  C10_12 
REMARK   10  A    between atoms: C10_12  and  C11_13 
REMARK   11  A    between atoms: C11_13  and  C12_14 
REMARK       I    between atoms: C12_14  and  N1_16 
REMARK   12  A    between atoms: N1_16  and  C13_17 
REMARK   13  A    between atoms: C18_26  and  C19_27 
REMARK   14  A    between atoms: C21_29  and  O5_30 
REMARK   15  A    between atoms: C22_31  and  O6_32 
REMARK   16  A    between atoms: C22_31  and  C23_33 
REMARK   17  A    between atoms: C23_33  and  C24_34 
REMARK   18  A    between atoms: C25_35  and  C26_36 
REMARK   19  A    between atoms: C26_36  and  C28_38 
REMARK   20  A    between atoms: C28_38  and  O7_40 
ROOT
HETATM    1  C4  UNL     1       2.345   9.757  14.113  1.00  0.00     0.283 C 
HETATM    2  O1  UNL     1       2.040  10.391  15.106  1.00  0.00    -0.260 OA
ENDROOT
BRANCH   1   3
HETATM    3  C3  UNL     1       3.718   9.546  13.593  1.00  0.00     0.084 C 
HETATM    4  C2  UNL     1       4.607   8.633  14.037  1.00  0.00    -0.076 C 
HETATM    5  C1  UNL     1       4.392   7.719  15.214  1.00  0.00     0.043 C 
BRANCH   4   6
HETATM    6  C18 UNL     1       5.941   8.464  13.325  1.00  0.00     0.066 C 
BRANCH   6   7
HETATM    7  C19 UNL     1       7.134   8.940  14.176  1.00  0.00     0.128 C 
HETATM    8  C20 UNL     1       7.770   7.773  14.922  1.00  0.00     0.067 C 
HETATM    9  C21 UNL     1       8.954   8.236  15.780  1.00  0.00     0.157 C 
HETATM   10  C22 UNL     1       8.746   9.662  16.354  1.00  0.00     0.108 C 
HETATM   11  C30 UNL     1       7.229   9.946  16.393  1.00  0.00     0.209 C 
HETATM   12  O8  UNL     1       6.666   9.964  15.072  1.00  0.00    -0.382 OA
BRANCH   9  13
HETATM   13  O5  UNL     1       9.105   7.255  16.809  1.00  0.00    -0.392 OA
HETATM   14  H28 UNL     1       9.971   6.825  16.668  1.00  0.00     0.210 HD
ENDBRANCH   9  13
BRANCH  10  15
HETATM   15  O6  UNL     1       9.339  10.625  15.451  1.00  0.00    -0.385 OA
HETATM   16  H29 UNL     1       8.609  11.057  14.964  1.00  0.00     0.210 HD
ENDBRANCH  10  15
BRANCH  10  17
HETATM   17  C23 UNL     1       9.344   9.876  17.769  1.00  0.00     0.069 C 
BRANCH  17  18
HETATM   18  C24 UNL     1       8.771  10.924  18.697  1.00  0.00    -0.027 C 
HETATM   19  C25 UNL     1       9.434  11.703  19.568  1.00  0.00    -0.024 C 
BRANCH  19  20
HETATM   20  C26 UNL     1       8.769  12.743  20.440  1.00  0.00     0.032 C 
HETATM   21  C27 UNL     1       7.282  12.412  20.607  1.00  0.00     0.017 C 
BRANCH  20  22
HETATM   22  C28 UNL     1       9.506  12.925  21.791  1.00  0.00     0.121 C 
HETATM   23  C29 UNL     1       8.795  12.329  23.003  1.00  0.00     0.040 C 
BRANCH  22  24
HETATM   24  O7  UNL     1       9.697  14.320  22.052  1.00  0.00    -0.395 OA
HETATM   25  H42 UNL     1      10.286  14.664  21.358  1.00  0.00     0.210 HD
ENDBRANCH  22  24
ENDBRANCH  20  22
ENDBRANCH  19  20
ENDBRANCH  17  18
ENDBRANCH  10  17
ENDBRANCH   6   7
ENDBRANCH   4   6
ENDBRANCH   1   3
BRANCH   1  26
HETATM   26  O2  UNL     1       1.492   9.074  13.303  1.00  0.00    -0.318 OA
BRANCH  26  27
HETATM   27  C5  UNL     1       0.877   7.921  13.899  1.00  0.00     0.179 C 
BRANCH  27  28
HETATM   28  C6  UNL     1       1.188   6.674  13.070  1.00  0.00     0.027 C 
BRANCH  28  29
HETATM   29  C7  UNL     1       0.112   6.414  12.010  1.00  0.00     0.002 C 
BRANCH  29  30
HETATM   30  C8  UNL     1      -0.254   4.935  11.857  1.00  0.00     0.000 C 
BRANCH  30  31
HETATM   31  C9  UNL     1      -1.672   4.638  11.362  1.00  0.00     0.000 C 
BRANCH  31  32
HETATM   32  C10 UNL     1      -1.915   3.226  10.818  1.00  0.00     0.009 C 
BRANCH  32  33
HETATM   33  C11 UNL     1      -3.023   2.435  11.513  1.00  0.00     0.103 C 
BRANCH  33  34
HETATM   34  C12 UNL     1      -4.390   3.099  11.470  1.00  0.00     0.222 C 
HETATM   35  O3  UNL     1      -4.978   3.334  10.422  1.00  0.00    -0.273 OA
HETATM   36  N1  UNL     1      -4.878   3.336  12.737  1.00  0.00    -0.321 N 
HETATM   37  H19 UNL     1      -4.402   2.870  13.505  1.00  0.00     0.169 HD
BRANCH  36  38
HETATM   38  C13 UNL     1      -6.043   3.956  13.103  1.00  0.00     0.123 A 
HETATM   39  C14 UNL     1      -6.394   5.152  13.589  1.00  0.00     0.071 A 
HETATM   40  S1  UNL     1      -5.537   6.549  14.084  1.00  0.00    -0.049 SA
HETATM   41  C16 UNL     1      -7.808   5.213  13.809  1.00  0.00     0.062 A 
HETATM   42  S2  UNL     1      -7.237   7.607  14.649  1.00  0.00    -0.062 SA
HETATM   43  C15 UNL     1      -8.357   6.316  14.308  1.00  0.00     0.088 A 
HETATM   44  N2  UNL     1      -8.341   4.025  13.442  1.00  0.00    -0.320 N 
HETATM   45  C17 UNL     1      -7.339   3.187  13.006  1.00  0.00     0.274 A 
HETATM   46  H21 UNL     1      -9.315   3.759  13.481  1.00  0.00     0.169 HD
HETATM   47  O4  UNL     1      -7.440   2.040  12.608  1.00  0.00    -0.266 OA
ENDBRANCH  36  38
ENDBRANCH  33  34
ENDBRANCH  32  33
ENDBRANCH  31  32
ENDBRANCH  30  31
ENDBRANCH  29  30
ENDBRANCH  28  29
ENDBRANCH  27  28
ENDBRANCH  26  27
ENDBRANCH   1  26
TORSDOF 20
ENDMDL
MODEL 9
REMARK minimizedAffinity -7.54947186
REMARK CNNscore 0.179397762
REMARK CNNaffinity 6.69195938
REMARK  20 active torsions:
REMARK  status: ('A' for Active; 'I' for Inactive)
REMARK    1  A    between atoms: C2_2  and  C18_26 
REMARK    2  A    between atoms: C3_3  and  C4_4 
REMARK    3  A    between atoms: C4_4  and  O2_6 
REMARK    4  A    between atoms: O2_6  and  C5_7 
REMARK    5  A    between atoms: C5_7  and  C6_8 
REMARK    6  A    between atoms: C6_8  and  C7_9 
REMARK    7  A    between atoms: C7_9  and  C8_10 
REMARK    8  A    between atoms: C8_10  and  C9_11 
REMARK    9  A    between atoms: C9_11  and  C10_12 
REMARK   10  A    between atoms: C10_12  and  C11_13 
REMARK   11  A    between atoms: C11_13  and  C12_14 
REMARK       I    between atoms: C12_14  and  N1_16 
REMARK   12  A    between atoms: N1_16  and  C13_17 
REMARK   13  A    between atoms: C18_26  and  C19_27 
REMARK   14  A    between atoms: C21_29  and  O5_30 
REMARK   15  A    between atoms: C22_31  and  O6_32 
REMARK   16  A    between atoms: C22_31  and  C23_33 
REMARK   17  A    between atoms: C23_33  and  C24_34 
REMARK   18  A    between atoms: C25_35  and  C26_36 
REMARK   19  A    between atoms: C26_36  and  C28_38 
REMARK   20  A    between atoms: C28_38  and  O7_40 
ROOT
HETATM    1  C4  UNL     1       1.076   9.914  16.216  1.00  0.00     0.283 C 
HETATM    2  O1  UNL     1       1.482  10.637  15.324  1.00  0.00    -0.260 OA
ENDROOT
BRANCH   1   3
HETATM    3  C3  UNL     1       1.126  10.200  17.670  1.00  0.00     0.084 C 
HETATM    4  C2  UNL     1       0.129  10.721  18.415  1.00  0.00    -0.076 C 
HETATM    5  C1  UNL     1      -1.195  11.196  17.878  1.00  0.00     0.043 C 
BRANCH   4   6
HETATM    6  C18 UNL     1       0.297  10.852  19.922  1.00  0.00     0.066 C 
BRANCH   6   7
HETATM    7  C19 UNL     1       1.756  10.651  20.377  1.00  0.00     0.128 C 
HETATM    8  C20 UNL     1       1.818   9.802  21.641  1.00  0.00     0.067 C 
HETATM    9  C21 UNL     1       3.266   9.602  22.109  1.00  0.00     0.157 C 
HETATM   10  C22 UNL     1       4.158  10.835  21.811  1.00  0.00     0.108 C 
HETATM   11  C30 UNL     1       3.242  12.071  21.684  1.00  0.00     0.209 C 
HETATM   12  O8  UNL     1       2.349  11.948  20.567  1.00  0.00    -0.382 OA
BRANCH   9  13
HETATM   13  O5  UNL     1       3.193   9.313  23.508  1.00  0.00    -0.392 OA
HETATM   14  H28 UNL     1       3.516   8.399  23.627  1.00  0.00     0.210 HD
ENDBRANCH   9  13
BRANCH  10  15
HETATM   15  O6  UNL     1       4.806  10.649  20.530  1.00  0.00    -0.385 OA
HETATM   16  H29 UNL     1       4.346  11.222  19.884  1.00  0.00     0.210 HD
ENDBRANCH  10  15
BRANCH  10  17
HETATM   17  C23 UNL     1       5.247  11.111  22.880  1.00  0.00     0.069 C 
BRANCH  17  18
HETATM   18  C24 UNL     1       6.255  12.222  22.685  1.00  0.00    -0.027 C 
HETATM   19  C25 UNL     1       6.143  13.508  23.056  1.00  0.00    -0.024 C 
BRANCH  19  20
HETATM   20  C26 UNL     1       7.224  14.543  22.835  1.00  0.00     0.032 C 
HETATM   21  C27 UNL     1       6.887  15.823  23.606  1.00  0.00     0.017 C 
BRANCH  20  22
HETATM   22  C28 UNL     1       8.633  13.989  23.163  1.00  0.00     0.121 C 
HETATM   23  C29 UNL     1       8.739  12.467  23.203  1.00  0.00     0.040 C 
BRANCH  22  24
HETATM   24  O7  UNL     1       9.059  14.481  24.439  1.00  0.00    -0.395 OA
HETATM   25  H42 UNL     1       9.144  15.447  24.361  1.00  0.00     0.210 HD
ENDBRANCH  22  24
ENDBRANCH  20  22
ENDBRANCH  19  20
ENDBRANCH  17  18
ENDBRANCH  10  17
ENDBRANCH   6   7
ENDBRANCH   4   6
ENDBRANCH   1   3
BRANCH   1  26
HETATM   26  O2  UNL     1       0.451   8.717  16.055  1.00  0.00    -0.318 OA
BRANCH  26  27
HETATM   27  C5  UNL     1       0.438   8.211  14.712  1.00  0.00     0.179 C 
BRANCH  27  28
HETATM   28  C6  UNL     1      -0.995   7.882  14.289  1.00  0.00     0.027 C 
BRANCH  28  29
HETATM   29  C7  UNL     1      -1.065   7.421  12.829  1.00  0.00     0.002 C 
BRANCH  29  30
HETATM   30  C8  UNL     1      -2.056   6.276  12.594  1.00  0.00     0.000 C 
BRANCH  30  31
HETATM   31  C9  UNL     1      -1.528   5.080  11.799  1.00  0.00     0.000 C 
BRANCH  31  32
HETATM   32  C10 UNL     1      -2.024   3.700  12.248  1.00  0.00     0.009 C 
BRANCH  32  33
HETATM   33  C11 UNL     1      -2.963   2.991  11.274  1.00  0.00     0.103 C 
BRANCH  33  34
HETATM   34  C12 UNL     1      -4.413   3.442  11.357  1.00  0.00     0.222 C 
HETATM   35  O3  UNL     1      -5.153   3.473  10.382  1.00  0.00    -0.273 OA
HETATM   36  N1  UNL     1      -4.775   3.744  12.652  1.00  0.00    -0.321 N 
HETATM   37  H19 UNL     1      -4.143   3.438  13.387  1.00  0.00     0.169 HD
BRANCH  36  38
HETATM   38  C13 UNL     1      -5.971   4.225  13.115  1.00  0.00     0.123 A 
HETATM   39  C14 UNL     1      -6.407   5.358  13.678  1.00  0.00     0.071 A 
HETATM   40  S1  UNL     1      -5.664   6.814  14.186  1.00  0.00    -0.049 SA
HETATM   41  C16 UNL     1      -7.804   5.265  13.983  1.00  0.00     0.062 A 
HETATM   42  S2  UNL     1      -7.422   7.668  14.901  1.00  0.00    -0.062 SA
HETATM   43  C15 UNL     1      -8.427   6.284  14.566  1.00  0.00     0.088 A 
HETATM   44  N2  UNL     1      -8.238   4.045  13.592  1.00  0.00    -0.320 N 
HETATM   45  C17 UNL     1      -7.187   3.332  13.059  1.00  0.00     0.274 A 
HETATM   46  H21 UNL     1      -9.176   3.680  13.676  1.00  0.00     0.169 HD
HETATM   47  O4  UNL     1      -7.199   2.198  12.613  1.00  0.00    -0.266 OA
ENDBRANCH  36  38
ENDBRANCH  33  34
ENDBRANCH  32  33
ENDBRANCH  31  32
ENDBRANCH  30  31
ENDBRANCH  29  30
ENDBRANCH  28  29
ENDBRANCH  27  28
ENDBRANCH  26  27
ENDBRANCH   1  26
TORSDOF 20
ENDMDL
