MODEL 1
REMARK minimizedAffinity -8.50912857
REMARK CNNscore 0.382073194
REMARK CNNaffinity 6.24441147
REMARK  10 active torsions:
REMARK  status: ('A' for Active; 'I' for Inactive)
REMARK    1  A    between atoms: C3_3  and  O1_4 
REMARK    2  A    between atoms: N1_14  and  O2_16 
REMARK    3  A    between atoms: O2_16  and  C13_17 
REMARK    4  A    between atoms: C13_17  and  C14_18 
REMARK       I    between atoms: C14_18  and  N2_20 
REMARK    5  A    between atoms: N2_20  and  C15_21 
REMARK    6  A    between atoms: C15_21  and  C16_22 
REMARK    7  A    between atoms: C15_21  and  C19_29 
REMARK       I    between atoms: C16_22  and  N3_24 
REMARK    8  A    between atoms: N3_24  and  C17_25 
REMARK    9  A    between atoms: C17_25  and  C18_26 
REMARK   10  A    between atoms: C18_26  and  O6_28 
ROOT
HETATM    1  C1  UNL     1      -0.196  53.786 -27.776  1.00  0.00     0.015 C 
HETATM    2  C2  UNL     1      -1.016  53.012 -27.359  1.00  0.00    -0.078 C 
HETATM    3  C3  UNL     1      -2.035  52.101 -26.811  1.00  0.00     0.128 C 
HETATM    4  C4  UNL     1      -2.704  51.257 -27.895  1.00  0.00     0.052 C 
HETATM    5  C5  UNL     1      -3.431  50.187 -27.090  1.00  0.00     0.010 C 
HETATM    6  C6  UNL     1      -2.504  49.850 -25.900  1.00  0.00     0.002 C 
HETATM    7  C7  UNL     1      -3.297  49.547 -24.609  1.00  0.00    -0.004 C 
HETATM    8  C8  UNL     1      -2.511  48.619 -23.653  1.00  0.00     0.010 C 
HETATM    9  C9  UNL     1      -2.914  48.754 -22.180  1.00  0.00     0.035 C 
HETATM   10  C10 UNL     1      -4.360  49.150 -22.053  1.00  0.00    -0.069 C 
HETATM   11  C11 UNL     1      -5.248  48.324 -21.476  1.00  0.00     0.030 C 
HETATM   12  C12 UNL     1      -6.694  48.651 -21.424  1.00  0.00     0.032 C 
HETATM   13  N1  UNL     1      -7.453  47.914 -20.664  1.00  0.00    -0.271 N 
ATOM     14  H1  UNL     1      -7.120  47.111 -20.129  1.00  0.00     0.194 HD
HETATM   15  C22 UNL     1      -7.206  49.831 -22.232  1.00  0.00     0.060 C 
HETATM   16  C23 UNL     1      -6.191  50.318 -23.264  1.00  0.00     0.020 C 
HETATM   17  C24 UNL     1      -4.750  50.480 -22.697  1.00  0.00    -0.016 C 
HETATM   18  C25 UNL     1      -4.769  51.592 -21.624  1.00  0.00     0.020 C 
HETATM   19  C26 UNL     1      -3.773  50.830 -23.894  1.00  0.00     0.002 C 
HETATM   20  C27 UNL     1      -2.579  51.740 -23.529  1.00  0.00     0.007 C 
HETATM   21  C28 UNL     1      -1.314  51.574 -24.377  1.00  0.00     0.014 C 
HETATM   22  C29 UNL     1      -1.486  51.033 -25.808  1.00  0.00     0.003 C 
HETATM   23  C30 UNL     1      -0.101  50.491 -26.266  1.00  0.00     0.020 C 
ENDROOT
BRANCH   3  24
HETATM   24  O1  UNL     1      -3.049  52.900 -26.204  1.00  0.00    -0.377 OA
HETATM   25  H2  UNL     1      -3.257  53.616 -26.828  1.00  0.00     0.211 HD
ENDBRANCH   3  24
BRANCH  13  26
HETATM   26  O2  UNL     1      -8.782  48.359 -20.672  1.00  0.00    -0.271 OA
BRANCH  26  27
HETATM   27  C13 UNL     1      -9.337  48.137 -19.380  1.00  0.00     0.303 C 
BRANCH  27  28
HETATM   28  C14 UNL     1     -10.611  47.317 -19.512  1.00  0.00     0.244 C 
HETATM   29  O3  UNL     1     -10.646  46.219 -20.064  1.00  0.00    -0.271 OA
HETATM   30  N2  UNL     1     -11.749  47.937 -19.040  1.00  0.00    -0.346 N 
HETATM   31  H16 UNL     1     -11.655  48.883 -18.685  1.00  0.00     0.163 HD
BRANCH  30  32
HETATM   32  C15 UNL     1     -13.062  47.277 -18.982  1.00  0.00     0.180 C 
BRANCH  32  33
HETATM   33  C16 UNL     1     -13.894  47.467 -20.283  1.00  0.00     0.241 C 
HETATM   34  O4  UNL     1     -13.769  48.434 -21.033  1.00  0.00    -0.271 OA
HETATM   35  N3  UNL     1     -14.891  46.537 -20.473  1.00  0.00    -0.349 N 
HETATM   36  H18 UNL     1     -15.128  45.935 -19.689  1.00  0.00     0.163 HD
BRANCH  35  37
HETATM   37  C17 UNL     1     -15.879  46.679 -21.526  1.00  0.00     0.232 C 
BRANCH  37  38
HETATM   38  C18 UNL     1     -17.226  46.173 -21.047  1.00  0.00     0.158 C 
HETATM   39  O5  UNL     1     -18.325  46.560 -21.415  1.00  0.00    -0.649 OA
BRANCH  38  40
HETATM   40  O6  UNL     1     -17.118  45.188 -20.133  1.00  0.00    -0.775 OA
HETATM   41  H21 UNL     1     -18.044  44.951 -19.923  1.00  0.00     0.167 HD
ENDBRANCH  38  40
ENDBRANCH  37  38
ENDBRANCH  35  37
ENDBRANCH  32  33
BRANCH  32  42
HETATM   42  C19 UNL     1     -13.801  47.704 -17.691  1.00  0.00     0.009 C 
HETATM   43  C20 UNL     1     -14.960  48.672 -17.948  1.00  0.00     0.012 C 
HETATM   44  C21 UNL     1     -14.280  46.507 -16.864  1.00  0.00     0.012 C 
ENDBRANCH  32  42
ENDBRANCH  30  32
ENDBRANCH  27  28
ENDBRANCH  26  27
ENDBRANCH  13  26
TORSDOF 10
ENDMDL
MODEL 2
REMARK minimizedAffinity -7.63643646
REMARK CNNscore 0.358120888
REMARK CNNaffinity 6.60597277
REMARK  10 active torsions:
REMARK  status: ('A' for Active; 'I' for Inactive)
REMARK    1  A    between atoms: C3_3  and  O1_4 
REMARK    2  A    between atoms: N1_14  and  O2_16 
REMARK    3  A    between atoms: O2_16  and  C13_17 
REMARK    4  A    between atoms: C13_17  and  C14_18 
REMARK       I    between atoms: C14_18  and  N2_20 
REMARK    5  A    between atoms: N2_20  and  C15_21 
REMARK    6  A    between atoms: C15_21  and  C16_22 
REMARK    7  A    between atoms: C15_21  and  C19_29 
REMARK       I    between atoms: C16_22  and  N3_24 
REMARK    8  A    between atoms: N3_24  and  C17_25 
REMARK    9  A    between atoms: C17_25  and  C18_26 
REMARK   10  A    between atoms: C18_26  and  O6_28 
ROOT
HETATM    1  C1  UNL     1      -2.864  50.399 -27.561  1.00  0.00     0.015 C 
HETATM    2  C2  UNL     1      -3.162  50.565 -26.407  1.00  0.00    -0.078 C 
HETATM    3  C3  UNL     1      -3.474  50.758 -24.982  1.00  0.00     0.128 C 
HETATM    4  C4  UNL     1      -4.531  51.839 -24.759  1.00  0.00     0.052 C 
HETATM    5  C5  UNL     1      -4.934  51.624 -23.306  1.00  0.00     0.010 C 
HETATM    6  C6  UNL     1      -4.914  50.095 -23.083  1.00  0.00     0.002 C 
HETATM    7  C7  UNL     1      -4.423  49.717 -21.668  1.00  0.00    -0.004 C 
HETATM    8  C8  UNL     1      -4.985  48.352 -21.206  1.00  0.00     0.010 C 
HETATM    9  C9  UNL     1      -4.124  47.645 -20.154  1.00  0.00     0.035 C 
HETATM   10  C10 UNL     1      -3.390  48.644 -19.300  1.00  0.00    -0.069 C 
HETATM   11  C11 UNL     1      -3.647  48.739 -17.985  1.00  0.00     0.030 C 
HETATM   12  C12 UNL     1      -3.007  49.779 -17.142  1.00  0.00     0.032 C 
HETATM   13  N1  UNL     1      -3.134  49.672 -15.850  1.00  0.00    -0.271 N 
ATOM     14  H1  UNL     1      -3.670  48.938 -15.387  1.00  0.00     0.194 HD
HETATM   15  C22 UNL     1      -2.224  50.890 -17.821  1.00  0.00     0.060 C 
HETATM   16  C23 UNL     1      -2.492  50.963 -19.322  1.00  0.00     0.020 C 
HETATM   17  C24 UNL     1      -2.433  49.581 -20.036  1.00  0.00    -0.016 C 
HETATM   18  C25 UNL     1      -0.990  49.037 -19.931  1.00  0.00     0.020 C 
HETATM   19  C26 UNL     1      -2.885  49.772 -21.543  1.00  0.00     0.002 C 
HETATM   20  C27 UNL     1      -2.209  48.825 -22.561  1.00  0.00     0.007 C 
HETATM   21  C28 UNL     1      -3.020  48.487 -23.816  1.00  0.00     0.014 C 
HETATM   22  C29 UNL     1      -4.082  49.505 -24.269  1.00  0.00     0.003 C 
HETATM   23  C30 UNL     1      -5.074  48.753 -25.203  1.00  0.00     0.020 C 
ENDROOT
BRANCH   3  24
HETATM   24  O1  UNL     1      -2.279  51.188 -24.331  1.00  0.00    -0.377 OA
HETATM   25  H2  UNL     1      -1.886  51.881 -24.888  1.00  0.00     0.211 HD
ENDBRANCH   3  24
BRANCH  13  26
HETATM   26  O2  UNL     1      -2.446  50.690 -15.176  1.00  0.00    -0.271 OA
BRANCH  26  27
HETATM   27  C13 UNL     1      -2.995  50.810 -13.867  1.00  0.00     0.303 C 
BRANCH  27  28
HETATM   28  C14 UNL     1      -2.090  51.692 -13.021  1.00  0.00     0.244 C 
HETATM   29  O3  UNL     1      -1.078  52.232 -13.463  1.00  0.00    -0.271 OA
HETATM   30  N2  UNL     1      -2.443  51.774 -11.690  1.00  0.00    -0.346 N 
HETATM   31  H16 UNL     1      -3.237  51.224 -11.380  1.00  0.00     0.163 HD
BRANCH  30  32
HETATM   32  C15 UNL     1      -1.760  52.653 -10.728  1.00  0.00     0.180 C 
BRANCH  32  33
HETATM   33  C16 UNL     1      -1.680  52.041  -9.300  1.00  0.00     0.241 C 
HETATM   34  O4  UNL     1      -0.962  52.490  -8.408  1.00  0.00    -0.271 OA
HETATM   35  N3  UNL     1      -2.373  50.863  -9.136  1.00  0.00    -0.349 N 
HETATM   36  H18 UNL     1      -2.712  50.396  -9.973  1.00  0.00     0.163 HD
BRANCH  35  37
HETATM   37  C17 UNL     1      -2.246  50.062  -7.933  1.00  0.00     0.232 C 
BRANCH  37  38
HETATM   38  C18 UNL     1      -2.809  48.674  -8.170  1.00  0.00     0.158 C 
HETATM   39  O5  UNL     1      -2.211  47.712  -8.628  1.00  0.00    -0.649 OA
BRANCH  38  40
HETATM   40  O6  UNL     1      -4.101  48.565  -7.801  1.00  0.00    -0.775 OA
HETATM   41  H21 UNL     1      -4.329  47.632  -7.994  1.00  0.00     0.167 HD
ENDBRANCH  38  40
ENDBRANCH  37  38
ENDBRANCH  35  37
ENDBRANCH  32  33
BRANCH  32  42
HETATM   42  C19 UNL     1      -2.393  54.065 -10.776  1.00  0.00     0.009 C 
HETATM   43  C20 UNL     1      -3.802  54.119 -10.178  1.00  0.00     0.012 C 
HETATM   44  C21 UNL     1      -1.501  55.132 -10.134  1.00  0.00     0.012 C 
ENDBRANCH  32  42
ENDBRANCH  30  32
ENDBRANCH  27  28
ENDBRANCH  26  27
ENDBRANCH  13  26
TORSDOF 10
ENDMDL
MODEL 3
REMARK minimizedAffinity -7.53738928
REMARK CNNscore 0.329134196
REMARK CNNaffinity 5.52120829
REMARK  10 active torsions:
REMARK  status: ('A' for Active; 'I' for Inactive)
REMARK    1  A    between atoms: C3_3  and  O1_4 
REMARK    2  A    between atoms: N1_14  and  O2_16 
REMARK    3  A    between atoms: O2_16  and  C13_17 
REMARK    4  A    between atoms: C13_17  and  C14_18 
REMARK       I    between atoms: C14_18  and  N2_20 
REMARK    5  A    between atoms: N2_20  and  C15_21 
REMARK    6  A    between atoms: C15_21  and  C16_22 
REMARK    7  A    between atoms: C15_21  and  C19_29 
REMARK       I    between atoms: C16_22  and  N3_24 
REMARK    8  A    between atoms: N3_24  and  C17_25 
REMARK    9  A    between atoms: C17_25  and  C18_26 
REMARK   10  A    between atoms: C18_26  and  O6_28 
ROOT
HETATM    1  C1  UNL     1      -4.445  46.220 -31.874  1.00  0.00     0.015 C 
HETATM    2  C2  UNL     1      -5.453  46.633 -31.364  1.00  0.00    -0.078 C 
HETATM    3  C3  UNL     1      -6.682  47.100 -30.703  1.00  0.00     0.128 C 
HETATM    4  C4  UNL     1      -6.843  48.618 -30.779  1.00  0.00     0.052 C 
HETATM    5  C5  UNL     1      -8.293  48.826 -30.362  1.00  0.00     0.010 C 
HETATM    6  C6  UNL     1      -9.081  47.642 -30.966  1.00  0.00     0.002 C 
HETATM    7  C7  UNL     1     -10.220  47.164 -30.038  1.00  0.00    -0.004 C 
HETATM    8  C8  UNL     1     -11.366  46.489 -30.829  1.00  0.00     0.010 C 
HETATM    9  C9  UNL     1     -12.192  45.494 -30.007  1.00  0.00     0.035 C 
HETATM   10  C10 UNL     1     -12.221  45.890 -28.556  1.00  0.00    -0.069 C 
HETATM   11  C11 UNL     1     -13.376  46.237 -27.964  1.00  0.00     0.030 C 
HETATM   12  C12 UNL     1     -13.416  46.722 -26.562  1.00  0.00     0.032 C 
HETATM   13  N1  UNL     1     -14.583  46.829 -25.993  1.00  0.00    -0.271 N 
ATOM     14  H1  UNL     1     -15.468  46.630 -26.460  1.00  0.00     0.194 HD
HETATM   15  C22 UNL     1     -12.106  47.042 -25.862  1.00  0.00     0.060 C 
HETATM   16  C23 UNL     1     -10.931  47.136 -26.833  1.00  0.00     0.020 C 
HETATM   17  C24 UNL     1     -10.866  45.962 -27.852  1.00  0.00    -0.016 C 
HETATM   18  C25 UNL     1     -10.615  44.651 -27.073  1.00  0.00     0.020 C 
HETATM   19  C26 UNL     1      -9.710  46.261 -28.894  1.00  0.00     0.002 C 
HETATM   20  C27 UNL     1      -8.981  45.017 -29.448  1.00  0.00     0.007 C 
HETATM   21  C28 UNL     1      -8.384  45.150 -30.853  1.00  0.00     0.014 C 
HETATM   22  C29 UNL     1      -8.009  46.564 -31.334  1.00  0.00     0.003 C 
HETATM   23  C30 UNL     1      -7.915  46.514 -32.886  1.00  0.00     0.020 C 
ENDROOT
BRANCH   3  24
HETATM   24  O1  UNL     1      -6.592  46.748 -29.323  1.00  0.00    -0.377 OA
HETATM   25  H2  UNL     1      -5.701  46.997 -29.025  1.00  0.00     0.211 HD
ENDBRANCH   3  24
BRANCH  13  26
HETATM   26  O2  UNL     1     -14.473  47.252 -24.662  1.00  0.00    -0.271 OA
BRANCH  26  27
HETATM   27  C13 UNL     1     -15.668  46.891 -23.977  1.00  0.00     0.303 C 
BRANCH  27  28
HETATM   28  C14 UNL     1     -15.484  47.124 -22.485  1.00  0.00     0.244 C 
HETATM   29  O3  UNL     1     -14.513  47.712 -22.014  1.00  0.00    -0.271 OA
HETATM   30  N2  UNL     1     -16.450  46.548 -21.687  1.00  0.00    -0.346 N 
HETATM   31  H16 UNL     1     -17.169  45.997 -22.143  1.00  0.00     0.163 HD
BRANCH  30  32
HETATM   32  C15 UNL     1     -16.511  46.740 -20.229  1.00  0.00     0.180 C 
BRANCH  32  33
HETATM   33  C16 UNL     1     -15.442  45.909 -19.463  1.00  0.00     0.241 C 
HETATM   34  O4  UNL     1     -15.613  44.742 -19.114  1.00  0.00    -0.271 OA
HETATM   35  N3  UNL     1     -14.327  46.617 -19.075  1.00  0.00    -0.349 N 
HETATM   36  H18 UNL     1     -14.367  47.631 -19.143  1.00  0.00     0.163 HD
BRANCH  35  37
HETATM   37  C17 UNL     1     -13.330  46.048 -18.189  1.00  0.00     0.232 C 
BRANCH  37  38
HETATM   38  C18 UNL     1     -13.302  46.812 -16.879  1.00  0.00     0.158 C 
HETATM   39  O5  UNL     1     -14.104  46.720 -15.962  1.00  0.00    -0.649 OA
BRANCH  38  40
HETATM   40  O6  UNL     1     -12.247  47.646 -16.785  1.00  0.00    -0.775 OA
HETATM   41  H21 UNL     1     -12.344  48.059 -15.902  1.00  0.00     0.167 HD
ENDBRANCH  38  40
ENDBRANCH  37  38
ENDBRANCH  35  37
ENDBRANCH  32  33
BRANCH  32  42
HETATM   42  C19 UNL     1     -17.961  46.514 -19.737  1.00  0.00     0.009 C 
HETATM   43  C20 UNL     1     -18.718  47.817 -19.463  1.00  0.00     0.012 C 
HETATM   44  C21 UNL     1     -18.769  45.616 -20.679  1.00  0.00     0.012 C 
ENDBRANCH  32  42
ENDBRANCH  30  32
ENDBRANCH  27  28
ENDBRANCH  26  27
ENDBRANCH  13  26
TORSDOF 10
ENDMDL
MODEL 4
REMARK minimizedAffinity -8.73806572
REMARK CNNscore 0.326106697
REMARK CNNaffinity 7.04250479
REMARK  10 active torsions:
REMARK  status: ('A' for Active; 'I' for Inactive)
REMARK    1  A    between atoms: C3_3  and  O1_4 
REMARK    2  A    between atoms: N1_14  and  O2_16 
REMARK    3  A    between atoms: O2_16  and  C13_17 
REMARK    4  A    between atoms: C13_17  and  C14_18 
REMARK       I    between atoms: C14_18  and  N2_20 
REMARK    5  A    between atoms: N2_20  and  C15_21 
REMARK    6  A    between atoms: C15_21  and  C16_22 
REMARK    7  A    between atoms: C15_21  and  C19_29 
REMARK       I    between atoms: C16_22  and  N3_24 
REMARK    8  A    between atoms: N3_24  and  C17_25 
REMARK    9  A    between atoms: C17_25  and  C18_26 
REMARK   10  A    between atoms: C18_26  and  O6_28 
ROOT
HETATM    1  C1  UNL     1      -5.705  47.736 -22.102  1.00  0.00     0.015 C 
HETATM    2  C2  UNL     1      -4.631  47.960 -21.608  1.00  0.00    -0.078 C 
HETATM    3  C3  UNL     1      -3.342  48.247 -20.958  1.00  0.00     0.128 C 
HETATM    4  C4  UNL     1      -2.225  47.329 -21.450  1.00  0.00     0.052 C 
HETATM    5  C5  UNL     1      -0.968  48.014 -20.928  1.00  0.00     0.010 C 
HETATM    6  C6  UNL     1      -1.230  49.531 -21.054  1.00  0.00     0.002 C 
HETATM    7  C7  UNL     1      -0.608  50.331 -19.889  1.00  0.00    -0.004 C 
HETATM    8  C8  UNL     1      -0.285  51.789 -20.295  1.00  0.00     0.010 C 
HETATM    9  C9  UNL     1      -0.248  52.772 -19.120  1.00  0.00     0.035 C 
HETATM   10  C10 UNL     1       0.183  52.081 -17.855  1.00  0.00    -0.069 C 
HETATM   11  C11 UNL     1       1.330  52.423 -17.245  1.00  0.00     0.030 C 
HETATM   12  C12 UNL     1       1.824  51.693 -16.051  1.00  0.00     0.032 C 
HETATM   13  N1  UNL     1       2.819  52.216 -15.393  1.00  0.00    -0.271 N 
ATOM     14  H1  UNL     1       3.295  53.076 -15.663  1.00  0.00     0.194 HD
HETATM   15  C22 UNL     1       1.136  50.399 -15.650  1.00  0.00     0.060 C 
HETATM   16  C23 UNL     1       0.228  49.854 -16.750  1.00  0.00     0.020 C 
HETATM   17  C24 UNL     1      -0.703  50.928 -17.384  1.00  0.00    -0.016 C 
HETATM   18  C25 UNL     1      -1.679  51.433 -16.297  1.00  0.00     0.020 C 
HETATM   19  C26 UNL     1      -1.467  50.274 -18.608  1.00  0.00     0.002 C 
HETATM   20  C27 UNL     1      -2.890  50.820 -18.866  1.00  0.00     0.007 C 
HETATM   21  C28 UNL     1      -3.388  50.759 -20.314  1.00  0.00     0.014 C 
HETATM   22  C29 UNL     1      -2.778  49.681 -21.228  1.00  0.00     0.003 C 
HETATM   23  C30 UNL     1      -3.039  50.120 -22.698  1.00  0.00     0.020 C 
ENDROOT
BRANCH   3  24
HETATM   24  O1  UNL     1      -3.502  48.015 -19.558  1.00  0.00    -0.377 OA
HETATM   25  H2  UNL     1      -3.968  47.168 -19.463  1.00  0.00     0.211 HD
ENDBRANCH   3  24
BRANCH  13  26
HETATM   26  O2  UNL     1       3.153  51.451 -14.267  1.00  0.00    -0.271 OA
BRANCH  26  27
HETATM   27  C13 UNL     1       2.162  51.665 -13.268  1.00  0.00     0.303 C 
BRANCH  27  28
HETATM   28  C14 UNL     1       2.841  51.989 -11.946  1.00  0.00     0.244 C 
HETATM   29  O3  UNL     1       3.294  51.127 -11.197  1.00  0.00    -0.271 OA
HETATM   30  N2  UNL     1       2.835  53.326 -11.606  1.00  0.00    -0.346 N 
HETATM   31  H16 UNL     1       2.358  53.967 -12.230  1.00  0.00     0.163 HD
BRANCH  30  32
HETATM   32  C15 UNL     1       3.526  53.859 -10.422  1.00  0.00     0.180 C 
BRANCH  32  33
HETATM   33  C16 UNL     1       2.558  54.175  -9.246  1.00  0.00     0.241 C 
HETATM   34  O4  UNL     1       2.902  54.174  -8.065  1.00  0.00    -0.271 OA
HETATM   35  N3  UNL     1       1.238  54.324  -9.608  1.00  0.00    -0.349 N 
HETATM   36  H18 UNL     1       0.973  54.038 -10.547  1.00  0.00     0.163 HD
BRANCH  35  37
HETATM   37  C17 UNL     1       0.181  54.427  -8.619  1.00  0.00     0.232 C 
BRANCH  37  38
HETATM   38  C18 UNL     1      -0.757  55.564  -8.977  1.00  0.00     0.158 C 
HETATM   39  O5  UNL     1      -1.543  55.596  -9.912  1.00  0.00    -0.649 OA
BRANCH  38  40
HETATM   40  O6  UNL     1      -0.665  56.603  -8.123  1.00  0.00    -0.775 OA
HETATM   41  H21 UNL     1      -1.320  57.250  -8.458  1.00  0.00     0.167 HD
ENDBRANCH  38  40
ENDBRANCH  37  38
ENDBRANCH  35  37
ENDBRANCH  32  33
BRANCH  32  42
HETATM   42  C19 UNL     1       4.425  55.049 -10.838  1.00  0.00     0.009 C 
HETATM   43  C20 UNL     1       3.662  56.372 -10.957  1.00  0.00     0.012 C 
HETATM   44  C21 UNL     1       5.642  55.216  -9.923  1.00  0.00     0.012 C 
ENDBRANCH  32  42
ENDBRANCH  30  32
ENDBRANCH  27  28
ENDBRANCH  26  27
ENDBRANCH  13  26
TORSDOF 10
ENDMDL
MODEL 5
REMARK minimizedAffinity -7.37758541
REMARK CNNscore 0.306282341
REMARK CNNaffinity 5.42840052
REMARK  10 active torsions:
REMARK  status: ('A' for Active; 'I' for Inactive)
REMARK    1  A    between atoms: C3_3  and  O1_4 
REMARK    2  A    between atoms: N1_14  and  O2_16 
REMARK    3  A    between atoms: O2_16  and  C13_17 
REMARK    4  A    between atoms: C13_17  and  C14_18 
REMARK       I    between atoms: C14_18  and  N2_20 
REMARK    5  A    between atoms: N2_20  and  C15_21 
REMARK    6  A    between atoms: C15_21  and  C16_22 
REMARK    7  A    between atoms: C15_21  and  C19_29 
REMARK       I    between atoms: C16_22  and  N3_24 
REMARK    8  A    between atoms: N3_24  and  C17_25 
REMARK    9  A    between atoms: C17_25  and  C18_26 
REMARK   10  A    between atoms: C18_26  and  O6_28 
ROOT
HETATM    1  C1  UNL     1      -4.970  48.025 -34.080  1.00  0.00     0.015 C 
HETATM    2  C2  UNL     1      -5.891  47.724 -33.368  1.00  0.00    -0.078 C 
HETATM    3  C3  UNL     1      -7.001  47.391 -32.460  1.00  0.00     0.128 C 
HETATM    4  C4  UNL     1      -8.290  47.064 -33.213  1.00  0.00     0.052 C 
HETATM    5  C5  UNL     1      -9.161  46.432 -32.134  1.00  0.00     0.010 C 
HETATM    6  C6  UNL     1      -8.204  45.599 -31.252  1.00  0.00     0.002 C 
HETATM    7  C7  UNL     1      -8.606  45.630 -29.761  1.00  0.00    -0.004 C 
HETATM    8  C8  UNL     1      -8.123  44.369 -29.005  1.00  0.00     0.010 C 
HETATM    9  C9  UNL     1      -7.939  44.577 -27.498  1.00  0.00     0.035 C 
HETATM   10  C10 UNL     1      -8.890  45.620 -26.979  1.00  0.00    -0.069 C 
HETATM   11  C11 UNL     1      -9.844  45.295 -26.090  1.00  0.00     0.030 C 
HETATM   12  C12 UNL     1     -10.853  46.284 -25.636  1.00  0.00     0.032 C 
HETATM   13  N1  UNL     1     -11.601  45.960 -24.620  1.00  0.00    -0.271 N 
ATOM     14  H1  UNL     1     -11.557  45.061 -24.140  1.00  0.00     0.194 HD
HETATM   15  C22 UNL     1     -10.944  47.618 -26.356  1.00  0.00     0.060 C 
HETATM   16  C23 UNL     1     -10.190  47.620 -27.684  1.00  0.00     0.020 C 
HETATM   17  C24 UNL     1      -8.759  47.014 -27.593  1.00  0.00    -0.016 C 
HETATM   18  C25 UNL     1      -7.906  47.911 -26.668  1.00  0.00     0.020 C 
HETATM   19  C26 UNL     1      -8.154  46.926 -29.054  1.00  0.00     0.002 C 
HETATM   20  C27 UNL     1      -6.622  47.106 -29.148  1.00  0.00     0.007 C 
HETATM   21  C28 UNL     1      -5.926  46.403 -30.317  1.00  0.00     0.014 C 
HETATM   22  C29 UNL     1      -6.765  46.122 -31.576  1.00  0.00     0.003 C 
HETATM   23  C30 UNL     1      -6.036  45.006 -32.378  1.00  0.00     0.020 C 
ENDROOT
BRANCH   3  24
HETATM   24  O1  UNL     1      -7.257  48.538 -31.651  1.00  0.00    -0.377 OA
HETATM   25  H2  UNL     1      -7.269  49.307 -32.245  1.00  0.00     0.211 HD
ENDBRANCH   3  24
BRANCH  13  26
HETATM   26  O2  UNL     1     -12.475  46.997 -24.269  1.00  0.00    -0.271 OA
BRANCH  26  27
HETATM   27  C13 UNL     1     -13.785  46.647 -24.704  1.00  0.00     0.303 C 
BRANCH  27  28
HETATM   28  C14 UNL     1     -14.758  46.799 -23.545  1.00  0.00     0.244 C 
HETATM   29  O3  UNL     1     -15.437  47.808 -23.369  1.00  0.00    -0.271 OA
HETATM   30  N2  UNL     1     -14.761  45.748 -22.651  1.00  0.00    -0.346 N 
HETATM   31  H16 UNL     1     -14.104  44.992 -22.812  1.00  0.00     0.163 HD
BRANCH  30  32
HETATM   32  C15 UNL     1     -15.699  45.653 -21.521  1.00  0.00     0.180 C 
BRANCH  32  33
HETATM   33  C16 UNL     1     -17.136  45.250 -21.960  1.00  0.00     0.241 C 
HETATM   34  O4  UNL     1     -17.603  44.123 -21.800  1.00  0.00    -0.271 OA
HETATM   35  N3  UNL     1     -17.815  46.213 -22.672  1.00  0.00    -0.349 N 
HETATM   36  H18 UNL     1     -17.282  47.009 -23.013  1.00  0.00     0.163 HD
BRANCH  35  37
HETATM   37  C17 UNL     1     -19.083  45.933 -23.320  1.00  0.00     0.232 C 
BRANCH  37  38
HETATM   38  C18 UNL     1     -19.155  46.652 -24.654  1.00  0.00     0.158 C 
HETATM   39  O5  UNL     1     -18.992  47.847 -24.849  1.00  0.00    -0.649 OA
BRANCH  38  40
HETATM   40  O6  UNL     1     -19.414  45.819 -25.682  1.00  0.00    -0.775 OA
HETATM   41  H21 UNL     1     -19.421  46.402 -26.468  1.00  0.00     0.167 HD
ENDBRANCH  38  40
ENDBRANCH  37  38
ENDBRANCH  35  37
ENDBRANCH  32  33
BRANCH  32  42
HETATM   42  C19 UNL     1     -15.635  46.953 -20.683  1.00  0.00     0.009 C 
HETATM   43  C20 UNL     1     -16.741  47.049 -19.628  1.00  0.00     0.012 C 
HETATM   44  C21 UNL     1     -14.262  47.170 -20.038  1.00  0.00     0.012 C 
ENDBRANCH  32  42
ENDBRANCH  30  32
ENDBRANCH  27  28
ENDBRANCH  26  27
ENDBRANCH  13  26
TORSDOF 10
ENDMDL
MODEL 6
REMARK minimizedAffinity -9.10541439
REMARK CNNscore 0.305295557
REMARK CNNaffinity 7.00905561
REMARK  10 active torsions:
REMARK  status: ('A' for Active; 'I' for Inactive)
REMARK    1  A    between atoms: C3_3  and  O1_4 
REMARK    2  A    between atoms: N1_14  and  O2_16 
REMARK    3  A    between atoms: O2_16  and  C13_17 
REMARK    4  A    between atoms: C13_17  and  C14_18 
REMARK       I    between atoms: C14_18  and  N2_20 
REMARK    5  A    between atoms: N2_20  and  C15_21 
REMARK    6  A    between atoms: C15_21  and  C16_22 
REMARK    7  A    between atoms: C15_21  and  C19_29 
REMARK       I    between atoms: C16_22  and  N3_24 
REMARK    8  A    between atoms: N3_24  and  C17_25 
REMARK    9  A    between atoms: C17_25  and  C18_26 
REMARK   10  A    between atoms: C18_26  and  O6_28 
ROOT
HETATM    1  C1  UNL     1      -3.660  48.571  -9.782  1.00  0.00     0.015 C 
HETATM    2  C2  UNL     1      -3.432  49.271 -10.733  1.00  0.00    -0.078 C 
HETATM    3  C3  UNL     1      -3.153  50.083 -11.929  1.00  0.00     0.128 C 
HETATM    4  C4  UNL     1      -3.853  51.440 -11.887  1.00  0.00     0.052 C 
HETATM    5  C5  UNL     1      -3.163  52.212 -13.005  1.00  0.00     0.010 C 
HETATM    6  C6  UNL     1      -1.681  51.779 -12.966  1.00  0.00     0.002 C 
HETATM    7  C7  UNL     1      -1.059  51.691 -14.377  1.00  0.00    -0.004 C 
HETATM    8  C8  UNL     1       0.473  51.907 -14.349  1.00  0.00     0.010 C 
HETATM    9  C9  UNL     1       1.216  51.266 -15.526  1.00  0.00     0.035 C 
HETATM   10  C10 UNL     1       0.343  51.217 -16.750  1.00  0.00    -0.069 C 
HETATM   11  C11 UNL     1       0.671  51.912 -17.853  1.00  0.00     0.030 C 
HETATM   12  C12 UNL     1      -0.222  51.956 -19.038  1.00  0.00     0.032 C 
HETATM   13  N1  UNL     1       0.259  52.464 -20.137  1.00  0.00    -0.271 N 
ATOM     14  H1  UNL     1       1.196  52.858 -20.223  1.00  0.00     0.194 HD
HETATM   15  C22 UNL     1      -1.626  51.391 -18.916  1.00  0.00     0.060 C 
HETATM   16  C23 UNL     1      -2.039  51.154 -17.465  1.00  0.00     0.020 C 
HETATM   17  C24 UNL     1      -0.956  50.423 -16.618  1.00  0.00    -0.016 C 
HETATM   18  C25 UNL     1      -0.759  49.003 -17.196  1.00  0.00     0.020 C 
HETATM   19  C26 UNL     1      -1.437  50.385 -15.109  1.00  0.00     0.002 C 
HETATM   20  C27 UNL     1      -0.989  49.145 -14.303  1.00  0.00     0.007 C 
HETATM   21  C28 UNL     1      -0.823  49.341 -12.792  1.00  0.00     0.014 C 
HETATM   22  C29 UNL     1      -1.647  50.458 -12.128  1.00  0.00     0.003 C 
HETATM   23  C30 UNL     1      -0.966  50.789 -10.768  1.00  0.00     0.020 C 
ENDROOT
BRANCH   3  24
HETATM   24  O1  UNL     1      -3.658  49.375 -13.061  1.00  0.00    -0.377 OA
HETATM   25  H2  UNL     1      -4.548  49.064 -12.826  1.00  0.00     0.211 HD
ENDBRANCH   3  24
BRANCH  13  26
HETATM   26  O2  UNL     1      -0.669  52.402 -21.185  1.00  0.00    -0.271 OA
BRANCH  26  27
HETATM   27  C13 UNL     1      -0.046  51.771 -22.299  1.00  0.00     0.303 C 
BRANCH  27  28
HETATM   28  C14 UNL     1      -0.592  52.369 -23.587  1.00  0.00     0.244 C 
HETATM   29  O3  UNL     1      -1.656  52.982 -23.642  1.00  0.00    -0.271 OA
HETATM   30  N2  UNL     1       0.158  52.099 -24.712  1.00  0.00    -0.346 N 
HETATM   31  H16 UNL     1       0.974  51.507 -24.602  1.00  0.00     0.163 HD
BRANCH  30  32
HETATM   32  C15 UNL     1      -0.140  52.669 -26.035  1.00  0.00     0.180 C 
BRANCH  32  33
HETATM   33  C16 UNL     1      -1.544  52.261 -26.568  1.00  0.00     0.241 C 
HETATM   34  O4  UNL     1      -2.279  53.022 -27.196  1.00  0.00    -0.271 OA
HETATM   35  N3  UNL     1      -1.975  51.017 -26.168  1.00  0.00    -0.349 N 
HETATM   36  H18 UNL     1      -1.454  50.554 -25.428  1.00  0.00     0.163 HD
BRANCH  35  37
HETATM   37  C17 UNL     1      -3.332  50.563 -26.411  1.00  0.00     0.232 C 
BRANCH  37  38
HETATM   38  C18 UNL     1      -3.388  49.759 -27.696  1.00  0.00     0.158 C 
HETATM   39  O5  UNL     1      -3.398  48.542 -27.796  1.00  0.00    -0.649 OA
BRANCH  38  40
HETATM   40  O6  UNL     1      -3.447  50.538 -28.795  1.00  0.00    -0.775 OA
HETATM   41  H21 UNL     1      -3.490  49.902 -29.539  1.00  0.00     0.167 HD
ENDBRANCH  38  40
ENDBRANCH  37  38
ENDBRANCH  35  37
ENDBRANCH  32  33
BRANCH  32  42
HETATM   42  C19 UNL     1       1.022  52.355 -27.009  1.00  0.00     0.009 C 
HETATM   43  C20 UNL     1       2.117  51.486 -26.384  1.00  0.00     0.012 C 
HETATM   44  C21 UNL     1       0.536  51.737 -28.324  1.00  0.00     0.012 C 
ENDBRANCH  32  42
ENDBRANCH  30  32
ENDBRANCH  27  28
ENDBRANCH  26  27
ENDBRANCH  13  26
TORSDOF 10
ENDMDL
MODEL 7
REMARK minimizedAffinity -8.01739693
REMARK CNNscore 0.296956271
REMARK CNNaffinity 6.6800952
REMARK  10 active torsions:
REMARK  status: ('A' for Active; 'I' for Inactive)
REMARK    1  A    between atoms: C3_3  and  O1_4 
REMARK    2  A    between atoms: N1_14  and  O2_16 
REMARK    3  A    between atoms: O2_16  and  C13_17 
REMARK    4  A    between atoms: C13_17  and  C14_18 
REMARK       I    between atoms: C14_18  and  N2_20 
REMARK    5  A    between atoms: N2_20  and  C15_21 
REMARK    6  A    between atoms: C15_21  and  C16_22 
REMARK    7  A    between atoms: C15_21  and  C19_29 
REMARK       I    between atoms: C16_22  and  N3_24 
REMARK    8  A    between atoms: N3_24  and  C17_25 
REMARK    9  A    between atoms: C17_25  and  C18_26 
REMARK   10  A    between atoms: C18_26  and  O6_28 
ROOT
HETATM    1  C1  UNL     1      -2.964  50.089 -27.506  1.00  0.00     0.015 C 
HETATM    2  C2  UNL     1      -3.240  50.351 -26.364  1.00  0.00    -0.078 C 
HETATM    3  C3  UNL     1      -3.527  50.661 -24.954  1.00  0.00     0.128 C 
HETATM    4  C4  UNL     1      -4.548  51.786 -24.802  1.00  0.00     0.052 C 
HETATM    5  C5  UNL     1      -4.937  51.694 -23.331  1.00  0.00     0.010 C 
HETATM    6  C6  UNL     1      -4.958  50.186 -22.993  1.00  0.00     0.002 C 
HETATM    7  C7  UNL     1      -4.457  49.901 -21.560  1.00  0.00    -0.004 C 
HETATM    8  C8  UNL     1      -5.052  48.592 -20.989  1.00  0.00     0.010 C 
HETATM    9  C9  UNL     1      -4.197  47.941 -19.897  1.00  0.00     0.035 C 
HETATM   10  C10 UNL     1      -3.423  48.979 -19.130  1.00  0.00    -0.069 C 
HETATM   11  C11 UNL     1      -3.658  49.181 -17.823  1.00  0.00     0.030 C 
HETATM   12  C12 UNL     1      -2.976  50.262 -17.069  1.00  0.00     0.032 C 
HETATM   13  N1  UNL     1      -3.088  50.257 -15.772  1.00  0.00    -0.271 N 
ATOM     14  H1  UNL     1      -3.639  49.576 -15.247  1.00  0.00     0.194 HD
HETATM   15  C22 UNL     1      -2.171  51.295 -17.839  1.00  0.00     0.060 C 
HETATM   16  C23 UNL     1      -2.458  51.262 -19.339  1.00  0.00     0.020 C 
HETATM   17  C24 UNL     1      -2.449  49.829 -19.947  1.00  0.00    -0.016 C 
HETATM   18  C25 UNL     1      -1.022  49.251 -19.818  1.00  0.00     0.020 C 
HETATM   19  C26 UNL     1      -2.917  49.919 -21.458  1.00  0.00     0.002 C 
HETATM   20  C27 UNL     1      -2.284  48.879 -22.409  1.00  0.00     0.007 C 
HETATM   21  C28 UNL     1      -3.122  48.471 -23.625  1.00  0.00     0.014 C 
HETATM   22  C29 UNL     1      -4.160  49.484 -24.141  1.00  0.00     0.003 C 
HETATM   23  C30 UNL     1      -5.187  48.694 -25.003  1.00  0.00     0.020 C 
ENDROOT
BRANCH   3  24
HETATM   24  O1  UNL     1      -2.310  51.102 -24.352  1.00  0.00    -0.377 OA
HETATM   25  H2  UNL     1      -1.906  51.739 -24.964  1.00  0.00     0.211 HD
ENDBRANCH   3  24
BRANCH  13  26
HETATM   26  O2  UNL     1      -2.362  51.301 -15.184  1.00  0.00    -0.271 OA
BRANCH  26  27
HETATM   27  C13 UNL     1      -2.251  51.041 -13.789  1.00  0.00     0.303 C 
BRANCH  27  28
HETATM   28  C14 UNL     1      -1.299  52.048 -13.162  1.00  0.00     0.244 C 
HETATM   29  O3  UNL     1      -0.334  52.519 -13.760  1.00  0.00    -0.271 OA
HETATM   30  N2  UNL     1      -1.551  52.334 -11.837  1.00  0.00    -0.346 N 
HETATM   31  H16 UNL     1      -2.309  51.835 -11.384  1.00  0.00     0.163 HD
BRANCH  30  32
HETATM   32  C15 UNL     1      -0.812  53.355 -11.078  1.00  0.00     0.180 C 
BRANCH  32  33
HETATM   33  C16 UNL     1       0.477  52.797 -10.408  1.00  0.00     0.241 C 
HETATM   34  O4  UNL     1       0.638  52.738  -9.190  1.00  0.00    -0.271 OA
HETATM   35  N3  UNL     1       1.498  52.495 -11.281  1.00  0.00    -0.349 N 
HETATM   36  H18 UNL     1       1.411  52.826 -12.238  1.00  0.00     0.163 HD
BRANCH  35  37
HETATM   37  C17 UNL     1       2.827  52.151 -10.813  1.00  0.00     0.232 C 
BRANCH  37  38
HETATM   38  C18 UNL     1       3.571  53.405 -10.392  1.00  0.00     0.158 C 
HETATM   39  O5  UNL     1       4.089  53.618  -9.306  1.00  0.00    -0.649 OA
BRANCH  38  40
HETATM   40  O6  UNL     1       3.636  54.326 -11.374  1.00  0.00    -0.775 OA
HETATM   41  H21 UNL     1       4.143  55.065 -10.979  1.00  0.00     0.167 HD
ENDBRANCH  38  40
ENDBRANCH  37  38
ENDBRANCH  35  37
ENDBRANCH  32  33
BRANCH  32  42
HETATM   42  C19 UNL     1      -1.774  54.071 -10.099  1.00  0.00     0.009 C 
HETATM   43  C20 UNL     1      -1.452  55.557  -9.913  1.00  0.00     0.012 C 
HETATM   44  C21 UNL     1      -3.245  53.888 -10.482  1.00  0.00     0.012 C 
ENDBRANCH  32  42
ENDBRANCH  30  32
ENDBRANCH  27  28
ENDBRANCH  26  27
ENDBRANCH  13  26
TORSDOF 10
ENDMDL
MODEL 8
REMARK minimizedAffinity -8.25315571
REMARK CNNscore 0.287155032
REMARK CNNaffinity 6.18980789
REMARK  10 active torsions:
REMARK  status: ('A' for Active; 'I' for Inactive)
REMARK    1  A    between atoms: C3_3  and  O1_4 
REMARK    2  A    between atoms: N1_14  and  O2_16 
REMARK    3  A    between atoms: O2_16  and  C13_17 
REMARK    4  A    between atoms: C13_17  and  C14_18 
REMARK       I    between atoms: C14_18  and  N2_20 
REMARK    5  A    between atoms: N2_20  and  C15_21 
REMARK    6  A    between atoms: C15_21  and  C16_22 
REMARK    7  A    between atoms: C15_21  and  C19_29 
REMARK       I    between atoms: C16_22  and  N3_24 
REMARK    8  A    between atoms: N3_24  and  C17_25 
REMARK    9  A    between atoms: C17_25  and  C18_26 
REMARK   10  A    between atoms: C18_26  and  O6_28 
ROOT
HETATM    1  C1  UNL     1      -0.210  53.718 -27.912  1.00  0.00     0.015 C 
HETATM    2  C2  UNL     1      -1.017  52.956 -27.447  1.00  0.00    -0.078 C 
HETATM    3  C3  UNL     1      -2.017  52.061 -26.841  1.00  0.00     0.128 C 
HETATM    4  C4  UNL     1      -2.738  51.206 -27.882  1.00  0.00     0.052 C 
HETATM    5  C5  UNL     1      -3.437  50.154 -27.030  1.00  0.00     0.010 C 
HETATM    6  C6  UNL     1      -2.462  49.828 -25.877  1.00  0.00     0.002 C 
HETATM    7  C7  UNL     1      -3.199  49.550 -24.548  1.00  0.00    -0.004 C 
HETATM    8  C8  UNL     1      -2.379  48.630 -23.612  1.00  0.00     0.010 C 
HETATM    9  C9  UNL     1      -2.716  48.791 -22.126  1.00  0.00     0.035 C 
HETATM   10  C10 UNL     1      -4.152  49.200 -21.942  1.00  0.00    -0.069 C 
HETATM   11  C11 UNL     1      -5.020  48.389 -21.314  1.00  0.00     0.030 C 
HETATM   12  C12 UNL     1      -6.460  48.728 -21.204  1.00  0.00     0.032 C 
HETATM   13  N1  UNL     1      -7.190  48.008 -20.401  1.00  0.00    -0.271 N 
ATOM     14  H1  UNL     1      -6.840  47.211 -19.869  1.00  0.00     0.194 HD
HETATM   15  C22 UNL     1      -6.999  49.899 -22.007  1.00  0.00     0.060 C 
HETATM   16  C23 UNL     1      -6.026  50.363 -23.090  1.00  0.00     0.020 C 
HETATM   17  C24 UNL     1      -4.561  50.523 -22.589  1.00  0.00    -0.016 C 
HETATM   18  C25 UNL     1      -4.525  51.651 -21.533  1.00  0.00     0.020 C 
HETATM   19  C26 UNL     1      -3.635  50.847 -23.833  1.00  0.00     0.002 C 
HETATM   20  C27 UNL     1      -2.420  51.754 -23.534  1.00  0.00     0.007 C 
HETATM   21  C28 UNL     1      -1.194  51.565 -24.433  1.00  0.00     0.014 C 
HETATM   22  C29 UNL     1      -1.432  51.005 -25.847  1.00  0.00     0.003 C 
HETATM   23  C30 UNL     1      -0.072  50.445 -26.357  1.00  0.00     0.020 C 
ENDROOT
BRANCH   3  24
HETATM   24  O1  UNL     1      -2.998  52.877 -26.203  1.00  0.00    -0.377 OA
HETATM   25  H2  UNL     1      -3.228  53.585 -26.828  1.00  0.00     0.211 HD
ENDBRANCH   3  24
BRANCH  13  26
HETATM   26  O2  UNL     1      -8.515  48.463 -20.358  1.00  0.00    -0.271 OA
BRANCH  26  27
HETATM   27  C13 UNL     1      -9.376  47.362 -20.634  1.00  0.00     0.303 C 
BRANCH  27  28
HETATM   28  C14 UNL     1     -10.401  47.232 -19.517  1.00  0.00     0.244 C 
HETATM   29  O3  UNL     1     -10.145  46.721 -18.429  1.00  0.00    -0.271 OA
HETATM   30  N2  UNL     1     -11.671  47.655 -19.847  1.00  0.00    -0.346 N 
HETATM   31  H16 UNL     1     -11.827  47.978 -20.796  1.00  0.00     0.163 HD
BRANCH  30  32
HETATM   32  C15 UNL     1     -12.780  47.708 -18.881  1.00  0.00     0.180 C 
BRANCH  32  33
HETATM   33  C16 UNL     1     -13.176  46.306 -18.337  1.00  0.00     0.241 C 
HETATM   34  O4  UNL     1     -13.824  45.485 -18.984  1.00  0.00    -0.271 OA
HETATM   35  N3  UNL     1     -12.868  46.092 -17.012  1.00  0.00    -0.349 N 
HETATM   36  H18 UNL     1     -12.592  46.898 -16.457  1.00  0.00     0.163 HD
BRANCH  35  37
HETATM   37  C17 UNL     1     -13.340  44.921 -16.297  1.00  0.00     0.232 C 
BRANCH  37  38
HETATM   38  C18 UNL     1     -13.153  45.114 -14.804  1.00  0.00     0.158 C 
HETATM   39  O5  UNL     1     -13.764  45.891 -14.086  1.00  0.00    -0.649 OA
BRANCH  38  40
HETATM   40  O6  UNL     1     -12.213  44.298 -14.287  1.00  0.00    -0.775 OA
HETATM   41  H21 UNL     1     -12.204  44.515 -13.332  1.00  0.00     0.167 HD
ENDBRANCH  38  40
ENDBRANCH  37  38
ENDBRANCH  35  37
ENDBRANCH  32  33
BRANCH  32  42
HETATM   42  C19 UNL     1     -13.958  48.508 -19.488  1.00  0.00     0.009 C 
HETATM   43  C20 UNL     1     -14.534  47.871 -20.756  1.00  0.00     0.012 C 
HETATM   44  C21 UNL     1     -15.073  48.774 -18.472  1.00  0.00     0.012 C 
ENDBRANCH  32  42
ENDBRANCH  30  32
ENDBRANCH  27  28
ENDBRANCH  26  27
ENDBRANCH  13  26
TORSDOF 10
ENDMDL
MODEL 9
REMARK minimizedAffinity -7.80334806
REMARK CNNscore 0.274472058
REMARK CNNaffinity 6.46185064
REMARK  10 active torsions:
REMARK  status: ('A' for Active; 'I' for Inactive)
REMARK    1  A    between atoms: C3_3  and  O1_4 
REMARK    2  A    between atoms: N1_14  and  O2_16 
REMARK    3  A    between atoms: O2_16  and  C13_17 
REMARK    4  A    between atoms: C13_17  and  C14_18 
REMARK       I    between atoms: C14_18  and  N2_20 
REMARK    5  A    between atoms: N2_20  and  C15_21 
REMARK    6  A    between atoms: C15_21  and  C16_22 
REMARK    7  A    between atoms: C15_21  and  C19_29 
REMARK       I    between atoms: C16_22  and  N3_24 
REMARK    8  A    between atoms: N3_24  and  C17_25 
REMARK    9  A    between atoms: C17_25  and  C18_26 
REMARK   10  A    between atoms: C18_26  and  O6_28 
ROOT
HETATM    1  C1  UNL     1       0.074  49.398 -16.586  1.00  0.00     0.015 C 
HETATM    2  C2  UNL     1      -0.734  49.706 -17.422  1.00  0.00    -0.078 C 
HETATM    3  C3  UNL     1      -1.747  50.034 -18.439  1.00  0.00     0.128 C 
HETATM    4  C4  UNL     1      -2.141  51.510 -18.412  1.00  0.00     0.052 C 
HETATM    5  C5  UNL     1      -2.898  51.683 -19.723  1.00  0.00     0.010 C 
HETATM    6  C6  UNL     1      -2.164  50.798 -20.755  1.00  0.00     0.002 C 
HETATM    7  C7  UNL     1      -3.137  50.141 -21.759  1.00  0.00    -0.004 C 
HETATM    8  C8  UNL     1      -2.448  49.822 -23.108  1.00  0.00     0.010 C 
HETATM    9  C9  UNL     1      -3.109  48.685 -23.893  1.00  0.00     0.035 C 
HETATM   10  C10 UNL     1      -4.585  48.620 -23.606  1.00  0.00    -0.069 C 
HETATM   11  C11 UNL     1      -5.482  48.850 -24.579  1.00  0.00     0.030 C 
HETATM   12  C12 UNL     1      -6.939  48.886 -24.300  1.00  0.00     0.032 C 
HETATM   13  N1  UNL     1      -7.749  48.896 -25.320  1.00  0.00    -0.271 N 
ATOM     14  H1  UNL     1      -7.443  48.912 -26.294  1.00  0.00     0.194 HD
HETATM   15  C22 UNL     1      -7.407  48.884 -22.855  1.00  0.00     0.060 C 
HETATM   16  C23 UNL     1      -6.277  49.187 -21.874  1.00  0.00     0.020 C 
HETATM   17  C24 UNL     1      -4.975  48.378 -22.148  1.00  0.00    -0.016 C 
HETATM   18  C25 UNL     1      -5.277  46.878 -21.933  1.00  0.00     0.020 C 
HETATM   19  C26 UNL     1      -3.842  48.899 -21.172  1.00  0.00     0.002 C 
HETATM   20  C27 UNL     1      -2.814  47.835 -20.724  1.00  0.00     0.007 C 
HETATM   21  C28 UNL     1      -1.412  48.347 -20.380  1.00  0.00     0.014 C 
HETATM   22  C29 UNL     1      -1.286  49.810 -19.918  1.00  0.00     0.003 C 
HETATM   23  C30 UNL     1       0.200  50.230 -20.114  1.00  0.00     0.020 C 
ENDROOT
BRANCH   3  24
HETATM   24  O1  UNL     1      -2.917  49.273 -18.147  1.00  0.00    -0.377 OA
HETATM   25  H2  UNL     1      -3.078  49.355 -17.192  1.00  0.00     0.211 HD
ENDBRANCH   3  24
BRANCH  13  26
HETATM   26  O2  UNL     1      -9.091  48.884 -24.917  1.00  0.00    -0.271 OA
BRANCH  26  27
HETATM   27  C13 UNL     1      -9.908  48.787 -26.079  1.00  0.00     0.303 C 
BRANCH  27  28
HETATM   28  C14 UNL     1      -9.193  47.949 -27.128  1.00  0.00     0.244 C 
HETATM   29  O3  UNL     1      -8.799  46.804 -26.916  1.00  0.00    -0.271 OA
HETATM   30  N2  UNL     1      -8.942  48.602 -28.316  1.00  0.00    -0.346 N 
HETATM   31  H16 UNL     1      -9.214  49.577 -28.383  1.00  0.00     0.163 HD
BRANCH  30  32
HETATM   32  C15 UNL     1      -8.355  47.941 -29.492  1.00  0.00     0.180 C 
BRANCH  32  33
HETATM   33  C16 UNL     1      -9.366  47.024 -30.239  1.00  0.00     0.241 C 
HETATM   34  O4  UNL     1      -9.578  47.092 -31.449  1.00  0.00    -0.271 OA
HETATM   35  N3  UNL     1     -10.119  46.209 -29.424  1.00  0.00    -0.349 N 
HETATM   36  H18 UNL     1     -10.100  46.397 -28.425  1.00  0.00     0.163 HD
BRANCH  35  37
HETATM   37  C17 UNL     1     -11.237  45.439 -29.936  1.00  0.00     0.232 C 
BRANCH  37  38
HETATM   38  C18 UNL     1     -12.525  45.885 -29.270  1.00  0.00     0.158 C 
HETATM   39  O5  UNL     1     -13.057  45.377 -28.295  1.00  0.00    -0.649 OA
BRANCH  38  40
HETATM   40  O6  UNL     1     -13.070  46.967 -29.862  1.00  0.00    -0.775 OA
HETATM   41  H21 UNL     1     -13.873  47.151 -29.334  1.00  0.00     0.167 HD
ENDBRANCH  38  40
ENDBRANCH  37  38
ENDBRANCH  35  37
ENDBRANCH  32  33
BRANCH  32  42
HETATM   42  C19 UNL     1      -7.040  47.233 -29.085  1.00  0.00     0.009 C 
HETATM   43  C20 UNL     1      -6.910  45.819 -29.660  1.00  0.00     0.012 C 
HETATM   44  C21 UNL     1      -5.797  48.062 -29.424  1.00  0.00     0.012 C 
ENDBRANCH  32  42
ENDBRANCH  30  32
ENDBRANCH  27  28
ENDBRANCH  26  27
ENDBRANCH  13  26
TORSDOF 10
ENDMDL
