MODEL 1
REMARK minimizedAffinity -8.19299603
REMARK CNNscore 0.722478032
REMARK CNNaffinity 7.19988775
REMARK  6 active torsions:
REMARK  status: ('A' for Active; 'I' for Inactive)
REMARK    1  A    between atoms: C2_2  and  C30_31 
REMARK    2  A    between atoms: C3_3  and  C4_4 
REMARK    3  A    between atoms: C4_4  and  C5_5 
REMARK    4  A    between atoms: C5_5  and  C6_6 
REMARK    5  A    between atoms: C6_6  and  C8_8 
REMARK    6  A    between atoms: C30_31  and  O3_33 
ROOT
HETATM    1  C8  UNL     1      -0.101  11.177  17.943  1.00  0.00    -0.002 C 
HETATM    2  C9  UNL     1      -1.112  12.357  18.084  1.00  0.00     0.007 C 
HETATM    3  C10 UNL     1      -2.425  11.927  17.394  1.00  0.00     0.015 C 
HETATM    4  C11 UNL     1      -2.263  10.413  17.173  1.00  0.00    -0.013 C 
HETATM    5  C12 UNL     1      -2.623   9.734  18.543  1.00  0.00     0.021 C 
HETATM    6  C13 UNL     1      -3.149   9.717  16.135  1.00  0.00    -0.070 C 
HETATM    7  C14 UNL     1      -4.467   9.980  16.077  1.00  0.00    -0.022 C 
HETATM    8  C15 UNL     1      -5.453   9.107  15.375  1.00  0.00     0.034 C 
HETATM    9  C16 UNL     1      -4.934   7.660  15.231  1.00  0.00     0.013 C 
HETATM   10  C17 UNL     1      -6.000   6.652  14.657  1.00  0.00     0.018 C 
HETATM   11  C18 UNL     1      -6.652   5.903  15.843  1.00  0.00     0.023 C 
HETATM   12  C19 UNL     1      -7.134   7.351  13.867  1.00  0.00     0.023 C 
HETATM   13  C20 UNL     1      -5.432   5.554  13.740  1.00  0.00     0.135 C 
HETATM   14  O1  UNL     1      -6.179   4.876  13.022  1.00  0.00    -0.297 OA
HETATM   15  C21 UNL     1      -3.960   5.233  13.731  1.00  0.00     0.080 C 
HETATM   16  C22 UNL     1      -3.072   6.170  14.523  1.00  0.00     0.017 C 
HETATM   17  C23 UNL     1      -3.538   7.640  14.539  1.00  0.00    -0.031 C 
HETATM   18  C24 UNL     1      -3.633   8.170  13.082  1.00  0.00     0.016 C 
HETATM   19  C25 UNL     1      -2.506   8.585  15.316  1.00  0.00     0.024 C 
HETATM   20  C26 UNL     1      -1.407   7.887  16.151  1.00  0.00     0.010 C 
HETATM   21  C27 UNL     1      -0.331   8.840  16.738  1.00  0.00     0.011 C 
HETATM   22  C28 UNL     1      -0.742  10.329  16.794  1.00  0.00    -0.029 C 
HETATM   23  C29 UNL     1      -0.390  11.028  15.440  1.00  0.00     0.016 C 
ENDROOT
BRANCH   1  24
HETATM   24  C6  UNL     1       1.371  11.662  17.820  1.00  0.00    -0.014 C 
HETATM   25  C7  UNL     1       1.847  11.729  16.365  1.00  0.00     0.010 C 
BRANCH  24  26
HETATM   26  C5  UNL     1       2.356  10.807  18.659  1.00  0.00     0.008 C 
BRANCH  26  27
HETATM   27  C4  UNL     1       1.899  10.484  20.088  1.00  0.00     0.028 C 
BRANCH  27  28
HETATM   28  C3  UNL     1       3.021  10.692  21.069  1.00  0.00    -0.013 C 
HETATM   29  C2  UNL     1       3.324   9.977  22.173  1.00  0.00     0.008 C 
HETATM   30  C1  UNL     1       4.507  10.335  23.030  1.00  0.00     0.055 C 
BRANCH  29  31
HETATM   31  C30 UNL     1       2.492   8.842  22.637  1.00  0.00     0.171 C 
HETATM   32  O2  UNL     1       1.908   8.021  21.956  1.00  0.00    -0.646 OA
BRANCH  31  33
HETATM   33  O3  UNL     1       2.419   8.797  23.980  1.00  0.00    -0.773 OA
HETATM   34  H46 UNL     1       1.859   8.011  24.147  1.00  0.00     0.167 HD
ENDBRANCH  31  33
ENDBRANCH  29  31
ENDBRANCH  27  28
ENDBRANCH  26  27
ENDBRANCH  24  26
ENDBRANCH   1  24
TORSDOF 6
ENDMDL
MODEL 2
REMARK minimizedAffinity -7.88235283
REMARK CNNscore 0.474240512
REMARK CNNaffinity 5.86708069
REMARK  6 active torsions:
REMARK  status: ('A' for Active; 'I' for Inactive)
REMARK    1  A    between atoms: C2_2  and  C30_31 
REMARK    2  A    between atoms: C3_3  and  C4_4 
REMARK    3  A    between atoms: C4_4  and  C5_5 
REMARK    4  A    between atoms: C5_5  and  C6_6 
REMARK    5  A    between atoms: C6_6  and  C8_8 
REMARK    6  A    between atoms: C30_31  and  O3_33 
ROOT
HETATM    1  C8  UNL     1       7.518   9.586  15.311  1.00  0.00    -0.002 C 
HETATM    2  C9  UNL     1       8.597   8.604  14.757  1.00  0.00     0.007 C 
HETATM    3  C10 UNL     1       7.966   7.847  13.567  1.00  0.00     0.015 C 
HETATM    4  C11 UNL     1       6.682   8.633  13.250  1.00  0.00    -0.013 C 
HETATM    5  C12 UNL     1       7.129   9.863  12.382  1.00  0.00     0.021 C 
HETATM    6  C13 UNL     1       5.576   7.949  12.439  1.00  0.00    -0.070 C 
HETATM    7  C14 UNL     1       5.880   7.238  11.339  1.00  0.00    -0.022 C 
HETATM    8  C15 UNL     1       4.877   6.858  10.300  1.00  0.00     0.034 C 
HETATM    9  C16 UNL     1       3.653   7.800  10.315  1.00  0.00     0.013 C 
HETATM   10  C17 UNL     1       2.646   7.558   9.128  1.00  0.00     0.018 C 
HETATM   11  C18 UNL     1       2.952   8.583   8.010  1.00  0.00     0.023 C 
HETATM   12  C19 UNL     1       2.765   6.143   8.508  1.00  0.00     0.023 C 
HETATM   13  C20 UNL     1       1.162   7.765   9.481  1.00  0.00     0.135 C 
HETATM   14  O1  UNL     1       0.266   7.354   8.730  1.00  0.00    -0.297 OA
HETATM   15  C21 UNL     1       0.755   8.523  10.718  1.00  0.00     0.080 C 
HETATM   16  C22 UNL     1       1.875   8.892  11.668  1.00  0.00     0.017 C 
HETATM   17  C23 UNL     1       3.024   7.867  11.739  1.00  0.00    -0.031 C 
HETATM   18  C24 UNL     1       2.459   6.483  12.160  1.00  0.00     0.016 C 
HETATM   19  C25 UNL     1       4.124   8.276  12.827  1.00  0.00     0.024 C 
HETATM   20  C26 UNL     1       4.040   9.709  13.404  1.00  0.00     0.010 C 
HETATM   21  C27 UNL     1       5.015   9.995  14.578  1.00  0.00     0.011 C 
HETATM   22  C28 UNL     1       6.199   9.009  14.696  1.00  0.00    -0.029 C 
HETATM   23  C29 UNL     1       5.778   7.775  15.561  1.00  0.00     0.016 C 
ENDROOT
BRANCH   1  24
HETATM   24  C6  UNL     1       7.631   9.795  16.847  1.00  0.00    -0.014 C 
HETATM   25  C7  UNL     1       6.808  10.991  17.339  1.00  0.00     0.010 C 
BRANCH  24  26
HETATM   26  C5  UNL     1       9.099   9.929  17.328  1.00  0.00     0.008 C 
BRANCH  26  27
HETATM   27  C4  UNL     1       9.534  11.343  17.736  1.00  0.00     0.028 C 
BRANCH  27  28
HETATM   28  C3  UNL     1       9.202  11.608  19.181  1.00  0.00    -0.013 C 
HETATM   29  C2  UNL     1      10.040  11.831  20.215  1.00  0.00     0.008 C 
HETATM   30  C1  UNL     1       9.514  12.094  21.599  1.00  0.00     0.055 C 
BRANCH  29  31
HETATM   31  C30 UNL     1      11.515  11.780  20.067  1.00  0.00     0.171 C 
HETATM   32  O2  UNL     1      12.286  12.716  19.987  1.00  0.00    -0.646 OA
BRANCH  31  33
HETATM   33  O3  UNL     1      11.963  10.512  20.012  1.00  0.00    -0.773 OA
HETATM   34  H46 UNL     1      12.932  10.622  19.926  1.00  0.00     0.167 HD
ENDBRANCH  31  33
ENDBRANCH  29  31
ENDBRANCH  27  28
ENDBRANCH  26  27
ENDBRANCH  24  26
ENDBRANCH   1  24
TORSDOF 6
ENDMDL
MODEL 3
REMARK minimizedAffinity -7.35027218
REMARK CNNscore 0.391918063
REMARK CNNaffinity 6.42087412
REMARK  6 active torsions:
REMARK  status: ('A' for Active; 'I' for Inactive)
REMARK    1  A    between atoms: C2_2  and  C30_31 
REMARK    2  A    between atoms: C3_3  and  C4_4 
REMARK    3  A    between atoms: C4_4  and  C5_5 
REMARK    4  A    between atoms: C5_5  and  C6_6 
REMARK    5  A    between atoms: C6_6  and  C8_8 
REMARK    6  A    between atoms: C30_31  and  O3_33 
ROOT
HETATM    1  C8  UNL     1      -2.713  13.037  18.102  1.00  0.00    -0.002 C 
HETATM    2  C9  UNL     1      -1.349  12.746  18.802  1.00  0.00     0.007 C 
HETATM    3  C10 UNL     1      -0.822  11.403  18.249  1.00  0.00     0.015 C 
HETATM    4  C11 UNL     1      -1.704  11.124  17.019  1.00  0.00    -0.013 C 
HETATM    5  C12 UNL     1      -1.100  11.979  15.849  1.00  0.00     0.021 C 
HETATM    6  C13 UNL     1      -1.783   9.694  16.474  1.00  0.00    -0.070 C 
HETATM    7  C14 UNL     1      -0.666   8.958  16.329  1.00  0.00    -0.022 C 
HETATM    8  C15 UNL     1      -0.592   7.730  15.483  1.00  0.00     0.034 C 
HETATM    9  C16 UNL     1      -1.689   7.718  14.396  1.00  0.00     0.013 C 
HETATM   10  C17 UNL     1      -1.552   6.537  13.363  1.00  0.00     0.018 C 
HETATM   11  C18 UNL     1      -0.832   7.071  12.102  1.00  0.00     0.023 C 
HETATM   12  C19 UNL     1      -0.721   5.348  13.906  1.00  0.00     0.023 C 
HETATM   13  C20 UNL     1      -2.885   5.953  12.860  1.00  0.00     0.135 C 
HETATM   14  O1  UNL     1      -2.920   4.867  12.266  1.00  0.00    -0.297 OA
HETATM   15  C21 UNL     1      -4.176   6.711  13.023  1.00  0.00     0.080 C 
HETATM   16  C22 UNL     1      -4.106   7.968  13.866  1.00  0.00     0.017 C 
HETATM   17  C23 UNL     1      -3.099   7.906  15.031  1.00  0.00    -0.031 C 
HETATM   18  C24 UNL     1      -3.452   6.712  15.960  1.00  0.00     0.016 C 
HETATM   19  C25 UNL     1      -3.144   9.229  15.931  1.00  0.00     0.024 C 
HETATM   20  C26 UNL     1      -3.928  10.437  15.363  1.00  0.00     0.010 C 
HETATM   21  C27 UNL     1      -4.089  11.628  16.346  1.00  0.00     0.011 C 
HETATM   22  C28 UNL     1      -3.098  11.632  17.532  1.00  0.00    -0.029 C 
HETATM   23  C29 UNL     1      -3.681  10.788  18.713  1.00  0.00     0.016 C 
ENDROOT
BRANCH   1  24
HETATM   24  C6  UNL     1      -3.707  13.800  19.023  1.00  0.00    -0.014 C 
HETATM   25  C7  UNL     1      -3.001  14.790  19.955  1.00  0.00     0.010 C 
BRANCH  24  26
HETATM   26  C5  UNL     1      -4.612  12.848  19.849  1.00  0.00     0.008 C 
BRANCH  26  27
HETATM   27  C4  UNL     1      -6.034  13.357  20.117  1.00  0.00     0.028 C 
BRANCH  27  28
HETATM   28  C3  UNL     1      -6.096  14.110  21.420  1.00  0.00    -0.013 C 
HETATM   29  C2  UNL     1      -6.961  13.961  22.444  1.00  0.00     0.008 C 
HETATM   30  C1  UNL     1      -6.852  14.806  23.683  1.00  0.00     0.055 C 
BRANCH  29  31
HETATM   31  C30 UNL     1      -8.092  13.003  22.395  1.00  0.00     0.171 C 
HETATM   32  O2  UNL     1      -8.789  12.724  21.438  1.00  0.00    -0.646 OA
BRANCH  31  33
HETATM   33  O3  UNL     1      -8.311  12.433  23.594  1.00  0.00    -0.773 OA
HETATM   34  H46 UNL     1      -9.062  11.830  23.420  1.00  0.00     0.167 HD
ENDBRANCH  31  33
ENDBRANCH  29  31
ENDBRANCH  27  28
ENDBRANCH  26  27
ENDBRANCH  24  26
ENDBRANCH   1  24
TORSDOF 6
ENDMDL
MODEL 4
REMARK minimizedAffinity -8.44642258
REMARK CNNscore 0.36464414
REMARK CNNaffinity 6.69044876
REMARK  6 active torsions:
REMARK  status: ('A' for Active; 'I' for Inactive)
REMARK    1  A    between atoms: C2_2  and  C30_31 
REMARK    2  A    between atoms: C3_3  and  C4_4 
REMARK    3  A    between atoms: C4_4  and  C5_5 
REMARK    4  A    between atoms: C5_5  and  C6_6 
REMARK    5  A    between atoms: C6_6  and  C8_8 
REMARK    6  A    between atoms: C30_31  and  O3_33 
ROOT
HETATM    1  C8  UNL     1       0.908   6.218  11.683  1.00  0.00    -0.002 C 
HETATM    2  C9  UNL     1       1.047   4.664  11.677  1.00  0.00     0.007 C 
HETATM    3  C10 UNL     1      -0.300   4.077  12.154  1.00  0.00     0.015 C 
HETATM    4  C11 UNL     1      -1.276   5.265  12.099  1.00  0.00    -0.013 C 
HETATM    5  C12 UNL     1      -1.727   5.388  10.600  1.00  0.00     0.021 C 
HETATM    6  C13 UNL     1      -2.577   5.191  12.906  1.00  0.00    -0.070 C 
HETATM    7  C14 UNL     1      -3.323   4.072  12.894  1.00  0.00    -0.022 C 
HETATM    8  C15 UNL     1      -4.751   4.028  13.329  1.00  0.00     0.034 C 
HETATM    9  C16 UNL     1      -5.417   5.419  13.244  1.00  0.00     0.013 C 
HETATM   10  C17 UNL     1      -6.968   5.402  13.520  1.00  0.00     0.018 C 
HETATM   11  C18 UNL     1      -7.707   5.378  12.161  1.00  0.00     0.023 C 
HETATM   12  C19 UNL     1      -7.429   4.160  14.324  1.00  0.00     0.023 C 
HETATM   13  C20 UNL     1      -7.510   6.637  14.262  1.00  0.00     0.135 C 
HETATM   14  O1  UNL     1      -8.641   6.628  14.770  1.00  0.00    -0.297 OA
HETATM   15  C21 UNL     1      -6.710   7.911  14.342  1.00  0.00     0.080 C 
HETATM   16  C22 UNL     1      -5.289   7.834  13.822  1.00  0.00     0.017 C 
HETATM   17  C23 UNL     1      -4.595   6.475  14.041  1.00  0.00    -0.031 C 
HETATM   18  C24 UNL     1      -4.581   6.138  15.557  1.00  0.00     0.016 C 
HETATM   19  C25 UNL     1      -3.072   6.496  13.551  1.00  0.00     0.024 C 
HETATM   20  C26 UNL     1      -2.625   7.710  12.700  1.00  0.00     0.010 C 
HETATM   21  C27 UNL     1      -1.103   7.770  12.402  1.00  0.00     0.011 C 
HETATM   22  C28 UNL     1      -0.350   6.433  12.590  1.00  0.00    -0.029 C 
HETATM   23  C29 UNL     1       0.113   6.289  14.077  1.00  0.00     0.016 C 
ENDROOT
BRANCH   1  24
HETATM   24  C6  UNL     1       2.243   6.937  12.025  1.00  0.00    -0.014 C 
HETATM   25  C7  UNL     1       2.351   7.298  13.511  1.00  0.00     0.010 C 
BRANCH  24  26
HETATM   26  C5  UNL     1       2.485   8.199  11.156  1.00  0.00     0.008 C 
BRANCH  26  27
HETATM   27  C4  UNL     1       3.822   8.235  10.403  1.00  0.00     0.028 C 
BRANCH  27  28
HETATM   28  C3  UNL     1       4.568   6.939  10.574  1.00  0.00    -0.013 C 
HETATM   29  C2  UNL     1       5.846   6.741  10.959  1.00  0.00     0.008 C 
HETATM   30  C1  UNL     1       6.414   5.355  11.087  1.00  0.00     0.055 C 
BRANCH  29  31
HETATM   31  C30 UNL     1       6.777   7.864  11.227  1.00  0.00     0.171 C 
HETATM   32  O2  UNL     1       6.830   8.937  10.658  1.00  0.00    -0.646 OA
BRANCH  31  33
HETATM   33  O3  UNL     1       7.635   7.569  12.221  1.00  0.00    -0.773 OA
HETATM   34  H46 UNL     1       8.174   8.383  12.298  1.00  0.00     0.167 HD
ENDBRANCH  31  33
ENDBRANCH  29  31
ENDBRANCH  27  28
ENDBRANCH  26  27
ENDBRANCH  24  26
ENDBRANCH   1  24
TORSDOF 6
ENDMDL
MODEL 5
REMARK minimizedAffinity -7.14931393
REMARK CNNscore 0.356277108
REMARK CNNaffinity 5.8270092
REMARK  6 active torsions:
REMARK  status: ('A' for Active; 'I' for Inactive)
REMARK    1  A    between atoms: C2_2  and  C30_31 
REMARK    2  A    between atoms: C3_3  and  C4_4 
REMARK    3  A    between atoms: C4_4  and  C5_5 
REMARK    4  A    between atoms: C5_5  and  C6_6 
REMARK    5  A    between atoms: C6_6  and  C8_8 
REMARK    6  A    between atoms: C30_31  and  O3_33 
ROOT
HETATM    1  C8  UNL     1      -6.182 -10.310   8.060  1.00  0.00    -0.002 C 
HETATM    2  C9  UNL     1      -7.107  -9.109   7.691  1.00  0.00     0.007 C 
HETATM    3  C10 UNL     1      -7.036  -8.923   6.159  1.00  0.00     0.015 C 
HETATM    4  C11 UNL     1      -6.356 -10.205   5.649  1.00  0.00    -0.013 C 
HETATM    5  C12 UNL     1      -7.483 -11.297   5.582  1.00  0.00     0.021 C 
HETATM    6  C13 UNL     1      -5.718 -10.201   4.256  1.00  0.00    -0.070 C 
HETATM    7  C14 UNL     1      -6.369  -9.663   3.210  1.00  0.00    -0.022 C 
HETATM    8  C15 UNL     1      -6.010  -9.933   1.786  1.00  0.00     0.034 C 
HETATM    9  C16 UNL     1      -5.242 -11.265   1.634  1.00  0.00     0.013 C 
HETATM   10  C17 UNL     1      -4.992 -11.691   0.139  1.00  0.00     0.018 C 
HETATM   11  C18 UNL     1      -6.085 -12.706  -0.271  1.00  0.00     0.023 C 
HETATM   12  C19 UNL     1      -5.064 -10.502  -0.852  1.00  0.00     0.023 C 
HETATM   13  C20 UNL     1      -3.651 -12.403  -0.120  1.00  0.00     0.135 C 
HETATM   14  O1  UNL     1      -3.219 -12.546  -1.273  1.00  0.00    -0.297 OA
HETATM   15  C21 UNL     1      -2.856 -12.998   1.012  1.00  0.00     0.080 C 
HETATM   16  C22 UNL     1      -3.354 -12.687   2.408  1.00  0.00     0.017 C 
HETATM   17  C23 UNL     1      -3.995 -11.295   2.568  1.00  0.00    -0.031 C 
HETATM   18  C24 UNL     1      -2.970 -10.202   2.159  1.00  0.00     0.016 C 
HETATM   19  C25 UNL     1      -4.415 -11.000   4.084  1.00  0.00     0.024 C 
HETATM   20  C26 UNL     1      -4.397 -12.200   5.062  1.00  0.00     0.010 C 
HETATM   21  C27 UNL     1      -4.639 -11.829   6.551  1.00  0.00     0.011 C 
HETATM   22  C28 UNL     1      -5.293 -10.448   6.779  1.00  0.00    -0.029 C 
HETATM   23  C29 UNL     1      -4.189  -9.343   6.852  1.00  0.00     0.016 C 
ENDROOT
BRANCH   1  24
HETATM   24  C6  UNL     1      -5.514 -10.145   9.453  1.00  0.00    -0.014 C 
HETATM   25  C7  UNL     1      -4.017  -9.834   9.353  1.00  0.00     0.010 C 
BRANCH  24  26
HETATM   26  C5  UNL     1      -5.739 -11.372  10.376  1.00  0.00     0.008 C 
BRANCH  26  27
HETATM   27  C4  UNL     1      -5.968 -11.049  11.859  1.00  0.00     0.028 C 
BRANCH  27  28
HETATM   28  C3  UNL     1      -7.366 -10.542  12.086  1.00  0.00    -0.013 C 
HETATM   29  C2  UNL     1      -7.791  -9.271  12.245  1.00  0.00     0.008 C 
HETATM   30  C1  UNL     1      -9.247  -8.957  12.449  1.00  0.00     0.055 C 
BRANCH  29  31
HETATM   31  C30 UNL     1      -6.856  -8.121  12.282  1.00  0.00     0.171 C 
HETATM   32  O2  UNL     1      -6.627  -7.321  11.395  1.00  0.00    -0.646 OA
BRANCH  31  33
HETATM   33  O3  UNL     1      -6.222  -8.035  13.465  1.00  0.00    -0.773 OA
HETATM   34  H46 UNL     1      -5.656  -7.243  13.358  1.00  0.00     0.167 HD
ENDBRANCH  31  33
ENDBRANCH  29  31
ENDBRANCH  27  28
ENDBRANCH  26  27
ENDBRANCH  24  26
ENDBRANCH   1  24
TORSDOF 6
ENDMDL
MODEL 6
REMARK minimizedAffinity -6.64549255
REMARK CNNscore 0.353601485
REMARK CNNaffinity 5.42424393
REMARK  6 active torsions:
REMARK  status: ('A' for Active; 'I' for Inactive)
REMARK    1  A    between atoms: C2_2  and  C30_31 
REMARK    2  A    between atoms: C3_3  and  C4_4 
REMARK    3  A    between atoms: C4_4  and  C5_5 
REMARK    4  A    between atoms: C5_5  and  C6_6 
REMARK    5  A    between atoms: C6_6  and  C8_8 
REMARK    6  A    between atoms: C30_31  and  O3_33 
ROOT
HETATM    1  C8  UNL     1      -3.854 -11.071   5.813  1.00  0.00    -0.002 C 
HETATM    2  C9  UNL     1      -4.008 -12.571   6.213  1.00  0.00     0.007 C 
HETATM    3  C10 UNL     1      -4.293 -13.368   4.921  1.00  0.00     0.015 C 
HETATM    4  C11 UNL     1      -3.964 -12.384   3.785  1.00  0.00    -0.013 C 
HETATM    5  C12 UNL     1      -2.405 -12.428   3.609  1.00  0.00     0.021 C 
HETATM    6  C13 UNL     1      -4.534 -12.650   2.387  1.00  0.00    -0.070 C 
HETATM    7  C14 UNL     1      -4.490 -13.885   1.858  1.00  0.00    -0.022 C 
HETATM    8  C15 UNL     1      -4.671 -14.166   0.403  1.00  0.00     0.034 C 
HETATM    9  C16 UNL     1      -4.350 -12.928  -0.462  1.00  0.00     0.013 C 
HETATM   10  C17 UNL     1      -4.352 -13.213  -2.012  1.00  0.00     0.018 C 
HETATM   11  C18 UNL     1      -2.892 -13.447  -2.467  1.00  0.00     0.023 C 
HETATM   12  C19 UNL     1      -5.167 -14.472  -2.398  1.00  0.00     0.023 C 
HETATM   13  C20 UNL     1      -4.876 -12.059  -2.886  1.00  0.00     0.135 C 
HETATM   14  O1  UNL     1      -5.178 -12.247  -4.073  1.00  0.00    -0.297 OA
HETATM   15  C21 UNL     1      -4.982 -10.658  -2.342  1.00  0.00     0.080 C 
HETATM   16  C22 UNL     1      -4.728 -10.502  -0.858  1.00  0.00     0.017 C 
HETATM   17  C23 UNL     1      -5.183 -11.696   0.004  1.00  0.00    -0.031 C 
HETATM   18  C24 UNL     1      -6.701 -11.941  -0.210  1.00  0.00     0.016 C 
HETATM   19  C25 UNL     1      -4.967 -11.424   1.566  1.00  0.00     0.024 C 
HETATM   20  C26 UNL     1      -4.104 -10.198   1.951  1.00  0.00     0.010 C 
HETATM   21  C27 UNL     1      -4.072  -9.877   3.470  1.00  0.00     0.011 C 
HETATM   22  C28 UNL     1      -4.505 -11.040   4.390  1.00  0.00    -0.029 C 
HETATM   23  C29 UNL     1      -6.057 -11.015   4.583  1.00  0.00     0.016 C 
ENDROOT
BRANCH   1  24
HETATM   24  C6  UNL     1      -4.360 -10.102   6.919  1.00  0.00    -0.014 C 
HETATM   25  C7  UNL     1      -3.266  -9.145   7.406  1.00  0.00     0.010 C 
BRANCH  24  26
HETATM   26  C5  UNL     1      -4.990 -10.844   8.126  1.00  0.00     0.008 C 
BRANCH  26  27
HETATM   27  C4  UNL     1      -5.042 -10.048   9.437  1.00  0.00     0.028 C 
BRANCH  27  28
HETATM   28  C3  UNL     1      -5.663 -10.869  10.536  1.00  0.00    -0.013 C 
HETATM   29  C2  UNL     1      -6.239 -10.451  11.683  1.00  0.00     0.008 C 
HETATM   30  C1  UNL     1      -6.822 -11.432  12.662  1.00  0.00     0.055 C 
BRANCH  29  31
HETATM   31  C30 UNL     1      -6.286  -9.021  12.073  1.00  0.00     0.171 C 
HETATM   32  O2  UNL     1      -6.081  -8.052  11.368  1.00  0.00    -0.646 OA
BRANCH  31  33
HETATM   33  O3  UNL     1      -6.585  -8.873  13.376  1.00  0.00    -0.773 OA
HETATM   34  H46 UNL     1      -6.593  -7.901  13.494  1.00  0.00     0.167 HD
ENDBRANCH  31  33
ENDBRANCH  29  31
ENDBRANCH  27  28
ENDBRANCH  26  27
ENDBRANCH  24  26
ENDBRANCH   1  24
TORSDOF 6
ENDMDL
MODEL 7
REMARK minimizedAffinity -7.46831703
REMARK CNNscore 0.268411756
REMARK CNNaffinity 6.45144606
REMARK  6 active torsions:
REMARK  status: ('A' for Active; 'I' for Inactive)
REMARK    1  A    between atoms: C2_2  and  C30_31 
REMARK    2  A    between atoms: C3_3  and  C4_4 
REMARK    3  A    between atoms: C4_4  and  C5_5 
REMARK    4  A    between atoms: C5_5  and  C6_6 
REMARK    5  A    between atoms: C6_6  and  C8_8 
REMARK    6  A    between atoms: C30_31  and  O3_33 
ROOT
HETATM    1  C8  UNL     1      -1.665   7.456  13.607  1.00  0.00    -0.002 C 
HETATM    2  C9  UNL     1      -2.298   6.502  14.667  1.00  0.00     0.007 C 
HETATM    3  C10 UNL     1      -2.762   7.373  15.855  1.00  0.00     0.015 C 
HETATM    4  C11 UNL     1      -2.700   8.814  15.320  1.00  0.00    -0.013 C 
HETATM    5  C12 UNL     1      -4.019   9.029  14.495  1.00  0.00     0.021 C 
HETATM    6  C13 UNL     1      -2.658   9.974  16.321  1.00  0.00    -0.070 C 
HETATM    7  C14 UNL     1      -3.484   9.988  17.382  1.00  0.00    -0.022 C 
HETATM    8  C15 UNL     1      -3.776  11.212  18.185  1.00  0.00     0.034 C 
HETATM    9  C16 UNL     1      -3.514  12.501  17.376  1.00  0.00     0.013 C 
HETATM   10  C17 UNL     1      -3.972  13.819  18.108  1.00  0.00     0.018 C 
HETATM   11  C18 UNL     1      -5.370  14.214  17.575  1.00  0.00     0.023 C 
HETATM   12  C19 UNL     1      -4.089  13.653  19.643  1.00  0.00     0.023 C 
HETATM   13  C20 UNL     1      -3.076  15.046  17.861  1.00  0.00     0.135 C 
HETATM   14  O1  UNL     1      -3.167  16.054  18.576  1.00  0.00    -0.297 OA
HETATM   15  C21 UNL     1      -2.105  15.081  16.710  1.00  0.00     0.080 C 
HETATM   16  C22 UNL     1      -1.935  13.784  15.946  1.00  0.00     0.017 C 
HETATM   17  C23 UNL     1      -2.066  12.509  16.802  1.00  0.00    -0.031 C 
HETATM   18  C24 UNL     1      -1.017  12.544  17.947  1.00  0.00     0.016 C 
HETATM   19  C25 UNL     1      -1.786  11.185  15.949  1.00  0.00     0.024 C 
HETATM   20  C26 UNL     1      -1.726  11.341  14.411  1.00  0.00     0.010 C 
HETATM   21  C27 UNL     1      -1.278  10.066  13.644  1.00  0.00     0.011 C 
HETATM   22  C28 UNL     1      -1.398   8.750  14.446  1.00  0.00    -0.029 C 
HETATM   23  C29 UNL     1      -0.093   8.513  15.274  1.00  0.00     0.016 C 
ENDROOT
BRANCH   1  24
HETATM   24  C6  UNL     1      -0.502   6.789  12.820  1.00  0.00    -0.014 C 
HETATM   25  C7  UNL     1      -0.299   7.411  11.434  1.00  0.00     0.010 C 
BRANCH  24  26
HETATM   26  C5  UNL     1      -0.670   5.252  12.690  1.00  0.00     0.008 C 
BRANCH  26  27
HETATM   27  C4  UNL     1      -1.218   4.758  11.344  1.00  0.00     0.028 C 
BRANCH  27  28
HETATM   28  C3  UNL     1      -2.333   3.769  11.552  1.00  0.00    -0.013 C 
HETATM   29  C2  UNL     1      -2.305   2.425  11.432  1.00  0.00     0.008 C 
HETATM   30  C1  UNL     1      -3.532   1.596  11.698  1.00  0.00     0.055 C 
BRANCH  29  31
HETATM   31  C30 UNL     1      -1.096   1.692  10.987  1.00  0.00     0.171 C 
HETATM   32  O2  UNL     1       0.067   2.007  11.150  1.00  0.00    -0.646 OA
BRANCH  31  33
HETATM   33  O3  UNL     1      -1.416   0.567  10.321  1.00  0.00    -0.773 OA
HETATM   34  H46 UNL     1      -0.543   0.184  10.098  1.00  0.00     0.167 HD
ENDBRANCH  31  33
ENDBRANCH  29  31
ENDBRANCH  27  28
ENDBRANCH  26  27
ENDBRANCH  24  26
ENDBRANCH   1  24
TORSDOF 6
ENDMDL
MODEL 8
REMARK minimizedAffinity -7.14812374
REMARK CNNscore 0.266918153
REMARK CNNaffinity 5.35964537
REMARK  6 active torsions:
REMARK  status: ('A' for Active; 'I' for Inactive)
REMARK    1  A    between atoms: C2_2  and  C30_31 
REMARK    2  A    between atoms: C3_3  and  C4_4 
REMARK    3  A    between atoms: C4_4  and  C5_5 
REMARK    4  A    between atoms: C5_5  and  C6_6 
REMARK    5  A    between atoms: C6_6  and  C8_8 
REMARK    6  A    between atoms: C30_31  and  O3_33 
ROOT
HETATM    1  C8  UNL     1       6.402   8.334  12.407  1.00  0.00    -0.002 C 
HETATM    2  C9  UNL     1       5.456   9.517  12.035  1.00  0.00     0.007 C 
HETATM    3  C10 UNL     1       5.741  10.667  13.026  1.00  0.00     0.015 C 
HETATM    4  C11 UNL     1       7.054  10.260  13.717  1.00  0.00    -0.013 C 
HETATM    5  C12 UNL     1       8.207  10.666  12.732  1.00  0.00     0.021 C 
HETATM    6  C13 UNL     1       7.420  10.912  15.055  1.00  0.00    -0.070 C 
HETATM    7  C14 UNL     1       7.286  12.239  15.225  1.00  0.00    -0.022 C 
HETATM    8  C15 UNL     1       7.946  13.001  16.326  1.00  0.00     0.034 C 
HETATM    9  C16 UNL     1       9.189  12.260  16.868  1.00  0.00     0.013 C 
HETATM   10  C17 UNL     1      10.027  13.096  17.907  1.00  0.00     0.018 C 
HETATM   11  C18 UNL     1      11.210  13.759  17.161  1.00  0.00     0.023 C 
HETATM   12  C19 UNL     1       9.210  14.225  18.581  1.00  0.00     0.023 C 
HETATM   13  C20 UNL     1      10.666  12.272  19.040  1.00  0.00     0.135 C 
HETATM   14  O1  UNL     1      11.116  12.827  20.053  1.00  0.00    -0.297 OA
HETATM   15  C21 UNL     1      10.815  10.778  18.927  1.00  0.00     0.080 C 
HETATM   16  C22 UNL     1      10.137  10.132  17.736  1.00  0.00     0.017 C 
HETATM   17  C23 UNL     1       8.823  10.808  17.298  1.00  0.00    -0.031 C 
HETATM   18  C24 UNL     1       7.823  10.817  18.486  1.00  0.00     0.016 C 
HETATM   19  C25 UNL     1       8.118  10.021  16.096  1.00  0.00     0.024 C 
HETATM   20  C26 UNL     1       8.955   8.931  15.385  1.00  0.00     0.010 C 
HETATM   21  C27 UNL     1       8.170   8.080  14.350  1.00  0.00     0.011 C 
HETATM   22  C28 UNL     1       6.847   8.710  13.860  1.00  0.00    -0.029 C 
HETATM   23  C29 UNL     1       5.681   8.316  14.825  1.00  0.00     0.016 C 
ENDROOT
BRANCH   1  24
HETATM   24  C6  UNL     1       5.762   6.945  12.127  1.00  0.00    -0.014 C 
HETATM   25  C7  UNL     1       6.666   6.042  11.280  1.00  0.00     0.010 C 
BRANCH  24  26
HETATM   26  C5  UNL     1       4.359   7.051  11.474  1.00  0.00     0.008 C 
BRANCH  26  27
HETATM   27  C4  UNL     1       4.352   7.382   9.975  1.00  0.00     0.028 C 
BRANCH  27  28
HETATM   28  C3  UNL     1       3.003   7.895   9.547  1.00  0.00    -0.013 C 
HETATM   29  C2  UNL     1       2.174   7.410   8.600  1.00  0.00     0.008 C 
HETATM   30  C1  UNL     1       0.845   8.058   8.323  1.00  0.00     0.055 C 
BRANCH  29  31
HETATM   31  C30 UNL     1       2.536   6.254   7.745  1.00  0.00     0.171 C 
HETATM   32  O2  UNL     1       3.150   5.255   8.066  1.00  0.00    -0.646 OA
BRANCH  31  33
HETATM   33  O3  UNL     1       2.107   6.420   6.480  1.00  0.00    -0.773 OA
HETATM   34  H46 UNL     1       2.398   5.597   6.036  1.00  0.00     0.167 HD
ENDBRANCH  31  33
ENDBRANCH  29  31
ENDBRANCH  27  28
ENDBRANCH  26  27
ENDBRANCH  24  26
ENDBRANCH   1  24
TORSDOF 6
ENDMDL
MODEL 9
REMARK minimizedAffinity -7.04969978
REMARK CNNscore 0.250472546
REMARK CNNaffinity 4.96658707
REMARK  6 active torsions:
REMARK  status: ('A' for Active; 'I' for Inactive)
REMARK    1  A    between atoms: C2_2  and  C30_31 
REMARK    2  A    between atoms: C3_3  and  C4_4 
REMARK    3  A    between atoms: C4_4  and  C5_5 
REMARK    4  A    between atoms: C5_5  and  C6_6 
REMARK    5  A    between atoms: C6_6  and  C8_8 
REMARK    6  A    between atoms: C30_31  and  O3_33 
ROOT
HETATM    1  C8  UNL     1       7.244   8.810  13.568  1.00  0.00    -0.002 C 
HETATM    2  C9  UNL     1       7.565   9.726  12.346  1.00  0.00     0.007 C 
HETATM    3  C10 UNL     1       8.623  10.755  12.804  1.00  0.00     0.015 C 
HETATM    4  C11 UNL     1       9.130  10.209  14.150  1.00  0.00    -0.013 C 
HETATM    5  C12 UNL     1      10.188   9.103  13.799  1.00  0.00     0.021 C 
HETATM    6  C13 UNL     1       9.849  11.162  15.111  1.00  0.00    -0.070 C 
HETATM    7  C14 UNL     1      10.788  12.009  14.655  1.00  0.00    -0.022 C 
HETATM    8  C15 UNL     1      11.781  12.692  15.536  1.00  0.00     0.034 C 
HETATM    9  C16 UNL     1      11.988  11.928  16.863  1.00  0.00     0.013 C 
HETATM   10  C17 UNL     1      13.152  12.502  17.755  1.00  0.00     0.018 C 
HETATM   11  C18 UNL     1      14.424  11.658  17.504  1.00  0.00     0.023 C 
HETATM   12  C19 UNL     1      13.499  13.976  17.428  1.00  0.00     0.023 C 
HETATM   13  C20 UNL     1      12.905  12.431  19.273  1.00  0.00     0.135 C 
HETATM   14  O1  UNL     1      13.606  13.079  20.063  1.00  0.00    -0.297 OA
HETATM   15  C21 UNL     1      11.845  11.528  19.846  1.00  0.00     0.080 C 
HETATM   16  C22 UNL     1      10.931  10.856  18.842  1.00  0.00     0.017 C 
HETATM   17  C23 UNL     1      10.628  11.696  17.585  1.00  0.00    -0.031 C 
HETATM   18  C24 UNL     1       9.986  13.046  18.006  1.00  0.00     0.016 C 
HETATM   19  C25 UNL     1       9.587  10.964  16.614  1.00  0.00     0.024 C 
HETATM   20  C26 UNL     1       9.284   9.475  16.906  1.00  0.00     0.010 C 
HETATM   21  C27 UNL     1       8.142   8.863  16.050  1.00  0.00     0.011 C 
HETATM   22  C28 UNL     1       7.798   9.652  14.766  1.00  0.00    -0.029 C 
HETATM   23  C29 UNL     1       6.742  10.760  15.090  1.00  0.00     0.016 C 
ENDROOT
BRANCH   1  24
HETATM   24  C6  UNL     1       5.768   8.323  13.580  1.00  0.00    -0.014 C 
HETATM   25  C7  UNL     1       5.398   7.602  14.881  1.00  0.00     0.010 C 
BRANCH  24  26
HETATM   26  C5  UNL     1       5.422   7.427  12.362  1.00  0.00     0.008 C 
BRANCH  26  27
HETATM   27  C4  UNL     1       3.946   7.423  11.943  1.00  0.00     0.028 C 
BRANCH  27  28
HETATM   28  C3  UNL     1       3.769   8.077  10.599  1.00  0.00    -0.013 C 
HETATM   29  C2  UNL     1       3.242   7.561   9.468  1.00  0.00     0.008 C 
HETATM   30  C1  UNL     1       3.137   8.384   8.214  1.00  0.00     0.055 C 
BRANCH  29  31
HETATM   31  C30 UNL     1       2.787   6.153   9.375  1.00  0.00     0.171 C 
HETATM   32  O2  UNL     1       1.715   5.694   9.721  1.00  0.00    -0.646 OA
BRANCH  31  33
HETATM   33  O3  UNL     1       3.737   5.360   8.848  1.00  0.00    -0.773 OA
HETATM   34  H46 UNL     1       3.309   4.479   8.835  1.00  0.00     0.167 HD
ENDBRANCH  31  33
ENDBRANCH  29  31
ENDBRANCH  27  28
ENDBRANCH  26  27
ENDBRANCH  24  26
ENDBRANCH   1  24
TORSDOF 6
ENDMDL
