MODEL 1
REMARK minimizedAffinity -8.75771236
REMARK  4 active torsions:
REMARK  status: ('A' for Active; 'I' for Inactive)
REMARK    1  A    between atoms: C4_4  and  C5_5 
REMARK    2  A    between atoms: C5_5  and  C6_6 
REMARK    3  A    between atoms: C6_6  and  C7_7 
REMARK    4  A    between atoms: C7_7  and  C9_9 
ROOT
HETATM    1  C9  UNL     1      -1.001  51.165 -21.012  1.00  0.00    -0.002 C 
HETATM    2  C10 UNL     1      -0.082  49.908 -21.097  1.00  0.00     0.007 C 
HETATM    3  C11 UNL     1      -0.974  48.668 -20.907  1.00  0.00     0.015 C 
HETATM    4  C12 UNL     1      -2.316  49.225 -20.391  1.00  0.00    -0.013 C 
HETATM    5  C13 UNL     1      -2.138  49.419 -18.851  1.00  0.00     0.021 C 
HETATM    6  C14 UNL     1      -3.565  48.370 -20.572  1.00  0.00    -0.070 C 
HETATM    7  C15 UNL     1      -3.527  47.029 -20.596  1.00  0.00    -0.022 C 
HETATM    8  C16 UNL     1      -4.720  46.135 -20.706  1.00  0.00     0.034 C 
HETATM    9  C17 UNL     1      -6.118  46.805 -20.718  1.00  0.00     0.013 C 
HETATM   10  C18 UNL     1      -6.923  46.601 -22.052  1.00  0.00     0.018 C 
HETATM   11  C19 UNL     1      -7.119  45.093 -22.336  1.00  0.00     0.023 C 
HETATM   12  C20 UNL     1      -6.272  47.253 -23.278  1.00  0.00     0.023 C 
HETATM   13  C21 UNL     1      -8.335  47.195 -21.895  1.00  0.00     0.135 C 
HETATM   14  O1  UNL     1      -9.234  46.966 -22.707  1.00  0.00    -0.297 OA
HETATM   15  C22 UNL     1      -8.603  48.065 -20.690  1.00  0.00     0.080 C 
HETATM   16  C23 UNL     1      -7.434  49.014 -20.502  1.00  0.00     0.017 C 
HETATM   17  C24 UNL     1      -6.109  48.279 -20.147  1.00  0.00    -0.031 C 
HETATM   18  C25 UNL     1      -6.027  48.175 -18.596  1.00  0.00     0.016 C 
HETATM   19  C26 UNL     1      -4.891  49.107 -20.707  1.00  0.00     0.024 C 
HETATM   20  C27 UNL     1      -4.822  50.568 -20.195  1.00  0.00     0.010 C 
HETATM   21  C28 UNL     1      -3.608  51.392 -20.683  1.00  0.00     0.011 C 
HETATM   22  C29 UNL     1      -2.427  50.554 -21.222  1.00  0.00    -0.029 C 
HETATM   23  C30 UNL     1      -2.638  50.315 -22.751  1.00  0.00     0.016 C 
ENDROOT
BRANCH   1  24
HETATM   24  C7  UNL     1      -0.499  52.322 -21.931  1.00  0.00    -0.014 C 
HETATM   25  C8  UNL     1       0.850  52.880 -21.469  1.00  0.00     0.010 C 
BRANCH  24  26
HETATM   26  C6  UNL     1      -0.396  51.825 -23.402  1.00  0.00     0.008 C 
BRANCH  26  27
HETATM   27  C5  UNL     1       0.661  52.507 -24.282  1.00  0.00     0.028 C 
BRANCH  27  28
HETATM   28  C4  UNL     1       0.392  52.368 -25.755  1.00  0.00    -0.025 C 
HETATM   29  C2  UNL     1       1.213  51.855 -26.693  1.00  0.00    -0.091 C 
HETATM   30  C1  UNL     1       0.799  51.819 -28.140  1.00  0.00     0.042 C 
HETATM   31  C3  UNL     1       2.571  51.271 -26.422  1.00  0.00     0.042 C 
ENDBRANCH  27  28
ENDBRANCH  26  27
ENDBRANCH  24  26
ENDBRANCH   1  24
TORSDOF 4
ENDMDL
MODEL 2
REMARK minimizedAffinity -8.6825304
REMARK  4 active torsions:
REMARK  status: ('A' for Active; 'I' for Inactive)
REMARK    1  A    between atoms: C4_4  and  C5_5 
REMARK    2  A    between atoms: C5_5  and  C6_6 
REMARK    3  A    between atoms: C6_6  and  C7_7 
REMARK    4  A    between atoms: C7_7  and  C9_9 
ROOT
HETATM    1  C9  UNL     1      -1.852  51.531 -23.229  1.00  0.00    -0.002 C 
HETATM    2  C10 UNL     1      -2.819  52.709 -23.557  1.00  0.00     0.007 C 
HETATM    3  C11 UNL     1      -4.258  52.185 -23.401  1.00  0.00     0.015 C 
HETATM    4  C12 UNL     1      -4.110  50.652 -23.314  1.00  0.00    -0.013 C 
HETATM    5  C13 UNL     1      -4.011  50.145 -24.789  1.00  0.00     0.021 C 
HETATM    6  C14 UNL     1      -5.238  49.859 -22.665  1.00  0.00    -0.070 C 
HETATM    7  C15 UNL     1      -6.517  50.263 -22.693  1.00  0.00    -0.022 C 
HETATM    8  C16 UNL     1      -7.674  49.500 -22.132  1.00  0.00     0.034 C 
HETATM    9  C17 UNL     1      -7.386  48.098 -21.537  1.00  0.00     0.013 C 
HETATM   10  C18 UNL     1      -7.674  47.977 -19.997  1.00  0.00     0.018 C 
HETATM   11  C19 UNL     1      -9.152  48.323 -19.697  1.00  0.00     0.023 C 
HETATM   12  C20 UNL     1      -6.774  48.859 -19.124  1.00  0.00     0.023 C 
HETATM   13  C21 UNL     1      -7.478  46.515 -19.552  1.00  0.00     0.135 C 
HETATM   14  O1  UNL     1      -7.858  46.110 -18.452  1.00  0.00    -0.297 OA
HETATM   15  C22 UNL     1      -6.813  45.567 -20.522  1.00  0.00     0.080 C 
HETATM   16  C23 UNL     1      -5.616  46.263 -21.144  1.00  0.00     0.017 C 
HETATM   17  C24 UNL     1      -6.014  47.482 -22.024  1.00  0.00    -0.031 C 
HETATM   18  C25 UNL     1      -6.227  46.967 -23.477  1.00  0.00     0.016 C 
HETATM   19  C26 UNL     1      -4.857  48.550 -21.984  1.00  0.00     0.024 C 
HETATM   20  C27 UNL     1      -3.476  48.014 -22.442  1.00  0.00     0.010 C 
HETATM   21  C28 UNL     1      -2.329  49.052 -22.467  1.00  0.00     0.011 C 
HETATM   22  C29 UNL     1      -2.788  50.527 -22.475  1.00  0.00    -0.029 C 
HETATM   23  C30 UNL     1      -2.940  51.014 -20.999  1.00  0.00     0.016 C 
ENDROOT
BRANCH   1  24
HETATM   24  C7  UNL     1      -0.530  52.025 -22.563  1.00  0.00    -0.014 C 
HETATM   25  C8  UNL     1      -0.120  51.147 -21.376  1.00  0.00     0.010 C 
BRANCH  24  26
HETATM   26  C6  UNL     1       0.613  52.065 -23.617  1.00  0.00     0.008 C 
BRANCH  26  27
HETATM   27  C5  UNL     1       0.584  53.234 -24.613  1.00  0.00     0.028 C 
BRANCH  27  28
HETATM   28  C4  UNL     1       0.259  52.812 -26.019  1.00  0.00    -0.025 C 
HETATM   29  C2  UNL     1       1.035  52.102 -26.862  1.00  0.00    -0.091 C 
HETATM   30  C1  UNL     1       0.568  51.790 -28.259  1.00  0.00     0.042 C 
HETATM   31  C3  UNL     1       2.391  51.547 -26.523  1.00  0.00     0.042 C 
ENDBRANCH  27  28
ENDBRANCH  26  27
ENDBRANCH  24  26
ENDBRANCH   1  24
TORSDOF 4
ENDMDL
MODEL 3
REMARK minimizedAffinity -8.48646069
REMARK  4 active torsions:
REMARK  status: ('A' for Active; 'I' for Inactive)
REMARK    1  A    between atoms: C4_4  and  C5_5 
REMARK    2  A    between atoms: C5_5  and  C6_6 
REMARK    3  A    between atoms: C6_6  and  C7_7 
REMARK    4  A    between atoms: C7_7  and  C9_9 
ROOT
HETATM    1  C9  UNL     1      -3.656  50.157 -25.354  1.00  0.00    -0.002 C 
HETATM    2  C10 UNL     1      -3.890  51.693 -25.226  1.00  0.00     0.007 C 
HETATM    3  C11 UNL     1      -3.930  52.032 -23.725  1.00  0.00     0.015 C 
HETATM    4  C12 UNL     1      -4.051  50.667 -23.018  1.00  0.00    -0.013 C 
HETATM    5  C13 UNL     1      -5.570  50.301 -23.046  1.00  0.00     0.021 C 
HETATM    6  C14 UNL     1      -3.618  50.575 -21.560  1.00  0.00    -0.070 C 
HETATM    7  C15 UNL     1      -3.693  51.615 -20.714  1.00  0.00    -0.022 C 
HETATM    8  C16 UNL     1      -3.344  51.570 -19.261  1.00  0.00     0.034 C 
HETATM    9  C17 UNL     1      -2.934  50.199 -18.665  1.00  0.00     0.013 C 
HETATM   10  C18 UNL     1      -1.456  50.140 -18.134  1.00  0.00     0.018 C 
HETATM   11  C19 UNL     1      -1.233  51.215 -17.044  1.00  0.00     0.023 C 
HETATM   12  C20 UNL     1      -0.395  50.317 -19.226  1.00  0.00     0.023 C 
HETATM   13  C21 UNL     1      -1.211  48.782 -17.451  1.00  0.00     0.135 C 
HETATM   14  O1  UNL     1      -0.215  48.570 -16.756  1.00  0.00    -0.297 OA
HETATM   15  C22 UNL     1      -2.248  47.700 -17.641  1.00  0.00     0.080 C 
HETATM   16  C23 UNL     1      -2.663  47.671 -19.101  1.00  0.00     0.017 C 
HETATM   17  C24 UNL     1      -3.390  48.972 -19.550  1.00  0.00    -0.031 C 
HETATM   18  C25 UNL     1      -4.914  48.768 -19.311  1.00  0.00     0.016 C 
HETATM   19  C26 UNL     1      -3.102  49.225 -21.078  1.00  0.00     0.024 C 
HETATM   20  C27 UNL     1      -3.517  48.056 -22.009  1.00  0.00     0.010 C 
HETATM   21  C28 UNL     1      -3.298  48.295 -23.521  1.00  0.00     0.011 C 
HETATM   22  C29 UNL     1      -3.133  49.776 -23.929  1.00  0.00    -0.029 C 
HETATM   23  C30 UNL     1      -1.619  50.154 -23.845  1.00  0.00     0.016 C 
ENDROOT
BRANCH   1  24
HETATM   24  C7  UNL     1      -2.819  49.794 -26.621  1.00  0.00    -0.014 C 
HETATM   25  C8  UNL     1      -3.329  48.521 -27.304  1.00  0.00     0.010 C 
BRANCH  24  26
HETATM   26  C6  UNL     1      -2.835  50.982 -27.625  1.00  0.00     0.008 C 
BRANCH  26  27
HETATM   27  C5  UNL     1      -1.726  52.031 -27.462  1.00  0.00     0.028 C 
BRANCH  27  28
HETATM   28  C4  UNL     1      -0.360  51.432 -27.273  1.00  0.00    -0.025 C 
HETATM   29  C2  UNL     1       0.592  51.821 -26.402  1.00  0.00    -0.091 C 
HETATM   30  C1  UNL     1       1.928  51.129 -26.363  1.00  0.00     0.042 C 
HETATM   31  C3  UNL     1       0.440  52.931 -25.398  1.00  0.00     0.042 C 
ENDBRANCH  27  28
ENDBRANCH  26  27
ENDBRANCH  24  26
ENDBRANCH   1  24
TORSDOF 4
ENDMDL
MODEL 4
REMARK minimizedAffinity -8.46426582
REMARK  4 active torsions:
REMARK  status: ('A' for Active; 'I' for Inactive)
REMARK    1  A    between atoms: C4_4  and  C5_5 
REMARK    2  A    between atoms: C5_5  and  C6_6 
REMARK    3  A    between atoms: C6_6  and  C7_7 
REMARK    4  A    between atoms: C7_7  and  C9_9 
ROOT
HETATM    1  C9  UNL     1      -1.168  50.640 -22.505  1.00  0.00    -0.002 C 
HETATM    2  C10 UNL     1      -1.570  50.151 -23.930  1.00  0.00     0.007 C 
HETATM    3  C11 UNL     1      -2.762  49.190 -23.772  1.00  0.00     0.015 C 
HETATM    4  C12 UNL     1      -2.818  48.881 -22.262  1.00  0.00    -0.013 C 
HETATM    5  C13 UNL     1      -1.778  47.742 -22.017  1.00  0.00     0.021 C 
HETATM    6  C14 UNL     1      -4.137  48.386 -21.680  1.00  0.00    -0.070 C 
HETATM    7  C15 UNL     1      -5.024  47.677 -22.397  1.00  0.00    -0.022 C 
HETATM    8  C16 UNL     1      -6.302  47.110 -21.867  1.00  0.00     0.034 C 
HETATM    9  C17 UNL     1      -6.593  47.290 -20.355  1.00  0.00     0.013 C 
HETATM   10  C18 UNL     1      -7.860  48.166 -20.039  1.00  0.00     0.018 C 
HETATM   11  C19 UNL     1      -9.118  47.547 -20.693  1.00  0.00     0.023 C 
HETATM   12  C20 UNL     1      -7.736  49.626 -20.493  1.00  0.00     0.023 C 
HETATM   13  C21 UNL     1      -8.119  48.162 -18.521  1.00  0.00     0.135 C 
HETATM   14  O1  UNL     1      -9.173  48.580 -18.038  1.00  0.00    -0.297 OA
HETATM   15  C22 UNL     1      -7.040  47.607 -17.623  1.00  0.00     0.080 C 
HETATM   16  C23 UNL     1      -5.695  48.136 -18.089  1.00  0.00     0.017 C 
HETATM   17  C24 UNL     1      -5.303  47.627 -19.506  1.00  0.00    -0.031 C 
HETATM   18  C25 UNL     1      -4.505  46.303 -19.330  1.00  0.00     0.016 C 
HETATM   19  C26 UNL     1      -4.412  48.714 -20.219  1.00  0.00     0.024 C 
HETATM   20  C27 UNL     1      -3.130  49.102 -19.438  1.00  0.00     0.010 C 
HETATM   21  C28 UNL     1      -2.205  50.126 -20.135  1.00  0.00     0.011 C 
HETATM   22  C29 UNL     1      -2.433  50.278 -21.656  1.00  0.00    -0.029 C 
HETATM   23  C30 UNL     1      -3.515  51.379 -21.895  1.00  0.00     0.016 C 
ENDROOT
BRANCH   1  24
HETATM   24  C7  UNL     1      -0.623  52.103 -22.518  1.00  0.00    -0.014 C 
HETATM   25  C8  UNL     1      -0.125  52.544 -21.139  1.00  0.00     0.010 C 
BRANCH  24  26
HETATM   26  C6  UNL     1       0.519  52.234 -23.566  1.00  0.00     0.008 C 
BRANCH  26  27
HETATM   27  C5  UNL     1       0.380  53.366 -24.593  1.00  0.00     0.028 C 
BRANCH  27  28
HETATM   28  C4  UNL     1       0.078  52.878 -25.983  1.00  0.00    -0.025 C 
HETATM   29  C2  UNL     1       0.875  52.142 -26.783  1.00  0.00    -0.091 C 
HETATM   30  C1  UNL     1       0.431  51.762 -28.170  1.00  0.00     0.042 C 
HETATM   31  C3  UNL     1       2.234  51.622 -26.403  1.00  0.00     0.042 C 
ENDBRANCH  27  28
ENDBRANCH  26  27
ENDBRANCH  24  26
ENDBRANCH   1  24
TORSDOF 4
ENDMDL
MODEL 5
REMARK minimizedAffinity -8.43985558
REMARK  4 active torsions:
REMARK  status: ('A' for Active; 'I' for Inactive)
REMARK    1  A    between atoms: C4_4  and  C5_5 
REMARK    2  A    between atoms: C5_5  and  C6_6 
REMARK    3  A    between atoms: C6_6  and  C7_7 
REMARK    4  A    between atoms: C7_7  and  C9_9 
ROOT
HETATM    1  C9  UNL     1      -2.392  51.311 -24.467  1.00  0.00    -0.002 C 
HETATM    2  C10 UNL     1      -2.687  52.574 -23.601  1.00  0.00     0.007 C 
HETATM    3  C11 UNL     1      -3.760  52.187 -22.567  1.00  0.00     0.015 C 
HETATM    4  C12 UNL     1      -4.303  50.828 -23.056  1.00  0.00    -0.013 C 
HETATM    5  C13 UNL     1      -5.373  51.159 -24.146  1.00  0.00     0.021 C 
HETATM    6  C14 UNL     1      -4.994  49.925 -22.040  1.00  0.00    -0.070 C 
HETATM    7  C15 UNL     1      -5.657  50.406 -20.977  1.00  0.00    -0.022 C 
HETATM    8  C16 UNL     1      -6.407  49.578 -19.983  1.00  0.00     0.034 C 
HETATM    9  C17 UNL     1      -6.489  48.051 -20.240  1.00  0.00     0.013 C 
HETATM   10  C18 UNL     1      -5.785  47.172 -19.144  1.00  0.00     0.018 C 
HETATM   11  C19 UNL     1      -6.402  47.451 -17.753  1.00  0.00     0.023 C 
HETATM   12  C20 UNL     1      -4.268  47.377 -19.061  1.00  0.00     0.023 C 
HETATM   13  C21 UNL     1      -6.046  45.683 -19.437  1.00  0.00     0.135 C 
HETATM   14  O1  UNL     1      -5.801  44.801 -18.611  1.00  0.00    -0.297 OA
HETATM   15  C22 UNL     1      -6.639  45.322 -20.779  1.00  0.00     0.080 C 
HETATM   16  C23 UNL     1      -5.930  46.120 -21.858  1.00  0.00     0.017 C 
HETATM   17  C24 UNL     1      -6.178  47.652 -21.737  1.00  0.00    -0.031 C 
HETATM   18  C25 UNL     1      -7.440  47.995 -22.581  1.00  0.00     0.016 C 
HETATM   19  C26 UNL     1      -4.921  48.425 -22.290  1.00  0.00     0.024 C 
HETATM   20  C27 UNL     1      -4.550  48.077 -23.755  1.00  0.00     0.010 C 
HETATM   21  C28 UNL     1      -3.354  48.858 -24.347  1.00  0.00     0.011 C 
HETATM   22  C29 UNL     1      -2.989  50.157 -23.593  1.00  0.00    -0.029 C 
HETATM   23  C30 UNL     1      -1.961  49.812 -22.468  1.00  0.00     0.016 C 
ENDROOT
BRANCH   1  24
HETATM   24  C7  UNL     1      -0.904  51.254 -24.933  1.00  0.00    -0.014 C 
HETATM   25  C8  UNL     1      -0.755  50.584 -26.303  1.00  0.00     0.010 C 
BRANCH  24  26
HETATM   26  C6  UNL     1      -0.305  52.689 -24.973  1.00  0.00     0.008 C 
BRANCH  26  27
HETATM   27  C5  UNL     1       0.763  53.014 -23.918  1.00  0.00     0.028 C 
BRANCH  27  28
HETATM   28  C4  UNL     1       0.468  52.422 -22.568  1.00  0.00    -0.025 C 
HETATM   29  C2  UNL     1       0.776  52.939 -21.362  1.00  0.00    -0.091 C 
HETATM   30  C1  UNL     1       0.435  52.197 -20.097  1.00  0.00     0.042 C 
HETATM   31  C3  UNL     1       1.451  54.264 -21.140  1.00  0.00     0.042 C 
ENDBRANCH  27  28
ENDBRANCH  26  27
ENDBRANCH  24  26
ENDBRANCH   1  24
TORSDOF 4
ENDMDL
MODEL 6
REMARK minimizedAffinity -8.43091202
REMARK  4 active torsions:
REMARK  status: ('A' for Active; 'I' for Inactive)
REMARK    1  A    between atoms: C4_4  and  C5_5 
REMARK    2  A    between atoms: C5_5  and  C6_6 
REMARK    3  A    between atoms: C6_6  and  C7_7 
REMARK    4  A    between atoms: C7_7  and  C9_9 
ROOT
HETATM    1  C9  UNL     1      -3.305  51.259 -25.504  1.00  0.00    -0.002 C 
HETATM    2  C10 UNL     1      -2.997  52.578 -24.731  1.00  0.00     0.007 C 
HETATM    3  C11 UNL     1      -3.296  52.323 -23.243  1.00  0.00     0.015 C 
HETATM    4  C12 UNL     1      -4.075  50.993 -23.221  1.00  0.00    -0.013 C 
HETATM    5  C13 UNL     1      -5.563  51.361 -23.528  1.00  0.00     0.021 C 
HETATM    6  C14 UNL     1      -4.093  50.193 -21.924  1.00  0.00    -0.070 C 
HETATM    7  C15 UNL     1      -4.004  50.771 -20.715  1.00  0.00    -0.022 C 
HETATM    8  C16 UNL     1      -4.080  50.049 -19.408  1.00  0.00     0.034 C 
HETATM    9  C17 UNL     1      -4.356  48.524 -19.447  1.00  0.00     0.013 C 
HETATM   10  C18 UNL     1      -3.187  47.640 -18.881  1.00  0.00     0.018 C 
HETATM   11  C19 UNL     1      -2.880  48.027 -17.415  1.00  0.00     0.023 C 
HETATM   12  C20 UNL     1      -1.891  47.726 -19.696  1.00  0.00     0.023 C 
HETATM   13  C21 UNL     1      -3.630  46.165 -18.851  1.00  0.00     0.135 C 
HETATM   14  O1  UNL     1      -2.990  45.303 -18.244  1.00  0.00    -0.297 OA
HETATM   15  C22 UNL     1      -4.900  45.795 -19.579  1.00  0.00     0.080 C 
HETATM   16  C23 UNL     1      -4.908  46.487 -20.930  1.00  0.00     0.017 C 
HETATM   17  C24 UNL     1      -4.979  48.037 -20.816  1.00  0.00    -0.031 C 
HETATM   18  C25 UNL     1      -6.482  48.443 -20.812  1.00  0.00     0.016 C 
HETATM   19  C26 UNL     1      -4.239  48.682 -22.047  1.00  0.00     0.024 C 
HETATM   20  C27 UNL     1      -4.791  48.242 -23.428  1.00  0.00     0.010 C 
HETATM   21  C28 UNL     1      -4.122  48.899 -24.658  1.00  0.00     0.011 C 
HETATM   22  C29 UNL     1      -3.338  50.195 -24.356  1.00  0.00    -0.029 C 
HETATM   23  C30 UNL     1      -1.865  49.819 -23.995  1.00  0.00     0.016 C 
ENDROOT
BRANCH   1  24
HETATM   24  C7  UNL     1      -2.359  51.063 -26.730  1.00  0.00    -0.014 C 
HETATM   25  C8  UNL     1      -3.098  50.482 -27.940  1.00  0.00     0.010 C 
BRANCH  24  26
HETATM   26  C6  UNL     1      -1.694  52.417 -27.110  1.00  0.00     0.008 C 
BRANCH  26  27
HETATM   27  C5  UNL     1      -0.562  52.357 -28.145  1.00  0.00     0.028 C 
BRANCH  27  28
HETATM   28  C4  UNL     1       0.667  51.650 -27.646  1.00  0.00    -0.025 C 
HETATM   29  C2  UNL     1       1.274  51.805 -26.453  1.00  0.00    -0.091 C 
HETATM   30  C1  UNL     1       2.525  51.037 -26.121  1.00  0.00     0.042 C 
HETATM   31  C3  UNL     1       0.790  52.708 -25.352  1.00  0.00     0.042 C 
ENDBRANCH  27  28
ENDBRANCH  26  27
ENDBRANCH  24  26
ENDBRANCH   1  24
TORSDOF 4
ENDMDL
MODEL 7
REMARK minimizedAffinity -8.39644527
REMARK  4 active torsions:
REMARK  status: ('A' for Active; 'I' for Inactive)
REMARK    1  A    between atoms: C4_4  and  C5_5 
REMARK    2  A    between atoms: C5_5  and  C6_6 
REMARK    3  A    between atoms: C6_6  and  C7_7 
REMARK    4  A    between atoms: C7_7  and  C9_9 
ROOT
HETATM    1  C9  UNL     1       7.385  65.556 -35.817  1.00  0.00    -0.002 C 
HETATM    2  C10 UNL     1       6.644  65.880 -34.484  1.00  0.00     0.007 C 
HETATM    3  C11 UNL     1       5.460  66.803 -34.825  1.00  0.00     0.015 C 
HETATM    4  C12 UNL     1       5.724  67.262 -36.274  1.00  0.00    -0.013 C 
HETATM    5  C13 UNL     1       6.720  68.462 -36.170  1.00  0.00     0.021 C 
HETATM    6  C14 UNL     1       4.541  67.759 -37.096  1.00  0.00    -0.070 C 
HETATM    7  C15 UNL     1       3.473  68.354 -36.542  1.00  0.00    -0.022 C 
HETATM    8  C16 UNL     1       2.314  68.919 -37.298  1.00  0.00     0.034 C 
HETATM    9  C17 UNL     1       2.382  68.882 -38.847  1.00  0.00     0.013 C 
HETATM   10  C18 UNL     1       1.276  67.992 -39.522  1.00  0.00     0.018 C 
HETATM   11  C19 UNL     1      -0.133  68.490 -39.123  1.00  0.00     0.023 C 
HETATM   12  C20 UNL     1       1.387  66.500 -39.185  1.00  0.00     0.023 C 
HETATM   13  C21 UNL     1       1.365  68.139 -41.052  1.00  0.00     0.135 C 
HETATM   14  O1  UNL     1       0.475  67.730 -41.801  1.00  0.00    -0.297 OA
HETATM   15  C22 UNL     1       2.581  68.827 -41.625  1.00  0.00     0.080 C 
HETATM   16  C23 UNL     1       3.817  68.309 -40.912  1.00  0.00     0.017 C 
HETATM   17  C24 UNL     1       3.848  68.686 -39.403  1.00  0.00    -0.031 C 
HETATM   18  C25 UNL     1       4.580  70.053 -39.272  1.00  0.00     0.016 C 
HETATM   19  C26 UNL     1       4.623  67.570 -38.605  1.00  0.00     0.024 C 
HETATM   20  C27 UNL     1       6.069  67.317 -39.102  1.00  0.00     0.010 C 
HETATM   21  C28 UNL     1       6.877  66.265 -38.306  1.00  0.00     0.011 C 
HETATM   22  C29 UNL     1       6.323  65.950 -36.898  1.00  0.00    -0.029 C 
HETATM   23  C30 UNL     1       5.287  64.787 -37.014  1.00  0.00     0.016 C 
ENDROOT
BRANCH   1  24
HETATM   24  C7  UNL     1       8.004  64.123 -35.810  1.00  0.00    -0.014 C 
HETATM   25  C8  UNL     1       9.524  64.151 -36.002  1.00  0.00     0.010 C 
BRANCH  24  26
HETATM   26  C6  UNL     1       7.648  63.397 -34.482  1.00  0.00     0.008 C 
BRANCH  26  27
HETATM   27  C5  UNL     1       8.648  62.342 -33.988  1.00  0.00     0.028 C 
BRANCH  27  28
HETATM   28  C4  UNL     1       8.389  60.968 -34.541  1.00  0.00    -0.025 C 
HETATM   29  C2  UNL     1       7.196  60.415 -34.833  1.00  0.00    -0.091 C 
HETATM   30  C1  UNL     1       7.109  59.005 -35.353  1.00  0.00     0.042 C 
HETATM   31  C3  UNL     1       5.868  61.108 -34.697  1.00  0.00     0.042 C 
ENDBRANCH  27  28
ENDBRANCH  26  27
ENDBRANCH  24  26
ENDBRANCH   1  24
TORSDOF 4
ENDMDL
MODEL 8
REMARK minimizedAffinity -8.39556026
REMARK  4 active torsions:
REMARK  status: ('A' for Active; 'I' for Inactive)
REMARK    1  A    between atoms: C4_4  and  C5_5 
REMARK    2  A    between atoms: C5_5  and  C6_6 
REMARK    3  A    between atoms: C6_6  and  C7_7 
REMARK    4  A    between atoms: C7_7  and  C9_9 
ROOT
HETATM    1  C9  UNL     1      -2.108  49.744 -17.638  1.00  0.00    -0.002 C 
HETATM    2  C10 UNL     1      -1.539  48.313 -17.884  1.00  0.00     0.007 C 
HETATM    3  C11 UNL     1      -1.777  47.968 -19.365  1.00  0.00     0.015 C 
HETATM    4  C12 UNL     1      -2.761  49.045 -19.866  1.00  0.00    -0.013 C 
HETATM    5  C13 UNL     1      -4.185  48.553 -19.450  1.00  0.00     0.021 C 
HETATM    6  C14 UNL     1      -2.824  49.317 -21.364  1.00  0.00    -0.070 C 
HETATM    7  C15 UNL     1      -2.563  48.374 -22.283  1.00  0.00    -0.022 C 
HETATM    8  C16 UNL     1      -2.669  48.561 -23.763  1.00  0.00     0.034 C 
HETATM    9  C17 UNL     1      -3.193  49.927 -24.276  1.00  0.00     0.013 C 
HETATM   10  C18 UNL     1      -2.150  50.745 -25.120  1.00  0.00     0.018 C 
HETATM   11  C19 UNL     1      -1.688  49.924 -26.347  1.00  0.00     0.023 C 
HETATM   12  C20 UNL     1      -0.913  51.183 -24.325  1.00  0.00     0.023 C 
HETATM   13  C21 UNL     1      -2.825  52.011 -25.680  1.00  0.00     0.135 C 
HETATM   14  O1  UNL     1      -2.296  52.700 -26.555  1.00  0.00    -0.297 OA
HETATM   15  C22 UNL     1      -4.183  52.385 -25.137  1.00  0.00     0.080 C 
HETATM   16  C23 UNL     1      -4.167  52.226 -23.627  1.00  0.00     0.017 C 
HETATM   17  C24 UNL     1      -3.976  50.749 -23.176  1.00  0.00    -0.031 C 
HETATM   18  C25 UNL     1      -5.388  50.110 -23.036  1.00  0.00     0.016 C 
HETATM   19  C26 UNL     1      -3.222  50.723 -21.793  1.00  0.00     0.024 C 
HETATM   20  C27 UNL     1      -3.929  51.518 -20.665  1.00  0.00     0.010 C 
HETATM   21  C28 UNL     1      -3.243  51.468 -19.280  1.00  0.00     0.011 C 
HETATM   22  C29 UNL     1      -2.239  50.309 -19.092  1.00  0.00    -0.029 C 
HETATM   23  C30 UNL     1      -0.828  50.786 -19.561  1.00  0.00     0.016 C 
ENDROOT
BRANCH   1  24
HETATM   24  C7  UNL     1      -1.290  50.525 -16.563  1.00  0.00    -0.014 C 
HETATM   25  C8  UNL     1      -2.080  50.715 -15.264  1.00  0.00     0.010 C 
BRANCH  24  26
HETATM   26  C6  UNL     1       0.046  49.783 -16.271  1.00  0.00     0.008 C 
BRANCH  26  27
HETATM   27  C5  UNL     1       0.969  50.422 -15.223  1.00  0.00     0.028 C 
BRANCH  27  28
HETATM   28  C4  UNL     1       1.874  51.480 -15.790  1.00  0.00    -0.025 C 
HETATM   29  C2  UNL     1       3.147  51.746 -15.435  1.00  0.00    -0.091 C 
HETATM   30  C1  UNL     1       3.907  52.871 -16.084  1.00  0.00     0.042 C 
HETATM   31  C3  UNL     1       3.932  50.979 -14.407  1.00  0.00     0.042 C 
ENDBRANCH  27  28
ENDBRANCH  26  27
ENDBRANCH  24  26
ENDBRANCH   1  24
TORSDOF 4
ENDMDL
MODEL 9
REMARK minimizedAffinity -8.27727509
REMARK  4 active torsions:
REMARK  status: ('A' for Active; 'I' for Inactive)
REMARK    1  A    between atoms: C4_4  and  C5_5 
REMARK    2  A    between atoms: C5_5  and  C6_6 
REMARK    3  A    between atoms: C6_6  and  C7_7 
REMARK    4  A    between atoms: C7_7  and  C9_9 
ROOT
HETATM    1  C9  UNL     1       0.202  51.337 -18.161  1.00  0.00    -0.002 C 
HETATM    2  C10 UNL     1       0.073  52.755 -18.796  1.00  0.00     0.007 C 
HETATM    3  C11 UNL     1      -0.927  52.652 -19.963  1.00  0.00     0.015 C 
HETATM    4  C12 UNL     1      -1.104  51.137 -20.195  1.00  0.00    -0.013 C 
HETATM    5  C13 UNL     1       0.097  50.696 -21.093  1.00  0.00     0.021 C 
HETATM    6  C14 UNL     1      -2.365  50.663 -20.907  1.00  0.00    -0.070 C 
HETATM    7  C15 UNL     1      -3.010  51.414 -21.814  1.00  0.00    -0.022 C 
HETATM    8  C16 UNL     1      -4.212  50.982 -22.591  1.00  0.00     0.034 C 
HETATM    9  C17 UNL     1      -4.710  49.528 -22.389  1.00  0.00     0.013 C 
HETATM   10  C18 UNL     1      -6.148  49.417 -21.764  1.00  0.00     0.018 C 
HETATM   11  C19 UNL     1      -7.179  50.151 -22.652  1.00  0.00     0.023 C 
HETATM   12  C20 UNL     1      -6.249  49.964 -20.335  1.00  0.00     0.023 C 
HETATM   13  C21 UNL     1      -6.581  47.939 -21.736  1.00  0.00     0.135 C 
HETATM   14  O1  UNL     1      -7.745  47.604 -21.507  1.00  0.00    -0.297 OA
HETATM   15  C22 UNL     1      -5.531  46.891 -22.019  1.00  0.00     0.080 C 
HETATM   16  C23 UNL     1      -4.265  47.250 -21.262  1.00  0.00     0.017 C 
HETATM   17  C24 UNL     1      -3.618  48.575 -21.760  1.00  0.00    -0.031 C 
HETATM   18  C25 UNL     1      -2.611  48.213 -22.891  1.00  0.00     0.016 C 
HETATM   19  C26 UNL     1      -2.870  49.269 -20.560  1.00  0.00     0.024 C 
HETATM   20  C27 UNL     1      -1.786  48.388 -19.887  1.00  0.00     0.010 C 
HETATM   21  C28 UNL     1      -0.995  49.059 -18.740  1.00  0.00     0.011 C 
HETATM   22  C29 UNL     1      -1.064  50.602 -18.718  1.00  0.00    -0.029 C 
HETATM   23  C30 UNL     1      -2.298  51.038 -17.866  1.00  0.00     0.016 C 
ENDROOT
BRANCH   1  24
HETATM   24  C7  UNL     1       0.458  51.403 -16.623  1.00  0.00    -0.014 C 
HETATM   25  C8  UNL     1       0.829  50.035 -16.042  1.00  0.00     0.010 C 
BRANCH  24  26
HETATM   26  C6  UNL     1       1.581  52.435 -16.317  1.00  0.00     0.008 C 
BRANCH  26  27
HETATM   27  C5  UNL     1       2.860  51.884 -15.670  1.00  0.00     0.028 C 
BRANCH  27  28
HETATM   28  C4  UNL     1       2.821  51.895 -14.167  1.00  0.00    -0.025 C 
HETATM   29  C2  UNL     1       3.343  50.980 -13.326  1.00  0.00    -0.091 C 
HETATM   30  C1  UNL     1       3.186  51.126 -11.837  1.00  0.00     0.042 C 
HETATM   31  C3  UNL     1       4.124  49.767 -13.752  1.00  0.00     0.042 C 
ENDBRANCH  27  28
ENDBRANCH  26  27
ENDBRANCH  24  26
ENDBRANCH   1  24
TORSDOF 4
ENDMDL
