MODEL 1
REMARK minimizedAffinity -9.38653946
REMARK  6 active torsions:
REMARK  status: ('A' for Active; 'I' for Inactive)
REMARK    1  A    between atoms: C4_4  and  C5_5 
REMARK    2  A    between atoms: C5_5  and  C6_6 
REMARK    3  A    between atoms: C6_6  and  C7_7 
REMARK    4  A    between atoms: C7_7  and  C9_9 
REMARK    5  A    between atoms: C17_17  and  O1_18 
REMARK    6  A    between atoms: C21_22  and  O2_23 
ROOT
HETATM    1  C9  UNL     1      -6.455   7.182  14.183  1.00  0.00    -0.002 C 
HETATM    2  C10 UNL     1      -6.440   8.554  14.910  1.00  0.00     0.006 C 
HETATM    3  C11 UNL     1      -4.953   8.917  15.146  1.00  0.00     0.011 C 
HETATM    4  C12 UNL     1      -4.155   7.929  14.267  1.00  0.00    -0.032 C 
HETATM    5  C13 UNL     1      -4.194   8.528  12.818  1.00  0.00     0.016 C 
HETATM    6  C14 UNL     1      -2.684   7.646  14.727  1.00  0.00     0.003 C 
HETATM    7  C15 UNL     1      -1.848   8.941  14.795  1.00  0.00     0.009 C 
HETATM    8  C16 UNL     1      -0.416   8.823  14.305  1.00  0.00     0.039 C 
HETATM    9  C17 UNL     1      -0.293   8.195  12.899  1.00  0.00     0.071 C 
HETATM   10  C18 UNL     1      -1.212   6.921  12.695  1.00  0.00     0.029 C 
HETATM   11  C19 UNL     1      -0.516   5.804  11.885  1.00  0.00     0.011 C 
HETATM   12  C20 UNL     1       0.261   6.330  10.688  1.00  0.00     0.033 C 
HETATM   13  C21 UNL     1       1.247   7.456  11.001  1.00  0.00     0.129 C 
HETATM   14  C22 UNL     1       1.214   7.999  12.458  1.00  0.00     0.010 C 
HETATM   15  C23 UNL     1       2.021   7.094  13.426  1.00  0.00     0.020 C 
HETATM   16  C24 UNL     1       1.991   9.349  12.443  1.00  0.00     0.020 C 
HETATM   17  C25 UNL     1      -1.995   6.422  13.981  1.00  0.00    -0.033 C 
HETATM   18  C26 UNL     1      -0.991   5.734  14.959  1.00  0.00     0.016 C 
HETATM   19  C27 UNL     1      -3.032   5.261  13.647  1.00  0.00     0.011 C 
HETATM   20  C28 UNL     1      -4.514   5.601  13.419  1.00  0.00     0.011 C 
HETATM   21  C29 UNL     1      -5.019   6.629  14.435  1.00  0.00    -0.032 C 
HETATM   22  C30 UNL     1      -4.945   5.985  15.851  1.00  0.00     0.016 C 
ENDROOT
BRANCH   1  23
HETATM   23  C7  UNL     1      -7.686   6.265  14.455  1.00  0.00    -0.014 C 
HETATM   24  C8  UNL     1      -7.343   5.347  15.645  1.00  0.00     0.010 C 
BRANCH  23  25
HETATM   25  C6  UNL     1      -8.157   5.398  13.260  1.00  0.00     0.008 C 
BRANCH  25  26
HETATM   26  C5  UNL     1      -7.024   4.881  12.356  1.00  0.00     0.028 C 
BRANCH  26  27
HETATM   27  C4  UNL     1      -6.963   3.389  12.209  1.00  0.00    -0.025 C 
HETATM   28  C2  UNL     1      -6.048   2.671  11.528  1.00  0.00    -0.091 C 
HETATM   29  C1  UNL     1      -6.143   1.169  11.463  1.00  0.00     0.042 C 
HETATM   30  C3  UNL     1      -4.866   3.251  10.801  1.00  0.00     0.042 C 
ENDBRANCH  26  27
ENDBRANCH  25  26
ENDBRANCH  23  25
ENDBRANCH   1  23
BRANCH   9  31
HETATM   31  O1  UNL     1      -0.860   9.168  11.979  1.00  0.00    -0.389 OA
HETATM   32  H29 UNL     1      -0.564  10.056  12.240  1.00  0.00     0.210 HD
ENDBRANCH   9  31
BRANCH  13  33
HETATM   33  O2  UNL     1       2.568   7.025  10.656  1.00  0.00    -0.395 OA
HETATM   34  H36 UNL     1       2.567   6.827   9.703  1.00  0.00     0.210 HD
ENDBRANCH  13  33
TORSDOF 6
ENDMDL
MODEL 2
REMARK minimizedAffinity -9.23013401
REMARK  6 active torsions:
REMARK  status: ('A' for Active; 'I' for Inactive)
REMARK    1  A    between atoms: C4_4  and  C5_5 
REMARK    2  A    between atoms: C5_5  and  C6_6 
REMARK    3  A    between atoms: C6_6  and  C7_7 
REMARK    4  A    between atoms: C7_7  and  C9_9 
REMARK    5  A    between atoms: C17_17  and  O1_18 
REMARK    6  A    between atoms: C21_22  and  O2_23 
ROOT
HETATM    1  C9  UNL     1      -4.783   7.530  13.731  1.00  0.00    -0.002 C 
HETATM    2  C10 UNL     1      -4.547   8.760  14.648  1.00  0.00     0.006 C 
HETATM    3  C11 UNL     1      -3.013   8.929  14.781  1.00  0.00     0.011 C 
HETATM    4  C12 UNL     1      -2.414   8.017  13.688  1.00  0.00    -0.032 C 
HETATM    5  C13 UNL     1      -2.507   8.839  12.355  1.00  0.00     0.016 C 
HETATM    6  C14 UNL     1      -0.951   7.517  13.947  1.00  0.00     0.003 C 
HETATM    7  C15 UNL     1       0.032   8.693  14.119  1.00  0.00     0.009 C 
HETATM    8  C16 UNL     1       1.393   8.510  13.472  1.00  0.00     0.039 C 
HETATM    9  C17 UNL     1       1.321   8.103  11.983  1.00  0.00     0.071 C 
HETATM   10  C18 UNL     1       0.246   6.978  11.688  1.00  0.00     0.029 C 
HETATM   11  C19 UNL     1       0.735   5.939  10.654  1.00  0.00     0.011 C 
HETATM   12  C20 UNL     1       1.462   6.567   9.475  1.00  0.00     0.033 C 
HETATM   13  C21 UNL     1       2.595   7.523   9.848  1.00  0.00     0.129 C 
HETATM   14  C22 UNL     1       2.752   7.828  11.365  1.00  0.00     0.010 C 
HETATM   15  C23 UNL     1       3.528   6.704  12.099  1.00  0.00     0.020 C 
HETATM   16  C24 UNL     1       3.675   9.078  11.471  1.00  0.00     0.020 C 
HETATM   17  C25 UNL     1      -0.476   6.363  12.960  1.00  0.00    -0.033 C 
HETATM   18  C26 UNL     1       0.522   5.430  13.717  1.00  0.00     0.016 C 
HETATM   19  C27 UNL     1      -1.665   5.381  12.566  1.00  0.00     0.011 C 
HETATM   20  C28 UNL     1      -3.112   5.901  12.545  1.00  0.00     0.011 C 
HETATM   21  C29 UNL     1      -3.405   6.801  13.749  1.00  0.00    -0.032 C 
HETATM   22  C30 UNL     1      -3.284   5.936  15.039  1.00  0.00     0.016 C 
ENDROOT
BRANCH   1  23
HETATM   23  C7  UNL     1      -6.084   6.710  13.989  1.00  0.00    -0.014 C 
HETATM   24  C8  UNL     1      -6.527   6.964  15.444  1.00  0.00     0.010 C 
BRANCH  23  25
HETATM   25  C6  UNL     1      -5.979   5.184  13.746  1.00  0.00     0.008 C 
BRANCH  25  26
HETATM   26  C5  UNL     1      -6.978   4.628  12.716  1.00  0.00     0.028 C 
BRANCH  26  27
HETATM   27  C4  UNL     1      -6.817   3.169  12.403  1.00  0.00    -0.025 C 
HETATM   28  C2  UNL     1      -5.940   2.608  11.547  1.00  0.00    -0.091 C 
HETATM   29  C1  UNL     1      -5.922   1.117  11.332  1.00  0.00     0.042 C 
HETATM   30  C3  UNL     1      -4.906   3.362  10.756  1.00  0.00     0.042 C 
ENDBRANCH  26  27
ENDBRANCH  25  26
ENDBRANCH  23  25
ENDBRANCH   1  23
BRANCH   9  31
HETATM   31  O1  UNL     1       0.793   9.262  11.281  1.00  0.00    -0.389 OA
HETATM   32  H29 UNL     1       1.212  10.063  11.639  1.00  0.00     0.210 HD
ENDBRANCH   9  31
BRANCH  13  33
HETATM   33  O2  UNL     1       3.822   7.021   9.309  1.00  0.00    -0.395 OA
HETATM   34  H36 UNL     1       3.716   6.977   8.343  1.00  0.00     0.210 HD
ENDBRANCH  13  33
TORSDOF 6
ENDMDL
MODEL 3
REMARK minimizedAffinity -8.99943924
REMARK  6 active torsions:
REMARK  status: ('A' for Active; 'I' for Inactive)
REMARK    1  A    between atoms: C4_4  and  C5_5 
REMARK    2  A    between atoms: C5_5  and  C6_6 
REMARK    3  A    between atoms: C6_6  and  C7_7 
REMARK    4  A    between atoms: C7_7  and  C9_9 
REMARK    5  A    between atoms: C17_17  and  O1_18 
REMARK    6  A    between atoms: C21_22  and  O2_23 
ROOT
HETATM    1  C9  UNL     1      -6.545   7.130  14.104  1.00  0.00    -0.002 C 
HETATM    2  C10 UNL     1      -6.533   8.394  15.006  1.00  0.00     0.006 C 
HETATM    3  C11 UNL     1      -5.046   8.723  15.292  1.00  0.00     0.011 C 
HETATM    4  C12 UNL     1      -4.246   7.859  14.292  1.00  0.00    -0.032 C 
HETATM    5  C13 UNL     1      -4.280   8.643  12.934  1.00  0.00     0.016 C 
HETATM    6  C14 UNL     1      -2.776   7.517  14.716  1.00  0.00     0.003 C 
HETATM    7  C15 UNL     1      -1.940   8.792  14.955  1.00  0.00     0.009 C 
HETATM    8  C16 UNL     1      -0.507   8.739  14.458  1.00  0.00     0.039 C 
HETATM    9  C17 UNL     1      -0.380   8.301  12.982  1.00  0.00     0.071 C 
HETATM   10  C18 UNL     1      -1.299   7.066  12.609  1.00  0.00     0.029 C 
HETATM   11  C19 UNL     1      -0.600   6.065  11.662  1.00  0.00     0.011 C 
HETATM   12  C20 UNL     1       0.180   6.744  10.546  1.00  0.00     0.033 C 
HETATM   13  C21 UNL     1       1.165   7.818  11.007  1.00  0.00     0.129 C 
HETATM   14  C22 UNL     1       1.129   8.164  12.523  1.00  0.00     0.010 C 
HETATM   15  C23 UNL     1       1.933   7.140  13.365  1.00  0.00     0.020 C 
HETATM   16  C24 UNL     1       1.905   9.505  12.688  1.00  0.00     0.020 C 
HETATM   17  C25 UNL     1      -2.085   6.401  13.816  1.00  0.00    -0.033 C 
HETATM   18  C26 UNL     1      -1.083   5.591  14.698  1.00  0.00     0.016 C 
HETATM   19  C27 UNL     1      -3.121   5.295  13.330  1.00  0.00     0.011 C 
HETATM   20  C28 UNL     1      -4.602   5.663  13.144  1.00  0.00     0.011 C 
HETATM   21  C29 UNL     1      -5.110   6.548  14.286  1.00  0.00    -0.032 C 
HETATM   22  C30 UNL     1      -5.040   5.723  15.605  1.00  0.00     0.016 C 
ENDROOT
BRANCH   1  23
HETATM   23  C7  UNL     1      -7.777   6.185  14.250  1.00  0.00    -0.014 C 
HETATM   24  C8  UNL     1      -8.330   5.903  12.838  1.00  0.00     0.010 C 
BRANCH  23  25
HETATM   25  C6  UNL     1      -8.923   6.706  15.153  1.00  0.00     0.008 C 
BRANCH  25  26
HETATM   26  C5  UNL     1      -9.884   7.692  14.465  1.00  0.00     0.028 C 
BRANCH  26  27
HETATM   27  C4  UNL     1     -11.243   7.136  14.152  1.00  0.00    -0.025 C 
HETATM   28  C2  UNL     1     -12.158   7.644  13.303  1.00  0.00    -0.091 C 
HETATM   29  C1  UNL     1     -13.491   6.968  13.117  1.00  0.00     0.042 C 
HETATM   30  C3  UNL     1     -11.964   8.876  12.463  1.00  0.00     0.042 C 
ENDBRANCH  26  27
ENDBRANCH  25  26
ENDBRANCH  23  25
ENDBRANCH   1  23
BRANCH   9  31
HETATM   31  O1  UNL     1      -0.945   9.387  12.196  1.00  0.00    -0.389 OA
HETATM   32  H29 UNL     1      -0.649  10.233  12.573  1.00  0.00     0.210 HD
ENDBRANCH   9  31
BRANCH  13  33
HETATM   33  O2  UNL     1       2.487   7.436  10.613  1.00  0.00    -0.395 OA
HETATM   34  H36 UNL     1       2.489   7.364   9.642  1.00  0.00     0.210 HD
ENDBRANCH  13  33
TORSDOF 6
ENDMDL
MODEL 4
REMARK minimizedAffinity -8.69143963
REMARK  6 active torsions:
REMARK  status: ('A' for Active; 'I' for Inactive)
REMARK    1  A    between atoms: C4_4  and  C5_5 
REMARK    2  A    between atoms: C5_5  and  C6_6 
REMARK    3  A    between atoms: C6_6  and  C7_7 
REMARK    4  A    between atoms: C7_7  and  C9_9 
REMARK    5  A    between atoms: C17_17  and  O1_18 
REMARK    6  A    between atoms: C21_22  and  O2_23 
ROOT
HETATM    1  C9  UNL     1      -5.021   5.802  14.410  1.00  0.00    -0.002 C 
HETATM    2  C10 UNL     1      -4.787   4.924  13.151  1.00  0.00     0.006 C 
HETATM    3  C11 UNL     1      -3.477   5.427  12.495  1.00  0.00     0.011 C 
HETATM    4  C12 UNL     1      -2.822   6.339  13.556  1.00  0.00    -0.032 C 
HETATM    5  C13 UNL     1      -2.091   5.372  14.551  1.00  0.00     0.016 C 
HETATM    6  C14 UNL     1      -1.844   7.432  13.002  1.00  0.00     0.003 C 
HETATM    7  C15 UNL     1      -0.689   6.806  12.193  1.00  0.00     0.009 C 
HETATM    8  C16 UNL     1       0.674   7.443  12.398  1.00  0.00     0.039 C 
HETATM    9  C17 UNL     1       1.083   7.566  13.883  1.00  0.00     0.071 C 
HETATM   10  C18 UNL     1      -0.085   8.090  14.817  1.00  0.00     0.029 C 
HETATM   11  C19 UNL     1       0.410   9.080  15.895  1.00  0.00     0.011 C 
HETATM   12  C20 UNL     1       1.715   8.649  16.548  1.00  0.00     0.033 C 
HETATM   13  C21 UNL     1       2.844   8.312  15.574  1.00  0.00     0.129 C 
HETATM   14  C22 UNL     1       2.463   8.319  14.066  1.00  0.00     0.010 C 
HETATM   15  C23 UNL     1       2.458   9.755  13.482  1.00  0.00     0.020 C 
HETATM   16  C24 UNL     1       3.619   7.593  13.315  1.00  0.00     0.020 C 
HETATM   17  C25 UNL     1      -1.419   8.525  14.076  1.00  0.00    -0.033 C 
HETATM   18  C26 UNL     1      -1.181   9.885  13.345  1.00  0.00     0.016 C 
HETATM   19  C27 UNL     1      -2.596   8.859  15.093  1.00  0.00     0.011 C 
HETATM   20  C28 UNL     1      -3.650   7.789  15.422  1.00  0.00     0.011 C 
HETATM   21  C29 UNL     1      -4.092   7.030  14.167  1.00  0.00    -0.032 C 
HETATM   22  C30 UNL     1      -4.797   8.041  13.214  1.00  0.00     0.016 C 
ENDROOT
BRANCH   1  23
HETATM   23  C7  UNL     1      -6.505   6.035  14.828  1.00  0.00    -0.014 C 
HETATM   24  C8  UNL     1      -6.637   5.701  16.327  1.00  0.00     0.010 C 
BRANCH  23  25
HETATM   25  C6  UNL     1      -7.564   5.234  14.030  1.00  0.00     0.008 C 
BRANCH  25  26
HETATM   26  C5  UNL     1      -8.247   6.022  12.899  1.00  0.00     0.028 C 
BRANCH  26  27
HETATM   27  C4  UNL     1      -9.720   6.244  13.084  1.00  0.00    -0.025 C 
HETATM   28  C2  UNL     1     -10.318   7.101  13.934  1.00  0.00    -0.091 C 
HETATM   29  C1  UNL     1     -11.820   7.188  14.009  1.00  0.00     0.042 C 
HETATM   30  C3  UNL     1      -9.595   8.046  14.855  1.00  0.00     0.042 C 
ENDBRANCH  26  27
ENDBRANCH  25  26
ENDBRANCH  23  25
ENDBRANCH   1  23
BRANCH   9  31
HETATM   31  O1  UNL     1       1.298   6.206  14.349  1.00  0.00    -0.389 OA
HETATM   32  H29 UNL     1       1.774   5.710  13.661  1.00  0.00     0.210 HD
ENDBRANCH   9  31
BRANCH  13  33
HETATM   33  O2  UNL     1       3.945   9.195  15.816  1.00  0.00    -0.395 OA
HETATM   34  H36 UNL     1       4.232   9.053  16.735  1.00  0.00     0.210 HD
ENDBRANCH  13  33
TORSDOF 6
ENDMDL
MODEL 5
REMARK minimizedAffinity -8.52324772
REMARK  6 active torsions:
REMARK  status: ('A' for Active; 'I' for Inactive)
REMARK    1  A    between atoms: C4_4  and  C5_5 
REMARK    2  A    between atoms: C5_5  and  C6_6 
REMARK    3  A    between atoms: C6_6  and  C7_7 
REMARK    4  A    between atoms: C7_7  and  C9_9 
REMARK    5  A    between atoms: C17_17  and  O1_18 
REMARK    6  A    between atoms: C21_22  and  O2_23 
ROOT
HETATM    1  C9  UNL     1      -4.737   6.231  14.541  1.00  0.00    -0.002 C 
HETATM    2  C10 UNL     1      -4.601   5.351  13.269  1.00  0.00     0.006 C 
HETATM    3  C11 UNL     1      -3.284   5.775  12.573  1.00  0.00     0.011 C 
HETATM    4  C12 UNL     1      -2.539   6.635  13.616  1.00  0.00    -0.032 C 
HETATM    5  C13 UNL     1      -1.838   5.615  14.580  1.00  0.00     0.016 C 
HETATM    6  C14 UNL     1      -1.512   7.667  13.036  1.00  0.00     0.003 C 
HETATM    7  C15 UNL     1      -0.426   6.976  12.185  1.00  0.00     0.009 C 
HETATM    8  C16 UNL     1       0.981   7.523  12.348  1.00  0.00     0.039 C 
HETATM    9  C17 UNL     1       1.446   7.609  13.819  1.00  0.00     0.071 C 
HETATM   10  C18 UNL     1       0.346   8.198  14.794  1.00  0.00     0.029 C 
HETATM   11  C19 UNL     1       0.938   9.146  15.861  1.00  0.00     0.011 C 
HETATM   12  C20 UNL     1       2.234   8.627  16.467  1.00  0.00     0.033 C 
HETATM   13  C21 UNL     1       3.307   8.228  15.454  1.00  0.00     0.129 C 
HETATM   14  C22 UNL     1       2.876   8.271  13.960  1.00  0.00     0.010 C 
HETATM   15  C23 UNL     1       2.944   9.709  13.384  1.00  0.00     0.020 C 
HETATM   16  C24 UNL     1       3.958   7.478  13.166  1.00  0.00     0.020 C 
HETATM   17  C25 UNL     1      -0.982   8.723  14.101  1.00  0.00    -0.033 C 
HETATM   18  C26 UNL     1      -0.682  10.071  13.371  1.00  0.00     0.016 C 
HETATM   19  C27 UNL     1      -2.101   9.123  15.159  1.00  0.00     0.011 C 
HETATM   20  C28 UNL     1      -3.210   8.119  15.517  1.00  0.00     0.011 C 
HETATM   21  C29 UNL     1      -3.741   7.401  14.274  1.00  0.00    -0.032 C 
HETATM   22  C30 UNL     1      -4.410   8.462  13.351  1.00  0.00     0.016 C 
ENDROOT
BRANCH   1  23
HETATM   23  C7  UNL     1      -6.188   6.556  15.009  1.00  0.00    -0.014 C 
HETATM   24  C8  UNL     1      -6.210   8.009  15.524  1.00  0.00     0.010 C 
BRANCH  23  25
HETATM   25  C6  UNL     1      -6.770   5.619  16.098  1.00  0.00     0.008 C 
BRANCH  25  26
HETATM   26  C5  UNL     1      -7.909   4.704  15.614  1.00  0.00     0.028 C 
BRANCH  26  27
HETATM   27  C4  UNL     1      -7.494   3.638  14.642  1.00  0.00    -0.025 C 
HETATM   28  C2  UNL     1      -7.699   3.621  13.311  1.00  0.00    -0.091 C 
HETATM   29  C1  UNL     1      -7.232   2.457  12.476  1.00  0.00     0.042 C 
HETATM   30  C3  UNL     1      -8.367   4.717  12.528  1.00  0.00     0.042 C 
ENDBRANCH  26  27
ENDBRANCH  25  26
ENDBRANCH  23  25
ENDBRANCH   1  23
BRANCH   9  31
HETATM   31  O1  UNL     1       1.589   6.233  14.270  1.00  0.00    -0.389 OA
HETATM   32  H29 UNL     1       2.010   5.714  13.563  1.00  0.00     0.210 HD
ENDBRANCH   9  31
BRANCH  13  33
HETATM   33  O2  UNL     1       4.468   9.037  15.664  1.00  0.00    -0.395 OA
HETATM   34  H36 UNL     1       4.776   8.870  16.572  1.00  0.00     0.210 HD
ENDBRANCH  13  33
TORSDOF 6
ENDMDL
MODEL 6
REMARK minimizedAffinity -8.4190073
REMARK  6 active torsions:
REMARK  status: ('A' for Active; 'I' for Inactive)
REMARK    1  A    between atoms: C4_4  and  C5_5 
REMARK    2  A    between atoms: C5_5  and  C6_6 
REMARK    3  A    between atoms: C6_6  and  C7_7 
REMARK    4  A    between atoms: C7_7  and  C9_9 
REMARK    5  A    between atoms: C17_17  and  O1_18 
REMARK    6  A    between atoms: C21_22  and  O2_23 
ROOT
HETATM    1  C9  UNL     1      -2.674   3.953  12.488  1.00  0.00    -0.002 C 
HETATM    2  C10 UNL     1      -2.296   3.989  10.983  1.00  0.00     0.006 C 
HETATM    3  C11 UNL     1      -1.408   5.241  10.776  1.00  0.00     0.011 C 
HETATM    4  C12 UNL     1      -1.025   5.700  12.200  1.00  0.00    -0.032 C 
HETATM    5  C13 UNL     1       0.169   4.780  12.633  1.00  0.00     0.016 C 
HETATM    6  C14 UNL     1      -0.659   7.217  12.349  1.00  0.00     0.003 C 
HETATM    7  C15 UNL     1       0.518   7.612  11.433  1.00  0.00     0.009 C 
HETATM    8  C16 UNL     1       1.526   8.572  12.040  1.00  0.00     0.039 C 
HETATM    9  C17 UNL     1       2.065   8.116  13.415  1.00  0.00     0.071 C 
HETATM   10  C18 UNL     1       0.936   7.577  14.386  1.00  0.00     0.029 C 
HETATM   11  C19 UNL     1       1.146   8.021  15.852  1.00  0.00     0.011 C 
HETATM   12  C20 UNL     1       2.595   7.918  16.304  1.00  0.00     0.033 C 
HETATM   13  C21 UNL     1       3.608   8.605  15.389  1.00  0.00     0.129 C 
HETATM   14  C22 UNL     1       3.039   9.183  14.062  1.00  0.00     0.010 C 
HETATM   15  C23 UNL     1       2.375  10.567  14.277  1.00  0.00     0.020 C 
HETATM   16  C24 UNL     1       4.266   9.473  13.145  1.00  0.00     0.020 C 
HETATM   17  C25 UNL     1      -0.553   7.713  13.857  1.00  0.00    -0.033 C 
HETATM   18  C26 UNL     1      -0.989   9.211  13.928  1.00  0.00     0.016 C 
HETATM   19  C27 UNL     1      -1.603   6.983  14.805  1.00  0.00     0.011 C 
HETATM   20  C28 UNL     1      -2.080   5.561  14.466  1.00  0.00     0.011 C 
HETATM   21  C29 UNL     1      -2.361   5.403  12.969  1.00  0.00    -0.032 C 
HETATM   22  C30 UNL     1      -3.542   6.347  12.597  1.00  0.00     0.016 C 
ENDROOT
BRANCH   1  23
HETATM   23  C7  UNL     1      -4.048   3.309  12.844  1.00  0.00    -0.014 C 
HETATM   24  C8  UNL     1      -4.375   2.256  11.766  1.00  0.00     0.010 C 
BRANCH  23  25
HETATM   25  C6  UNL     1      -5.239   4.292  12.976  1.00  0.00     0.008 C 
BRANCH  25  26
HETATM   26  C5  UNL     1      -6.620   3.620  13.063  1.00  0.00     0.028 C 
BRANCH  26  27
HETATM   27  C4  UNL     1      -7.781   4.515  12.744  1.00  0.00    -0.025 C 
HETATM   28  C2  UNL     1      -8.334   5.451  13.540  1.00  0.00    -0.091 C 
HETATM   29  C1  UNL     1      -9.518   6.257  13.070  1.00  0.00     0.042 C 
HETATM   30  C3  UNL     1      -7.851   5.804  14.919  1.00  0.00     0.042 C 
ENDBRANCH  26  27
ENDBRANCH  25  26
ENDBRANCH  23  25
ENDBRANCH   1  23
BRANCH   9  31
HETATM   31  O1  UNL     1       2.873   6.936  13.153  1.00  0.00    -0.389 OA
HETATM   32  H29 UNL     1       3.400   7.089  12.351  1.00  0.00     0.210 HD
ENDBRANCH   9  31
BRANCH  13  33
HETATM   33  O2  UNL     1       4.286   9.625  16.129  1.00  0.00    -0.395 OA
HETATM   34  H36 UNL     1       4.737   9.190  16.874  1.00  0.00     0.210 HD
ENDBRANCH  13  33
TORSDOF 6
ENDMDL
MODEL 7
REMARK minimizedAffinity -8.31612301
REMARK  6 active torsions:
REMARK  status: ('A' for Active; 'I' for Inactive)
REMARK    1  A    between atoms: C4_4  and  C5_5 
REMARK    2  A    between atoms: C5_5  and  C6_6 
REMARK    3  A    between atoms: C6_6  and  C7_7 
REMARK    4  A    between atoms: C7_7  and  C9_9 
REMARK    5  A    between atoms: C17_17  and  O1_18 
REMARK    6  A    between atoms: C21_22  and  O2_23 
ROOT
HETATM    1  C9  UNL     1      -2.062   6.997  13.878  1.00  0.00    -0.002 C 
HETATM    2  C10 UNL     1      -0.803   6.645  13.040  1.00  0.00     0.006 C 
HETATM    3  C11 UNL     1       0.282   7.686  13.409  1.00  0.00     0.011 C 
HETATM    4  C12 UNL     1      -0.255   8.394  14.673  1.00  0.00    -0.032 C 
HETATM    5  C13 UNL     1       0.089   7.439  15.869  1.00  0.00     0.016 C 
HETATM    6  C14 UNL     1       0.292   9.841  14.925  1.00  0.00     0.003 C 
HETATM    7  C15 UNL     1       1.831   9.858  15.037  1.00  0.00     0.009 C 
HETATM    8  C16 UNL     1       2.400  10.782  16.099  1.00  0.00     0.039 C 
HETATM    9  C17 UNL     1       1.777  10.574  17.498  1.00  0.00     0.071 C 
HETATM   10  C18 UNL     1       0.200  10.424  17.470  1.00  0.00     0.029 C 
HETATM   11  C19 UNL     1      -0.491  11.149  18.647  1.00  0.00     0.011 C 
HETATM   12  C20 UNL     1       0.227  10.953  19.973  1.00  0.00     0.033 C 
HETATM   13  C21 UNL     1       1.722  11.274  19.953  1.00  0.00     0.129 C 
HETATM   14  C22 UNL     1       2.322  11.614  18.559  1.00  0.00     0.010 C 
HETATM   15  C23 UNL     1       2.054  13.089  18.163  1.00  0.00     0.020 C 
HETATM   16  C24 UNL     1       3.870  11.523  18.712  1.00  0.00     0.020 C 
HETATM   17  C25 UNL     1      -0.489  10.641  16.057  1.00  0.00    -0.033 C 
HETATM   18  C26 UNL     1      -0.470  12.162  15.705  1.00  0.00     0.016 C 
HETATM   19  C27 UNL     1      -2.041  10.290  16.079  1.00  0.00     0.011 C 
HETATM   20  C28 UNL     1      -2.520   8.907  15.607  1.00  0.00     0.011 C 
HETATM   21  C29 UNL     1      -1.787   8.460  14.339  1.00  0.00    -0.032 C 
HETATM   22  C30 UNL     1      -2.154   9.450  13.194  1.00  0.00     0.016 C 
ENDROOT
BRANCH   1  23
HETATM   23  C7  UNL     1      -3.441   6.642  13.241  1.00  0.00    -0.014 C 
HETATM   24  C8  UNL     1      -4.278   7.935  13.166  1.00  0.00     0.010 C 
BRANCH  23  25
HETATM   25  C6  UNL     1      -4.258   5.547  13.971  1.00  0.00     0.008 C 
BRANCH  25  26
HETATM   26  C5  UNL     1      -5.526   5.091  13.229  1.00  0.00     0.028 C 
BRANCH  26  27
HETATM   27  C4  UNL     1      -5.343   3.895  12.340  1.00  0.00    -0.025 C 
HETATM   28  C2  UNL     1      -6.187   2.856  12.183  1.00  0.00    -0.091 C 
HETATM   29  C1  UNL     1      -5.840   1.718  11.258  1.00  0.00     0.042 C 
HETATM   30  C3  UNL     1      -7.522   2.720  12.862  1.00  0.00     0.042 C 
ENDBRANCH  26  27
ENDBRANCH  25  26
ENDBRANCH  23  25
ENDBRANCH   1  23
BRANCH   9  31
HETATM   31  O1  UNL     1       2.229   9.266  17.944  1.00  0.00    -0.389 OA
HETATM   32  H29 UNL     1       3.168   9.163  17.711  1.00  0.00     0.210 HD
ENDBRANCH   9  31
BRANCH  13  33
HETATM   33  O2  UNL     1       1.982  12.331  20.882  1.00  0.00    -0.395 OA
HETATM   34  H36 UNL     1       1.712  12.014  21.762  1.00  0.00     0.210 HD
ENDBRANCH  13  33
TORSDOF 6
ENDMDL
MODEL 8
REMARK minimizedAffinity -8.28672409
REMARK  6 active torsions:
REMARK  status: ('A' for Active; 'I' for Inactive)
REMARK    1  A    between atoms: C4_4  and  C5_5 
REMARK    2  A    between atoms: C5_5  and  C6_6 
REMARK    3  A    between atoms: C6_6  and  C7_7 
REMARK    4  A    between atoms: C7_7  and  C9_9 
REMARK    5  A    between atoms: C17_17  and  O1_18 
REMARK    6  A    between atoms: C21_22  and  O2_23 
ROOT
HETATM    1  C9  UNL     1      -5.023   6.224  14.460  1.00  0.00    -0.002 C 
HETATM    2  C10 UNL     1      -4.206   5.314  13.503  1.00  0.00     0.006 C 
HETATM    3  C11 UNL     1      -2.858   6.033  13.247  1.00  0.00     0.011 C 
HETATM    4  C12 UNL     1      -2.795   7.155  14.308  1.00  0.00    -0.032 C 
HETATM    5  C13 UNL     1      -2.309   6.460  15.628  1.00  0.00     0.016 C 
HETATM    6  C14 UNL     1      -1.892   8.383  13.944  1.00  0.00     0.003 C 
HETATM    7  C15 UNL     1      -0.434   7.959  13.672  1.00  0.00     0.009 C 
HETATM    8  C16 UNL     1       0.633   8.894  14.214  1.00  0.00     0.039 C 
HETATM    9  C17 UNL     1       0.457   9.231  15.712  1.00  0.00     0.071 C 
HETATM   10  C18 UNL     1      -1.038   9.565  16.112  1.00  0.00     0.029 C 
HETATM   11  C19 UNL     1      -1.142  10.728  17.124  1.00  0.00     0.011 C 
HETATM   12  C20 UNL     1      -0.101  10.651  18.230  1.00  0.00     0.033 C 
HETATM   13  C21 UNL     1       1.342  10.488  17.751  1.00  0.00     0.129 C 
HETATM   14  C22 UNL     1       1.527  10.281  16.220  1.00  0.00     0.010 C 
HETATM   15  C23 UNL     1       1.479  11.625  15.450  1.00  0.00     0.020 C 
HETATM   16  C24 UNL     1       2.983   9.763  16.019  1.00  0.00     0.020 C 
HETATM   17  C25 UNL     1      -2.075   9.632  14.913  1.00  0.00    -0.033 C 
HETATM   18  C26 UNL     1      -1.835  10.942  14.098  1.00  0.00     0.016 C 
HETATM   19  C27 UNL     1      -3.577   9.786  15.417  1.00  0.00     0.011 C 
HETATM   20  C28 UNL     1      -4.474   8.543  15.542  1.00  0.00     0.011 C 
HETATM   21  C29 UNL     1      -4.300   7.601  14.348  1.00  0.00    -0.032 C 
HETATM   22  C30 UNL     1      -4.785   8.347  13.069  1.00  0.00     0.016 C 
ENDROOT
BRANCH   1  23
HETATM   23  C7  UNL     1      -6.575   6.162  14.320  1.00  0.00    -0.014 C 
HETATM   24  C8  UNL     1      -7.191   6.933  15.505  1.00  0.00     0.010 C 
BRANCH  23  25
HETATM   25  C6  UNL     1      -7.190   4.741  14.260  1.00  0.00     0.008 C 
BRANCH  25  26
HETATM   26  C5  UNL     1      -7.575   4.269  12.847  1.00  0.00     0.028 C 
BRANCH  26  27
HETATM   27  C4  UNL     1      -7.147   2.871  12.509  1.00  0.00    -0.025 C 
HETATM   28  C2  UNL     1      -6.208   2.496  11.617  1.00  0.00    -0.091 C 
HETATM   29  C1  UNL     1      -5.911   1.038  11.382  1.00  0.00     0.042 C 
HETATM   30  C3  UNL     1      -5.369   3.440  10.801  1.00  0.00     0.042 C 
ENDBRANCH  26  27
ENDBRANCH  25  26
ENDBRANCH  23  25
ENDBRANCH   1  23
BRANCH   9  31
HETATM   31  O1  UNL     1       0.728   7.996  16.431  1.00  0.00    -0.389 OA
HETATM   32  H29 UNL     1       1.497   7.560  16.026  1.00  0.00     0.210 HD
ENDBRANCH   9  31
BRANCH  13  33
HETATM   33  O2  UNL     1       2.110  11.608  18.202  1.00  0.00    -0.395 OA
HETATM   34  H36 UNL     1       2.072  11.612  19.174  1.00  0.00     0.210 HD
ENDBRANCH  13  33
TORSDOF 6
ENDMDL
MODEL 9
REMARK minimizedAffinity -8.21331406
REMARK  6 active torsions:
REMARK  status: ('A' for Active; 'I' for Inactive)
REMARK    1  A    between atoms: C4_4  and  C5_5 
REMARK    2  A    between atoms: C5_5  and  C6_6 
REMARK    3  A    between atoms: C6_6  and  C7_7 
REMARK    4  A    between atoms: C7_7  and  C9_9 
REMARK    5  A    between atoms: C17_17  and  O1_18 
REMARK    6  A    between atoms: C21_22  and  O2_23 
ROOT
HETATM    1  C9  UNL     1      -1.313   6.273  12.944  1.00  0.00    -0.002 C 
HETATM    2  C10 UNL     1      -1.449   6.035  11.416  1.00  0.00     0.006 C 
HETATM    3  C11 UNL     1      -0.205   6.678  10.753  1.00  0.00     0.011 C 
HETATM    4  C12 UNL     1       0.765   6.969  11.920  1.00  0.00    -0.032 C 
HETATM    5  C13 UNL     1       1.483   5.607  12.220  1.00  0.00     0.016 C 
HETATM    6  C14 UNL     1       1.802   8.117  11.669  1.00  0.00     0.003 C 
HETATM    7  C15 UNL     1       2.680   7.833  10.433  1.00  0.00     0.009 C 
HETATM    8  C16 UNL     1       4.146   8.208  10.570  1.00  0.00     0.039 C 
HETATM    9  C17 UNL     1       4.818   7.624  11.833  1.00  0.00     0.071 C 
HETATM   10  C18 UNL     1       3.932   7.761  13.139  1.00  0.00     0.029 C 
HETATM   11  C19 UNL     1       4.764   8.125  14.390  1.00  0.00     0.011 C 
HETATM   12  C20 UNL     1       6.070   7.351  14.484  1.00  0.00     0.033 C 
HETATM   13  C21 UNL     1       6.943   7.401  13.231  1.00  0.00     0.129 C 
HETATM   14  C22 UNL     1       6.315   8.109  11.996  1.00  0.00     0.010 C 
HETATM   15  C23 UNL     1       6.451   9.651  12.088  1.00  0.00     0.020 C 
HETATM   16  C24 UNL     1       7.187   7.710  10.768  1.00  0.00     0.020 C 
HETATM   17  C25 UNL     1       2.583   8.580  12.976  1.00  0.00    -0.033 C 
HETATM   18  C26 UNL     1       2.917  10.101  12.852  1.00  0.00     0.016 C 
HETATM   19  C27 UNL     1       1.671   8.512  14.278  1.00  0.00     0.011 C 
HETATM   20  C28 UNL     1       0.524   7.490  14.356  1.00  0.00     0.011 C 
HETATM   21  C29 UNL     1      -0.247   7.407  13.036  1.00  0.00    -0.032 C 
HETATM   22  C30 UNL     1      -0.925   8.787  12.785  1.00  0.00     0.016 C 
ENDROOT
BRANCH   1  23
HETATM   23  C7  UNL     1      -2.643   6.406  13.748  1.00  0.00    -0.014 C 
HETATM   24  C8  UNL     1      -2.587   5.418  14.929  1.00  0.00     0.010 C 
BRANCH  23  25
HETATM   25  C6  UNL     1      -3.944   6.167  12.941  1.00  0.00     0.008 C 
BRANCH  25  26
HETATM   26  C5  UNL     1      -4.279   4.687  12.688  1.00  0.00     0.028 C 
BRANCH  26  27
HETATM   27  C4  UNL     1      -5.686   4.289  13.028  1.00  0.00    -0.025 C 
HETATM   28  C2  UNL     1      -6.392   3.263  12.515  1.00  0.00    -0.091 C 
HETATM   29  C1  UNL     1      -7.811   3.011  12.954  1.00  0.00     0.042 C 
HETATM   30  C3  UNL     1      -5.871   2.278  11.506  1.00  0.00     0.042 C 
ENDBRANCH  26  27
ENDBRANCH  25  26
ENDBRANCH  23  25
ENDBRANCH   1  23
BRANCH   9  31
HETATM   31  O1  UNL     1       4.879   6.186  11.621  1.00  0.00    -0.389 OA
HETATM   32  H29 UNL     1       5.140   6.016  10.700  1.00  0.00     0.210 HD
ENDBRANCH   9  31
BRANCH  13  33
HETATM   33  O2  UNL     1       8.201   7.998  13.564  1.00  0.00    -0.395 OA
HETATM   34  H36 UNL     1       8.613   7.440  14.246  1.00  0.00     0.210 HD
ENDBRANCH  13  33
TORSDOF 6
ENDMDL
