MODEL 1
REMARK minimizedAffinity -6.46334267
REMARK CNNscore 0.570646167
REMARK CNNaffinity 6.55156946
REMARK  9 active torsions:
REMARK  status: ('A' for Active; 'I' for Inactive)
REMARK    1  A    between atoms: C2_2  and  C4_4 
REMARK    2  A    between atoms: C4_4  and  O1_5 
REMARK    3  A    between atoms: C4_4  and  C5_7 
REMARK    4  A    between atoms: O1_5  and  O2_6 
REMARK    5  A    between atoms: C5_7  and  O3_8 
REMARK    6  A    between atoms: C5_7  and  C6_9 
REMARK    7  A    between atoms: C6_9  and  C7_10 
REMARK    8  A    between atoms: C7_10  and  C9_12 
REMARK    9  A    between atoms: C20_23  and  O4_24 
ROOT
HETATM    1  C9  UNL     1     -13.243 -11.113  25.893  1.00  0.00    -0.002 C 
HETATM    2  C10 UNL     1     -14.674 -10.938  25.297  1.00  0.00     0.006 C 
HETATM    3  C11 UNL     1     -15.519 -10.154  26.318  1.00  0.00     0.011 C 
HETATM    4  C12 UNL     1     -14.500  -9.585  27.315  1.00  0.00    -0.032 C 
HETATM    5  C13 UNL     1     -13.899  -8.286  26.667  1.00  0.00     0.016 C 
HETATM    6  C14 UNL     1     -15.057  -9.232  28.736  1.00  0.00     0.004 C 
HETATM    7  C15 UNL     1     -16.245  -8.239  28.657  1.00  0.00     0.006 C 
HETATM    8  C16 UNL     1     -16.254  -7.058  29.620  1.00  0.00     0.006 C 
HETATM    9  C17 UNL     1     -14.881  -6.383  29.705  1.00  0.00     0.001 C 
HETATM   10  C18 UNL     1     -14.837  -5.196  30.701  1.00  0.00     0.015 C 
HETATM   11  C19 UNL     1     -16.003  -4.213  30.557  1.00  0.00     0.013 C 
HETATM   12  C20 UNL     1     -13.499  -4.431  30.562  1.00  0.00     0.122 C 
HETATM   13  C21 UNL     1     -12.383  -5.251  29.913  1.00  0.00     0.033 C 
HETATM   14  C22 UNL     1     -12.414  -6.721  30.324  1.00  0.00     0.013 C 
HETATM   15  C23 UNL     1     -13.779  -7.370  30.114  1.00  0.00    -0.027 A 
HETATM   16  C24 UNL     1     -14.162  -8.460  31.094  1.00  0.00     0.021 A 
HETATM   17  C25 UNL     1     -13.874  -8.838  29.656  1.00  0.00    -0.027 A 
HETATM   18  C26 UNL     1     -12.658  -9.779  29.590  1.00  0.00     0.011 C 
HETATM   19  C27 UNL     1     -12.254 -10.258  28.191  1.00  0.00     0.011 C 
HETATM   20  C28 UNL     1     -13.468 -10.778  27.404  1.00  0.00    -0.032 C 
HETATM   21  C29 UNL     1     -14.027 -12.049  28.116  1.00  0.00     0.016 C 
ENDROOT
BRANCH   1  22
HETATM   22  C7  UNL     1     -12.600 -12.473  25.474  1.00  0.00    -0.011 C 
HETATM   23  C8  UNL     1     -13.467 -13.671  25.871  1.00  0.00     0.010 C 
BRANCH  22  24
HETATM   24  C6  UNL     1     -11.182 -12.608  26.096  1.00  0.00     0.039 C 
BRANCH  24  25
HETATM   25  C5  UNL     1      -9.974 -12.416  25.153  1.00  0.00     0.154 C 
BRANCH  25  26
HETATM   26  C4  UNL     1      -9.205 -13.738  24.849  1.00  0.00     0.216 C 
BRANCH  26  27
HETATM   27  C2  UNL     1      -9.052 -14.752  25.985  1.00  0.00    -0.059 C 
HETATM   28  C1  UNL     1      -8.237 -14.614  27.045  1.00  0.00     0.016 C 
HETATM   29  C3  UNL     1      -9.937 -15.967  25.878  1.00  0.00     0.045 C 
ENDBRANCH  26  27
BRANCH  26  30
HETATM   30  O1  UNL     1      -7.892 -13.397  24.364  1.00  0.00    -0.231 OA
BRANCH  30  31
HETATM   31  O2  UNL     1      -7.507 -14.429  23.407  1.00  0.00    -0.250 OA
HETATM   32  H7  UNL     1      -6.659 -14.651  23.835  1.00  0.00     0.253 HD
ENDBRANCH  30  31
ENDBRANCH  26  30
ENDBRANCH  25  26
BRANCH  25  33
HETATM   33  O3  UNL     1     -10.480 -11.820  23.942  1.00  0.00    -0.393 OA
HETATM   34  H9  UNL     1     -11.017 -11.051  24.191  1.00  0.00     0.210 HD
ENDBRANCH  25  33
ENDBRANCH  24  25
ENDBRANCH  22  24
ENDBRANCH   1  22
BRANCH  12  35
HETATM   35  O4  UNL     1     -13.092  -4.006  31.864  1.00  0.00    -0.395 OA
HETATM   36  H35 UNL     1     -12.285  -3.473  31.761  1.00  0.00     0.210 HD
ENDBRANCH  12  35
TORSDOF 9
ENDMDL
MODEL 2
REMARK minimizedAffinity -7.95173168
REMARK CNNscore 0.388130426
REMARK CNNaffinity 6.56128931
REMARK  9 active torsions:
REMARK  status: ('A' for Active; 'I' for Inactive)
REMARK    1  A    between atoms: C2_2  and  C4_4 
REMARK    2  A    between atoms: C4_4  and  O1_5 
REMARK    3  A    between atoms: C4_4  and  C5_7 
REMARK    4  A    between atoms: O1_5  and  O2_6 
REMARK    5  A    between atoms: C5_7  and  O3_8 
REMARK    6  A    between atoms: C5_7  and  C6_9 
REMARK    7  A    between atoms: C6_9  and  C7_10 
REMARK    8  A    between atoms: C7_10  and  C9_12 
REMARK    9  A    between atoms: C20_23  and  O4_24 
ROOT
HETATM    1  C9  UNL     1      -2.413  10.418  14.473  1.00  0.00    -0.002 C 
HETATM    2  C10 UNL     1      -1.206   9.758  13.738  1.00  0.00     0.006 C 
HETATM    3  C11 UNL     1      -1.460   8.239  13.681  1.00  0.00     0.011 C 
HETATM    4  C12 UNL     1      -2.939   8.076  14.057  1.00  0.00    -0.032 C 
HETATM    5  C13 UNL     1      -3.778   8.363  12.760  1.00  0.00     0.016 C 
HETATM    6  C14 UNL     1      -3.349   6.675  14.625  1.00  0.00     0.004 C 
HETATM    7  C15 UNL     1      -2.980   5.528  13.650  1.00  0.00     0.006 C 
HETATM    8  C16 UNL     1      -4.025   4.449  13.388  1.00  0.00     0.006 C 
HETATM    9  C17 UNL     1      -5.414   5.050  13.149  1.00  0.00     0.001 C 
HETATM   10  C18 UNL     1      -6.514   3.983  12.913  1.00  0.00     0.015 C 
HETATM   11  C19 UNL     1      -6.127   2.895  11.905  1.00  0.00     0.013 C 
HETATM   12  C20 UNL     1      -7.827   4.662  12.457  1.00  0.00     0.122 C 
HETATM   13  C21 UNL     1      -7.916   6.145  12.822  1.00  0.00     0.033 C 
HETATM   14  C22 UNL     1      -7.294   6.457  14.183  1.00  0.00     0.013 C 
HETATM   15  C23 UNL     1      -5.869   5.930  14.321  1.00  0.00    -0.027 A 
HETATM   16  C24 UNL     1      -5.445   5.499  15.710  1.00  0.00     0.021 A 
HETATM   17  C25 UNL     1      -4.820   6.739  15.108  1.00  0.00    -0.027 A 
HETATM   18  C26 UNL     1      -5.173   7.974  15.956  1.00  0.00     0.011 C 
HETATM   19  C27 UNL     1      -4.595   9.309  15.472  1.00  0.00     0.011 C 
HETATM   20  C28 UNL     1      -3.094   9.191  15.165  1.00  0.00    -0.032 C 
HETATM   21  C29 UNL     1      -2.328   8.881  16.489  1.00  0.00     0.016 C 
ENDROOT
BRANCH   1  22
HETATM   22  C7  UNL     1      -1.973  11.656  15.319  1.00  0.00    -0.011 C 
HETATM   23  C8  UNL     1      -2.647  12.948  14.847  1.00  0.00     0.010 C 
BRANCH  22  24
HETATM   24  C6  UNL     1      -0.427  11.811  15.276  1.00  0.00     0.039 C 
BRANCH  24  25
HETATM   25  C5  UNL     1       0.279  12.230  16.584  1.00  0.00     0.154 C 
BRANCH  25  26
HETATM   26  C4  UNL     1       0.530  11.043  17.564  1.00  0.00     0.216 C 
BRANCH  26  27
HETATM   27  C2  UNL     1      -0.112  11.116  18.952  1.00  0.00    -0.059 C 
HETATM   28  C1  UNL     1       0.558  11.210  20.114  1.00  0.00     0.016 C 
HETATM   29  C3  UNL     1      -1.619  11.118  18.958  1.00  0.00     0.045 C 
ENDBRANCH  26  27
BRANCH  26  30
HETATM   30  O1  UNL     1       1.952  10.885  17.728  1.00  0.00    -0.231 OA
BRANCH  30  31
HETATM   31  O2  UNL     1       2.225   9.451  17.740  1.00  0.00    -0.250 OA
HETATM   32  H7  UNL     1       2.711   9.449  18.586  1.00  0.00     0.253 HD
ENDBRANCH  30  31
ENDBRANCH  26  30
ENDBRANCH  25  26
BRANCH  25  33
HETATM   33  O3  UNL     1       1.519  12.860  16.205  1.00  0.00    -0.393 OA
HETATM   34  H9  UNL     1       1.318  13.533  15.534  1.00  0.00     0.210 HD
ENDBRANCH  25  33
ENDBRANCH  24  25
ENDBRANCH  22  24
ENDBRANCH   1  22
BRANCH  12  35
HETATM   35  O4  UNL     1      -8.922   3.955  13.043  1.00  0.00    -0.395 OA
HETATM   36  H35 UNL     1      -9.743   4.348  12.703  1.00  0.00     0.210 HD
ENDBRANCH  12  35
TORSDOF 9
ENDMDL
MODEL 3
REMARK minimizedAffinity -6.5162096
REMARK CNNscore 0.369217128
REMARK CNNaffinity 5.65139008
REMARK  9 active torsions:
REMARK  status: ('A' for Active; 'I' for Inactive)
REMARK    1  A    between atoms: C2_2  and  C4_4 
REMARK    2  A    between atoms: C4_4  and  O1_5 
REMARK    3  A    between atoms: C4_4  and  C5_7 
REMARK    4  A    between atoms: O1_5  and  O2_6 
REMARK    5  A    between atoms: C5_7  and  O3_8 
REMARK    6  A    between atoms: C5_7  and  C6_9 
REMARK    7  A    between atoms: C6_9  and  C7_10 
REMARK    8  A    between atoms: C7_10  and  C9_12 
REMARK    9  A    between atoms: C20_23  and  O4_24 
ROOT
HETATM    1  C9  UNL     1       6.281  13.726  22.918  1.00  0.00    -0.002 C 
HETATM    2  C10 UNL     1       7.612  13.066  22.443  1.00  0.00     0.006 C 
HETATM    3  C11 UNL     1       8.628  14.192  22.171  1.00  0.00     0.011 C 
HETATM    4  C12 UNL     1       8.009  15.441  22.814  1.00  0.00    -0.032 C 
HETATM    5  C13 UNL     1       8.340  15.380  24.348  1.00  0.00     0.016 C 
HETATM    6  C14 UNL     1       8.496  16.816  22.245  1.00  0.00     0.004 C 
HETATM    7  C15 UNL     1      10.038  16.958  22.326  1.00  0.00     0.006 C 
HETATM    8  C16 UNL     1      10.608  18.273  22.845  1.00  0.00     0.006 C 
HETATM    9  C17 UNL     1       9.870  18.757  24.097  1.00  0.00     0.001 C 
HETATM   10  C18 UNL     1      10.397  20.111  24.638  1.00  0.00     0.015 C 
HETATM   11  C19 UNL     1      11.923  20.191  24.748  1.00  0.00     0.013 C 
HETATM   12  C20 UNL     1       9.765  20.417  26.017  1.00  0.00     0.122 C 
HETATM   13  C21 UNL     1       8.465  19.656  26.285  1.00  0.00     0.033 C 
HETATM   14  C22 UNL     1       7.601  19.504  25.034  1.00  0.00     0.013 C 
HETATM   15  C23 UNL     1       8.362  18.913  23.851  1.00  0.00    -0.027 A 
HETATM   16  C24 UNL     1       7.935  19.382  22.476  1.00  0.00     0.021 A 
HETATM   17  C25 UNL     1       7.653  17.950  22.880  1.00  0.00    -0.027 A 
HETATM   18  C26 UNL     1       6.136  17.697  22.905  1.00  0.00     0.011 C 
HETATM   19  C27 UNL     1       5.698  16.278  23.286  1.00  0.00     0.011 C 
HETATM   20  C28 UNL     1       6.478  15.218  22.493  1.00  0.00    -0.032 C 
HETATM   21  C29 UNL     1       6.121  15.353  20.979  1.00  0.00     0.016 C 
ENDROOT
BRANCH   1  22
HETATM   22  C7  UNL     1       5.029  12.926  22.434  1.00  0.00    -0.011 C 
HETATM   23  C8  UNL     1       3.741  13.400  23.113  1.00  0.00     0.010 C 
BRANCH  22  24
HETATM   24  C6  UNL     1       5.238  11.407  22.680  1.00  0.00     0.039 C 
BRANCH  24  25
HETATM   25  C5  UNL     1       4.748  10.437  21.582  1.00  0.00     0.154 C 
BRANCH  25  26
HETATM   26  C4  UNL     1       3.215  10.154  21.641  1.00  0.00     0.216 C 
BRANCH  26  27
HETATM   27  C2  UNL     1       2.691   9.299  22.797  1.00  0.00    -0.059 C 
HETATM   28  C1  UNL     1       2.149   8.075  22.674  1.00  0.00     0.016 C 
HETATM   29  C3  UNL     1       2.856   9.908  24.166  1.00  0.00     0.045 C 
ENDBRANCH  26  27
BRANCH  26  30
HETATM   30  O1  UNL     1       2.822   9.533  20.402  1.00  0.00    -0.231 OA
BRANCH  30  31
HETATM   31  O2  UNL     1       1.660  10.265  19.906  1.00  0.00    -0.250 OA
HETATM   32  H7  UNL     1       1.084   9.484  19.810  1.00  0.00     0.253 HD
ENDBRANCH  30  31
ENDBRANCH  26  30
ENDBRANCH  25  26
BRANCH  25  33
HETATM   33  O3  UNL     1       5.119  11.017  20.316  1.00  0.00    -0.393 OA
HETATM   34  H9  UNL     1       6.061  11.250  20.360  1.00  0.00     0.210 HD
ENDBRANCH  25  33
ENDBRANCH  24  25
ENDBRANCH  22  24
ENDBRANCH   1  22
BRANCH  12  35
HETATM   35  O4  UNL     1       9.525  21.823  26.095  1.00  0.00    -0.395 OA
HETATM   36  H35 UNL     1       9.186  22.016  26.986  1.00  0.00     0.210 HD
ENDBRANCH  12  35
TORSDOF 9
ENDMDL
MODEL 4
REMARK minimizedAffinity -6.39817095
REMARK CNNscore 0.292376518
REMARK CNNaffinity 6.00987864
REMARK  9 active torsions:
REMARK  status: ('A' for Active; 'I' for Inactive)
REMARK    1  A    between atoms: C2_2  and  C4_4 
REMARK    2  A    between atoms: C4_4  and  O1_5 
REMARK    3  A    between atoms: C4_4  and  C5_7 
REMARK    4  A    between atoms: O1_5  and  O2_6 
REMARK    5  A    between atoms: C5_7  and  O3_8 
REMARK    6  A    between atoms: C5_7  and  C6_9 
REMARK    7  A    between atoms: C6_9  and  C7_10 
REMARK    8  A    between atoms: C7_10  and  C9_12 
REMARK    9  A    between atoms: C20_23  and  O4_24 
ROOT
HETATM    1  C9  UNL     1      -6.915  -9.504   5.984  1.00  0.00    -0.002 C 
HETATM    2  C10 UNL     1      -5.436  -9.999   5.968  1.00  0.00     0.006 C 
HETATM    3  C11 UNL     1      -5.202 -10.750   4.643  1.00  0.00     0.011 C 
HETATM    4  C12 UNL     1      -6.410 -10.385   3.769  1.00  0.00    -0.032 C 
HETATM    5  C13 UNL     1      -6.113  -8.978   3.138  1.00  0.00     0.016 C 
HETATM    6  C14 UNL     1      -6.753 -11.394   2.621  1.00  0.00     0.004 C 
HETATM    7  C15 UNL     1      -5.543 -11.628   1.681  1.00  0.00     0.006 C 
HETATM    8  C16 UNL     1      -5.792 -11.606   0.177  1.00  0.00     0.006 C 
HETATM    9  C17 UNL     1      -6.686 -10.432  -0.234  1.00  0.00     0.001 C 
HETATM   10  C18 UNL     1      -6.992 -10.394  -1.753  1.00  0.00     0.015 C 
HETATM   11  C19 UNL     1      -5.762 -10.579  -2.647  1.00  0.00     0.013 C 
HETATM   12  C20 UNL     1      -7.700  -9.068  -2.122  1.00  0.00     0.122 C 
HETATM   13  C21 UNL     1      -8.371  -8.374  -0.935  1.00  0.00     0.033 C 
HETATM   14  C22 UNL     1      -9.000  -9.360   0.047  1.00  0.00     0.013 C 
HETATM   15  C23 UNL     1      -8.029 -10.444   0.508  1.00  0.00    -0.027 A 
HETATM   16  C24 UNL     1      -8.633 -11.799   0.816  1.00  0.00     0.021 A 
HETATM   17  C25 UNL     1      -8.085 -10.966   1.957  1.00  0.00    -0.027 A 
HETATM   18  C26 UNL     1      -9.215 -10.606   2.937  1.00  0.00     0.011 C 
HETATM   19  C27 UNL     1      -8.806  -9.771   4.156  1.00  0.00     0.011 C 
HETATM   20  C28 UNL     1      -7.565 -10.359   4.847  1.00  0.00    -0.032 C 
HETATM   21  C29 UNL     1      -7.925 -11.762   5.427  1.00  0.00     0.016 C 
ENDROOT
BRANCH   1  22
HETATM   22  C7  UNL     1      -7.518  -9.517   7.425  1.00  0.00    -0.011 C 
HETATM   23  C8  UNL     1      -8.965  -9.015   7.451  1.00  0.00     0.010 C 
BRANCH  22  24
HETATM   24  C6  UNL     1      -6.637  -8.666   8.381  1.00  0.00     0.039 C 
BRANCH  24  25
HETATM   25  C5  UNL     1      -7.267  -8.227   9.721  1.00  0.00     0.154 C 
BRANCH  25  26
HETATM   26  C4  UNL     1      -6.367  -8.527  10.960  1.00  0.00     0.216 C 
BRANCH  26  27
HETATM   27  C2  UNL     1      -5.562  -9.828  10.959  1.00  0.00    -0.059 C 
HETATM   28  C1  UNL     1      -6.076 -11.060  11.115  1.00  0.00     0.016 C 
HETATM   29  C3  UNL     1      -4.083  -9.662  10.720  1.00  0.00     0.045 C 
ENDBRANCH  26  27
BRANCH  26  30
HETATM   30  O1  UNL     1      -7.197  -8.506  12.137  1.00  0.00    -0.231 OA
BRANCH  30  31
HETATM   31  O2  UNL     1      -6.314  -8.296  13.280  1.00  0.00    -0.250 OA
HETATM   32  H7  UNL     1      -6.617  -9.073  13.785  1.00  0.00     0.253 HD
ENDBRANCH  30  31
ENDBRANCH  26  30
ENDBRANCH  25  26
BRANCH  25  33
HETATM   33  O3  UNL     1      -7.543  -6.817   9.610  1.00  0.00    -0.393 OA
HETATM   34  H9  UNL     1      -8.032  -6.674   8.784  1.00  0.00     0.210 HD
ENDBRANCH  25  33
ENDBRANCH  24  25
ENDBRANCH  22  24
ENDBRANCH   1  22
BRANCH  12  35
HETATM   35  O4  UNL     1      -8.673  -9.348  -3.130  1.00  0.00    -0.395 OA
HETATM   36  H35 UNL     1      -9.069  -8.502  -3.401  1.00  0.00     0.210 HD
ENDBRANCH  12  35
TORSDOF 9
ENDMDL
MODEL 5
REMARK minimizedAffinity -6.91685581
REMARK CNNscore 0.269548178
REMARK CNNaffinity 5.65724993
REMARK  9 active torsions:
REMARK  status: ('A' for Active; 'I' for Inactive)
REMARK    1  A    between atoms: C2_2  and  C4_4 
REMARK    2  A    between atoms: C4_4  and  O1_5 
REMARK    3  A    between atoms: C4_4  and  C5_7 
REMARK    4  A    between atoms: O1_5  and  O2_6 
REMARK    5  A    between atoms: C5_7  and  O3_8 
REMARK    6  A    between atoms: C5_7  and  C6_9 
REMARK    7  A    between atoms: C6_9  and  C7_10 
REMARK    8  A    between atoms: C7_10  and  C9_12 
REMARK    9  A    between atoms: C20_23  and  O4_24 
ROOT
HETATM    1  C9  UNL     1      -8.009 -10.482   7.609  1.00  0.00    -0.002 C 
HETATM    2  C10 UNL     1      -8.822 -10.133   6.325  1.00  0.00     0.006 C 
HETATM    3  C11 UNL     1      -7.819  -9.896   5.180  1.00  0.00     0.011 C 
HETATM    4  C12 UNL     1      -6.486 -10.444   5.709  1.00  0.00    -0.032 C 
HETATM    5  C13 UNL     1      -6.511 -12.000   5.495  1.00  0.00     0.016 C 
HETATM    6  C14 UNL     1      -5.194  -9.862   5.041  1.00  0.00     0.004 C 
HETATM    7  C15 UNL     1      -5.207 -10.052   3.503  1.00  0.00     0.006 C 
HETATM    8  C16 UNL     1      -3.934 -10.563   2.836  1.00  0.00     0.006 C 
HETATM    9  C17 UNL     1      -3.322 -11.738   3.606  1.00  0.00     0.001 C 
HETATM   10  C18 UNL     1      -2.006 -12.266   2.979  1.00  0.00     0.015 C 
HETATM   11  C19 UNL     1      -2.077 -12.487   1.464  1.00  0.00     0.013 C 
HETATM   12  C20 UNL     1      -1.576 -13.581   3.671  1.00  0.00     0.122 C 
HETATM   13  C21 UNL     1      -2.188 -13.779   5.059  1.00  0.00     0.033 C 
HETATM   14  C22 UNL     1      -2.307 -12.475   5.844  1.00  0.00     0.013 C 
HETATM   15  C23 UNL     1      -3.025 -11.375   5.067  1.00  0.00    -0.027 A 
HETATM   16  C24 UNL     1      -2.576  -9.955   5.345  1.00  0.00     0.021 A 
HETATM   17  C25 UNL     1      -3.953 -10.389   5.803  1.00  0.00    -0.027 A 
HETATM   18  C26 UNL     1      -4.049 -10.311   7.337  1.00  0.00     0.011 C 
HETATM   19  C27 UNL     1      -5.398 -10.711   7.947  1.00  0.00     0.011 C 
HETATM   20  C28 UNL     1      -6.566 -10.018   7.228  1.00  0.00    -0.032 C 
HETATM   21  C29 UNL     1      -6.463  -8.478   7.462  1.00  0.00     0.016 C 
ENDROOT
BRANCH   1  22
HETATM   22  C7  UNL     1      -8.699  -9.936   8.901  1.00  0.00    -0.011 C 
HETATM   23  C8  UNL     1      -9.558  -8.700   8.620  1.00  0.00     0.010 C 
BRANCH  22  24
HETATM   24  C6  UNL     1      -7.630  -9.613   9.981  1.00  0.00     0.039 C 
BRANCH  24  25
HETATM   25  C5  UNL     1      -8.115  -9.483  11.442  1.00  0.00     0.154 C 
BRANCH  25  26
HETATM   26  C4  UNL     1      -7.142 -10.122  12.480  1.00  0.00     0.216 C 
BRANCH  26  27
HETATM   27  C2  UNL     1      -7.341 -11.599  12.831  1.00  0.00    -0.059 C 
HETATM   28  C1  UNL     1      -6.440 -12.575  12.622  1.00  0.00     0.016 C 
HETATM   29  C3  UNL     1      -8.653 -11.925  13.497  1.00  0.00     0.045 C 
ENDBRANCH  26  27
BRANCH  26  30
HETATM   30  O1  UNL     1      -7.209  -9.353  13.696  1.00  0.00    -0.231 OA
BRANCH  30  31
HETATM   31  O2  UNL     1      -6.181  -8.320  13.607  1.00  0.00    -0.250 OA
HETATM   32  H7  UNL     1      -5.746  -8.539  14.452  1.00  0.00     0.253 HD
ENDBRANCH  30  31
ENDBRANCH  26  30
ENDBRANCH  25  26
BRANCH  25  33
HETATM   33  O3  UNL     1      -8.296  -8.077  11.698  1.00  0.00    -0.393 OA
HETATM   34  H9  UNL     1      -8.839  -7.711  10.982  1.00  0.00     0.210 HD
ENDBRANCH  25  33
ENDBRANCH  24  25
ENDBRANCH  22  24
ENDBRANCH   1  22
BRANCH  12  35
HETATM   35  O4  UNL     1      -0.150 -13.589   3.767  1.00  0.00    -0.395 OA
HETATM   36  H35 UNL     1       0.116 -14.444   4.145  1.00  0.00     0.210 HD
ENDBRANCH  12  35
TORSDOF 9
ENDMDL
MODEL 6
REMARK minimizedAffinity -6.18285894
REMARK CNNscore 0.263151646
REMARK CNNaffinity 5.75360918
REMARK  9 active torsions:
REMARK  status: ('A' for Active; 'I' for Inactive)
REMARK    1  A    between atoms: C2_2  and  C4_4 
REMARK    2  A    between atoms: C4_4  and  O1_5 
REMARK    3  A    between atoms: C4_4  and  C5_7 
REMARK    4  A    between atoms: O1_5  and  O2_6 
REMARK    5  A    between atoms: C5_7  and  O3_8 
REMARK    6  A    between atoms: C5_7  and  C6_9 
REMARK    7  A    between atoms: C6_9  and  C7_10 
REMARK    8  A    between atoms: C7_10  and  C9_12 
REMARK    9  A    between atoms: C20_23  and  O4_24 
ROOT
HETATM    1  C9  UNL     1      -4.208  -9.614   5.880  1.00  0.00    -0.002 C 
HETATM    2  C10 UNL     1      -2.691  -9.858   5.618  1.00  0.00     0.006 C 
HETATM    3  C11 UNL     1      -2.561 -10.683   4.324  1.00  0.00     0.011 C 
HETATM    4  C12 UNL     1      -3.948 -10.608   3.671  1.00  0.00    -0.032 C 
HETATM    5  C13 UNL     1      -4.023  -9.238   2.907  1.00  0.00     0.016 C 
HETATM    6  C14 UNL     1      -4.299 -11.765   2.675  1.00  0.00     0.004 C 
HETATM    7  C15 UNL     1      -3.250 -11.884   1.540  1.00  0.00     0.006 C 
HETATM    8  C16 UNL     1      -3.757 -12.048   0.112  1.00  0.00     0.006 C 
HETATM    9  C17 UNL     1      -4.905 -11.082  -0.198  1.00  0.00     0.001 C 
HETATM   10  C18 UNL     1      -5.474 -11.240  -1.631  1.00  0.00     0.015 C 
HETATM   11  C19 UNL     1      -4.405 -11.305  -2.727  1.00  0.00     0.013 C 
HETATM   12  C20 UNL     1      -6.461 -10.090  -1.943  1.00  0.00     0.122 C 
HETATM   13  C21 UNL     1      -7.028  -9.406  -0.698  1.00  0.00     0.033 C 
HETATM   14  C22 UNL     1      -7.288 -10.384   0.446  1.00  0.00     0.013 C 
HETATM   15  C23 UNL     1      -6.074 -11.244   0.784  1.00  0.00    -0.027 A 
HETATM   16  C24 UNL     1      -6.361 -12.644   1.286  1.00  0.00     0.021 A 
HETATM   17  C25 UNL     1      -5.782 -11.627   2.247  1.00  0.00    -0.027 A 
HETATM   18  C26 UNL     1      -6.770 -11.366   3.398  1.00  0.00     0.011 C 
HETATM   19  C27 UNL     1      -6.310 -10.362   4.462  1.00  0.00     0.011 C 
HETATM   20  C28 UNL     1      -4.883 -10.669   4.943  1.00  0.00    -0.032 C 
HETATM   21  C29 UNL     1      -4.879 -12.050   5.669  1.00  0.00     0.016 C 
ENDROOT
BRANCH   1  22
HETATM   22  C7  UNL     1      -4.539  -9.589   7.407  1.00  0.00    -0.011 C 
HETATM   23  C8  UNL     1      -4.058 -10.853   8.124  1.00  0.00     0.010 C 
BRANCH  22  24
HETATM   24  C6  UNL     1      -6.066  -9.399   7.620  1.00  0.00     0.039 C 
BRANCH  24  25
HETATM   25  C5  UNL     1      -6.694 -10.057   8.869  1.00  0.00     0.154 C 
BRANCH  25  26
HETATM   26  C4  UNL     1      -6.922  -9.062  10.048  1.00  0.00     0.216 C 
BRANCH  26  27
HETATM   27  C2  UNL     1      -6.512  -9.513  11.452  1.00  0.00    -0.059 C 
HETATM   28  C1  UNL     1      -7.119  -9.147  12.594  1.00  0.00     0.016 C 
HETATM   29  C3  UNL     1      -5.354 -10.476  11.500  1.00  0.00     0.045 C 
ENDBRANCH  26  27
BRANCH  26  30
HETATM   30  O1  UNL     1      -8.317  -8.705  10.075  1.00  0.00    -0.231 OA
BRANCH  30  31
HETATM   31  O2  UNL     1      -8.472  -7.522   9.234  1.00  0.00    -0.250 OA
HETATM   32  H7  UNL     1      -8.914  -6.976   9.910  1.00  0.00     0.253 HD
ENDBRANCH  30  31
ENDBRANCH  26  30
ENDBRANCH  25  26
BRANCH  25  33
HETATM   33  O3  UNL     1      -7.936 -10.653   8.446  1.00  0.00    -0.393 OA
HETATM   34  H9  UNL     1      -7.754 -11.196   7.662  1.00  0.00     0.210 HD
ENDBRANCH  25  33
ENDBRANCH  24  25
ENDBRANCH  22  24
ENDBRANCH   1  22
BRANCH  12  35
HETATM   35  O4  UNL     1      -7.529 -10.621  -2.730  1.00  0.00    -0.395 OA
HETATM   36  H35 UNL     1      -8.111  -9.882  -2.975  1.00  0.00     0.210 HD
ENDBRANCH  12  35
TORSDOF 9
ENDMDL
MODEL 7
REMARK minimizedAffinity -8.3236866
REMARK CNNscore 0.242367774
REMARK CNNaffinity 6.68470764
REMARK  9 active torsions:
REMARK  status: ('A' for Active; 'I' for Inactive)
REMARK    1  A    between atoms: C2_2  and  C4_4 
REMARK    2  A    between atoms: C4_4  and  O1_5 
REMARK    3  A    between atoms: C4_4  and  C5_7 
REMARK    4  A    between atoms: O1_5  and  O2_6 
REMARK    5  A    between atoms: C5_7  and  O3_8 
REMARK    6  A    between atoms: C5_7  and  C6_9 
REMARK    7  A    between atoms: C6_9  and  C7_10 
REMARK    8  A    between atoms: C7_10  and  C9_12 
REMARK    9  A    between atoms: C20_23  and  O4_24 
ROOT
HETATM    1  C9  UNL     1       0.487   7.200  14.772  1.00  0.00    -0.002 C 
HETATM    2  C10 UNL     1       0.463   8.101  16.045  1.00  0.00     0.006 C 
HETATM    3  C11 UNL     1      -0.939   8.727  16.156  1.00  0.00     0.011 C 
HETATM    4  C12 UNL     1      -1.804   7.927  15.173  1.00  0.00    -0.032 C 
HETATM    5  C13 UNL     1      -2.229   6.604  15.905  1.00  0.00     0.016 C 
HETATM    6  C14 UNL     1      -3.089   8.650  14.646  1.00  0.00     0.004 C 
HETATM    7  C15 UNL     1      -4.004   9.116  15.809  1.00  0.00     0.006 C 
HETATM    8  C16 UNL     1      -5.500   8.847  15.692  1.00  0.00     0.006 C 
HETATM    9  C17 UNL     1      -5.786   7.424  15.204  1.00  0.00     0.001 C 
HETATM   10  C18 UNL     1      -7.297   7.121  15.038  1.00  0.00     0.015 C 
HETATM   11  C19 UNL     1      -8.158   7.552  16.230  1.00  0.00     0.013 C 
HETATM   12  C20 UNL     1      -7.513   5.613  14.767  1.00  0.00     0.122 C 
HETATM   13  C21 UNL     1      -6.271   4.896  14.233  1.00  0.00     0.033 C 
HETATM   14  C22 UNL     1      -5.455   5.763  13.276  1.00  0.00     0.013 C 
HETATM   15  C23 UNL     1      -5.105   7.129  13.860  1.00  0.00    -0.027 A 
HETATM   16  C24 UNL     1      -5.006   8.275  12.874  1.00  0.00     0.021 A 
HETATM   17  C25 UNL     1      -3.743   7.777  13.546  1.00  0.00    -0.027 A 
HETATM   18  C26 UNL     1      -2.769   7.219  12.494  1.00  0.00     0.011 C 
HETATM   19  C27 UNL     1      -1.434   6.688  13.029  1.00  0.00     0.011 C 
HETATM   20  C28 UNL     1      -0.779   7.690  13.994  1.00  0.00    -0.032 C 
HETATM   21  C29 UNL     1      -0.407   8.984  13.206  1.00  0.00     0.016 C 
ENDROOT
BRANCH   1  22
HETATM   22  C7  UNL     1       1.888   7.205  14.080  1.00  0.00    -0.011 C 
HETATM   23  C8  UNL     1       2.681   8.478  14.388  1.00  0.00     0.010 C 
BRANCH  22  24
HETATM   24  C6  UNL     1       1.727   7.031  12.545  1.00  0.00     0.039 C 
BRANCH  24  25
HETATM   25  C5  UNL     1       2.982   6.619  11.743  1.00  0.00     0.154 C 
BRANCH  25  26
HETATM   26  C4  UNL     1       2.655   5.845  10.429  1.00  0.00     0.216 C 
BRANCH  26  27
HETATM   27  C2  UNL     1       1.895   6.592   9.331  1.00  0.00    -0.059 C 
HETATM   28  C1  UNL     1       0.846   7.409   9.530  1.00  0.00     0.016 C 
HETATM   29  C3  UNL     1       2.430   6.392   7.936  1.00  0.00     0.045 C 
ENDBRANCH  26  27
BRANCH  26  30
HETATM   30  O1  UNL     1       1.909   4.663  10.775  1.00  0.00    -0.231 OA
BRANCH  30  31
HETATM   31  O2  UNL     1       2.638   3.521  10.231  1.00  0.00    -0.250 OA
HETATM   32  H7  UNL     1       1.885   3.149   9.735  1.00  0.00     0.253 HD
ENDBRANCH  30  31
ENDBRANCH  26  30
ENDBRANCH  25  26
BRANCH  25  33
HETATM   33  O3  UNL     1       3.714   7.829  11.464  1.00  0.00    -0.393 OA
HETATM   34  H9  UNL     1       3.819   8.313  12.299  1.00  0.00     0.210 HD
ENDBRANCH  25  33
ENDBRANCH  24  25
ENDBRANCH  22  24
ENDBRANCH   1  22
BRANCH  12  35
HETATM   35  O4  UNL     1      -8.587   5.476  13.836  1.00  0.00    -0.395 OA
HETATM   36  H35 UNL     1      -8.757   4.526  13.719  1.00  0.00     0.210 HD
ENDBRANCH  12  35
TORSDOF 9
ENDMDL
MODEL 8
REMARK minimizedAffinity -7.03339958
REMARK CNNscore 0.23808834
REMARK CNNaffinity 5.45984125
REMARK  9 active torsions:
REMARK  status: ('A' for Active; 'I' for Inactive)
REMARK    1  A    between atoms: C2_2  and  C4_4 
REMARK    2  A    between atoms: C4_4  and  O1_5 
REMARK    3  A    between atoms: C4_4  and  C5_7 
REMARK    4  A    between atoms: O1_5  and  O2_6 
REMARK    5  A    between atoms: C5_7  and  O3_8 
REMARK    6  A    between atoms: C5_7  and  C6_9 
REMARK    7  A    between atoms: C6_9  and  C7_10 
REMARK    8  A    between atoms: C7_10  and  C9_12 
REMARK    9  A    between atoms: C20_23  and  O4_24 
ROOT
HETATM    1  C9  UNL     1       5.606   8.755  12.863  1.00  0.00    -0.002 C 
HETATM    2  C10 UNL     1       6.823   7.853  12.493  1.00  0.00     0.006 C 
HETATM    3  C11 UNL     1       8.081   8.471  13.131  1.00  0.00     0.011 C 
HETATM    4  C12 UNL     1       7.545   9.500  14.136  1.00  0.00    -0.032 C 
HETATM    5  C13 UNL     1       7.153   8.711  15.436  1.00  0.00     0.016 C 
HETATM    6  C14 UNL     1       8.528  10.656  14.522  1.00  0.00     0.004 C 
HETATM    7  C15 UNL     1       9.869  10.110  15.076  1.00  0.00     0.006 C 
HETATM    8  C16 UNL     1      10.438  10.755  16.335  1.00  0.00     0.006 C 
HETATM    9  C17 UNL     1       9.359  10.964  17.403  1.00  0.00     0.001 C 
HETATM   10  C18 UNL     1       9.890  11.649  18.688  1.00  0.00     0.015 C 
HETATM   11  C19 UNL     1      11.191  11.047  19.229  1.00  0.00     0.013 C 
HETATM   12  C20 UNL     1       8.809  11.618  19.795  1.00  0.00     0.122 C 
HETATM   13  C21 UNL     1       7.388  11.418  19.266  1.00  0.00     0.033 C 
HETATM   14  C22 UNL     1       7.143  12.139  17.942  1.00  0.00     0.013 C 
HETATM   15  C23 UNL     1       8.188  11.806  16.880  1.00  0.00    -0.027 A 
HETATM   16  C24 UNL     1       8.518  12.908  15.895  1.00  0.00     0.021 A 
HETATM   17  C25 UNL     1       7.774  11.685  15.400  1.00  0.00    -0.027 A 
HETATM   18  C26 UNL     1       6.382  12.089  14.881  1.00  0.00     0.011 C 
HETATM   19  C27 UNL     1       5.514  10.950  14.333  1.00  0.00     0.011 C 
HETATM   20  C28 UNL     1       6.300  10.070  13.348  1.00  0.00    -0.032 C 
HETATM   21  C29 UNL     1       6.676  10.922  12.096  1.00  0.00     0.016 C 
ENDROOT
BRANCH   1  22
HETATM   22  C7  UNL     1       4.544   8.800  11.718  1.00  0.00    -0.011 C 
HETATM   23  C8  UNL     1       3.136   8.467  12.220  1.00  0.00     0.010 C 
BRANCH  22  24
HETATM   24  C6  UNL     1       4.950   7.828  10.575  1.00  0.00     0.039 C 
BRANCH  24  25
HETATM   25  C5  UNL     1       4.140   6.520  10.436  1.00  0.00     0.154 C 
BRANCH  25  26
HETATM   26  C4  UNL     1       3.365   6.407   9.088  1.00  0.00     0.216 C 
BRANCH  26  27
HETATM   27  C2  UNL     1       2.252   7.422   8.817  1.00  0.00    -0.059 C 
HETATM   28  C1  UNL     1       1.061   7.455   9.441  1.00  0.00     0.016 C 
HETATM   29  C3  UNL     1       2.582   8.472   7.788  1.00  0.00     0.045 C 
ENDBRANCH  26  27
BRANCH  26  30
HETATM   30  O1  UNL     1       2.805   5.083   8.997  1.00  0.00    -0.231 OA
BRANCH  30  31
HETATM   31  O2  UNL     1       3.655   4.320   8.088  1.00  0.00    -0.250 OA
HETATM   32  H7  UNL     1       2.936   4.038   7.492  1.00  0.00     0.253 HD
ENDBRANCH  30  31
ENDBRANCH  26  30
ENDBRANCH  25  26
BRANCH  25  33
HETATM   33  O3  UNL     1       5.074   5.433  10.590  1.00  0.00    -0.393 OA
HETATM   34  H9  UNL     1       5.586   5.593  11.399  1.00  0.00     0.210 HD
ENDBRANCH  25  33
ENDBRANCH  24  25
ENDBRANCH  22  24
ENDBRANCH   1  22
BRANCH  12  35
HETATM   35  O4  UNL     1       8.884  12.843  20.526  1.00  0.00    -0.395 OA
HETATM   36  H35 UNL     1       8.245  12.790  21.257  1.00  0.00     0.210 HD
ENDBRANCH  12  35
TORSDOF 9
ENDMDL
MODEL 9
REMARK minimizedAffinity -6.80810261
REMARK CNNscore 0.229884535
REMARK CNNaffinity 5.61552382
REMARK  9 active torsions:
REMARK  status: ('A' for Active; 'I' for Inactive)
REMARK    1  A    between atoms: C2_2  and  C4_4 
REMARK    2  A    between atoms: C4_4  and  O1_5 
REMARK    3  A    between atoms: C4_4  and  C5_7 
REMARK    4  A    between atoms: O1_5  and  O2_6 
REMARK    5  A    between atoms: C5_7  and  O3_8 
REMARK    6  A    between atoms: C5_7  and  C6_9 
REMARK    7  A    between atoms: C6_9  and  C7_10 
REMARK    8  A    between atoms: C7_10  and  C9_12 
REMARK    9  A    between atoms: C20_23  and  O4_24 
ROOT
HETATM    1  C9  UNL     1     -18.223   3.797  14.016  1.00  0.00    -0.002 C 
HETATM    2  C10 UNL     1     -18.137   3.383  12.515  1.00  0.00     0.006 C 
HETATM    3  C11 UNL     1     -17.232   2.141  12.418  1.00  0.00     0.011 C 
HETATM    4  C12 UNL     1     -17.093   1.645  13.864  1.00  0.00    -0.032 C 
HETATM    5  C13 UNL     1     -18.379   0.803  14.188  1.00  0.00     0.016 C 
HETATM    6  C14 UNL     1     -15.827   0.774  14.170  1.00  0.00     0.004 C 
HETATM    7  C15 UNL     1     -15.740  -0.461  13.236  1.00  0.00     0.006 C 
HETATM    8  C16 UNL     1     -15.405  -1.809  13.865  1.00  0.00     0.006 C 
HETATM    9  C17 UNL     1     -16.203  -2.052  15.149  1.00  0.00     0.001 C 
HETATM   10  C18 UNL     1     -15.866  -3.398  15.839  1.00  0.00     0.015 C 
HETATM   11  C19 UNL     1     -15.838  -4.600  14.890  1.00  0.00     0.013 C 
HETATM   12  C20 UNL     1     -16.864  -3.674  16.989  1.00  0.00     0.122 C 
HETATM   13  C21 UNL     1     -17.575  -2.421  17.505  1.00  0.00     0.033 C 
HETATM   14  C22 UNL     1     -16.668  -1.192  17.522  1.00  0.00     0.013 C 
HETATM   15  C23 UNL     1     -15.985  -0.936  16.181  1.00  0.00    -0.027 A 
HETATM   16  C24 UNL     1     -14.606  -0.313  16.239  1.00  0.00     0.021 A 
HETATM   17  C25 UNL     1     -15.756   0.507  15.694  1.00  0.00    -0.027 A 
HETATM   18  C26 UNL     1     -15.992   1.741  16.583  1.00  0.00     0.011 C 
HETATM   19  C27 UNL     1     -17.125   2.678  16.144  1.00  0.00     0.011 C 
HETATM   20  C28 UNL     1     -17.025   3.015  14.648  1.00  0.00    -0.032 C 
HETATM   21  C29 UNL     1     -15.716   3.827  14.396  1.00  0.00     0.016 C 
ENDROOT
BRANCH   1  22
HETATM   22  C7  UNL     1     -18.332   5.347  14.188  1.00  0.00    -0.011 C 
HETATM   23  C8  UNL     1     -19.490   5.748  15.105  1.00  0.00     0.010 C 
BRANCH  22  24
HETATM   24  C6  UNL     1     -18.486   6.028  12.800  1.00  0.00     0.039 C 
BRANCH  24  25
HETATM   25  C5  UNL     1     -17.585   7.248  12.506  1.00  0.00     0.154 C 
BRANCH  25  26
HETATM   26  C4  UNL     1     -16.101   6.868  12.208  1.00  0.00     0.216 C 
BRANCH  26  27
HETATM   27  C2  UNL     1     -15.057   7.175  13.284  1.00  0.00    -0.059 C 
HETATM   28  C1  UNL     1     -13.741   6.918  13.183  1.00  0.00     0.016 C 
HETATM   29  C3  UNL     1     -15.592   7.854  14.518  1.00  0.00     0.045 C 
ENDBRANCH  26  27
BRANCH  26  30
HETATM   30  O1  UNL     1     -15.704   7.522  10.988  1.00  0.00    -0.231 OA
BRANCH  30  31
HETATM   31  O2  UNL     1     -15.672   8.956  11.260  1.00  0.00    -0.250 OA
HETATM   32  H7  UNL     1     -16.260   9.210  10.525  1.00  0.00     0.253 HD
ENDBRANCH  30  31
ENDBRANCH  26  30
ENDBRANCH  25  26
BRANCH  25  33
HETATM   33  O3  UNL     1     -18.176   7.944  11.391  1.00  0.00    -0.393 OA
HETATM   34  H9  UNL     1     -19.115   8.083  11.591  1.00  0.00     0.210 HD
ENDBRANCH  25  33
ENDBRANCH  24  25
ENDBRANCH  22  24
ENDBRANCH   1  22
BRANCH  12  35
HETATM   35  O4  UNL     1     -16.151  -4.299  18.058  1.00  0.00    -0.395 OA
HETATM   36  H35 UNL     1     -16.796  -4.525  18.750  1.00  0.00     0.210 HD
ENDBRANCH  12  35
TORSDOF 9
ENDMDL
