MODEL 1
REMARK minimizedAffinity -7.51054907
REMARK CNNscore 0.781755507
REMARK CNNaffinity 6.56753874
REMARK  13 active torsions:
REMARK  status: ('A' for Active; 'I' for Inactive)
REMARK    1  A    between atoms: N1_2  and  C2_3 
REMARK    2  A    between atoms: C2_3  and  C3_4 
REMARK    3  A    between atoms: C3_4  and  C4_5 
REMARK    4  A    between atoms: C19_22  and  C23_27 
REMARK    5  A    between atoms: C20_23  and  O3_24 
REMARK    6  A    between atoms: C25_29  and  O4_30 
REMARK    7  A    between atoms: C27_32  and  C28_33 
REMARK    8  A    between atoms: C28_33  and  C30_35 
REMARK    9  A    between atoms: C30_35  and  C31_36 
REMARK   10  A    between atoms: C31_36  and  O5_37 
REMARK   11  A    between atoms: C31_36  and  C32_38 
REMARK   12  A    between atoms: C33_39  and  C35_41 
REMARK   13  A    between atoms: C35_41  and  O7_43 
ROOT
HETATM    1  C4  UNL     1      -1.503  52.980 -10.194  1.00  0.00     0.023 C 
HETATM    2  C5  UNL     1      -1.408  52.611 -11.696  1.00  0.00     0.024 C 
HETATM    3  C6  UNL     1      -1.192  51.719  -9.366  1.00  0.00     0.135 C 
HETATM    4  O1  UNL     1      -2.080  51.040  -8.842  1.00  0.00    -0.297 OA
HETATM    5  C7  UNL     1       0.253  51.312  -9.187  1.00  0.00     0.080 C 
HETATM    6  C8  UNL     1       1.201  52.148 -10.027  1.00  0.00     0.022 C 
HETATM    7  C9  UNL     1       1.088  53.659  -9.710  1.00  0.00    -0.004 C 
HETATM    8  C10 UNL     1       1.812  54.454 -10.868  1.00  0.00     0.015 C 
HETATM    9  C11 UNL     1       3.302  54.148 -11.121  1.00  0.00     0.001 C 
HETATM   10  C12 UNL     1       4.219  55.382 -11.135  1.00  0.00     0.000 C 
HETATM   11  C13 UNL     1       4.903  55.691  -9.791  1.00  0.00     0.001 C 
HETATM   12  C14 UNL     1       3.980  56.334  -8.744  1.00  0.00     0.011 C 
HETATM   13  C15 UNL     1       3.866  55.698  -7.282  1.00  0.00    -0.016 C 
HETATM   14  C16 UNL     1       4.155  54.199  -7.243  1.00  0.00     0.094 C 
HETATM   15  C17 UNL     1       3.050  53.400  -7.912  1.00  0.00     0.157 C 
HETATM   16  O2  UNL     1       3.161  52.179  -7.991  1.00  0.00    -0.293 OA
HETATM   17  C18 UNL     1       1.802  54.107  -8.402  1.00  0.00     0.003 C 
HETATM   18  C19 UNL     1       1.427  55.208  -7.699  1.00  0.00    -0.029 C 
HETATM   19  C20 UNL     1       0.096  55.843  -7.969  1.00  0.00     0.149 C 
HETATM   20  C21 UNL     1      -0.899  54.801  -8.462  1.00  0.00     0.043 C 
HETATM   21  C22 UNL     1      -0.462  54.104  -9.766  1.00  0.00     0.017 C 
HETATM   22  C23 UNL     1       2.388  55.875  -6.700  1.00  0.00     0.017 C 
HETATM   23  C24 UNL     1       2.116  55.211  -5.316  1.00  0.00     0.023 C 
HETATM   24  C25 UNL     1       2.363  57.424  -6.543  1.00  0.00     0.132 C 
HETATM   25  C26 UNL     1       3.774  57.796  -6.044  1.00  0.00     0.038 C 
HETATM   26  C27 UNL     1       4.680  56.551  -6.254  1.00  0.00     0.002 C 
ENDROOT
BRANCH  26  27
HETATM   27  C28 UNL     1       6.160  56.918  -6.554  1.00  0.00    -0.011 C 
HETATM   28  C29 UNL     1       7.072  55.691  -6.655  1.00  0.00     0.010 C 
BRANCH  27  29
HETATM   29  C30 UNL     1       6.747  57.952  -5.554  1.00  0.00     0.040 C 
BRANCH  29  30
HETATM   30  C31 UNL     1       7.698  57.451  -4.452  1.00  0.00     0.142 C 
BRANCH  30  31
HETATM   31  O5  UNL     1       7.077  57.687  -3.191  1.00  0.00    -0.392 OA
HETATM   32  H48 UNL     1       7.694  57.368  -2.509  1.00  0.00     0.210 HD
ENDBRANCH  30  31
BRANCH  30  33
HETATM   33  C32 UNL     1       9.073  58.053  -4.452  1.00  0.00     0.018 C 
HETATM   34  C33 UNL     1      10.247  57.489  -4.798  1.00  0.00     0.010 C 
HETATM   35  C34 UNL     1      10.463  56.062  -5.201  1.00  0.00     0.055 C 
BRANCH  34  36
HETATM   36  C35 UNL     1      11.443  58.365  -4.714  1.00  0.00     0.171 C 
HETATM   37  O6  UNL     1      11.448  59.576  -4.565  1.00  0.00    -0.646 OA
BRANCH  36  38
HETATM   38  O7  UNL     1      12.588  57.673  -4.842  1.00  0.00    -0.773 OA
HETATM   39  H53 UNL     1      13.283  58.361  -4.771  1.00  0.00     0.167 HD
ENDBRANCH  36  38
ENDBRANCH  34  36
ENDBRANCH  30  33
ENDBRANCH  29  30
ENDBRANCH  27  29
ENDBRANCH  26  27
BRANCH  24  40
HETATM   40  O4  UNL     1       1.397  57.907  -5.622  1.00  0.00    -0.394 OA
HETATM   41  H37 UNL     1       0.535  57.538  -5.919  1.00  0.00     0.210 HD
ENDBRANCH  24  40
BRANCH  19  42
HETATM   42  O3  UNL     1      -0.423  56.417  -6.772  1.00  0.00    -0.391 OA
HETATM   43  H29 UNL     1      -0.901  55.718  -6.290  1.00  0.00     0.210 HD
ENDBRANCH  19  42
BRANCH   1  44
HETATM   44  C3  UNL     1      -2.996  53.384  -9.926  1.00  0.00     0.047 C 
BRANCH  44  45
HETATM   45  C2  UNL     1      -4.003  52.904 -10.986  1.00  0.00     0.270 C 
BRANCH  45  46
HETATM   46  N1  UNL     1      -4.747  51.712 -10.570  1.00  0.00     0.079 N 
HETATM   47  C1  UNL     1      -4.356  50.512 -11.303  1.00  0.00     0.306 C 
HETATM   48  H4  UNL     1      -5.744  51.876 -10.725  1.00  0.00     0.315 HD
ENDBRANCH  45  46
ENDBRANCH  44  45
ENDBRANCH   1  44
TORSDOF 13
ENDMDL
MODEL 2
REMARK minimizedAffinity -7.38325787
REMARK CNNscore 0.776322067
REMARK CNNaffinity 7.40655899
REMARK  13 active torsions:
REMARK  status: ('A' for Active; 'I' for Inactive)
REMARK    1  A    between atoms: N1_2  and  C2_3 
REMARK    2  A    between atoms: C2_3  and  C3_4 
REMARK    3  A    between atoms: C3_4  and  C4_5 
REMARK    4  A    between atoms: C19_22  and  C23_27 
REMARK    5  A    between atoms: C20_23  and  O3_24 
REMARK    6  A    between atoms: C25_29  and  O4_30 
REMARK    7  A    between atoms: C27_32  and  C28_33 
REMARK    8  A    between atoms: C28_33  and  C30_35 
REMARK    9  A    between atoms: C30_35  and  C31_36 
REMARK   10  A    between atoms: C31_36  and  O5_37 
REMARK   11  A    between atoms: C31_36  and  C32_38 
REMARK   12  A    between atoms: C33_39  and  C35_41 
REMARK   13  A    between atoms: C35_41  and  O7_43 
ROOT
HETATM    1  C4  UNL     1      -1.202  49.046 -15.768  1.00  0.00     0.023 C 
HETATM    2  C5  UNL     1       0.308  49.018 -16.117  1.00  0.00     0.024 C 
HETATM    3  C6  UNL     1      -1.672  50.512 -15.775  1.00  0.00     0.135 C 
HETATM    4  O1  UNL     1      -1.831  51.158 -14.735  1.00  0.00    -0.297 OA
HETATM    5  C7  UNL     1      -1.956  51.172 -17.106  1.00  0.00     0.080 C 
HETATM    6  C8  UNL     1      -1.554  50.302 -18.283  1.00  0.00     0.022 C 
HETATM    7  C9  UNL     1      -2.268  48.929 -18.270  1.00  0.00    -0.004 C 
HETATM    8  C10 UNL     1      -1.517  47.981 -19.287  1.00  0.00     0.015 C 
HETATM    9  C11 UNL     1      -1.428  48.437 -20.756  1.00  0.00     0.001 C 
HETATM   10  C12 UNL     1      -1.915  47.401 -21.783  1.00  0.00     0.000 C 
HETATM   11  C13 UNL     1      -3.381  47.566 -22.218  1.00  0.00     0.001 C 
HETATM   12  C14 UNL     1      -4.408  47.085 -21.180  1.00  0.00     0.011 C 
HETATM   13  C15 UNL     1      -5.589  48.056 -20.715  1.00  0.00    -0.016 C 
HETATM   14  C16 UNL     1      -5.242  49.539 -20.831  1.00  0.00     0.094 C 
HETATM   15  C17 UNL     1      -4.205  49.952 -19.801  1.00  0.00     0.157 C 
HETATM   16  O2  UNL     1      -3.798  51.112 -19.797  1.00  0.00    -0.293 OA
HETATM   17  C18 UNL     1      -3.745  48.956 -18.756  1.00  0.00     0.003 C 
HETATM   18  C19 UNL     1      -4.665  48.034 -18.367  1.00  0.00    -0.029 C 
HETATM   19  C20 UNL     1      -4.379  47.151 -17.190  1.00  0.00     0.149 C 
HETATM   20  C21 UNL     1      -3.456  47.860 -16.207  1.00  0.00     0.043 C 
HETATM   21  C22 UNL     1      -2.094  48.249 -16.816  1.00  0.00     0.017 C 
HETATM   22  C23 UNL     1      -5.952  47.810 -19.177  1.00  0.00     0.017 C 
HETATM   23  C24 UNL     1      -7.026  48.763 -18.571  1.00  0.00     0.023 C 
HETATM   24  C25 UNL     1      -6.541  46.372 -19.285  1.00  0.00     0.132 C 
HETATM   25  C26 UNL     1      -7.344  46.368 -20.601  1.00  0.00     0.038 C 
HETATM   26  C27 UNL     1      -6.934  47.640 -21.396  1.00  0.00     0.002 C 
ENDROOT
BRANCH  26  27
HETATM   27  C28 UNL     1      -6.993  47.442 -22.935  1.00  0.00    -0.011 C 
HETATM   28  C29 UNL     1      -7.557  46.075 -23.341  1.00  0.00     0.010 C 
BRANCH  27  29
HETATM   29  C30 UNL     1      -5.631  47.699 -23.638  1.00  0.00     0.040 C 
BRANCH  29  30
HETATM   30  C31 UNL     1      -5.559  48.781 -24.729  1.00  0.00     0.142 C 
BRANCH  30  31
HETATM   31  O5  UNL     1      -6.514  49.791 -24.416  1.00  0.00    -0.392 OA
HETATM   32  H48 UNL     1      -6.455  50.463 -25.118  1.00  0.00     0.210 HD
ENDBRANCH  30  31
BRANCH  30  33
HETATM   33  C32 UNL     1      -5.776  48.306 -26.136  1.00  0.00     0.018 C 
HETATM   34  C33 UNL     1      -4.916  48.297 -27.173  1.00  0.00     0.010 C 
HETATM   35  C34 UNL     1      -3.523  48.850 -27.176  1.00  0.00     0.055 C 
BRANCH  34  36
HETATM   36  C35 UNL     1      -5.431  47.732 -28.445  1.00  0.00     0.171 C 
HETATM   37  O6  UNL     1      -6.519  47.209 -28.621  1.00  0.00    -0.646 OA
BRANCH  36  38
HETATM   38  O7  UNL     1      -4.537  47.833 -29.443  1.00  0.00    -0.773 OA
HETATM   39  H53 UNL     1      -4.997  47.427 -30.208  1.00  0.00     0.167 HD
ENDBRANCH  36  38
ENDBRANCH  34  36
ENDBRANCH  30  33
ENDBRANCH  29  30
ENDBRANCH  27  29
ENDBRANCH  26  27
BRANCH  24  40
HETATM   40  O4  UNL     1      -7.394  46.003 -18.213  1.00  0.00    -0.394 OA
HETATM   41  H37 UNL     1      -6.871  46.143 -17.392  1.00  0.00     0.210 HD
ENDBRANCH  24  40
BRANCH  19  42
HETATM   42  O3  UNL     1      -5.591  46.838 -16.509  1.00  0.00    -0.391 OA
HETATM   43  H29 UNL     1      -5.770  47.556 -15.874  1.00  0.00     0.210 HD
ENDBRANCH  19  42
BRANCH   1  44
HETATM   44  C3  UNL     1      -1.332  48.499 -14.302  1.00  0.00     0.047 C 
BRANCH  44  45
HETATM   45  C2  UNL     1      -2.248  49.318 -13.377  1.00  0.00     0.270 C 
BRANCH  45  46
HETATM   46  N1  UNL     1      -1.636  49.612 -12.078  1.00  0.00     0.079 N 
HETATM   47  C1  UNL     1      -0.177  49.573 -12.115  1.00  0.00     0.306 C 
HETATM   48  H4  UNL     1      -1.961  48.922 -11.398  1.00  0.00     0.315 HD
ENDBRANCH  45  46
ENDBRANCH  44  45
ENDBRANCH   1  44
TORSDOF 13
ENDMDL
MODEL 3
REMARK minimizedAffinity -7.38334608
REMARK CNNscore 0.743034244
REMARK CNNaffinity 6.84955978
REMARK  13 active torsions:
REMARK  status: ('A' for Active; 'I' for Inactive)
REMARK    1  A    between atoms: N1_2  and  C2_3 
REMARK    2  A    between atoms: C2_3  and  C3_4 
REMARK    3  A    between atoms: C3_4  and  C4_5 
REMARK    4  A    between atoms: C19_22  and  C23_27 
REMARK    5  A    between atoms: C20_23  and  O3_24 
REMARK    6  A    between atoms: C25_29  and  O4_30 
REMARK    7  A    between atoms: C27_32  and  C28_33 
REMARK    8  A    between atoms: C28_33  and  C30_35 
REMARK    9  A    between atoms: C30_35  and  C31_36 
REMARK   10  A    between atoms: C31_36  and  O5_37 
REMARK   11  A    between atoms: C31_36  and  C32_38 
REMARK   12  A    between atoms: C33_39  and  C35_41 
REMARK   13  A    between atoms: C35_41  and  O7_43 
ROOT
HETATM    1  C4  UNL     1      -7.872  46.595 -30.144  1.00  0.00     0.023 C 
HETATM    2  C5  UNL     1      -8.398  47.110 -31.508  1.00  0.00     0.024 C 
HETATM    3  C6  UNL     1      -7.491  47.813 -29.283  1.00  0.00     0.135 C 
HETATM    4  O1  UNL     1      -6.321  48.180 -29.141  1.00  0.00    -0.297 OA
HETATM    5  C7  UNL     1      -8.595  48.575 -28.582  1.00  0.00     0.080 C 
HETATM    6  C8  UNL     1      -9.977  48.102 -28.992  1.00  0.00     0.022 C 
HETATM    7  C9  UNL     1     -10.188  46.594 -28.714  1.00  0.00    -0.004 C 
HETATM    8  C10 UNL     1     -11.476  46.129 -29.503  1.00  0.00     0.015 C 
HETATM    9  C11 UNL     1     -12.804  46.844 -29.186  1.00  0.00     0.001 C 
HETATM   10  C12 UNL     1     -13.972  45.907 -28.834  1.00  0.00     0.000 C 
HETATM   11  C13 UNL     1     -14.178  45.673 -27.327  1.00  0.00     0.001 C 
HETATM   12  C14 UNL     1     -13.159  44.715 -26.690  1.00  0.00     0.011 C 
HETATM   13  C15 UNL     1     -12.347  45.163 -25.388  1.00  0.00    -0.016 C 
HETATM   14  C16 UNL     1     -12.166  46.674 -25.270  1.00  0.00     0.094 C 
HETATM   15  C17 UNL     1     -11.203  47.205 -26.317  1.00  0.00     0.157 C 
HETATM   16  O2  UNL     1     -10.986  48.414 -26.370  1.00  0.00    -0.293 OA
HETATM   17  C18 UNL     1     -10.473  46.237 -27.227  1.00  0.00     0.003 C 
HETATM   18  C19 UNL     1     -10.194  45.017 -26.696  1.00  0.00    -0.029 C 
HETATM   19  C20 UNL     1      -9.290  44.076 -27.433  1.00  0.00     0.149 C 
HETATM   20  C21 UNL     1      -8.291  44.854 -28.281  1.00  0.00     0.043 C 
HETATM   21  C22 UNL     1      -8.957  45.757 -29.339  1.00  0.00     0.017 C 
HETATM   22  C23 UNL     1     -10.872  44.545 -25.399  1.00  0.00     0.017 C 
HETATM   23  C24 UNL     1      -9.941  44.984 -24.229  1.00  0.00     0.023 C 
HETATM   24  C25 UNL     1     -11.229  43.038 -25.236  1.00  0.00     0.132 C 
HETATM   25  C26 UNL     1     -12.406  43.014 -24.238  1.00  0.00     0.038 C 
HETATM   26  C27 UNL     1     -12.936  44.470 -24.116  1.00  0.00     0.002 C 
ENDROOT
BRANCH  26  27
HETATM   27  C28 UNL     1     -14.462  44.540 -23.833  1.00  0.00    -0.011 C 
HETATM   28  C29 UNL     1     -15.308  43.952 -24.968  1.00  0.00     0.010 C 
BRANCH  27  29
HETATM   29  C30 UNL     1     -14.952  45.969 -23.473  1.00  0.00     0.040 C 
BRANCH  29  30
HETATM   30  C31 UNL     1     -15.719  46.774 -24.538  1.00  0.00     0.142 C 
BRANCH  30  31
HETATM   31  O5  UNL     1     -15.532  48.160 -24.265  1.00  0.00    -0.392 OA
HETATM   32  H48 UNL     1     -16.027  48.651 -24.945  1.00  0.00     0.210 HD
ENDBRANCH  30  31
BRANCH  30  33
HETATM   33  C32 UNL     1     -17.187  46.480 -24.648  1.00  0.00     0.018 C 
HETATM   34  C33 UNL     1     -18.090  46.282 -23.668  1.00  0.00     0.010 C 
HETATM   35  C34 UNL     1     -17.808  46.233 -22.197  1.00  0.00     0.055 C 
BRANCH  34  36
HETATM   36  C35 UNL     1     -19.487  46.033 -24.106  1.00  0.00     0.171 C 
HETATM   37  O6  UNL     1     -20.258  45.210 -23.643  1.00  0.00    -0.646 OA
BRANCH  36  38
HETATM   38  O7  UNL     1     -19.844  46.825 -25.131  1.00  0.00    -0.773 OA
HETATM   39  H53 UNL     1     -20.770  46.559 -25.317  1.00  0.00     0.167 HD
ENDBRANCH  36  38
ENDBRANCH  34  36
ENDBRANCH  30  33
ENDBRANCH  29  30
ENDBRANCH  27  29
ENDBRANCH  26  27
BRANCH  24  40
HETATM   40  O4  UNL     1     -10.173  42.233 -24.735  1.00  0.00    -0.394 OA
HETATM   41  H37 UNL     1      -9.412  42.383 -25.339  1.00  0.00     0.210 HD
ENDBRANCH  24  40
BRANCH  19  42
HETATM   42  O3  UNL     1      -8.556  43.279 -26.508  1.00  0.00    -0.391 OA
HETATM   43  H29 UNL     1      -7.759  43.778 -26.252  1.00  0.00     0.210 HD
ENDBRANCH  19  42
BRANCH   1  44
HETATM   44  C3  UNL     1      -6.563  45.784 -30.448  1.00  0.00     0.047 C 
BRANCH  44  45
HETATM   45  C2  UNL     1      -6.558  45.029 -31.788  1.00  0.00     0.270 C 
BRANCH  45  46
HETATM   46  N1  UNL     1      -5.255  45.066 -32.460  1.00  0.00     0.079 N 
HETATM   47  C1  UNL     1      -4.604  46.368 -32.368  1.00  0.00     0.306 C 
HETATM   48  H4  UNL     1      -5.389  44.839 -33.448  1.00  0.00     0.315 HD
ENDBRANCH  45  46
ENDBRANCH  44  45
ENDBRANCH   1  44
TORSDOF 13
ENDMDL
MODEL 4
REMARK minimizedAffinity -6.95350266
REMARK CNNscore 0.711115777
REMARK CNNaffinity 6.97386694
REMARK  13 active torsions:
REMARK  status: ('A' for Active; 'I' for Inactive)
REMARK    1  A    between atoms: N1_2  and  C2_3 
REMARK    2  A    between atoms: C2_3  and  C3_4 
REMARK    3  A    between atoms: C3_4  and  C4_5 
REMARK    4  A    between atoms: C19_22  and  C23_27 
REMARK    5  A    between atoms: C20_23  and  O3_24 
REMARK    6  A    between atoms: C25_29  and  O4_30 
REMARK    7  A    between atoms: C27_32  and  C28_33 
REMARK    8  A    between atoms: C28_33  and  C30_35 
REMARK    9  A    between atoms: C30_35  and  C31_36 
REMARK   10  A    between atoms: C31_36  and  O5_37 
REMARK   11  A    between atoms: C31_36  and  C32_38 
REMARK   12  A    between atoms: C33_39  and  C35_41 
REMARK   13  A    between atoms: C35_41  and  O7_43 
ROOT
HETATM    1  C4  UNL     1      -1.822  51.431 -10.980  1.00  0.00     0.023 C 
HETATM    2  C5  UNL     1      -2.774  50.597 -10.084  1.00  0.00     0.024 C 
HETATM    3  C6  UNL     1      -2.579  52.685 -11.453  1.00  0.00     0.135 C 
HETATM    4  O1  UNL     1      -3.067  52.772 -12.584  1.00  0.00    -0.297 OA
HETATM    5  C7  UNL     1      -2.718  53.849 -10.497  1.00  0.00     0.080 C 
HETATM    6  C8  UNL     1      -2.214  53.519  -9.104  1.00  0.00     0.022 C 
HETATM    7  C9  UNL     1      -0.731  53.077  -9.105  1.00  0.00    -0.004 C 
HETATM    8  C10 UNL     1      -0.422  52.408  -7.708  1.00  0.00     0.015 C 
HETATM    9  C11 UNL     1      -0.645  53.260  -6.443  1.00  0.00     0.001 C 
HETATM   10  C12 UNL     1       0.560  53.325  -5.489  1.00  0.00     0.000 C 
HETATM   11  C13 UNL     1       1.473  54.547  -5.690  1.00  0.00     0.001 C 
HETATM   12  C14 UNL     1       2.394  54.456  -6.917  1.00  0.00     0.011 C 
HETATM   13  C15 UNL     1       2.420  55.644  -7.986  1.00  0.00    -0.016 C 
HETATM   14  C16 UNL     1       1.115  56.434  -8.054  1.00  0.00     0.094 C 
HETATM   15  C17 UNL     1      -0.003  55.613  -8.673  1.00  0.00     0.157 C 
HETATM   16  O2  UNL     1      -1.126  56.105  -8.760  1.00  0.00    -0.293 OA
HETATM   17  C18 UNL     1       0.297  54.238  -9.235  1.00  0.00     0.003 C 
HETATM   18  C19 UNL     1       1.544  54.062  -9.746  1.00  0.00    -0.029 C 
HETATM   19  C20 UNL     1       1.862  52.818 -10.518  1.00  0.00     0.149 C 
HETATM   20  C21 UNL     1       0.609  52.280 -11.198  1.00  0.00     0.043 C 
HETATM   21  C22 UNL     1      -0.518  51.919 -10.210  1.00  0.00     0.017 C 
HETATM   22  C23 UNL     1       2.666  55.075  -9.460  1.00  0.00     0.017 C 
HETATM   23  C24 UNL     1       2.617  56.125 -10.612  1.00  0.00     0.023 C 
HETATM   24  C25 UNL     1       4.126  54.561  -9.292  1.00  0.00     0.132 C 
HETATM   25  C26 UNL     1       4.821  55.619  -8.410  1.00  0.00     0.038 C 
HETATM   26  C27 UNL     1       3.706  56.514  -7.799  1.00  0.00     0.002 C 
ENDROOT
BRANCH  26  27
HETATM   27  C28 UNL     1       4.070  57.064  -6.392  1.00  0.00    -0.011 C 
HETATM   28  C29 UNL     1       3.137  58.190  -5.931  1.00  0.00     0.010 C 
BRANCH  27  29
HETATM   29  C30 UNL     1       5.554  57.504  -6.273  1.00  0.00     0.040 C 
BRANCH  29  30
HETATM   30  C31 UNL     1       6.460  56.774  -5.265  1.00  0.00     0.142 C 
BRANCH  30  31
HETATM   31  O5  UNL     1       5.986  57.063  -3.953  1.00  0.00    -0.392 OA
HETATM   32  H48 UNL     1       6.572  56.597  -3.332  1.00  0.00     0.210 HD
ENDBRANCH  30  31
BRANCH  30  33
HETATM   33  C32 UNL     1       7.923  57.093  -5.351  1.00  0.00     0.018 C 
HETATM   34  C33 UNL     1       8.978  56.366  -4.934  1.00  0.00     0.010 C 
HETATM   35  C34 UNL     1       8.923  55.063  -4.196  1.00  0.00     0.055 C 
BRANCH  34  36
HETATM   36  C35 UNL     1      10.319  56.952  -5.189  1.00  0.00     0.171 C 
HETATM   37  O6  UNL     1      10.616  58.134  -5.143  1.00  0.00    -0.646 OA
BRANCH  36  38
HETATM   38  O7  UNL     1      11.227  56.016  -5.513  1.00  0.00    -0.773 OA
HETATM   39  H53 UNL     1      12.049  56.531  -5.655  1.00  0.00     0.167 HD
ENDBRANCH  36  38
ENDBRANCH  34  36
ENDBRANCH  30  33
ENDBRANCH  29  30
ENDBRANCH  27  29
ENDBRANCH  26  27
BRANCH  24  40
HETATM   40  O4  UNL     1       4.845  54.419 -10.507  1.00  0.00    -0.394 OA
HETATM   41  H37 UNL     1       4.295  53.834 -11.076  1.00  0.00     0.210 HD
ENDBRANCH  24  40
BRANCH  19  42
HETATM   42  O3  UNL     1       2.825  53.102 -11.528  1.00  0.00    -0.391 OA
HETATM   43  H29 UNL     1       2.346  53.417 -12.316  1.00  0.00     0.210 HD
ENDBRANCH  19  42
BRANCH   1  44
HETATM   44  C3  UNL     1      -1.504  50.548 -12.238  1.00  0.00     0.047 C 
BRANCH  44  45
HETATM   45  C2  UNL     1      -2.546  49.462 -12.554  1.00  0.00     0.270 C 
BRANCH  45  46
HETATM   46  N1  UNL     1      -3.390  49.796 -13.705  1.00  0.00     0.079 N 
HETATM   47  C1  UNL     1      -2.619  50.158 -14.890  1.00  0.00     0.306 C 
HETATM   48  H4  UNL     1      -3.990  50.585 -13.455  1.00  0.00     0.315 HD
ENDBRANCH  45  46
ENDBRANCH  44  45
ENDBRANCH   1  44
TORSDOF 13
ENDMDL
MODEL 5
REMARK minimizedAffinity -8.03663349
REMARK CNNscore 0.554415703
REMARK CNNaffinity 6.78172302
REMARK  13 active torsions:
REMARK  status: ('A' for Active; 'I' for Inactive)
REMARK    1  A    between atoms: N1_2  and  C2_3 
REMARK    2  A    between atoms: C2_3  and  C3_4 
REMARK    3  A    between atoms: C3_4  and  C4_5 
REMARK    4  A    between atoms: C19_22  and  C23_27 
REMARK    5  A    between atoms: C20_23  and  O3_24 
REMARK    6  A    between atoms: C25_29  and  O4_30 
REMARK    7  A    between atoms: C27_32  and  C28_33 
REMARK    8  A    between atoms: C28_33  and  C30_35 
REMARK    9  A    between atoms: C30_35  and  C31_36 
REMARK   10  A    between atoms: C31_36  and  O5_37 
REMARK   11  A    between atoms: C31_36  and  C32_38 
REMARK   12  A    between atoms: C33_39  and  C35_41 
REMARK   13  A    between atoms: C35_41  and  O7_43 
ROOT
HETATM    1  C4  UNL     1      -8.489  46.911 -25.162  1.00  0.00     0.023 C 
HETATM    2  C5  UNL     1      -9.834  47.239 -24.465  1.00  0.00     0.024 C 
HETATM    3  C6  UNL     1      -8.260  45.391 -25.078  1.00  0.00     0.135 C 
HETATM    4  O1  UNL     1      -7.495  44.884 -24.253  1.00  0.00    -0.297 OA
HETATM    5  C7  UNL     1      -8.995  44.496 -26.051  1.00  0.00     0.080 C 
HETATM    6  C8  UNL     1     -10.014  45.254 -26.881  1.00  0.00     0.022 C 
HETATM    7  C9  UNL     1      -9.373  46.410 -27.687  1.00  0.00    -0.004 C 
HETATM    8  C10 UNL     1     -10.536  47.348 -28.200  1.00  0.00     0.015 C 
HETATM    9  C11 UNL     1     -11.623  46.716 -29.092  1.00  0.00     0.001 C 
HETATM   10  C12 UNL     1     -11.874  47.449 -30.420  1.00  0.00     0.000 C 
HETATM   11  C13 UNL     1     -11.097  46.885 -31.623  1.00  0.00     0.001 C 
HETATM   12  C14 UNL     1      -9.606  47.260 -31.646  1.00  0.00     0.011 C 
HETATM   13  C15 UNL     1      -8.498  46.118 -31.800  1.00  0.00    -0.016 C 
HETATM   14  C16 UNL     1      -8.945  44.757 -31.273  1.00  0.00     0.094 C 
HETATM   15  C17 UNL     1      -9.051  44.751 -29.758  1.00  0.00     0.157 C 
HETATM   16  O2  UNL     1      -9.437  43.731 -29.191  1.00  0.00    -0.293 OA
HETATM   17  C18 UNL     1      -8.612  45.968 -28.970  1.00  0.00     0.003 C 
HETATM   18  C19 UNL     1      -7.602  46.698 -29.514  1.00  0.00    -0.029 C 
HETATM   19  C20 UNL     1      -6.954  47.784 -28.710  1.00  0.00     0.149 C 
HETATM   20  C21 UNL     1      -7.030  47.462 -27.223  1.00  0.00     0.043 C 
HETATM   21  C22 UNL     1      -8.473  47.316 -26.699  1.00  0.00     0.017 C 
HETATM   22  C23 UNL     1      -7.179  46.494 -30.978  1.00  0.00     0.017 C 
HETATM   23  C24 UNL     1      -6.053  45.416 -30.966  1.00  0.00     0.023 C 
HETATM   24  C25 UNL     1      -6.707  47.724 -31.809  1.00  0.00     0.132 C 
HETATM   25  C26 UNL     1      -6.997  47.348 -33.276  1.00  0.00     0.038 C 
HETATM   26  C27 UNL     1      -7.931  46.105 -33.257  1.00  0.00     0.002 C 
ENDROOT
BRANCH  26  27
HETATM   27  C28 UNL     1      -8.906  46.058 -34.466  1.00  0.00    -0.011 C 
HETATM   28  C29 UNL     1      -9.154  44.634 -34.978  1.00  0.00     0.010 C 
BRANCH  27  29
HETATM   29  C30 UNL     1      -8.478  46.989 -35.633  1.00  0.00     0.040 C 
BRANCH  29  30
HETATM   30  C31 UNL     1      -9.236  46.890 -36.969  1.00  0.00     0.142 C 
BRANCH  30  31
HETATM   31  O5  UNL     1      -8.299  47.084 -38.025  1.00  0.00    -0.392 OA
HETATM   32  H48 UNL     1      -8.797  47.021 -38.859  1.00  0.00     0.210 HD
ENDBRANCH  30  31
BRANCH  30  33
HETATM   33  C32 UNL     1     -10.386  47.839 -37.140  1.00  0.00     0.018 C 
HETATM   34  C33 UNL     1     -11.467  47.730 -37.937  1.00  0.00     0.010 C 
HETATM   35  C34 UNL     1     -11.738  46.634 -38.922  1.00  0.00     0.055 C 
BRANCH  34  36
HETATM   36  C35 UNL     1     -12.451  48.839 -37.859  1.00  0.00     0.171 C 
HETATM   37  O6  UNL     1     -13.446  48.880 -37.155  1.00  0.00    -0.646 OA
BRANCH  36  38
HETATM   38  O7  UNL     1     -12.147  49.846 -38.695  1.00  0.00    -0.773 OA
HETATM   39  H53 UNL     1     -12.866  50.496 -38.546  1.00  0.00     0.167 HD
ENDBRANCH  36  38
ENDBRANCH  34  36
ENDBRANCH  30  33
ENDBRANCH  29  30
ENDBRANCH  27  29
ENDBRANCH  26  27
BRANCH  24  40
HETATM   40  O4  UNL     1      -5.329  48.036 -31.668  1.00  0.00    -0.394 OA
HETATM   41  H37 UNL     1      -5.176  48.143 -30.703  1.00  0.00     0.210 HD
ENDBRANCH  24  40
BRANCH  19  42
HETATM   42  O3  UNL     1      -5.580  47.902 -29.066  1.00  0.00    -0.391 OA
HETATM   43  H29 UNL     1      -5.077  47.263 -28.529  1.00  0.00     0.210 HD
ENDBRANCH  19  42
BRANCH   1  44
HETATM   44  C3  UNL     1      -7.367  47.620 -24.323  1.00  0.00     0.047 C 
BRANCH  44  45
HETATM   45  C2  UNL     1      -7.724  49.026 -23.811  1.00  0.00     0.270 C 
BRANCH  45  46
HETATM   46  N1  UNL     1      -6.741  50.042 -24.196  1.00  0.00     0.079 N 
HETATM   47  C1  UNL     1      -5.363  49.572 -24.085  1.00  0.00     0.306 C 
HETATM   48  H4  UNL     1      -6.854  50.856 -23.590  1.00  0.00     0.315 HD
ENDBRANCH  45  46
ENDBRANCH  44  45
ENDBRANCH   1  44
TORSDOF 13
ENDMDL
MODEL 6
REMARK minimizedAffinity -8.11183453
REMARK CNNscore 0.503668427
REMARK CNNaffinity 6.62019396
REMARK  13 active torsions:
REMARK  status: ('A' for Active; 'I' for Inactive)
REMARK    1  A    between atoms: N1_2  and  C2_3 
REMARK    2  A    between atoms: C2_3  and  C3_4 
REMARK    3  A    between atoms: C3_4  and  C4_5 
REMARK    4  A    between atoms: C19_22  and  C23_27 
REMARK    5  A    between atoms: C20_23  and  O3_24 
REMARK    6  A    between atoms: C25_29  and  O4_30 
REMARK    7  A    between atoms: C27_32  and  C28_33 
REMARK    8  A    between atoms: C28_33  and  C30_35 
REMARK    9  A    between atoms: C30_35  and  C31_36 
REMARK   10  A    between atoms: C31_36  and  O5_37 
REMARK   11  A    between atoms: C31_36  and  C32_38 
REMARK   12  A    between atoms: C33_39  and  C35_41 
REMARK   13  A    between atoms: C35_41  and  O7_43 
ROOT
HETATM    1  C4  UNL     1      -1.390  48.393 -15.403  1.00  0.00     0.023 C 
HETATM    2  C5  UNL     1       0.091  48.772 -15.144  1.00  0.00     0.024 C 
HETATM    3  C6  UNL     1      -2.277  49.555 -14.919  1.00  0.00     0.135 C 
HETATM    4  O1  UNL     1      -2.876  49.521 -13.841  1.00  0.00    -0.297 OA
HETATM    5  C7  UNL     1      -2.421  50.770 -15.808  1.00  0.00     0.080 C 
HETATM    6  C8  UNL     1      -1.495  50.724 -17.010  1.00  0.00     0.022 C 
HETATM    7  C9  UNL     1      -1.726  49.467 -17.881  1.00  0.00    -0.004 C 
HETATM    8  C10 UNL     1      -0.495  49.321 -18.860  1.00  0.00     0.015 C 
HETATM    9  C11 UNL     1      -0.200  50.493 -19.816  1.00  0.00     0.001 C 
HETATM   10  C12 UNL     1      -0.075  50.101 -21.298  1.00  0.00     0.000 C 
HETATM   11  C13 UNL     1      -1.369  50.257 -22.116  1.00  0.00     0.001 C 
HETATM   12  C14 UNL     1      -2.413  49.158 -21.867  1.00  0.00     0.011 C 
HETATM   13  C15 UNL     1      -3.914  49.553 -21.483  1.00  0.00    -0.016 C 
HETATM   14  C16 UNL     1      -4.029  50.904 -20.781  1.00  0.00     0.094 C 
HETATM   15  C17 UNL     1      -3.455  50.854 -19.376  1.00  0.00     0.157 C 
HETATM   16  O2  UNL     1      -3.443  51.880 -18.699  1.00  0.00    -0.293 OA
HETATM   17  C18 UNL     1      -2.975  49.534 -18.807  1.00  0.00     0.003 C 
HETATM   18  C19 UNL     1      -3.626  48.424 -19.245  1.00  0.00    -0.029 C 
HETATM   19  C20 UNL     1      -3.374  47.105 -18.582  1.00  0.00     0.149 C 
HETATM   20  C21 UNL     1      -2.984  47.310 -17.123  1.00  0.00     0.043 C 
HETATM   21  C22 UNL     1      -1.707  48.154 -16.942  1.00  0.00     0.017 C 
HETATM   22  C23 UNL     1      -4.544  48.482 -20.478  1.00  0.00     0.017 C 
HETATM   23  C24 UNL     1      -5.975  48.803 -19.949  1.00  0.00     0.023 C 
HETATM   24  C25 UNL     1      -4.610  47.252 -21.431  1.00  0.00     0.132 C 
HETATM   25  C26 UNL     1      -5.029  47.830 -22.799  1.00  0.00     0.038 C 
HETATM   26  C27 UNL     1      -4.855  49.373 -22.719  1.00  0.00     0.002 C 
ENDROOT
BRANCH  26  27
HETATM   27  C28 UNL     1      -4.475  50.014 -24.082  1.00  0.00    -0.011 C 
HETATM   28  C29 UNL     1      -5.047  51.425 -24.260  1.00  0.00     0.010 C 
BRANCH  27  29
HETATM   29  C30 UNL     1      -4.838  49.121 -25.300  1.00  0.00     0.040 C 
BRANCH  29  30
HETATM   30  C31 UNL     1      -3.698  48.452 -26.089  1.00  0.00     0.142 C 
BRANCH  30  31
HETATM   31  O5  UNL     1      -2.477  49.093 -25.732  1.00  0.00    -0.392 OA
HETATM   32  H48 UNL     1      -1.771  48.659 -26.243  1.00  0.00     0.210 HD
ENDBRANCH  30  31
BRANCH  30  33
HETATM   33  C32 UNL     1      -3.848  48.454 -27.582  1.00  0.00     0.018 C 
HETATM   34  C33 UNL     1      -4.931  48.162 -28.328  1.00  0.00     0.010 C 
HETATM   35  C34 UNL     1      -6.255  47.678 -27.821  1.00  0.00     0.055 C 
BRANCH  34  36
HETATM   36  C35 UNL     1      -4.764  48.284 -29.799  1.00  0.00     0.171 C 
HETATM   37  O6  UNL     1      -4.751  47.370 -30.607  1.00  0.00    -0.646 OA
BRANCH  36  38
HETATM   38  O7  UNL     1      -4.598  49.560 -30.186  1.00  0.00    -0.773 OA
HETATM   39  H53 UNL     1      -4.498  49.495 -31.160  1.00  0.00     0.167 HD
ENDBRANCH  36  38
ENDBRANCH  34  36
ENDBRANCH  30  33
ENDBRANCH  29  30
ENDBRANCH  27  29
ENDBRANCH  26  27
BRANCH  24  40
HETATM   40  O4  UNL     1      -5.539  46.253 -21.040  1.00  0.00    -0.394 OA
HETATM   41  H37 UNL     1      -5.300  46.011 -20.118  1.00  0.00     0.210 HD
ENDBRANCH  24  40
BRANCH  19  42
HETATM   42  O3  UNL     1      -4.555  46.308 -18.615  1.00  0.00    -0.391 OA
HETATM   43  H29 UNL     1      -5.097  46.546 -17.841  1.00  0.00     0.210 HD
ENDBRANCH  19  42
BRANCH   1  44
HETATM   44  C3  UNL     1      -1.693  47.141 -14.506  1.00  0.00     0.047 C 
BRANCH  44  45
HETATM   45  C2  UNL     1      -0.461  46.319 -14.092  1.00  0.00     0.270 C 
BRANCH  45  46
HETATM   46  N1  UNL     1      -0.264  45.126 -14.921  1.00  0.00     0.079 N 
HETATM   47  C1  UNL     1      -1.076  43.992 -14.489  1.00  0.00     0.306 C 
HETATM   48  H4  UNL     1       0.720  44.855 -14.878  1.00  0.00     0.315 HD
ENDBRANCH  45  46
ENDBRANCH  44  45
ENDBRANCH   1  44
TORSDOF 13
ENDMDL
MODEL 7
REMARK minimizedAffinity -9.25240612
REMARK CNNscore 0.468492985
REMARK CNNaffinity 7.4361248
REMARK  13 active torsions:
REMARK  status: ('A' for Active; 'I' for Inactive)
REMARK    1  A    between atoms: N1_2  and  C2_3 
REMARK    2  A    between atoms: C2_3  and  C3_4 
REMARK    3  A    between atoms: C3_4  and  C4_5 
REMARK    4  A    between atoms: C19_22  and  C23_27 
REMARK    5  A    between atoms: C20_23  and  O3_24 
REMARK    6  A    between atoms: C25_29  and  O4_30 
REMARK    7  A    between atoms: C27_32  and  C28_33 
REMARK    8  A    between atoms: C28_33  and  C30_35 
REMARK    9  A    between atoms: C30_35  and  C31_36 
REMARK   10  A    between atoms: C31_36  and  O5_37 
REMARK   11  A    between atoms: C31_36  and  C32_38 
REMARK   12  A    between atoms: C33_39  and  C35_41 
REMARK   13  A    between atoms: C35_41  and  O7_43 
ROOT
HETATM    1  C4  UNL     1      -1.650  51.120 -25.213  1.00  0.00     0.023 C 
HETATM    2  C5  UNL     1      -2.059  49.810 -25.935  1.00  0.00     0.024 C 
HETATM    3  C6  UNL     1      -2.903  52.003 -25.070  1.00  0.00     0.135 C 
HETATM    4  O1  UNL     1      -3.125  52.959 -25.819  1.00  0.00    -0.297 OA
HETATM    5  C7  UNL     1      -3.886  51.687 -23.965  1.00  0.00     0.080 C 
HETATM    6  C8  UNL     1      -3.556  50.392 -23.246  1.00  0.00     0.022 C 
HETATM    7  C9  UNL     1      -2.135  50.407 -22.631  1.00  0.00    -0.004 C 
HETATM    8  C10 UNL     1      -1.754  48.922 -22.251  1.00  0.00     0.015 C 
HETATM    9  C11 UNL     1      -2.674  48.180 -21.261  1.00  0.00     0.001 C 
HETATM   10  C12 UNL     1      -1.952  47.555 -20.055  1.00  0.00     0.000 C 
HETATM   11  C13 UNL     1      -1.936  48.432 -18.791  1.00  0.00     0.001 C 
HETATM   12  C14 UNL     1      -0.936  49.598 -18.842  1.00  0.00     0.011 C 
HETATM   13  C15 UNL     1      -1.428  51.087 -18.532  1.00  0.00    -0.016 C 
HETATM   14  C16 UNL     1      -2.905  51.320 -18.842  1.00  0.00     0.094 C 
HETATM   15  C17 UNL     1      -3.168  51.314 -20.338  1.00  0.00     0.157 C 
HETATM   16  O2  UNL     1      -4.321  51.452 -20.741  1.00  0.00    -0.293 OA
HETATM   17  C18 UNL     1      -2.007  51.211 -21.306  1.00  0.00     0.003 C 
HETATM   18  C19 UNL     1      -0.835  51.761 -20.889  1.00  0.00    -0.029 C 
HETATM   19  C20 UNL     1       0.302  51.904 -21.855  1.00  0.00     0.149 C 
HETATM   20  C21 UNL     1      -0.225  52.064 -23.276  1.00  0.00     0.043 C 
HETATM   21  C22 UNL     1      -1.071  50.867 -23.754  1.00  0.00     0.017 C 
HETATM   22  C23 UNL     1      -0.622  52.147 -19.416  1.00  0.00     0.017 C 
HETATM   23  C24 UNL     1      -1.074  53.632 -19.279  1.00  0.00     0.023 C 
HETATM   24  C25 UNL     1       0.792  51.978 -18.785  1.00  0.00     0.132 C 
HETATM   25  C26 UNL     1       0.535  51.801 -17.274  1.00  0.00     0.038 C 
HETATM   26  C27 UNL     1      -0.983  51.517 -17.095  1.00  0.00     0.002 C 
ENDROOT
BRANCH  26  27
HETATM   27  C28 UNL     1      -1.291  50.598 -15.882  1.00  0.00    -0.011 C 
HETATM   28  C29 UNL     1      -2.773  50.604 -15.489  1.00  0.00     0.010 C 
BRANCH  27  29
HETATM   29  C30 UNL     1      -0.399  50.897 -14.646  1.00  0.00     0.040 C 
BRANCH  29  30
HETATM   30  C31 UNL     1       0.148  49.713 -13.829  1.00  0.00     0.142 C 
BRANCH  30  31
HETATM   31  O5  UNL     1      -0.611  49.615 -12.628  1.00  0.00    -0.392 OA
HETATM   32  H48 UNL     1      -0.248  48.864 -12.125  1.00  0.00     0.210 HD
ENDBRANCH  30  31
BRANCH  30  33
HETATM   33  C32 UNL     1       1.610  49.770 -13.495  1.00  0.00     0.018 C 
HETATM   34  C33 UNL     1       2.569  48.849 -13.714  1.00  0.00     0.010 C 
HETATM   35  C34 UNL     1       2.371  47.482 -14.293  1.00  0.00     0.055 C 
BRANCH  34  36
HETATM   36  C35 UNL     1       3.941  49.219 -13.285  1.00  0.00     0.171 C 
HETATM   37  O6  UNL     1       4.852  49.595 -14.004  1.00  0.00    -0.646 OA
BRANCH  36  38
HETATM   38  O7  UNL     1       4.112  49.079 -11.959  1.00  0.00    -0.773 OA
HETATM   39  H53 UNL     1       5.044  49.349 -11.816  1.00  0.00     0.167 HD
ENDBRANCH  36  38
ENDBRANCH  34  36
ENDBRANCH  30  33
ENDBRANCH  29  30
ENDBRANCH  27  29
ENDBRANCH  26  27
BRANCH  24  40
HETATM   40  O4  UNL     1       1.663  53.079 -18.987  1.00  0.00    -0.394 OA
HETATM   41  H37 UNL     1       1.692  53.224 -19.960  1.00  0.00     0.210 HD
ENDBRANCH  24  40
BRANCH  19  42
HETATM   42  O3  UNL     1       1.070  53.062 -21.537  1.00  0.00    -0.391 OA
HETATM   43  H29 UNL     1       0.655  53.825 -21.978  1.00  0.00     0.210 HD
ENDBRANCH  19  42
BRANCH   1  44
HETATM   44  C3  UNL     1      -0.640  51.856 -26.162  1.00  0.00     0.047 C 
BRANCH  44  45
HETATM   45  C2  UNL     1       0.679  51.108 -26.420  1.00  0.00     0.270 C 
BRANCH  45  46
HETATM   46  N1  UNL     1       1.838  52.002 -26.501  1.00  0.00     0.079 N 
HETATM   47  C1  UNL     1       2.586  51.853 -27.746  1.00  0.00     0.306 C 
HETATM   48  H4  UNL     1       2.465  51.800 -25.720  1.00  0.00     0.315 HD
ENDBRANCH  45  46
ENDBRANCH  44  45
ENDBRANCH   1  44
TORSDOF 13
ENDMDL
MODEL 8
REMARK minimizedAffinity -8.8002758
REMARK CNNscore 0.414127678
REMARK CNNaffinity 7.11374807
REMARK  13 active torsions:
REMARK  status: ('A' for Active; 'I' for Inactive)
REMARK    1  A    between atoms: N1_2  and  C2_3 
REMARK    2  A    between atoms: C2_3  and  C3_4 
REMARK    3  A    between atoms: C3_4  and  C4_5 
REMARK    4  A    between atoms: C19_22  and  C23_27 
REMARK    5  A    between atoms: C20_23  and  O3_24 
REMARK    6  A    between atoms: C25_29  and  O4_30 
REMARK    7  A    between atoms: C27_32  and  C28_33 
REMARK    8  A    between atoms: C28_33  and  C30_35 
REMARK    9  A    between atoms: C30_35  and  C31_36 
REMARK   10  A    between atoms: C31_36  and  O5_37 
REMARK   11  A    between atoms: C31_36  and  C32_38 
REMARK   12  A    between atoms: C33_39  and  C35_41 
REMARK   13  A    between atoms: C35_41  and  O7_43 
ROOT
HETATM    1  C4  UNL     1      -1.615  51.100 -25.386  1.00  0.00     0.023 C 
HETATM    2  C5  UNL     1      -2.046  49.824 -26.153  1.00  0.00     0.024 C 
HETATM    3  C6  UNL     1      -2.838  52.027 -25.264  1.00  0.00     0.135 C 
HETATM    4  O1  UNL     1      -2.996  53.008 -25.997  1.00  0.00    -0.297 OA
HETATM    5  C7  UNL     1      -3.871  51.723 -24.202  1.00  0.00     0.080 C 
HETATM    6  C8  UNL     1      -3.615  50.400 -23.505  1.00  0.00     0.022 C 
HETATM    7  C9  UNL     1      -2.218  50.347 -22.840  1.00  0.00    -0.004 C 
HETATM    8  C10 UNL     1      -1.907  48.840 -22.484  1.00  0.00     0.015 C 
HETATM    9  C11 UNL     1      -2.888  48.110 -21.546  1.00  0.00     0.001 C 
HETATM   10  C12 UNL     1      -2.235  47.431 -20.331  1.00  0.00     0.000 C 
HETATM   11  C13 UNL     1      -2.231  48.277 -19.046  1.00  0.00     0.001 C 
HETATM   12  C14 UNL     1      -1.186  49.404 -19.033  1.00  0.00     0.011 C 
HETATM   13  C15 UNL     1      -1.633  50.903 -18.703  1.00  0.00    -0.016 C 
HETATM   14  C16 UNL     1      -3.088  51.200 -19.059  1.00  0.00     0.094 C 
HETATM   15  C17 UNL     1      -3.298  51.239 -20.563  1.00  0.00     0.157 C 
HETATM   16  O2  UNL     1      -4.430  51.430 -21.002  1.00  0.00    -0.293 OA
HETATM   17  C18 UNL     1      -2.107  51.114 -21.492  1.00  0.00     0.003 C 
HETATM   18  C19 UNL     1      -0.931  51.609 -21.021  1.00  0.00    -0.029 C 
HETATM   19  C20 UNL     1       0.244  51.731 -21.942  1.00  0.00     0.149 C 
HETATM   20  C21 UNL     1      -0.225  51.944 -23.377  1.00  0.00     0.043 C 
HETATM   21  C22 UNL     1      -1.098  50.791 -23.914  1.00  0.00     0.017 C 
HETATM   22  C23 UNL     1      -0.757  51.952 -19.532  1.00  0.00     0.017 C 
HETATM   23  C24 UNL     1      -1.157  53.450 -19.374  1.00  0.00     0.023 C 
HETATM   24  C25 UNL     1       0.626  51.714 -18.857  1.00  0.00     0.132 C 
HETATM   25  C26 UNL     1       0.309  51.512 -17.361  1.00  0.00     0.038 C 
HETATM   26  C27 UNL     1      -1.224  51.282 -17.242  1.00  0.00     0.002 C 
ENDROOT
BRANCH  26  27
HETATM   27  C28 UNL     1      -1.610  50.347 -16.063  1.00  0.00    -0.011 C 
HETATM   28  C29 UNL     1      -2.827  50.848 -15.276  1.00  0.00     0.010 C 
BRANCH  27  29
HETATM   29  C30 UNL     1      -0.425  50.053 -15.103  1.00  0.00     0.040 C 
BRANCH  29  30
HETATM   30  C31 UNL     1      -0.196  48.602 -14.641  1.00  0.00     0.142 C 
BRANCH  30  31
HETATM   31  O5  UNL     1       0.079  47.809 -15.792  1.00  0.00    -0.392 OA
HETATM   32  H48 UNL     1       0.217  46.897 -15.480  1.00  0.00     0.210 HD
ENDBRANCH  30  31
BRANCH  30  33
HETATM   33  C32 UNL     1      -1.316  47.981 -13.860  1.00  0.00     0.018 C 
HETATM   34  C33 UNL     1      -2.351  47.239 -14.302  1.00  0.00     0.010 C 
HETATM   35  C34 UNL     1      -2.670  46.921 -15.730  1.00  0.00     0.055 C 
BRANCH  34  36
HETATM   36  C35 UNL     1      -3.289  46.742 -13.264  1.00  0.00     0.171 C 
HETATM   37  O6  UNL     1      -3.067  45.868 -12.442  1.00  0.00    -0.646 OA
BRANCH  36  38
HETATM   38  O7  UNL     1      -4.481  47.359 -13.321  1.00  0.00    -0.773 OA
HETATM   39  H53 UNL     1      -4.993  46.940 -12.597  1.00  0.00     0.167 HD
ENDBRANCH  36  38
ENDBRANCH  34  36
ENDBRANCH  30  33
ENDBRANCH  29  30
ENDBRANCH  27  29
ENDBRANCH  26  27
BRANCH  24  40
HETATM   40  O4  UNL     1       1.545  52.786 -19.001  1.00  0.00    -0.394 OA
HETATM   41  H37 UNL     1       1.614  52.952 -19.968  1.00  0.00     0.210 HD
ENDBRANCH  24  40
BRANCH  19  42
HETATM   42  O3  UNL     1       1.043  52.850 -21.570  1.00  0.00    -0.391 OA
HETATM   43  H29 UNL     1       0.673  53.639 -22.006  1.00  0.00     0.210 HD
ENDBRANCH  19  42
BRANCH   1  44
HETATM   44  C3  UNL     1      -0.544  51.819 -26.280  1.00  0.00     0.047 C 
BRANCH  44  45
HETATM   45  C2  UNL     1      -0.019  53.155 -25.726  1.00  0.00     0.270 C 
BRANCH  45  46
HETATM   46  N1  UNL     1       0.016  54.219 -26.734  1.00  0.00     0.079 N 
HETATM   47  C1  UNL     1      -0.331  53.747 -28.071  1.00  0.00     0.306 C 
HETATM   48  H4  UNL     1       0.958  54.612 -26.764  1.00  0.00     0.315 HD
ENDBRANCH  45  46
ENDBRANCH  44  45
ENDBRANCH   1  44
TORSDOF 13
ENDMDL
MODEL 9
REMARK minimizedAffinity -9.2100563
REMARK CNNscore 0.400041223
REMARK CNNaffinity 6.87293196
REMARK  13 active torsions:
REMARK  status: ('A' for Active; 'I' for Inactive)
REMARK    1  A    between atoms: N1_2  and  C2_3 
REMARK    2  A    between atoms: C2_3  and  C3_4 
REMARK    3  A    between atoms: C3_4  and  C4_5 
REMARK    4  A    between atoms: C19_22  and  C23_27 
REMARK    5  A    between atoms: C20_23  and  O3_24 
REMARK    6  A    between atoms: C25_29  and  O4_30 
REMARK    7  A    between atoms: C27_32  and  C28_33 
REMARK    8  A    between atoms: C28_33  and  C30_35 
REMARK    9  A    between atoms: C30_35  and  C31_36 
REMARK   10  A    between atoms: C31_36  and  O5_37 
REMARK   11  A    between atoms: C31_36  and  C32_38 
REMARK   12  A    between atoms: C33_39  and  C35_41 
REMARK   13  A    between atoms: C35_41  and  O7_43 
ROOT
HETATM    1  C4  UNL     1      -0.517  51.010 -15.712  1.00  0.00     0.023 C 
HETATM    2  C5  UNL     1      -1.774  50.796 -14.830  1.00  0.00     0.024 C 
HETATM    3  C6  UNL     1       0.205  49.659 -15.860  1.00  0.00     0.135 C 
HETATM    4  O1  UNL     1       1.210  49.373 -15.202  1.00  0.00    -0.297 OA
HETATM    5  C7  UNL     1      -0.336  48.657 -16.855  1.00  0.00     0.080 C 
HETATM    6  C8  UNL     1      -1.661  49.091 -17.455  1.00  0.00     0.022 C 
HETATM    7  C9  UNL     1      -1.563  50.463 -18.165  1.00  0.00    -0.004 C 
HETATM    8  C10 UNL     1      -3.032  50.989 -18.412  1.00  0.00     0.015 C 
HETATM    9  C11 UNL     1      -3.975  50.105 -19.252  1.00  0.00     0.001 C 
HETATM   10  C12 UNL     1      -4.650  50.822 -20.433  1.00  0.00     0.000 C 
HETATM   11  C13 UNL     1      -3.924  50.667 -21.780  1.00  0.00     0.001 C 
HETATM   12  C14 UNL     1      -2.659  51.529 -21.921  1.00  0.00     0.011 C 
HETATM   13  C15 UNL     1      -1.276  50.853 -22.352  1.00  0.00    -0.016 C 
HETATM   14  C16 UNL     1      -1.169  49.380 -21.966  1.00  0.00     0.094 C 
HETATM   15  C17 UNL     1      -1.035  49.204 -20.464  1.00  0.00     0.157 C 
HETATM   16  O2  UNL     1      -0.977  48.068 -19.999  1.00  0.00    -0.293 OA
HETATM   17  C18 UNL     1      -0.904  50.424 -19.573  1.00  0.00     0.003 C 
HETATM   18  C19 UNL     1      -0.282  51.499 -20.125  1.00  0.00    -0.029 C 
HETATM   19  C20 UNL     1       0.090  52.666 -19.261  1.00  0.00     0.149 C 
HETATM   20  C21 UNL     1       0.351  52.206 -17.832  1.00  0.00     0.043 C 
HETATM   21  C22 UNL     1      -0.869  51.531 -17.173  1.00  0.00     0.017 C 
HETATM   22  C23 UNL     1      -0.043  51.583 -21.642  1.00  0.00     0.017 C 
HETATM   23  C24 UNL     1       1.360  50.958 -21.903  1.00  0.00     0.023 C 
HETATM   24  C25 UNL     1      -0.130  52.968 -22.348  1.00  0.00     0.132 C 
HETATM   25  C26 UNL     1      -0.502  52.648 -23.810  1.00  0.00     0.038 C 
HETATM   26  C27 UNL     1      -0.965  51.164 -23.853  1.00  0.00     0.002 C 
ENDROOT
BRANCH  26  27
HETATM   27  C28 UNL     1      -2.042  50.894 -24.939  1.00  0.00    -0.011 C 
HETATM   28  C29 UNL     1      -3.146  51.957 -24.964  1.00  0.00     0.010 C 
BRANCH  27  29
HETATM   29  C30 UNL     1      -2.659  49.471 -24.848  1.00  0.00     0.040 C 
BRANCH  29  30
HETATM   30  C31 UNL     1      -3.117  48.783 -26.146  1.00  0.00     0.142 C 
BRANCH  30  31
HETATM   31  O5  UNL     1      -2.774  49.628 -27.241  1.00  0.00    -0.392 OA
HETATM   32  H48 UNL     1      -3.075  49.179 -28.050  1.00  0.00     0.210 HD
ENDBRANCH  30  31
BRANCH  30  33
HETATM   33  C32 UNL     1      -4.575  48.435 -26.221  1.00  0.00     0.018 C 
HETATM   34  C33 UNL     1      -5.304  48.053 -27.288  1.00  0.00     0.010 C 
HETATM   35  C34 UNL     1      -4.825  47.962 -28.705  1.00  0.00     0.055 C 
BRANCH  34  36
HETATM   36  C35 UNL     1      -6.734  47.751 -27.029  1.00  0.00     0.171 C 
HETATM   37  O6  UNL     1      -7.189  47.158 -26.064  1.00  0.00    -0.646 OA
BRANCH  36  38
HETATM   38  O7  UNL     1      -7.533  48.195 -28.014  1.00  0.00    -0.773 OA
HETATM   39  H53 UNL     1      -8.431  47.931 -27.721  1.00  0.00     0.167 HD
ENDBRANCH  36  38
ENDBRANCH  34  36
ENDBRANCH  30  33
ENDBRANCH  29  30
ENDBRANCH  27  29
ENDBRANCH  26  27
BRANCH  24  40
HETATM   40  O4  UNL     1       1.074  53.719 -22.324  1.00  0.00    -0.394 OA
HETATM   41  H37 UNL     1       1.329  53.786 -21.376  1.00  0.00     0.210 HD
ENDBRANCH  24  40
BRANCH  19  42
HETATM   42  O3  UNL     1       1.280  53.277 -19.751  1.00  0.00    -0.391 OA
HETATM   43  H29 UNL     1       2.039  52.804 -19.365  1.00  0.00     0.210 HD
ENDBRANCH  19  42
BRANCH   1  44
HETATM   44  C3  UNL     1       0.425  51.983 -14.918  1.00  0.00     0.047 C 
BRANCH  44  45
HETATM   45  C2  UNL     1       1.930  51.693 -15.056  1.00  0.00     0.270 C 
BRANCH  45  46
HETATM   46  N1  UNL     1       2.648  52.740 -15.789  1.00  0.00     0.079 N 
HETATM   47  C1  UNL     1       4.087  52.500 -15.860  1.00  0.00     0.306 C 
HETATM   48  H4  UNL     1       2.492  53.635 -15.322  1.00  0.00     0.315 HD
ENDBRANCH  45  46
ENDBRANCH  44  45
ENDBRANCH   1  44
TORSDOF 13
ENDMDL
