MODEL 1
REMARK minimizedAffinity -8.57536602
REMARK CNNscore 0.434364289
REMARK CNNaffinity 6.56688452
REMARK  6 active torsions:
REMARK  status: ('A' for Active; 'I' for Inactive)
REMARK    1  A    between atoms: C2_2  and  C30_32 
REMARK    2  A    between atoms: C3_3  and  C4_4 
REMARK    3  A    between atoms: C4_4  and  C5_6 
REMARK    4  A    between atoms: C5_6  and  C6_7 
REMARK    5  A    between atoms: C6_7  and  C8_9 
REMARK    6  A    between atoms: C30_32  and  O4_34 
ROOT
HETATM    1  C8  UNL     1      -0.164  50.616 -18.038  1.00  0.00    -0.001 C 
HETATM    2  C9  UNL     1      -0.162  52.075 -18.582  1.00  0.00     0.007 C 
HETATM    3  C10 UNL     1      -1.114  52.115 -19.792  1.00  0.00     0.015 C 
HETATM    4  C11 UNL     1      -1.405  50.635 -20.117  1.00  0.00    -0.013 C 
HETATM    5  C12 UNL     1      -0.217  50.146 -21.006  1.00  0.00     0.021 C 
HETATM    6  C13 UNL     1      -2.678  50.306 -20.888  1.00  0.00    -0.070 C 
HETATM    7  C14 UNL     1      -3.247  51.163 -21.750  1.00  0.00    -0.022 C 
HETATM    8  C15 UNL     1      -4.469  50.875 -22.563  1.00  0.00     0.034 C 
HETATM    9  C16 UNL     1      -5.034  49.431 -22.527  1.00  0.00     0.013 C 
HETATM   10  C17 UNL     1      -6.510  49.332 -21.999  1.00  0.00     0.018 C 
HETATM   11  C18 UNL     1      -7.449  50.201 -22.872  1.00  0.00     0.023 C 
HETATM   12  C19 UNL     1      -6.675  49.750 -20.532  1.00  0.00     0.023 C 
HETATM   13  C20 UNL     1      -7.011  47.883 -22.137  1.00  0.00     0.135 C 
HETATM   14  O2  UNL     1      -8.205  47.592 -22.039  1.00  0.00    -0.297 OA
HETATM   15  C21 UNL     1      -5.991  46.808 -22.421  1.00  0.00     0.080 C 
HETATM   16  C22 UNL     1      -4.764  47.053 -21.561  1.00  0.00     0.017 C 
HETATM   17  C23 UNL     1      -4.024  48.372 -21.927  1.00  0.00    -0.031 C 
HETATM   18  C24 UNL     1      -2.987  48.040 -23.040  1.00  0.00     0.016 C 
HETATM   19  C25 UNL     1      -3.296  48.935 -20.649  1.00  0.00     0.024 C 
HETATM   20  C26 UNL     1      -2.316  47.934 -19.980  1.00  0.00     0.010 C 
HETATM   21  C27 UNL     1      -1.508  48.479 -18.779  1.00  0.00     0.011 C 
HETATM   22  C28 UNL     1      -1.461  50.017 -18.675  1.00  0.00    -0.029 C 
HETATM   23  C29 UNL     1      -2.691  50.497 -17.839  1.00  0.00     0.016 C 
ENDROOT
BRANCH   1  24
HETATM   24  C6  UNL     1       0.035  50.556 -16.497  1.00  0.00    -0.007 C 
HETATM   25  C7  UNL     1       0.542  49.194 -16.013  1.00  0.00     0.011 C 
BRANCH  24  26
HETATM   26  C5  UNL     1       0.945  51.690 -15.968  1.00  0.00     0.087 C 
BRANCH  26  27
HETATM   27  C4  UNL     1       0.931  51.874 -14.459  1.00  0.00     0.150 C 
HETATM   28  O1  UNL     1       0.163  52.648 -13.895  1.00  0.00    -0.293 OA
BRANCH  27  29
HETATM   29  C3  UNL     1       1.942  51.097 -13.688  1.00  0.00     0.063 C 
HETATM   30  C2  UNL     1       3.251  51.032 -13.997  1.00  0.00     0.015 C 
HETATM   31  C1  UNL     1       3.948  51.756 -15.110  1.00  0.00     0.055 C 
BRANCH  30  32
HETATM   32  C30 UNL     1       4.059  50.172 -13.105  1.00  0.00     0.171 C 
HETATM   33  O3  UNL     1       5.098  49.606 -13.397  1.00  0.00    -0.646 OA
BRANCH  32  34
HETATM   34  O4  UNL     1       3.534  50.066 -11.875  1.00  0.00    -0.773 OA
HETATM   35  H44 UNL     1       4.165  49.491 -11.394  1.00  0.00     0.167 HD
ENDBRANCH  32  34
ENDBRANCH  30  32
ENDBRANCH  27  29
ENDBRANCH  26  27
ENDBRANCH  24  26
ENDBRANCH   1  24
TORSDOF 6
ENDMDL
MODEL 2
REMARK minimizedAffinity -7.54070377
REMARK CNNscore 0.424910843
REMARK CNNaffinity 6.30171204
REMARK  6 active torsions:
REMARK  status: ('A' for Active; 'I' for Inactive)
REMARK    1  A    between atoms: C2_2  and  C30_32 
REMARK    2  A    between atoms: C3_3  and  C4_4 
REMARK    3  A    between atoms: C4_4  and  C5_6 
REMARK    4  A    between atoms: C5_6  and  C6_7 
REMARK    5  A    between atoms: C6_7  and  C8_9 
REMARK    6  A    between atoms: C30_32  and  O4_34 
ROOT
HETATM    1  C8  UNL     1      -8.086  47.068 -19.984  1.00  0.00    -0.001 C 
HETATM    2  C9  UNL     1      -7.323  45.810 -19.476  1.00  0.00     0.007 C 
HETATM    3  C10 UNL     1      -5.866  45.928 -19.963  1.00  0.00     0.015 C 
HETATM    4  C11 UNL     1      -5.885  47.076 -20.993  1.00  0.00    -0.013 C 
HETATM    5  C12 UNL     1      -6.337  46.436 -22.345  1.00  0.00     0.021 C 
HETATM    6  C13 UNL     1      -4.576  47.803 -21.282  1.00  0.00    -0.070 C 
HETATM    7  C14 UNL     1      -3.376  47.214 -21.162  1.00  0.00    -0.022 C 
HETATM    8  C15 UNL     1      -2.067  47.866 -21.473  1.00  0.00     0.034 C 
HETATM    9  C16 UNL     1      -2.101  49.272 -22.130  1.00  0.00     0.013 C 
HETATM   10  C17 UNL     1      -1.387  50.390 -21.289  1.00  0.00     0.018 C 
HETATM   11  C18 UNL     1       0.092  50.006 -21.036  1.00  0.00     0.023 C 
HETATM   12  C19 UNL     1      -2.058  50.678 -19.940  1.00  0.00     0.023 C 
HETATM   13  C20 UNL     1      -1.360  51.702 -22.093  1.00  0.00     0.135 C 
HETATM   14  O2  UNL     1      -0.640  52.650 -21.775  1.00  0.00    -0.297 OA
HETATM   15  C21 UNL     1      -2.238  51.797 -23.317  1.00  0.00     0.080 C 
HETATM   16  C22 UNL     1      -3.592  51.189 -23.001  1.00  0.00     0.017 C 
HETATM   17  C23 UNL     1      -3.518  49.661 -22.716  1.00  0.00    -0.031 C 
HETATM   18  C24 UNL     1      -3.675  48.918 -24.076  1.00  0.00     0.016 C 
HETATM   19  C25 UNL     1      -4.677  49.254 -21.732  1.00  0.00     0.024 C 
HETATM   20  C26 UNL     1      -6.097  49.643 -22.224  1.00  0.00     0.010 C 
HETATM   21  C27 UNL     1      -7.273  49.176 -21.333  1.00  0.00     0.011 C 
HETATM   22  C28 UNL     1      -6.923  48.054 -20.335  1.00  0.00    -0.029 C 
HETATM   23  C29 UNL     1      -6.409  48.706 -19.012  1.00  0.00     0.016 C 
ENDROOT
BRANCH   1  24
HETATM   24  C6  UNL     1      -9.207  47.520 -19.006  1.00  0.00    -0.007 C 
HETATM   25  C7  UNL     1      -8.722  48.541 -17.972  1.00  0.00     0.011 C 
BRANCH  24  26
HETATM   26  C5  UNL     1     -10.462  48.049 -19.741  1.00  0.00     0.087 C 
BRANCH  26  27
HETATM   27  C4  UNL     1     -11.621  47.068 -19.821  1.00  0.00     0.150 C 
HETATM   28  O1  UNL     1     -11.745  46.266 -20.741  1.00  0.00    -0.293 OA
BRANCH  27  29
HETATM   29  C3  UNL     1     -12.643  47.162 -18.739  1.00  0.00     0.063 C 
HETATM   30  C2  UNL     1     -13.655  48.049 -18.722  1.00  0.00     0.015 C 
HETATM   31  C1  UNL     1     -13.989  49.052 -19.786  1.00  0.00     0.055 C 
BRANCH  30  32
HETATM   32  C30 UNL     1     -14.527  47.975 -17.529  1.00  0.00     0.171 C 
HETATM   33  O3  UNL     1     -14.479  47.129 -16.653  1.00  0.00    -0.646 OA
BRANCH  32  34
HETATM   34  O4  UNL     1     -15.419  48.976 -17.479  1.00  0.00    -0.773 OA
HETATM   35  H44 UNL     1     -15.912  48.816 -16.647  1.00  0.00     0.167 HD
ENDBRANCH  32  34
ENDBRANCH  30  32
ENDBRANCH  27  29
ENDBRANCH  26  27
ENDBRANCH  24  26
ENDBRANCH   1  24
TORSDOF 6
ENDMDL
MODEL 3
REMARK minimizedAffinity -7.49959898
REMARK CNNscore 0.416553348
REMARK CNNaffinity 5.72274828
REMARK  6 active torsions:
REMARK  status: ('A' for Active; 'I' for Inactive)
REMARK    1  A    between atoms: C2_2  and  C30_32 
REMARK    2  A    between atoms: C3_3  and  C4_4 
REMARK    3  A    between atoms: C4_4  and  C5_6 
REMARK    4  A    between atoms: C5_6  and  C6_7 
REMARK    5  A    between atoms: C6_7  and  C8_9 
REMARK    6  A    between atoms: C30_32  and  O4_34 
ROOT
HETATM    1  C8  UNL     1     -13.536  45.548 -25.915  1.00  0.00    -0.001 C 
HETATM    2  C9  UNL     1     -13.234  44.022 -25.964  1.00  0.00     0.007 C 
HETATM    3  C10 UNL     1     -12.244  43.785 -27.120  1.00  0.00     0.015 C 
HETATM    4  C11 UNL     1     -12.231  45.112 -27.908  1.00  0.00    -0.013 C 
HETATM    5  C12 UNL     1     -13.455  45.049 -28.878  1.00  0.00     0.021 C 
HETATM    6  C13 UNL     1     -11.016  45.421 -28.775  1.00  0.00    -0.070 C 
HETATM    7  C14 UNL     1     -10.258  44.464 -29.331  1.00  0.00    -0.022 C 
HETATM    8  C15 UNL     1      -9.083  44.711 -30.223  1.00  0.00     0.034 C 
HETATM    9  C16 UNL     1      -8.811  46.173 -30.665  1.00  0.00     0.013 C 
HETATM   10  C17 UNL     1      -7.403  46.722 -30.232  1.00  0.00     0.018 C 
HETATM   11  C18 UNL     1      -6.280  45.822 -30.804  1.00  0.00     0.023 C 
HETATM   12  C19 UNL     1      -7.220  46.834 -28.713  1.00  0.00     0.023 C 
HETATM   13  C20 UNL     1      -7.187  48.120 -30.838  1.00  0.00     0.135 C 
HETATM   14  O2  UNL     1      -6.078  48.655 -30.868  1.00  0.00    -0.297 OA
HETATM   15  C21 UNL     1      -8.384  48.827 -31.427  1.00  0.00     0.080 C 
HETATM   16  C22 UNL     1      -9.574  48.633 -30.504  1.00  0.00     0.017 C 
HETATM   17  C23 UNL     1     -10.030  47.148 -30.410  1.00  0.00    -0.031 C 
HETATM   18  C24 UNL     1     -11.066  46.899 -31.546  1.00  0.00     0.016 C 
HETATM   19  C25 UNL     1     -10.686  46.890 -29.002  1.00  0.00     0.024 C 
HETATM   20  C26 UNL     1     -11.866  47.839 -28.665  1.00  0.00     0.010 C 
HETATM   21  C27 UNL     1     -12.602  47.558 -27.333  1.00  0.00     0.011 C 
HETATM   22  C28 UNL     1     -12.354  46.156 -26.742  1.00  0.00    -0.029 C 
HETATM   23  C29 UNL     1     -11.089  46.217 -25.827  1.00  0.00     0.016 C 
ENDROOT
BRANCH   1  24
HETATM   24  C6  UNL     1     -13.804  46.055 -24.471  1.00  0.00    -0.007 C 
HETATM   25  C7  UNL     1     -12.530  46.513 -23.752  1.00  0.00     0.011 C 
BRANCH  24  26
HETATM   26  C5  UNL     1     -14.881  47.165 -24.419  1.00  0.00     0.087 C 
BRANCH  26  27
HETATM   27  C4  UNL     1     -16.092  46.845 -23.557  1.00  0.00     0.150 C 
HETATM   28  O1  UNL     1     -16.005  46.615 -22.355  1.00  0.00    -0.293 OA
BRANCH  27  29
HETATM   29  C3  UNL     1     -17.405  46.775 -24.260  1.00  0.00     0.063 C 
HETATM   30  C2  UNL     1     -17.827  45.718 -24.980  1.00  0.00     0.015 C 
HETATM   31  C1  UNL     1     -17.113  44.413 -25.163  1.00  0.00     0.055 C 
BRANCH  30  32
HETATM   32  C30 UNL     1     -19.153  45.888 -25.615  1.00  0.00     0.171 C 
HETATM   33  O3  UNL     1     -20.082  46.543 -25.177  1.00  0.00    -0.646 OA
BRANCH  32  34
HETATM   34  O4  UNL     1     -19.254  45.235 -26.782  1.00  0.00    -0.773 OA
HETATM   35  H44 UNL     1     -20.160  45.440 -27.094  1.00  0.00     0.167 HD
ENDBRANCH  32  34
ENDBRANCH  30  32
ENDBRANCH  27  29
ENDBRANCH  26  27
ENDBRANCH  24  26
ENDBRANCH   1  24
TORSDOF 6
ENDMDL
MODEL 4
REMARK minimizedAffinity -7.8078084
REMARK CNNscore 0.406178087
REMARK CNNaffinity 5.79891205
REMARK  6 active torsions:
REMARK  status: ('A' for Active; 'I' for Inactive)
REMARK    1  A    between atoms: C2_2  and  C30_32 
REMARK    2  A    between atoms: C3_3  and  C4_4 
REMARK    3  A    between atoms: C4_4  and  C5_6 
REMARK    4  A    between atoms: C5_6  and  C6_7 
REMARK    5  A    between atoms: C6_7  and  C8_9 
REMARK    6  A    between atoms: C30_32  and  O4_34 
ROOT
HETATM    1  C8  UNL     1     -12.167  45.633 -28.661  1.00  0.00    -0.001 C 
HETATM    2  C9  UNL     1     -11.618  44.332 -28.006  1.00  0.00     0.007 C 
HETATM    3  C10 UNL     1     -10.353  43.923 -28.784  1.00  0.00     0.015 C 
HETATM    4  C11 UNL     1     -10.366  44.803 -30.051  1.00  0.00    -0.013 C 
HETATM    5  C12 UNL     1     -11.291  44.072 -31.075  1.00  0.00     0.021 C 
HETATM    6  C13 UNL     1      -9.044  45.047 -30.769  1.00  0.00    -0.070 C 
HETATM    7  C14 UNL     1      -8.028  44.170 -30.740  1.00  0.00    -0.022 C 
HETATM    8  C15 UNL     1      -6.729  44.339 -31.460  1.00  0.00     0.034 C 
HETATM    9  C16 UNL     1      -6.598  45.537 -32.438  1.00  0.00     0.013 C 
HETATM   10  C17 UNL     1      -5.446  46.540 -32.072  1.00  0.00     0.018 C 
HETATM   11  C18 UNL     1      -4.088  45.799 -32.025  1.00  0.00     0.023 C 
HETATM   12  C19 UNL     1      -5.656  47.268 -30.738  1.00  0.00     0.023 C 
HETATM   13  C20 UNL     1      -5.320  47.604 -33.177  1.00  0.00     0.135 C 
HETATM   14  O2  UNL     1      -4.338  48.344 -33.262  1.00  0.00    -0.297 OA
HETATM   15  C21 UNL     1      -6.437  47.710 -34.186  1.00  0.00     0.080 C 
HETATM   16  C22 UNL     1      -7.767  47.596 -33.463  1.00  0.00     0.017 C 
HETATM   17  C23 UNL     1      -7.985  46.199 -32.814  1.00  0.00    -0.031 C 
HETATM   18  C24 UNL     1      -8.661  45.284 -33.878  1.00  0.00     0.016 C 
HETATM   19  C25 UNL     1      -8.911  46.348 -31.550  1.00  0.00     0.024 C 
HETATM   20  C26 UNL     1     -10.276  47.029 -31.835  1.00  0.00     0.010 C 
HETATM   21  C27 UNL     1     -11.256  47.107 -30.641  1.00  0.00     0.011 C 
HETATM   22  C28 UNL     1     -10.935  46.149 -29.476  1.00  0.00    -0.029 C 
HETATM   23  C29 UNL     1      -9.956  46.869 -28.494  1.00  0.00     0.016 C 
ENDROOT
BRANCH   1  24
HETATM   24  C6  UNL     1     -12.855  46.573 -27.632  1.00  0.00    -0.007 C 
HETATM   25  C7  UNL     1     -12.616  48.057 -27.925  1.00  0.00     0.011 C 
BRANCH  24  26
HETATM   26  C5  UNL     1     -14.369  46.288 -27.484  1.00  0.00     0.087 C 
BRANCH  26  27
HETATM   27  C4  UNL     1     -14.765  45.561 -26.209  1.00  0.00     0.150 C 
HETATM   28  O1  UNL     1     -13.970  44.892 -25.556  1.00  0.00    -0.293 OA
BRANCH  27  29
HETATM   29  C3  UNL     1     -16.198  45.659 -25.809  1.00  0.00     0.063 C 
HETATM   30  C2  UNL     1     -16.673  46.515 -24.885  1.00  0.00     0.015 C 
HETATM   31  C1  UNL     1     -15.894  47.556 -24.138  1.00  0.00     0.055 C 
BRANCH  30  32
HETATM   32  C30 UNL     1     -18.127  46.410 -24.630  1.00  0.00     0.171 C 
HETATM   33  O3  UNL     1     -18.726  45.410 -24.272  1.00  0.00    -0.646 OA
BRANCH  32  34
HETATM   34  O4  UNL     1     -18.772  47.570 -24.827  1.00  0.00    -0.773 OA
HETATM   35  H44 UNL     1     -19.706  47.365 -24.614  1.00  0.00     0.167 HD
ENDBRANCH  32  34
ENDBRANCH  30  32
ENDBRANCH  27  29
ENDBRANCH  26  27
ENDBRANCH  24  26
ENDBRANCH   1  24
TORSDOF 6
ENDMDL
MODEL 5
REMARK minimizedAffinity -7.77910137
REMARK CNNscore 0.382698447
REMARK CNNaffinity 5.75781059
REMARK  6 active torsions:
REMARK  status: ('A' for Active; 'I' for Inactive)
REMARK    1  A    between atoms: C2_2  and  C30_32 
REMARK    2  A    between atoms: C3_3  and  C4_4 
REMARK    3  A    between atoms: C4_4  and  C5_6 
REMARK    4  A    between atoms: C5_6  and  C6_7 
REMARK    5  A    between atoms: C6_7  and  C8_9 
REMARK    6  A    between atoms: C30_32  and  O4_34 
ROOT
HETATM    1  C8  UNL     1     -14.993  45.027 -25.355  1.00  0.00    -0.001 C 
HETATM    2  C9  UNL     1     -14.080  44.167 -24.432  1.00  0.00     0.007 C 
HETATM    3  C10 UNL     1     -12.728  43.998 -25.150  1.00  0.00     0.015 C 
HETATM    4  C11 UNL     1     -12.981  44.490 -26.591  1.00  0.00    -0.013 C 
HETATM    5  C12 UNL     1     -13.596  43.277 -27.359  1.00  0.00     0.021 C 
HETATM    6  C13 UNL     1     -11.783  44.952 -27.413  1.00  0.00    -0.070 C 
HETATM    7  C14 UNL     1     -10.544  44.474 -27.223  1.00  0.00    -0.022 C 
HETATM    8  C15 UNL     1      -9.344  44.860 -28.027  1.00  0.00     0.034 C 
HETATM    9  C16 UNL     1      -9.570  45.759 -29.271  1.00  0.00     0.013 C 
HETATM   10  C17 UNL     1      -8.807  47.131 -29.218  1.00  0.00     0.018 C 
HETATM   11  C18 UNL     1      -7.285  46.890 -29.061  1.00  0.00     0.023 C 
HETATM   12  C19 UNL     1      -9.276  48.061 -28.092  1.00  0.00     0.023 C 
HETATM   13  C20 UNL     1      -8.990  47.875 -30.553  1.00  0.00     0.135 C 
HETATM   14  O2  UNL     1      -8.292  48.841 -30.864  1.00  0.00    -0.297 OA
HETATM   15  C21 UNL     1     -10.053  47.373 -31.500  1.00  0.00     0.080 C 
HETATM   16  C22 UNL     1     -11.299  47.029 -30.705  1.00  0.00     0.017 C 
HETATM   17  C23 UNL     1     -11.083  45.839 -29.727  1.00  0.00    -0.031 C 
HETATM   18  C24 UNL     1     -11.402  44.526 -30.501  1.00  0.00     0.016 C 
HETATM   19  C25 UNL     1     -12.046  45.995 -28.491  1.00  0.00     0.024 C 
HETATM   20  C26 UNL     1     -13.547  46.120 -28.864  1.00  0.00     0.010 C 
HETATM   21  C27 UNL     1     -14.537  46.178 -27.677  1.00  0.00     0.011 C 
HETATM   22  C28 UNL     1     -13.964  45.686 -26.332  1.00  0.00    -0.029 C 
HETATM   23  C29 UNL     1     -13.294  46.896 -25.605  1.00  0.00     0.016 C 
ENDROOT
BRANCH   1  24
HETATM   24  C6  UNL     1     -15.974  45.925 -24.551  1.00  0.00    -0.007 C 
HETATM   25  C7  UNL     1     -15.409  47.320 -24.264  1.00  0.00     0.011 C 
BRANCH  24  26
HETATM   26  C5  UNL     1     -17.366  46.034 -25.218  1.00  0.00     0.087 C 
BRANCH  26  27
HETATM   27  C4  UNL     1     -18.425  46.738 -24.385  1.00  0.00     0.150 C 
HETATM   28  O1  UNL     1     -19.101  47.665 -24.822  1.00  0.00    -0.293 OA
BRANCH  27  29
HETATM   29  C3  UNL     1     -18.573  46.277 -22.975  1.00  0.00     0.063 C 
HETATM   30  C2  UNL     1     -19.391  45.284 -22.581  1.00  0.00     0.015 C 
HETATM   31  C1  UNL     1     -20.247  44.423 -23.459  1.00  0.00     0.055 C 
BRANCH  30  32
HETATM   32  C30 UNL     1     -19.394  45.023 -21.124  1.00  0.00     0.171 C 
HETATM   33  O3  UNL     1     -20.038  44.164 -20.548  1.00  0.00    -0.646 OA
BRANCH  32  34
HETATM   34  O4  UNL     1     -18.578  45.847 -20.449  1.00  0.00    -0.773 OA
HETATM   35  H44 UNL     1     -18.665  45.560 -19.516  1.00  0.00     0.167 HD
ENDBRANCH  32  34
ENDBRANCH  30  32
ENDBRANCH  27  29
ENDBRANCH  26  27
ENDBRANCH  24  26
ENDBRANCH   1  24
TORSDOF 6
ENDMDL
MODEL 6
REMARK minimizedAffinity -7.70141077
REMARK CNNscore 0.377415329
REMARK CNNaffinity 5.72660017
REMARK  6 active torsions:
REMARK  status: ('A' for Active; 'I' for Inactive)
REMARK    1  A    between atoms: C2_2  and  C30_32 
REMARK    2  A    between atoms: C3_3  and  C4_4 
REMARK    3  A    between atoms: C4_4  and  C5_6 
REMARK    4  A    between atoms: C5_6  and  C6_7 
REMARK    5  A    between atoms: C6_7  and  C8_9 
REMARK    6  A    between atoms: C30_32  and  O4_34 
ROOT
HETATM    1  C8  UNL     1     -11.488  45.618 -28.244  1.00  0.00    -0.001 C 
HETATM    2  C9  UNL     1     -11.395  44.072 -28.402  1.00  0.00     0.007 C 
HETATM    3  C10 UNL     1     -12.539  43.456 -27.574  1.00  0.00     0.015 C 
HETATM    4  C11 UNL     1     -13.074  44.618 -26.712  1.00  0.00    -0.013 C 
HETATM    5  C12 UNL     1     -12.142  44.692 -25.460  1.00  0.00     0.021 C 
HETATM    6  C13 UNL     1     -14.498  44.519 -26.177  1.00  0.00    -0.070 C 
HETATM    7  C14 UNL     1     -15.099  43.346 -25.923  1.00  0.00    -0.022 C 
HETATM    8  C15 UNL     1     -16.475  43.193 -25.359  1.00  0.00     0.034 C 
HETATM    9  C16 UNL     1     -17.207  44.477 -24.887  1.00  0.00     0.013 C 
HETATM   10  C17 UNL     1     -18.562  44.753 -25.632  1.00  0.00     0.018 C 
HETATM   11  C18 UNL     1     -19.523  43.552 -25.455  1.00  0.00     0.023 C 
HETATM   12  C19 UNL     1     -18.401  45.039 -27.131  1.00  0.00     0.023 C 
HETATM   13  C20 UNL     1     -19.264  45.965 -24.993  1.00  0.00     0.135 C 
HETATM   14  O2  UNL     1     -20.447  46.228 -25.216  1.00  0.00    -0.297 OA
HETATM   15  C21 UNL     1     -18.461  46.830 -24.052  1.00  0.00     0.080 C 
HETATM   16  C22 UNL     1     -17.077  47.042 -24.637  1.00  0.00     0.017 C 
HETATM   17  C23 UNL     1     -16.251  45.727 -24.727  1.00  0.00    -0.031 C 
HETATM   18  C24 UNL     1     -15.486  45.555 -23.382  1.00  0.00     0.016 C 
HETATM   19  C25 UNL     1     -15.235  45.828 -25.926  1.00  0.00     0.024 C 
HETATM   20  C26 UNL     1     -14.288  47.056 -25.859  1.00  0.00     0.010 C 
HETATM   21  C27 UNL     1     -13.210  47.142 -26.965  1.00  0.00     0.011 C 
HETATM   22  C28 UNL     1     -12.946  45.820 -27.714  1.00  0.00    -0.029 C 
HETATM   23  C29 UNL     1     -13.930  45.728 -28.924  1.00  0.00     0.016 C 
ENDROOT
BRANCH   1  24
HETATM   24  C6  UNL     1     -11.021  46.376 -29.518  1.00  0.00    -0.007 C 
HETATM   25  C7  UNL     1     -11.303  47.880 -29.456  1.00  0.00     0.011 C 
BRANCH  24  26
HETATM   26  C5  UNL     1      -9.532  46.119 -29.853  1.00  0.00     0.087 C 
BRANCH  26  27
HETATM   27  C4  UNL     1      -8.559  47.133 -29.270  1.00  0.00     0.150 C 
HETATM   28  O1  UNL     1      -8.623  47.515 -28.106  1.00  0.00    -0.293 OA
BRANCH  27  29
HETATM   29  C3  UNL     1      -7.539  47.685 -30.207  1.00  0.00     0.063 C 
HETATM   30  C2  UNL     1      -6.269  47.973 -29.866  1.00  0.00     0.015 C 
HETATM   31  C1  UNL     1      -5.623  47.746 -28.532  1.00  0.00     0.055 C 
BRANCH  30  32
HETATM   32  C30 UNL     1      -5.447  48.543 -30.956  1.00  0.00     0.171 C 
HETATM   33  O3  UNL     1      -5.413  48.154 -32.111  1.00  0.00    -0.646 OA
BRANCH  32  34
HETATM   34  O4  UNL     1      -4.706  49.586 -30.553  1.00  0.00    -0.773 OA
HETATM   35  H44 UNL     1      -4.230  49.869 -31.363  1.00  0.00     0.167 HD
ENDBRANCH  32  34
ENDBRANCH  30  32
ENDBRANCH  27  29
ENDBRANCH  26  27
ENDBRANCH  24  26
ENDBRANCH   1  24
TORSDOF 6
ENDMDL
MODEL 7
REMARK minimizedAffinity -7.41278601
REMARK CNNscore 0.344515622
REMARK CNNaffinity 6.07102346
REMARK  6 active torsions:
REMARK  status: ('A' for Active; 'I' for Inactive)
REMARK    1  A    between atoms: C2_2  and  C30_32 
REMARK    2  A    between atoms: C3_3  and  C4_4 
REMARK    3  A    between atoms: C4_4  and  C5_6 
REMARK    4  A    between atoms: C5_6  and  C6_7 
REMARK    5  A    between atoms: C6_7  and  C8_9 
REMARK    6  A    between atoms: C30_32  and  O4_34 
ROOT
HETATM    1  C8  UNL     1      -9.192  45.491 -34.362  1.00  0.00    -0.001 C 
HETATM    2  C9  UNL     1      -8.582  44.059 -34.366  1.00  0.00     0.007 C 
HETATM    3  C10 UNL     1      -8.008  43.799 -32.960  1.00  0.00     0.015 C 
HETATM    4  C11 UNL     1      -8.015  45.179 -32.269  1.00  0.00    -0.013 C 
HETATM    5  C12 UNL     1      -6.704  45.896 -32.725  1.00  0.00     0.021 C 
HETATM    6  C13 UNL     1      -8.015  45.218 -30.745  1.00  0.00    -0.070 C 
HETATM    7  C14 UNL     1      -7.472  44.248 -29.993  1.00  0.00    -0.022 C 
HETATM    8  C15 UNL     1      -7.406  44.258 -28.500  1.00  0.00     0.034 C 
HETATM    9  C16 UNL     1      -7.855  45.550 -27.767  1.00  0.00     0.013 C 
HETATM   10  C17 UNL     1      -9.055  45.339 -26.774  1.00  0.00     0.018 C 
HETATM   11  C18 UNL     1      -8.685  44.279 -25.708  1.00  0.00     0.023 C 
HETATM   12  C19 UNL     1     -10.362  44.917 -27.457  1.00  0.00     0.023 C 
HETATM   13  C20 UNL     1      -9.323  46.647 -26.007  1.00  0.00     0.135 C 
HETATM   14  O2  UNL     1     -10.029  46.679 -24.997  1.00  0.00    -0.297 OA
HETATM   15  C21 UNL     1      -8.674  47.910 -26.516  1.00  0.00     0.080 C 
HETATM   16  C22 UNL     1      -8.781  47.944 -28.030  1.00  0.00     0.017 C 
HETATM   17  C23 UNL     1      -7.972  46.808 -28.719  1.00  0.00    -0.031 C 
HETATM   18  C24 UNL     1      -6.529  47.337 -28.965  1.00  0.00     0.016 C 
HETATM   19  C25 UNL     1      -8.658  46.431 -30.086  1.00  0.00     0.024 C 
HETATM   20  C26 UNL     1      -8.844  47.626 -31.057  1.00  0.00     0.010 C 
HETATM   21  C27 UNL     1      -9.426  47.283 -32.449  1.00  0.00     0.011 C 
HETATM   22  C28 UNL     1      -9.345  45.792 -32.834  1.00  0.00    -0.029 C 
HETATM   23  C29 UNL     1     -10.631  45.073 -32.314  1.00  0.00     0.016 C 
ENDROOT
BRANCH   1  24
HETATM   24  C6  UNL     1     -10.428  45.614 -35.297  1.00  0.00    -0.007 C 
HETATM   25  C7  UNL     1     -11.722  45.926 -34.539  1.00  0.00     0.011 C 
BRANCH  24  26
HETATM   26  C5  UNL     1     -10.212  46.636 -36.439  1.00  0.00     0.087 C 
BRANCH  26  27
HETATM   27  C4  UNL     1     -11.104  46.440 -37.654  1.00  0.00     0.150 C 
HETATM   28  O1  UNL     1     -11.482  45.332 -38.024  1.00  0.00    -0.293 OA
BRANCH  27  29
HETATM   29  C3  UNL     1     -11.463  47.669 -38.417  1.00  0.00     0.063 C 
HETATM   30  C2  UNL     1     -12.630  48.328 -38.294  1.00  0.00     0.015 C 
HETATM   31  C1  UNL     1     -13.748  48.007 -37.349  1.00  0.00     0.055 C 
BRANCH  30  32
HETATM   32  C30 UNL     1     -12.776  49.506 -39.179  1.00  0.00     0.171 C 
HETATM   33  O3  UNL     1     -13.573  50.417 -39.039  1.00  0.00    -0.646 OA
BRANCH  32  34
HETATM   34  O4  UNL     1     -11.905  49.496 -40.200  1.00  0.00    -0.773 OA
HETATM   35  H44 UNL     1     -12.099  50.323 -40.688  1.00  0.00     0.167 HD
ENDBRANCH  32  34
ENDBRANCH  30  32
ENDBRANCH  27  29
ENDBRANCH  26  27
ENDBRANCH  24  26
ENDBRANCH   1  24
TORSDOF 6
ENDMDL
MODEL 8
REMARK minimizedAffinity -7.75300407
REMARK CNNscore 0.28654924
REMARK CNNaffinity 6.00975752
REMARK  6 active torsions:
REMARK  status: ('A' for Active; 'I' for Inactive)
REMARK    1  A    between atoms: C2_2  and  C30_32 
REMARK    2  A    between atoms: C3_3  and  C4_4 
REMARK    3  A    between atoms: C4_4  and  C5_6 
REMARK    4  A    between atoms: C5_6  and  C6_7 
REMARK    5  A    between atoms: C6_7  and  C8_9 
REMARK    6  A    between atoms: C30_32  and  O4_34 
ROOT
HETATM    1  C8  UNL     1      -8.115  47.702 -20.034  1.00  0.00    -0.001 C 
HETATM    2  C9  UNL     1      -7.817  48.707 -18.883  1.00  0.00     0.007 C 
HETATM    3  C10 UNL     1      -6.500  49.426 -19.229  1.00  0.00     0.015 C 
HETATM    4  C11 UNL     1      -5.903  48.617 -20.400  1.00  0.00    -0.013 C 
HETATM    5  C12 UNL     1      -5.137  47.420 -19.752  1.00  0.00     0.021 C 
HETATM    6  C13 UNL     1      -4.907  49.313 -21.320  1.00  0.00    -0.070 C 
HETATM    7  C14 UNL     1      -4.117  50.317 -20.909  1.00  0.00    -0.022 C 
HETATM    8  C15 UNL     1      -3.094  51.004 -21.755  1.00  0.00     0.034 C 
HETATM    9  C16 UNL     1      -2.813  50.418 -23.164  1.00  0.00     0.013 C 
HETATM   10  C17 UNL     1      -3.091  51.419 -24.343  1.00  0.00     0.018 C 
HETATM   11  C18 UNL     1      -2.237  52.699 -24.169  1.00  0.00     0.023 C 
HETATM   12  C19 UNL     1      -4.564  51.825 -24.480  1.00  0.00     0.023 C 
HETATM   13  C20 UNL     1      -2.650  50.783 -25.673  1.00  0.00     0.135 C 
HETATM   14  O2  UNL     1      -2.520  51.447 -26.703  1.00  0.00    -0.297 OA
HETATM   15  C21 UNL     1      -2.355  49.303 -25.685  1.00  0.00     0.080 C 
HETATM   16  C22 UNL     1      -3.417  48.583 -24.874  1.00  0.00     0.017 C 
HETATM   17  C23 UNL     1      -3.383  48.956 -23.364  1.00  0.00    -0.031 C 
HETATM   18  C24 UNL     1      -2.399  47.976 -22.658  1.00  0.00     0.016 C 
HETATM   19  C25 UNL     1      -4.828  48.815 -22.757  1.00  0.00     0.024 C 
HETATM   20  C26 UNL     1      -5.469  47.415 -22.952  1.00  0.00     0.010 C 
HETATM   21  C27 UNL     1      -6.850  47.204 -22.286  1.00  0.00     0.011 C 
HETATM   22  C28 UNL     1      -7.203  48.230 -21.191  1.00  0.00    -0.029 C 
HETATM   23  C29 UNL     1      -7.910  49.451 -21.862  1.00  0.00     0.016 C 
ENDROOT
BRANCH   1  24
HETATM   24  C6  UNL     1      -9.638  47.515 -20.281  1.00  0.00    -0.007 C 
HETATM   25  C7  UNL     1     -10.021  46.063 -20.582  1.00  0.00     0.011 C 
BRANCH  24  26
HETATM   26  C5  UNL     1     -10.503  48.073 -19.125  1.00  0.00     0.087 C 
BRANCH  26  27
HETATM   27  C4  UNL     1     -11.994  47.795 -19.245  1.00  0.00     0.150 C 
HETATM   28  O1  UNL     1     -12.679  48.256 -20.152  1.00  0.00    -0.293 OA
BRANCH  27  29
HETATM   29  C3  UNL     1     -12.602  46.966 -18.166  1.00  0.00     0.063 C 
HETATM   30  C2  UNL     1     -13.780  47.233 -17.573  1.00  0.00     0.015 C 
HETATM   31  C1  UNL     1     -14.723  48.349 -17.910  1.00  0.00     0.055 C 
BRANCH  30  32
HETATM   32  C30 UNL     1     -14.167  46.286 -16.504  1.00  0.00     0.171 C 
HETATM   33  O3  UNL     1     -14.127  46.497 -15.305  1.00  0.00    -0.646 OA
BRANCH  32  34
HETATM   34  O4  UNL     1     -14.600  45.111 -16.987  1.00  0.00    -0.773 OA
HETATM   35  H44 UNL     1     -14.831  44.594 -16.187  1.00  0.00     0.167 HD
ENDBRANCH  32  34
ENDBRANCH  30  32
ENDBRANCH  27  29
ENDBRANCH  26  27
ENDBRANCH  24  26
ENDBRANCH   1  24
TORSDOF 6
ENDMDL
MODEL 9
REMARK minimizedAffinity -7.6660738
REMARK CNNscore 0.210724711
REMARK CNNaffinity 6.19807243
REMARK  6 active torsions:
REMARK  status: ('A' for Active; 'I' for Inactive)
REMARK    1  A    between atoms: C2_2  and  C30_32 
REMARK    2  A    between atoms: C3_3  and  C4_4 
REMARK    3  A    between atoms: C4_4  and  C5_6 
REMARK    4  A    between atoms: C5_6  and  C6_7 
REMARK    5  A    between atoms: C6_7  and  C8_9 
REMARK    6  A    between atoms: C30_32  and  O4_34 
ROOT
HETATM    1  C8  UNL     1      -0.313  51.338  -9.893  1.00  0.00    -0.001 C 
HETATM    2  C9  UNL     1       0.698  50.311 -10.481  1.00  0.00     0.007 C 
HETATM    3  C10 UNL     1       2.062  51.018 -10.588  1.00  0.00     0.015 C 
HETATM    4  C11 UNL     1       1.753  52.512 -10.359  1.00  0.00    -0.013 C 
HETATM    5  C12 UNL     1       1.298  53.076 -11.742  1.00  0.00     0.021 C 
HETATM    6  C13 UNL     1       2.886  53.415  -9.882  1.00  0.00    -0.070 C 
HETATM    7  C14 UNL     1       4.175  53.175 -10.167  1.00  0.00    -0.022 C 
HETATM    8  C15 UNL     1       5.319  54.048  -9.762  1.00  0.00     0.034 C 
HETATM    9  C16 UNL     1       4.984  55.411  -9.100  1.00  0.00     0.013 C 
HETATM   10  C17 UNL     1       5.569  55.580  -7.651  1.00  0.00     0.018 C 
HETATM   11  C18 UNL     1       7.108  55.414  -7.673  1.00  0.00     0.023 C 
HETATM   12  C19 UNL     1       4.983  54.601  -6.625  1.00  0.00     0.023 C 
HETATM   13  C20 UNL     1       5.296  57.010  -7.149  1.00  0.00     0.135 C 
HETATM   14  O2  UNL     1       5.869  57.477  -6.163  1.00  0.00    -0.297 OA
HETATM   15  C21 UNL     1       4.308  57.851  -7.919  1.00  0.00     0.080 C 
HETATM   16  C22 UNL     1       3.113  56.992  -8.290  1.00  0.00     0.017 C 
HETATM   17  C23 UNL     1       3.475  55.848  -9.280  1.00  0.00    -0.031 C 
HETATM   18  C24 UNL     1       3.326  56.407 -10.726  1.00  0.00     0.016 C 
HETATM   19  C25 UNL     1       2.496  54.635  -9.058  1.00  0.00     0.024 C 
HETATM   20  C26 UNL     1       0.992  54.997  -9.179  1.00  0.00     0.010 C 
HETATM   21  C27 UNL     1      -0.000  53.816  -9.064  1.00  0.00     0.011 C 
HETATM   22  C28 UNL     1       0.627  52.422  -9.268  1.00  0.00    -0.029 C 
HETATM   23  C29 UNL     1       1.138  51.899  -7.888  1.00  0.00     0.016 C 
ENDROOT
BRANCH   1  24
HETATM   24  C6  UNL     1      -1.402  50.665  -9.012  1.00  0.00    -0.007 C 
HETATM   25  C7  UNL     1      -2.234  51.674  -8.214  1.00  0.00     0.011 C 
BRANCH  24  26
HETATM   26  C5  UNL     1      -2.326  49.724  -9.821  1.00  0.00     0.087 C 
BRANCH  26  27
HETATM   27  C4  UNL     1      -3.615  50.360 -10.318  1.00  0.00     0.150 C 
HETATM   28  O1  UNL     1      -4.652  50.347  -9.663  1.00  0.00    -0.293 OA
BRANCH  27  29
HETATM   29  C3  UNL     1      -3.572  50.965 -11.679  1.00  0.00     0.063 C 
HETATM   30  C2  UNL     1      -3.701  52.280 -11.933  1.00  0.00     0.015 C 
HETATM   31  C1  UNL     1      -3.846  53.380 -10.923  1.00  0.00     0.055 C 
BRANCH  30  32
HETATM   32  C30 UNL     1      -3.658  52.645 -13.366  1.00  0.00     0.171 C 
HETATM   33  O3  UNL     1      -3.151  51.991 -14.261  1.00  0.00    -0.646 OA
BRANCH  32  34
HETATM   34  O4  UNL     1      -4.264  53.815 -13.620  1.00  0.00    -0.773 OA
HETATM   35  H44 UNL     1      -4.175  53.926 -14.590  1.00  0.00     0.167 HD
ENDBRANCH  32  34
ENDBRANCH  30  32
ENDBRANCH  27  29
ENDBRANCH  26  27
ENDBRANCH  24  26
ENDBRANCH   1  24
TORSDOF 6
ENDMDL
