MODEL 1
REMARK minimizedAffinity -8.05994129
REMARK  6 active torsions:
REMARK  status: ('A' for Active; 'I' for Inactive)
REMARK    1  A    between atoms: C9_10  and  C10_11 
REMARK    2  A    between atoms: C11_13  and  O3_14 
REMARK    3  A    between atoms: C12_15  and  C13_16 
REMARK    4  A    between atoms: C14_18  and  O5_19 
REMARK    5  A    between atoms: C16_21  and  C17_22 
REMARK    6  A    between atoms: C17_22  and  C18_23 
ROOT
HETATM    1  C1  UNL     1      -4.468   8.514  12.776  1.00  0.00     0.043 C 
HETATM    2  C2  UNL     1      -3.218   8.524  13.629  1.00  0.00    -0.087 C 
HETATM    3  C3  UNL     1      -2.259   9.435  13.371  1.00  0.00    -0.024 C 
HETATM    4  C4  UNL     1      -0.949   9.733  14.043  1.00  0.00     0.030 C 
HETATM    5  C5  UNL     1      -0.149   8.610  14.706  1.00  0.00     0.042 C 
HETATM    6  C6  UNL     1       0.761   7.732  13.796  1.00  0.00     0.069 C 
HETATM    7  C7  UNL     1       1.402   6.666  14.709  1.00  0.00     0.047 C 
HETATM    8  O1  UNL     1       1.813   8.707  13.453  1.00  0.00    -0.338 OA
HETATM    9  C8  UNL     1       2.882   8.211  12.762  1.00  0.00     0.095 A 
HETATM   10  C9  UNL     1       4.146   8.760  13.022  1.00  0.00     0.070 A 
HETATM   11  C11 UNL     1       5.288   8.213  12.420  1.00  0.00     0.097 A 
HETATM   12  C12 UNL     1       5.157   7.114  11.570  1.00  0.00     0.069 A 
HETATM   13  C14 UNL     1       3.881   6.592  11.295  1.00  0.00     0.091 A 
HETATM   14  C15 UNL     1       2.721   7.170  11.845  1.00  0.00     0.015 A 
HETATM   15  C16 UNL     1       1.329   6.683  11.492  1.00  0.00     0.032 C 
HETATM   16  C21 UNL     1       0.183   7.234  12.441  1.00  0.00     0.034 C 
HETATM   17  C22 UNL     1      -1.064   6.377  12.258  1.00  0.00     0.006 A 
HETATM   18  C23 UNL     1      -2.208   5.859  13.112  1.00  0.00    -0.001 A 
HETATM   19  C24 UNL     1      -2.432   6.197  14.540  1.00  0.00     0.010 C 
HETATM   20  C25 UNL     1      -3.226   7.505  14.754  1.00  0.00     0.034 C 
HETATM   21  C26 UNL     1      -1.183   4.873  12.561  1.00  0.00    -0.039 A 
HETATM   22  C27 UNL     1      -0.310   4.116  13.525  1.00  0.00     0.015 C 
HETATM   23  C28 UNL     1      -1.595   4.012  11.382  1.00  0.00     0.015 C 
ENDROOT
BRANCH  15  24
HETATM   24  C17 UNL     1       0.996   6.809   9.965  1.00  0.00     0.014 C 
BRANCH  24  25
HETATM   25  C18 UNL     1       1.051   8.161   9.207  1.00  0.00    -0.022 C 
HETATM   26  C19 UNL     1      -0.313   8.676   8.747  1.00  0.00     0.009 C 
HETATM   27  C20 UNL     1       2.051   8.232   8.059  1.00  0.00     0.009 C 
ENDBRANCH  24  25
ENDBRANCH  15  24
BRANCH  13  28
HETATM   28  O5  UNL     1       3.718   5.492  10.490  1.00  0.00    -0.359 OA
HETATM   29  H15 UNL     1       4.602   5.208  10.159  1.00  0.00     0.217 HD
ENDBRANCH  13  28
BRANCH  10  30
HETATM   30  C10 UNL     1       4.263   9.899  13.954  1.00  0.00     0.275 C 
HETATM   31  O2  UNL     1       5.243   9.999  14.689  1.00  0.00    -0.301 OA
ENDBRANCH  10  30
BRANCH  12  32
HETATM   32  C13 UNL     1       6.365   6.513  10.966  1.00  0.00     0.275 C 
HETATM   33  O4  UNL     1       7.179   7.214  10.369  1.00  0.00    -0.301 OA
ENDBRANCH  12  32
BRANCH  11  34
HETATM   34  O3  UNL     1       6.544   8.715  12.659  1.00  0.00    -0.359 OA
HETATM   35  H13 UNL     1       6.469   9.471  13.288  1.00  0.00     0.217 HD
ENDBRANCH  11  34
TORSDOF 6
ENDMDL
MODEL 2
REMARK minimizedAffinity -7.67675304
REMARK  6 active torsions:
REMARK  status: ('A' for Active; 'I' for Inactive)
REMARK    1  A    between atoms: C9_10  and  C10_11 
REMARK    2  A    between atoms: C11_13  and  O3_14 
REMARK    3  A    between atoms: C12_15  and  C13_16 
REMARK    4  A    between atoms: C14_18  and  O5_19 
REMARK    5  A    between atoms: C16_21  and  C17_22 
REMARK    6  A    between atoms: C17_22  and  C18_23 
ROOT
HETATM    1  C1  UNL     1      11.357  -9.011   4.039  1.00  0.00     0.043 C 
HETATM    2  C2  UNL     1      12.847  -9.058   4.302  1.00  0.00    -0.087 C 
HETATM    3  C3  UNL     1      13.290  -9.616   5.447  1.00  0.00    -0.024 C 
HETATM    4  C4  UNL     1      14.674  -9.856   5.978  1.00  0.00     0.030 C 
HETATM    5  C5  UNL     1      15.809  -8.887   5.639  1.00  0.00     0.042 C 
HETATM    6  C6  UNL     1      15.936  -7.589   6.492  1.00  0.00     0.069 C 
HETATM    7  C7  UNL     1      17.118  -6.790   5.907  1.00  0.00     0.047 C 
HETATM    8  O1  UNL     1      16.383  -8.159   7.777  1.00  0.00    -0.338 OA
HETATM    9  C8  UNL     1      16.739  -7.255   8.736  1.00  0.00     0.095 A 
HETATM   10  C9  UNL     1      17.788  -7.594   9.604  1.00  0.00     0.070 A 
HETATM   11  C11 UNL     1      18.263  -6.659  10.534  1.00  0.00     0.097 A 
HETATM   12  C12 UNL     1      17.690  -5.387  10.583  1.00  0.00     0.069 A 
HETATM   13  C14 UNL     1      16.619  -5.070   9.728  1.00  0.00     0.091 A 
HETATM   14  C15 UNL     1      16.094  -6.020   8.832  1.00  0.00     0.015 A 
HETATM   15  C16 UNL     1      14.882  -5.732   7.966  1.00  0.00     0.032 C 
HETATM   16  C21 UNL     1      14.640  -6.788   6.808  1.00  0.00     0.034 C 
HETATM   17  C22 UNL     1      13.683  -6.189   5.785  1.00  0.00     0.006 A 
HETATM   18  C23 UNL     1      13.474  -6.230   4.281  1.00  0.00    -0.001 A 
HETATM   19  C24 UNL     1      14.248  -7.069   3.332  1.00  0.00     0.010 C 
HETATM   20  C25 UNL     1      13.695  -8.503   3.173  1.00  0.00     0.034 C 
HETATM   21  C26 UNL     1      13.938  -4.932   4.934  1.00  0.00    -0.039 A 
HETATM   22  C27 UNL     1      15.296  -4.387   4.586  1.00  0.00     0.015 C 
HETATM   23  C28 UNL     1      12.916  -3.825   5.105  1.00  0.00     0.015 C 
ENDROOT
BRANCH  15  24
HETATM   24  C17 UNL     1      13.594  -5.398   8.794  1.00  0.00     0.014 C 
BRANCH  24  25
HETATM   25  C18 UNL     1      12.272  -6.194   8.638  1.00  0.00    -0.022 C 
HETATM   26  C19 UNL     1      11.229  -5.507   7.754  1.00  0.00     0.009 C 
HETATM   27  C20 UNL     1      11.627  -6.662   9.938  1.00  0.00     0.009 C 
ENDBRANCH  24  25
ENDBRANCH  15  24
BRANCH  13  28
HETATM   28  O5  UNL     1      16.055  -3.819   9.726  1.00  0.00    -0.359 OA
HETATM   29  H15 UNL     1      16.501  -3.269  10.412  1.00  0.00     0.217 HD
ENDBRANCH  13  28
BRANCH  10  30
HETATM   30  C10 UNL     1      18.403  -8.933   9.507  1.00  0.00     0.275 C 
HETATM   31  O2  UNL     1      18.650  -9.576  10.526  1.00  0.00    -0.301 OA
ENDBRANCH  10  30
BRANCH  12  32
HETATM   32  C13 UNL     1      18.217  -4.388  11.536  1.00  0.00     0.275 C 
HETATM   33  O4  UNL     1      18.472  -4.706  12.696  1.00  0.00    -0.301 OA
ENDBRANCH  12  32
BRANCH  11  34
HETATM   34  O3  UNL     1      19.295  -6.950  11.391  1.00  0.00    -0.359 OA
HETATM   35  H13 UNL     1      19.599  -7.872  11.220  1.00  0.00     0.217 HD
ENDBRANCH  11  34
TORSDOF 6
ENDMDL
MODEL 3
REMARK minimizedAffinity -7.57741785
REMARK  6 active torsions:
REMARK  status: ('A' for Active; 'I' for Inactive)
REMARK    1  A    between atoms: C9_10  and  C10_11 
REMARK    2  A    between atoms: C11_13  and  O3_14 
REMARK    3  A    between atoms: C12_15  and  C13_16 
REMARK    4  A    between atoms: C14_18  and  O5_19 
REMARK    5  A    between atoms: C16_21  and  C17_22 
REMARK    6  A    between atoms: C17_22  and  C18_23 
ROOT
HETATM    1  C1  UNL     1      -2.911  11.376  15.239  1.00  0.00     0.043 C 
HETATM    2  C2  UNL     1      -1.658  10.791  15.855  1.00  0.00    -0.087 C 
HETATM    3  C3  UNL     1      -0.469  11.368  15.590  1.00  0.00    -0.024 C 
HETATM    4  C4  UNL     1       0.923  11.067  16.068  1.00  0.00     0.030 C 
HETATM    5  C5  UNL     1       1.334   9.629  16.390  1.00  0.00     0.042 C 
HETATM    6  C6  UNL     1       1.772   8.716  15.206  1.00  0.00     0.069 C 
HETATM    7  C7  UNL     1       2.081   7.330  15.808  1.00  0.00     0.047 C 
HETATM    8  O1  UNL     1       3.061   9.340  14.853  1.00  0.00    -0.338 OA
HETATM    9  C8  UNL     1       3.804   8.679  13.917  1.00  0.00     0.095 A 
HETATM   10  C9  UNL     1       5.201   8.712  14.042  1.00  0.00     0.070 A 
HETATM   11  C11 UNL     1       6.004   7.961  13.172  1.00  0.00     0.097 A 
HETATM   12  C12 UNL     1       5.403   7.175  12.188  1.00  0.00     0.069 A 
HETATM   13  C14 UNL     1       4.003   7.175  12.054  1.00  0.00     0.091 A 
HETATM   14  C15 UNL     1       3.189   7.971  12.882  1.00  0.00     0.015 A 
HETATM   15  C16 UNL     1       1.686   8.057  12.698  1.00  0.00     0.032 C 
HETATM   16  C21 UNL     1       0.917   8.738  13.906  1.00  0.00     0.034 C 
HETATM   17  C22 UNL     1      -0.566   8.400  13.801  1.00  0.00     0.006 A 
HETATM   18  C23 UNL     1      -1.724   8.118  14.742  1.00  0.00    -0.001 A 
HETATM   19  C24 UNL     1      -1.664   8.198  16.223  1.00  0.00     0.010 C 
HETATM   20  C25 UNL     1      -1.912   9.616  16.782  1.00  0.00     0.034 C 
HETATM   21  C26 UNL     1      -1.181   6.991  13.869  1.00  0.00    -0.039 A 
HETATM   22  C27 UNL     1      -0.541   5.801  14.531  1.00  0.00     0.015 C 
HETATM   23  C28 UNL     1      -1.992   6.587  12.653  1.00  0.00     0.015 C 
ENDROOT
BRANCH  15  24
HETATM   24  C17 UNL     1       1.265   8.609  11.292  1.00  0.00     0.014 C 
BRANCH  24  25
HETATM   25  C18 UNL     1       0.246   7.880  10.379  1.00  0.00    -0.022 C 
HETATM   26  C19 UNL     1       0.499   6.378  10.234  1.00  0.00     0.009 C 
HETATM   27  C20 UNL     1       0.024   8.507   9.007  1.00  0.00     0.009 C 
ENDBRANCH  24  25
ENDBRANCH  15  24
BRANCH  13  28
HETATM   28  O5  UNL     1       3.376   6.388  11.119  1.00  0.00    -0.359 OA
HETATM   29  H15 UNL     1       4.061   5.907  10.599  1.00  0.00     0.217 HD
ENDBRANCH  13  28
BRANCH  10  30
HETATM   30  C10 UNL     1       5.813   9.522  15.115  1.00  0.00     0.275 C 
HETATM   31  O2  UNL     1       6.394   8.974  16.050  1.00  0.00    -0.301 OA
ENDBRANCH  10  30
BRANCH  12  32
HETATM   32  C13 UNL     1       6.247   6.353  11.296  1.00  0.00     0.275 C 
HETATM   33  O4  UNL     1       7.042   6.886  10.525  1.00  0.00    -0.301 OA
ENDBRANCH  12  32
BRANCH  11  34
HETATM   34  O3  UNL     1       7.374   7.959  13.272  1.00  0.00    -0.359 OA
HETATM   35  H13 UNL     1       7.638   8.544  14.020  1.00  0.00     0.217 HD
ENDBRANCH  11  34
TORSDOF 6
ENDMDL
MODEL 4
REMARK minimizedAffinity -7.56405735
REMARK  6 active torsions:
REMARK  status: ('A' for Active; 'I' for Inactive)
REMARK    1  A    between atoms: C9_10  and  C10_11 
REMARK    2  A    between atoms: C11_13  and  O3_14 
REMARK    3  A    between atoms: C12_15  and  C13_16 
REMARK    4  A    between atoms: C14_18  and  O5_19 
REMARK    5  A    between atoms: C16_21  and  C17_22 
REMARK    6  A    between atoms: C17_22  and  C18_23 
ROOT
HETATM    1  C1  UNL     1      -5.760   7.202  13.508  1.00  0.00     0.043 C 
HETATM    2  C2  UNL     1      -4.624   7.480  14.469  1.00  0.00    -0.087 C 
HETATM    3  C3  UNL     1      -4.130   8.732  14.550  1.00  0.00    -0.024 C 
HETATM    4  C4  UNL     1      -3.060   9.335  15.415  1.00  0.00     0.030 C 
HETATM    5  C5  UNL     1      -1.864   8.494  15.863  1.00  0.00     0.042 C 
HETATM    6  C6  UNL     1      -0.674   8.334  14.870  1.00  0.00     0.069 C 
HETATM    7  C7  UNL     1       0.353   7.411  15.556  1.00  0.00     0.047 C 
HETATM    8  O1  UNL     1      -0.123   9.702  14.896  1.00  0.00    -0.338 OA
HETATM    9  C8  UNL     1       1.053   9.881  14.225  1.00  0.00     0.095 A 
HETATM   10  C9  UNL     1       1.976  10.799  14.748  1.00  0.00     0.070 A 
HETATM   11  C11 UNL     1       3.241  10.939  14.159  1.00  0.00     0.097 A 
HETATM   12  C12 UNL     1       3.575  10.154  13.055  1.00  0.00     0.069 A 
HETATM   13  C14 UNL     1       2.629   9.260  12.522  1.00  0.00     0.091 A 
HETATM   14  C15 UNL     1       1.336   9.154  13.067  1.00  0.00     0.015 A 
HETATM   15  C16 UNL     1       0.270   8.265  12.454  1.00  0.00     0.032 C 
HETATM   16  C21 UNL     1      -0.997   8.032  13.379  1.00  0.00     0.034 C 
HETATM   17  C22 UNL     1      -1.778   6.833  12.854  1.00  0.00     0.006 A 
HETATM   18  C23 UNL     1      -2.600   5.690  13.423  1.00  0.00    -0.001 A 
HETATM   19  C24 UNL     1      -2.941   5.512  14.858  1.00  0.00     0.010 C 
HETATM   20  C25 UNL     1      -4.205   6.281  15.299  1.00  0.00     0.034 C 
HETATM   21  C26 UNL     1      -1.260   5.386  12.762  1.00  0.00    -0.039 A 
HETATM   22  C27 UNL     1      -0.149   4.812  13.599  1.00  0.00     0.015 C 
HETATM   23  C28 UNL     1      -1.282   4.786  11.369  1.00  0.00     0.015 C 
ENDROOT
BRANCH  15  24
HETATM   24  C17 UNL     1      -0.089   8.655  10.979  1.00  0.00     0.014 C 
BRANCH  24  25
HETATM   25  C18 UNL     1       0.123   7.690   9.784  1.00  0.00    -0.022 C 
HETATM   26  C19 UNL     1       1.163   6.598  10.039  1.00  0.00     0.009 C 
HETATM   27  C20 UNL     1       0.383   8.355   8.438  1.00  0.00     0.009 C 
ENDBRANCH  24  25
ENDBRANCH  15  24
BRANCH  13  28
HETATM   28  O5  UNL     1       2.936   8.449  11.458  1.00  0.00    -0.359 OA
HETATM   29  H15 UNL     1       3.857   8.643  11.165  1.00  0.00     0.217 HD
ENDBRANCH  13  28
BRANCH  10  30
HETATM   30  C10 UNL     1       1.613  11.591  15.940  1.00  0.00     0.275 C 
HETATM   31  O2  UNL     1       1.827  11.148  17.067  1.00  0.00    -0.301 OA
ENDBRANCH  10  30
BRANCH  12  32
HETATM   32  C13 UNL     1       4.922  10.273  12.458  1.00  0.00     0.275 C 
HETATM   33  O4  UNL     1       5.216  11.252  11.775  1.00  0.00    -0.301 OA
ENDBRANCH  12  32
BRANCH  11  34
HETATM   34  O3  UNL     1       4.175  11.817  14.651  1.00  0.00    -0.359 OA
HETATM   35  H13 UNL     1       3.795  12.279  15.435  1.00  0.00     0.217 HD
ENDBRANCH  11  34
TORSDOF 6
ENDMDL
MODEL 5
REMARK minimizedAffinity -6.9658041
REMARK  6 active torsions:
REMARK  status: ('A' for Active; 'I' for Inactive)
REMARK    1  A    between atoms: C9_10  and  C10_11 
REMARK    2  A    between atoms: C11_13  and  O3_14 
REMARK    3  A    between atoms: C12_15  and  C13_16 
REMARK    4  A    between atoms: C14_18  and  O5_19 
REMARK    5  A    between atoms: C16_21  and  C17_22 
REMARK    6  A    between atoms: C17_22  and  C18_23 
ROOT
HETATM    1  C1  UNL     1       2.418   8.265   7.285  1.00  0.00     0.043 C 
HETATM    2  C2  UNL     1       1.857   7.624   8.536  1.00  0.00    -0.087 C 
HETATM    3  C3  UNL     1       0.889   8.266   9.220  1.00  0.00    -0.024 C 
HETATM    4  C4  UNL     1       0.107   7.891  10.446  1.00  0.00     0.030 C 
HETATM    5  C5  UNL     1       0.749   7.032  11.538  1.00  0.00     0.042 C 
HETATM    6  C6  UNL     1       1.649   7.747  12.590  1.00  0.00     0.069 C 
HETATM    7  C7  UNL     1       2.193   6.648  13.526  1.00  0.00     0.047 C 
HETATM    8  O1  UNL     1       0.629   8.501  13.342  1.00  0.00    -0.338 OA
HETATM    9  C8  UNL     1       1.072   9.144  14.463  1.00  0.00     0.095 A 
HETATM   10  C9  UNL     1       0.202   9.228  15.560  1.00  0.00     0.070 A 
HETATM   11  C11 UNL     1       0.647   9.782  16.770  1.00  0.00     0.097 A 
HETATM   12  C12 UNL     1       1.961  10.239  16.874  1.00  0.00     0.069 A 
HETATM   13  C14 UNL     1       2.813  10.176  15.757  1.00  0.00     0.091 A 
HETATM   14  C15 UNL     1       2.360   9.678  14.521  1.00  0.00     0.015 A 
HETATM   15  C16 UNL     1       3.232   9.685  13.279  1.00  0.00     0.032 C 
HETATM   16  C21 UNL     1       2.673   8.803  12.084  1.00  0.00     0.034 C 
HETATM   17  C22 UNL     1       3.797   8.557  11.084  1.00  0.00     0.006 A 
HETATM   18  C23 UNL     1       4.252   7.446  10.155  1.00  0.00    -0.001 A 
HETATM   19  C24 UNL     1       3.530   6.168   9.929  1.00  0.00     0.010 C 
HETATM   20  C25 UNL     1       2.433   6.255   8.845  1.00  0.00     0.034 C 
HETATM   21  C26 UNL     1       5.110   7.804  11.364  1.00  0.00    -0.039 A 
HETATM   22  C27 UNL     1       5.302   6.780  12.450  1.00  0.00     0.015 C 
HETATM   23  C28 UNL     1       6.373   8.607  11.119  1.00  0.00     0.015 C 
ENDROOT
BRANCH  15  24
HETATM   24  C17 UNL     1       3.681  11.122  12.844  1.00  0.00     0.014 C 
BRANCH  24  25
HETATM   25  C18 UNL     1       5.160  11.480  12.544  1.00  0.00    -0.022 C 
HETATM   26  C19 UNL     1       6.147  11.008  13.612  1.00  0.00     0.009 C 
HETATM   27  C20 UNL     1       5.426  12.940  12.196  1.00  0.00     0.009 C 
ENDBRANCH  24  25
ENDBRANCH  15  24
BRANCH  13  28
HETATM   28  O5  UNL     1       4.121  10.585  15.834  1.00  0.00    -0.359 OA
HETATM   29  H15 UNL     1       4.293  10.929  16.742  1.00  0.00     0.217 HD
ENDBRANCH  13  28
BRANCH  10  30
HETATM   30  C10 UNL     1      -1.172   8.704  15.437  1.00  0.00     0.275 C 
HETATM   31  O2  UNL     1      -1.626   7.948  16.294  1.00  0.00    -0.301 OA
ENDBRANCH  10  30
BRANCH  12  32
HETATM   32  C13 UNL     1       2.441  10.786  18.160  1.00  0.00     0.275 C 
HETATM   33  O4  UNL     1       2.595  10.050  19.132  1.00  0.00    -0.301 OA
ENDBRANCH  12  32
BRANCH  11  34
HETATM   34  O3  UNL     1      -0.171   9.870  17.869  1.00  0.00    -0.359 OA
HETATM   35  H13 UNL     1      -1.053   9.492  17.640  1.00  0.00     0.217 HD
ENDBRANCH  11  34
TORSDOF 6
ENDMDL
MODEL 6
REMARK minimizedAffinity -6.81152344
REMARK  6 active torsions:
REMARK  status: ('A' for Active; 'I' for Inactive)
REMARK    1  A    between atoms: C9_10  and  C10_11 
REMARK    2  A    between atoms: C11_13  and  O3_14 
REMARK    3  A    between atoms: C12_15  and  C13_16 
REMARK    4  A    between atoms: C14_18  and  O5_19 
REMARK    5  A    between atoms: C16_21  and  C17_22 
REMARK    6  A    between atoms: C17_22  and  C18_23 
ROOT
HETATM    1  C1  UNL     1       6.561  17.911  22.673  1.00  0.00     0.043 C 
HETATM    2  C2  UNL     1       7.816  17.124  22.366  1.00  0.00    -0.087 C 
HETATM    3  C3  UNL     1       8.288  17.114  21.103  1.00  0.00    -0.024 C 
HETATM    4  C4  UNL     1       9.506  16.483  20.490  1.00  0.00     0.030 C 
HETATM    5  C5  UNL     1      10.052  15.165  21.041  1.00  0.00     0.042 C 
HETATM    6  C6  UNL     1       9.385  13.843  20.558  1.00  0.00     0.069 C 
HETATM    7  C7  UNL     1      10.095  12.692  21.301  1.00  0.00     0.047 C 
HETATM    8  O1  UNL     1       9.844  13.811  19.157  1.00  0.00    -0.338 OA
HETATM    9  C8  UNL     1       9.550  12.674  18.460  1.00  0.00     0.095 A 
HETATM   10  C9  UNL     1      10.476  12.228  17.506  1.00  0.00     0.070 A 
HETATM   11  C11 UNL     1      10.273  11.010  16.842  1.00  0.00     0.097 A 
HETATM   12  C12 UNL     1       9.148  10.242  17.146  1.00  0.00     0.069 A 
HETATM   13  C14 UNL     1       8.212  10.715  18.083  1.00  0.00     0.091 A 
HETATM   14  C15 UNL     1       8.374  11.964  18.711  1.00  0.00     0.015 A 
HETATM   15  C16 UNL     1       7.333  12.535  19.655  1.00  0.00     0.032 C 
HETATM   16  C21 UNL     1       7.832  13.782  20.499  1.00  0.00     0.034 C 
HETATM   17  C22 UNL     1       6.880  13.998  21.670  1.00  0.00     0.006 A 
HETATM   18  C23 UNL     1       6.961  14.459  23.115  1.00  0.00    -0.001 A 
HETATM   19  C24 UNL     1       8.188  14.956  23.788  1.00  0.00     0.010 C 
HETATM   20  C25 UNL     1       8.448  16.464  23.577  1.00  0.00     0.034 C 
HETATM   21  C26 UNL     1       6.614  13.005  22.816  1.00  0.00    -0.039 A 
HETATM   22  C27 UNL     1       7.562  11.923  23.258  1.00  0.00     0.015 C 
HETATM   23  C28 UNL     1       5.166  12.579  22.970  1.00  0.00     0.015 C 
ENDROOT
BRANCH  15  24
HETATM   24  C17 UNL     1       5.935  12.750  18.980  1.00  0.00     0.014 C 
BRANCH  24  25
HETATM   25  C18 UNL     1       4.672  11.955  19.401  1.00  0.00    -0.022 C 
HETATM   26  C19 UNL     1       3.476  12.833  19.772  1.00  0.00     0.009 C 
HETATM   27  C20 UNL     1       4.891  10.891  20.470  1.00  0.00     0.009 C 
ENDBRANCH  24  25
ENDBRANCH  15  24
BRANCH  13  28
HETATM   28  O5  UNL     1       7.112   9.970  18.430  1.00  0.00    -0.359 OA
HETATM   29  H15 UNL     1       7.113   9.137  17.902  1.00  0.00     0.217 HD
ENDBRANCH  13  28
BRANCH  10  30
HETATM   30  C10 UNL     1      11.678  13.041  17.229  1.00  0.00     0.275 C 
HETATM   31  O2  UNL     1      12.785  12.509  17.169  1.00  0.00    -0.301 OA
ENDBRANCH  10  30
BRANCH  12  32
HETATM   32  C13 UNL     1       8.954   8.939  16.476  1.00  0.00     0.275 C 
HETATM   33  O4  UNL     1       8.995   7.893  17.122  1.00  0.00    -0.301 OA
ENDBRANCH  12  32
BRANCH  11  34
HETATM   34  O3  UNL     1      11.163  10.535  15.911  1.00  0.00    -0.359 OA
HETATM   35  H13 UNL     1      11.905  11.179  15.824  1.00  0.00     0.217 HD
ENDBRANCH  11  34
TORSDOF 6
ENDMDL
MODEL 7
REMARK minimizedAffinity -6.7194128
REMARK  6 active torsions:
REMARK  status: ('A' for Active; 'I' for Inactive)
REMARK    1  A    between atoms: C9_10  and  C10_11 
REMARK    2  A    between atoms: C11_13  and  O3_14 
REMARK    3  A    between atoms: C12_15  and  C13_16 
REMARK    4  A    between atoms: C14_18  and  O5_19 
REMARK    5  A    between atoms: C16_21  and  C17_22 
REMARK    6  A    between atoms: C17_22  and  C18_23 
ROOT
HETATM    1  C1  UNL     1       1.818  16.055  22.409  1.00  0.00     0.043 C 
HETATM    2  C2  UNL     1       3.110  15.397  22.842  1.00  0.00    -0.087 C 
HETATM    3  C3  UNL     1       4.270  15.817  22.299  1.00  0.00    -0.024 C 
HETATM    4  C4  UNL     1       5.697  15.413  22.540  1.00  0.00     0.030 C 
HETATM    5  C5  UNL     1       6.035  13.973  22.933  1.00  0.00     0.042 C 
HETATM    6  C6  UNL     1       6.151  12.917  21.794  1.00  0.00     0.069 C 
HETATM    7  C7  UNL     1       6.448  11.565  22.473  1.00  0.00     0.047 C 
HETATM    8  O1  UNL     1       7.396  13.366  21.142  1.00  0.00    -0.338 OA
HETATM    9  C8  UNL     1       7.881  12.549  20.161  1.00  0.00     0.095 A 
HETATM   10  C9  UNL     1       9.273  12.443  20.021  1.00  0.00     0.070 A 
HETATM   11  C11 UNL     1       9.821  11.537  19.103  1.00  0.00     0.097 A 
HETATM   12  C12 UNL     1       8.972  10.735  18.338  1.00  0.00     0.069 A 
HETATM   13  C14 UNL     1       7.579  10.873  18.467  1.00  0.00     0.091 A 
HETATM   14  C15 UNL     1       7.016  11.822  19.341  1.00  0.00     0.015 A 
HETATM   15  C16 UNL     1       5.519  12.051  19.430  1.00  0.00     0.032 C 
HETATM   16  C21 UNL     1       5.064  12.915  20.681  1.00  0.00     0.034 C 
HETATM   17  C22 UNL     1       3.565  12.730  20.890  1.00  0.00     0.006 A 
HETATM   18  C23 UNL     1       2.593  12.657  22.053  1.00  0.00    -0.001 A 
HETATM   19  C24 UNL     1       2.948  12.862  23.480  1.00  0.00     0.010 C 
HETATM   20  C25 UNL     1       2.939  14.343  23.920  1.00  0.00     0.034 C 
HETATM   21  C26 UNL     1       2.854  11.406  21.222  1.00  0.00    -0.039 A 
HETATM   22  C27 UNL     1       3.504  10.218  21.877  1.00  0.00     0.015 C 
HETATM   23  C28 UNL     1       1.788  10.985  20.228  1.00  0.00     0.015 C 
ENDROOT
BRANCH  15  24
HETATM   24  C17 UNL     1       4.882  12.518  18.077  1.00  0.00     0.014 C 
BRANCH  24  25
HETATM   25  C18 UNL     1       3.619  11.851  17.473  1.00  0.00    -0.022 C 
HETATM   26  C19 UNL     1       3.917  10.815  16.388  1.00  0.00     0.009 C 
HETATM   27  C20 UNL     1       2.531  12.807  16.998  1.00  0.00     0.009 C 
ENDBRANCH  24  25
ENDBRANCH  15  24
BRANCH  13  28
HETATM   28  O5  UNL     1       6.715  10.078  17.755  1.00  0.00    -0.359 OA
HETATM   29  H15 UNL     1       7.240   9.482  17.171  1.00  0.00     0.217 HD
ENDBRANCH  13  28
BRANCH  10  30
HETATM   30  C10 UNL     1      10.151  13.275  20.868  1.00  0.00     0.275 C 
HETATM   31  O2  UNL     1       9.909  13.408  22.066  1.00  0.00    -0.301 OA
ENDBRANCH  10  30
BRANCH  12  32
HETATM   32  C13 UNL     1       9.550   9.752  17.398  1.00  0.00     0.275 C 
HETATM   33  O4  UNL     1       9.189   8.578  17.425  1.00  0.00    -0.301 OA
ENDBRANCH  12  32
BRANCH  11  34
HETATM   34  O3  UNL     1      11.178  11.396  18.946  1.00  0.00    -0.359 OA
HETATM   35  H13 UNL     1      11.634  12.014  19.565  1.00  0.00     0.217 HD
ENDBRANCH  11  34
TORSDOF 6
ENDMDL
MODEL 8
REMARK minimizedAffinity -6.51830673
REMARK  6 active torsions:
REMARK  status: ('A' for Active; 'I' for Inactive)
REMARK    1  A    between atoms: C9_10  and  C10_11 
REMARK    2  A    between atoms: C11_13  and  O3_14 
REMARK    3  A    between atoms: C12_15  and  C13_16 
REMARK    4  A    between atoms: C14_18  and  O5_19 
REMARK    5  A    between atoms: C16_21  and  C17_22 
REMARK    6  A    between atoms: C17_22  and  C18_23 
ROOT
HETATM    1  C1  UNL     1       6.802   5.323  11.050  1.00  0.00     0.043 C 
HETATM    2  C2  UNL     1       6.389   6.640  11.671  1.00  0.00    -0.087 C 
HETATM    3  C3  UNL     1       6.190   6.700  13.003  1.00  0.00    -0.024 C 
HETATM    4  C4  UNL     1       5.828   7.837  13.915  1.00  0.00     0.030 C 
HETATM    5  C5  UNL     1       4.940   8.977  13.412  1.00  0.00     0.042 C 
HETATM    6  C6  UNL     1       3.397   8.755  13.423  1.00  0.00     0.069 C 
HETATM    7  C7  UNL     1       2.763  10.029  12.827  1.00  0.00     0.047 C 
HETATM    8  O1  UNL     1       3.138   8.773  14.875  1.00  0.00    -0.338 OA
HETATM    9  C8  UNL     1       1.823   8.748  15.244  1.00  0.00     0.095 A 
HETATM   10  C9  UNL     1       1.449   9.462  16.393  1.00  0.00     0.070 A 
HETATM   11  C11 UNL     1       0.098   9.558  16.753  1.00  0.00     0.097 A 
HETATM   12  C12 UNL     1      -0.871   8.947  15.955  1.00  0.00     0.069 A 
HETATM   13  C14 UNL     1      -0.479   8.210  14.823  1.00  0.00     0.091 A 
HETATM   14  C15 UNL     1       0.878   8.055  14.486  1.00  0.00     0.015 A 
HETATM   15  C16 UNL     1       1.330   7.191  13.323  1.00  0.00     0.032 C 
HETATM   16  C21 UNL     1       2.847   7.395  12.908  1.00  0.00     0.034 C 
HETATM   17  C22 UNL     1       3.061   6.808  11.517  1.00  0.00     0.006 A 
HETATM   18  C23 UNL     1       3.891   7.115  10.283  1.00  0.00    -0.001 A 
HETATM   19  C24 UNL     1       4.902   8.197  10.178  1.00  0.00     0.010 C 
HETATM   20  C25 UNL     1       6.304   7.792  10.686  1.00  0.00     0.034 C 
HETATM   21  C26 UNL     1       2.376   7.278  10.221  1.00  0.00    -0.039 A 
HETATM   22  C27 UNL     1       1.799   8.649   9.998  1.00  0.00     0.015 C 
HETATM   23  C28 UNL     1       1.581   6.210   9.494  1.00  0.00     0.015 C 
ENDROOT
BRANCH  15  24
HETATM   24  C17 UNL     1       0.915   5.687  13.472  1.00  0.00     0.014 C 
BRANCH  24  25
HETATM   25  C18 UNL     1      -0.225   5.047  12.637  1.00  0.00    -0.022 C 
HETATM   26  C19 UNL     1       0.143   3.705  12.002  1.00  0.00     0.009 C 
HETATM   27  C20 UNL     1      -0.870   5.957  11.597  1.00  0.00     0.009 C 
ENDBRANCH  24  25
ENDBRANCH  15  24
BRANCH  13  28
HETATM   28  O5  UNL     1      -1.407   7.624  13.997  1.00  0.00    -0.359 OA
HETATM   29  H15 UNL     1      -2.307   7.792  14.363  1.00  0.00     0.217 HD
ENDBRANCH  13  28
BRANCH  10  30
HETATM   30  C10 UNL     1       2.489  10.131  17.200  1.00  0.00     0.275 C 
HETATM   31  O2  UNL     1       2.424  11.340  17.413  1.00  0.00    -0.301 OA
ENDBRANCH  10  30
BRANCH  12  32
HETATM   32  C13 UNL     1      -2.299   9.082  16.312  1.00  0.00     0.275 C 
HETATM   33  O4  UNL     1      -3.137   9.325  15.447  1.00  0.00    -0.301 OA
ENDBRANCH  12  32
BRANCH  11  34
HETATM   34  O3  UNL     1      -0.308  10.258  17.862  1.00  0.00    -0.359 OA
HETATM   35  H13 UNL     1       0.486  10.640  18.304  1.00  0.00     0.217 HD
ENDBRANCH  11  34
TORSDOF 6
ENDMDL
MODEL 9
REMARK minimizedAffinity -6.48003292
REMARK  6 active torsions:
REMARK  status: ('A' for Active; 'I' for Inactive)
REMARK    1  A    between atoms: C9_10  and  C10_11 
REMARK    2  A    between atoms: C11_13  and  O3_14 
REMARK    3  A    between atoms: C12_15  and  C13_16 
REMARK    4  A    between atoms: C14_18  and  O5_19 
REMARK    5  A    between atoms: C16_21  and  C17_22 
REMARK    6  A    between atoms: C17_22  and  C18_23 
ROOT
HETATM    1  C1  UNL     1      18.262  -4.976  11.981  1.00  0.00     0.043 C 
HETATM    2  C2  UNL     1      18.533  -4.348  10.631  1.00  0.00    -0.087 C 
HETATM    3  C3  UNL     1      17.698  -3.392  10.177  1.00  0.00    -0.024 C 
HETATM    4  C4  UNL     1      17.711  -2.558   8.928  1.00  0.00     0.030 C 
HETATM    5  C5  UNL     1      18.279  -3.126   7.626  1.00  0.00     0.042 C 
HETATM    6  C6  UNL     1      17.349  -4.027   6.760  1.00  0.00     0.069 C 
HETATM    7  C7  UNL     1      18.186  -4.491   5.549  1.00  0.00     0.047 C 
HETATM    8  O1  UNL     1      16.387  -3.022   6.270  1.00  0.00    -0.338 OA
HETATM    9  C8  UNL     1      15.491  -3.462   5.338  1.00  0.00     0.095 A 
HETATM   10  C9  UNL     1      15.091  -2.566   4.336  1.00  0.00     0.070 A 
HETATM   11  C11 UNL     1      14.258  -3.000   3.294  1.00  0.00     0.097 A 
HETATM   12  C12 UNL     1      13.840  -4.331   3.258  1.00  0.00     0.069 A 
HETATM   13  C14 UNL     1      14.224  -5.211   4.285  1.00  0.00     0.091 A 
HETATM   14  C15 UNL     1      15.010  -4.772   5.368  1.00  0.00     0.015 A 
HETATM   15  C16 UNL     1      15.361  -5.679   6.532  1.00  0.00     0.032 C 
HETATM   16  C21 UNL     1      16.501  -5.115   7.479  1.00  0.00     0.034 C 
HETATM   17  C22 UNL     1      17.042  -6.254   8.335  1.00  0.00     0.006 A 
HETATM   18  C23 UNL     1      18.373  -6.684   8.925  1.00  0.00    -0.001 A 
HETATM   19  C24 UNL     1      19.637  -5.909   8.841  1.00  0.00     0.010 C 
HETATM   20  C25 UNL     1      19.795  -4.850   9.955  1.00  0.00     0.034 C 
HETATM   21  C26 UNL     1      17.745  -7.521   7.816  1.00  0.00    -0.039 A 
HETATM   22  C27 UNL     1      18.457  -7.633   6.495  1.00  0.00     0.015 C 
HETATM   23  C28 UNL     1      17.082  -8.828   8.209  1.00  0.00     0.015 C 
ENDROOT
BRANCH  15  24
HETATM   24  C17 UNL     1      14.104  -6.208   7.306  1.00  0.00     0.014 C 
BRANCH  24  25
HETATM   25  C18 UNL     1      12.860  -5.325   7.584  1.00  0.00    -0.022 C 
HETATM   26  C19 UNL     1      12.476  -5.233   9.061  1.00  0.00     0.009 C 
HETATM   27  C20 UNL     1      11.629  -5.639   6.742  1.00  0.00     0.009 C 
ENDBRANCH  24  25
ENDBRANCH  15  24
BRANCH  13  28
HETATM   28  O5  UNL     1      13.859  -6.534   4.264  1.00  0.00    -0.359 OA
HETATM   29  H15 UNL     1      13.298  -6.696   3.470  1.00  0.00     0.217 HD
ENDBRANCH  13  28
BRANCH  10  30
HETATM   30  C10 UNL     1      15.577  -1.172   4.375  1.00  0.00     0.275 C 
HETATM   31  O2  UNL     1      14.927  -0.305   4.957  1.00  0.00    -0.301 OA
ENDBRANCH  10  30
BRANCH  12  32
HETATM   32  C13 UNL     1      12.995  -4.798   2.139  1.00  0.00     0.275 C 
HETATM   33  O4  UNL     1      13.413  -4.759   0.984  1.00  0.00    -0.301 OA
ENDBRANCH  12  32
BRANCH  11  34
HETATM   34  O3  UNL     1      13.855  -2.155   2.289  1.00  0.00    -0.359 OA
HETATM   35  H13 UNL     1      14.246  -1.264   2.448  1.00  0.00     0.217 HD
ENDBRANCH  11  34
TORSDOF 6
ENDMDL
