MODEL 1
REMARK minimizedAffinity -7.87606478
REMARK CNNscore 0.402033985
REMARK CNNaffinity 6.99913073
REMARK  9 active torsions:
REMARK  status: ('A' for Active; 'I' for Inactive)
REMARK       I    between atoms: N1_1  and  C1_2 
REMARK       I    between atoms: C1_2  and  N2_3 
REMARK    1  A    between atoms: N3_4  and  C2_6 
REMARK    2  A    between atoms: C11_16  and  S1_17 
REMARK    3  A    between atoms: S1_17  and  O4_20 
REMARK    4  A    between atoms: C18_27  and  C19_28 
REMARK    5  A    between atoms: C19_28  and  C20_29 
REMARK    6  A    between atoms: C20_29  and  C21_30 
REMARK    7  A    between atoms: C21_30  and  O5_31 
REMARK    8  A    between atoms: C22_33  and  C23_34 
REMARK    9  A    between atoms: C26_37  and  O7_38 
ROOT
HETATM    1  C2  UNL     1      -3.500  51.853 -11.298  1.00  0.00     0.263 C 
HETATM    2  O1  UNL     1      -2.892  50.776 -12.087  1.00  0.00    -0.322 OA
HETATM    3  C3  UNL     1      -1.583  50.992 -12.452  1.00  0.00     0.071 C 
HETATM    4  C4  UNL     1      -1.152  52.154 -13.089  1.00  0.00     0.037 C 
HETATM    5  C5  UNL     1       0.217  52.409 -13.205  1.00  0.00     0.010 C 
HETATM    6  C6  UNL     1       1.154  51.492 -12.708  1.00  0.00    -0.058 C 
HETATM    7  C7  UNL     1       0.705  50.268 -12.200  1.00  0.00     0.010 C 
HETATM    8  C8  UNL     1      -0.662  50.015 -12.083  1.00  0.00     0.037 C 
HETATM    9  C9  UNL     1       2.617  51.858 -12.630  1.00  0.00     0.040 C 
HETATM   10  C10 UNL     1       2.905  52.921 -11.548  1.00  0.00     0.027 C 
HETATM   11  C11 UNL     1       2.493  52.533 -10.101  1.00  0.00     0.130 C 
HETATM   12  C12 UNL     1       2.052  53.782  -9.281  1.00  0.00     0.037 C 
HETATM   13  C13 UNL     1       3.159  54.749  -8.888  1.00  0.00    -0.014 C 
HETATM   14  C14 UNL     1       3.330  55.124  -7.600  1.00  0.00    -0.050 C 
HETATM   15  C15 UNL     1       2.618  54.380  -6.502  1.00  0.00     0.042 C 
HETATM   16  C16 UNL     1       1.144  54.461  -6.903  1.00  0.00     0.001 C 
HETATM   17  C17 UNL     1       0.745  55.933  -7.246  1.00  0.00     0.037 C 
HETATM   18  C18 UNL     1       1.427  57.093  -6.453  1.00  0.00     0.123 C 
HETATM   19  O6  UNL     1       2.842  56.995  -6.195  1.00  0.00    -0.371 OA
HETATM   20  C22 UNL     1       3.729  56.535  -7.232  1.00  0.00     0.183 C 
HETATM   21  C29 UNL     1       1.036  53.451  -8.099  1.00  0.00     0.032 C 
HETATM   22  C30 UNL     1      -0.366  53.165  -8.630  1.00  0.00    -0.053 C 
HETATM   23  C31 UNL     1      -0.886  51.864  -8.515  1.00  0.00     0.008 C 
HETATM   24  C32 UNL     1      -1.987  51.463  -9.274  1.00  0.00     0.012 C 
HETATM   25  C33 UNL     1      -2.577  52.354 -10.178  1.00  0.00    -0.010 C 
HETATM   26  C34 UNL     1      -2.179  53.698 -10.156  1.00  0.00     0.012 C 
HETATM   27  C35 UNL     1      -1.079  54.096  -9.393  1.00  0.00     0.008 C 
ENDROOT
BRANCH   1  28
HETATM   28  N3  UNL     1      -4.858  51.615 -10.782  1.00  0.00    -0.341 N 
HETATM   29  C1  UNL     1      -5.221  50.436 -10.456  1.00  0.00     0.124 C 
HETATM   30  N1  UNL     1      -4.535  49.271 -10.482  1.00  0.00    -0.279 NA
HETATM   31  N2  UNL     1      -6.473  50.220  -9.999  1.00  0.00    -0.279 NA
HETATM   32  H1  UNL     1      -3.678  49.353 -11.028  1.00  0.00     0.126 HD
HETATM   33  H2  UNL     1      -5.103  48.509 -10.836  1.00  0.00     0.126 HD
HETATM   34  H3  UNL     1      -6.941  51.105  -9.825  1.00  0.00     0.126 HD
HETATM   35  H4  UNL     1      -6.495  49.647  -9.164  1.00  0.00     0.126 HD
ATOM     36  H3  UNL     1      -5.510  52.393 -10.685  1.00  0.00     0.164 HD
ENDBRANCH   1  28
BRANCH  11  37
HETATM   37  S1  UNL     1       3.800  51.604  -9.262  1.00  0.00     0.099 S 
HETATM   38  O2  UNL     1       3.638  51.665  -7.824  1.00  0.00    -0.601 OA
HETATM   39  O3  UNL     1       4.083  50.365  -9.955  1.00  0.00    -0.601 OA
BRANCH  37  40
HETATM   40  O4  UNL     1       5.043  52.588  -9.585  1.00  0.00    -0.295 OA
HETATM   41  H15 UNL     1       5.599  52.633  -8.777  1.00  0.00     0.232 HD
ENDBRANCH  37  40
ENDBRANCH  11  37
BRANCH  18  42
HETATM   42  C19 UNL     1       0.797  57.307  -5.061  1.00  0.00     0.034 C 
BRANCH  42  43
HETATM   43  C20 UNL     1      -0.397  56.401  -4.754  1.00  0.00     0.028 C 
BRANCH  43  44
HETATM   44  C21 UNL     1      -1.101  56.789  -3.455  1.00  0.00     0.164 C 
BRANCH  44  45
HETATM   45  O5  UNL     1      -2.358  56.144  -3.322  1.00  0.00    -0.401 OA
HETATM   46  H30 UNL     1      -2.754  56.057  -4.209  1.00  0.00     0.209 HD
ENDBRANCH  44  45
ENDBRANCH  43  44
ENDBRANCH  42  43
ENDBRANCH  18  42
BRANCH  20  47
HETATM   47  C23 UNL     1       5.175  56.606  -6.767  1.00  0.00    -0.025 A 
HETATM   48  C24 UNL     1       5.606  57.545  -5.815  1.00  0.00     0.013 A 
HETATM   49  C25 UNL     1       6.934  57.564  -5.381  1.00  0.00     0.037 A 
HETATM   50  C26 UNL     1       7.839  56.643  -5.892  1.00  0.00     0.065 A 
HETATM   51  C27 UNL     1       7.440  55.698  -6.832  1.00  0.00     0.037 A 
HETATM   52  C28 UNL     1       6.111  55.682  -7.267  1.00  0.00     0.013 A 
BRANCH  50  53
HETATM   53  O7  UNL     1       9.124  56.691  -5.438  1.00  0.00    -0.361 OA
HETATM   54  H34 UNL     1       9.628  55.979  -5.865  1.00  0.00     0.217 HD
ENDBRANCH  50  53
ENDBRANCH  20  47
TORSDOF 9
ENDMDL
MODEL 2
REMARK minimizedAffinity -7.64307833
REMARK CNNscore 0.362243086
REMARK CNNaffinity 6.38360453
REMARK  9 active torsions:
REMARK  status: ('A' for Active; 'I' for Inactive)
REMARK       I    between atoms: N1_1  and  C1_2 
REMARK       I    between atoms: C1_2  and  N2_3 
REMARK    1  A    between atoms: N3_4  and  C2_6 
REMARK    2  A    between atoms: C11_16  and  S1_17 
REMARK    3  A    between atoms: S1_17  and  O4_20 
REMARK    4  A    between atoms: C18_27  and  C19_28 
REMARK    5  A    between atoms: C19_28  and  C20_29 
REMARK    6  A    between atoms: C20_29  and  C21_30 
REMARK    7  A    between atoms: C21_30  and  O5_31 
REMARK    8  A    between atoms: C22_33  and  C23_34 
REMARK    9  A    between atoms: C26_37  and  O7_38 
ROOT
HETATM    1  C2  UNL     1      -6.654  43.770 -31.599  1.00  0.00     0.263 C 
HETATM    2  O1  UNL     1      -6.100  45.128 -31.573  1.00  0.00    -0.322 OA
HETATM    3  C3  UNL     1      -7.035  46.135 -31.503  1.00  0.00     0.071 C 
HETATM    4  C4  UNL     1      -8.114  46.234 -32.378  1.00  0.00     0.037 C 
HETATM    5  C5  UNL     1      -9.149  47.129 -32.098  1.00  0.00     0.010 C 
HETATM    6  C6  UNL     1      -9.094  47.943 -30.957  1.00  0.00    -0.058 C 
HETATM    7  C7  UNL     1      -7.938  47.931 -30.168  1.00  0.00     0.010 C 
HETATM    8  C8  UNL     1      -6.906  47.036 -30.449  1.00  0.00     0.037 C 
HETATM    9  C9  UNL     1     -10.299  48.746 -30.530  1.00  0.00     0.040 C 
HETATM   10  C10 UNL     1     -11.441  47.859 -29.988  1.00  0.00     0.027 C 
HETATM   11  C11 UNL     1     -11.076  46.970 -28.766  1.00  0.00     0.130 C 
HETATM   12  C12 UNL     1     -11.870  45.630 -28.781  1.00  0.00     0.037 C 
HETATM   13  C13 UNL     1     -13.358  45.731 -28.477  1.00  0.00    -0.014 C 
HETATM   14  C14 UNL     1     -13.924  44.976 -27.510  1.00  0.00    -0.050 C 
HETATM   15  C15 UNL     1     -13.052  44.234 -26.532  1.00  0.00     0.042 C 
HETATM   16  C16 UNL     1     -12.141  43.388 -27.424  1.00  0.00     0.001 C 
HETATM   17  C17 UNL     1     -12.980  42.604 -28.484  1.00  0.00     0.037 C 
HETATM   18  C18 UNL     1     -14.404  42.102 -28.083  1.00  0.00     0.123 C 
HETATM   19  O6  UNL     1     -15.246  42.993 -27.323  1.00  0.00    -0.371 OA
HETATM   20  C22 UNL     1     -15.308  44.389 -27.671  1.00  0.00     0.183 C 
HETATM   21  C29 UNL     1     -11.138  44.437 -28.020  1.00  0.00     0.032 C 
HETATM   22  C30 UNL     1      -9.973  43.885 -28.836  1.00  0.00    -0.053 C 
HETATM   23  C31 UNL     1      -8.661  44.073 -28.365  1.00  0.00     0.008 C 
HETATM   24  C32 UNL     1      -7.565  43.907 -29.214  1.00  0.00     0.012 C 
HETATM   25  C33 UNL     1      -7.764  43.568 -30.558  1.00  0.00    -0.010 C 
HETATM   26  C34 UNL     1      -9.050  43.201 -30.976  1.00  0.00     0.012 C 
HETATM   27  C35 UNL     1     -10.144  43.364 -30.123  1.00  0.00     0.008 C 
ENDROOT
BRANCH   1  28
HETATM   28  N3  UNL     1      -5.691  42.657 -31.551  1.00  0.00    -0.341 N 
HETATM   29  C1  UNL     1      -4.712  42.623 -32.369  1.00  0.00     0.124 C 
HETATM   30  N1  UNL     1      -4.352  43.492 -33.339  1.00  0.00    -0.279 NA
HETATM   31  N2  UNL     1      -3.842  41.591 -32.332  1.00  0.00    -0.279 NA
HETATM   32  H1  UNL     1      -5.100  44.153 -33.547  1.00  0.00     0.126 HD
HETATM   33  H2  UNL     1      -4.065  43.013 -34.185  1.00  0.00     0.126 HD
HETATM   34  H3  UNL     1      -4.008  41.019 -31.509  1.00  0.00     0.126 HD
HETATM   35  H4  UNL     1      -2.874  41.890 -32.355  1.00  0.00     0.126 HD
ATOM     36  H3  UNL     1      -5.807  41.913 -30.864  1.00  0.00     0.164 HD
ENDBRANCH   1  28
BRANCH  11  37
HETATM   37  S1  UNL     1     -11.287  47.861 -27.206  1.00  0.00     0.099 S 
HETATM   38  O2  UNL     1     -11.549  46.944 -26.116  1.00  0.00    -0.601 OA
HETATM   39  O3  UNL     1     -10.330  48.941 -27.091  1.00  0.00    -0.601 OA
BRANCH  37  40
HETATM   40  O4  UNL     1     -12.712  48.560 -27.516  1.00  0.00    -0.295 OA
HETATM   41  H15 UNL     1     -13.244  48.520 -26.691  1.00  0.00     0.232 HD
ENDBRANCH  37  40
ENDBRANCH  11  37
BRANCH  18  42
HETATM   42  C19 UNL     1     -14.360  40.808 -27.245  1.00  0.00     0.034 C 
BRANCH  42  43
HETATM   43  C20 UNL     1     -15.662  40.474 -26.515  1.00  0.00     0.028 C 
BRANCH  43  44
HETATM   44  C21 UNL     1     -15.935  41.426 -25.351  1.00  0.00     0.164 C 
BRANCH  44  45
HETATM   45  O5  UNL     1     -15.811  40.775 -24.096  1.00  0.00    -0.401 OA
HETATM   46  H30 UNL     1     -16.119  39.855 -24.196  1.00  0.00     0.209 HD
ENDBRANCH  44  45
ENDBRANCH  43  44
ENDBRANCH  42  43
ENDBRANCH  18  42
BRANCH  20  47
HETATM   47  C23 UNL     1     -16.327  45.109 -26.800  1.00  0.00    -0.025 A 
HETATM   48  C24 UNL     1     -15.945  46.062 -25.840  1.00  0.00     0.013 A 
HETATM   49  C25 UNL     1     -16.906  46.732 -25.079  1.00  0.00     0.037 A 
HETATM   50  C26 UNL     1     -18.254  46.458 -25.273  1.00  0.00     0.065 A 
HETATM   51  C27 UNL     1     -18.661  45.522 -26.219  1.00  0.00     0.037 A 
HETATM   52  C28 UNL     1     -17.698  44.851 -26.979  1.00  0.00     0.013 A 
BRANCH  50  53
HETATM   53  O7  UNL     1     -19.160  47.137 -24.513  1.00  0.00    -0.361 OA
HETATM   54  H34 UNL     1     -20.052  46.857 -24.775  1.00  0.00     0.217 HD
ENDBRANCH  50  53
ENDBRANCH  20  47
TORSDOF 9
ENDMDL
MODEL 3
REMARK minimizedAffinity -7.27302074
REMARK CNNscore 0.357797533
REMARK CNNaffinity 6.51806784
REMARK  9 active torsions:
REMARK  status: ('A' for Active; 'I' for Inactive)
REMARK       I    between atoms: N1_1  and  C1_2 
REMARK       I    between atoms: C1_2  and  N2_3 
REMARK    1  A    between atoms: N3_4  and  C2_6 
REMARK    2  A    between atoms: C11_16  and  S1_17 
REMARK    3  A    between atoms: S1_17  and  O4_20 
REMARK    4  A    between atoms: C18_27  and  C19_28 
REMARK    5  A    between atoms: C19_28  and  C20_29 
REMARK    6  A    between atoms: C20_29  and  C21_30 
REMARK    7  A    between atoms: C21_30  and  O5_31 
REMARK    8  A    between atoms: C22_33  and  C23_34 
REMARK    9  A    between atoms: C26_37  and  O7_38 
ROOT
HETATM    1  C2  UNL     1     -19.031  42.901 -18.401  1.00  0.00     0.263 C 
HETATM    2  O1  UNL     1     -18.814  44.344 -18.247  1.00  0.00    -0.322 OA
HETATM    3  C3  UNL     1     -18.146  44.945 -19.290  1.00  0.00     0.071 C 
HETATM    4  C4  UNL     1     -16.932  44.478 -19.787  1.00  0.00     0.037 C 
HETATM    5  C5  UNL     1     -16.441  44.983 -20.993  1.00  0.00     0.010 C 
HETATM    6  C6  UNL     1     -17.150  45.972 -21.689  1.00  0.00    -0.058 C 
HETATM    7  C7  UNL     1     -18.293  46.528 -21.105  1.00  0.00     0.010 C 
HETATM    8  C8  UNL     1     -18.783  46.022 -19.901  1.00  0.00     0.037 C 
HETATM    9  C9  UNL     1     -16.745  46.361 -23.091  1.00  0.00     0.040 C 
HETATM   10  C10 UNL     1     -17.042  45.252 -24.123  1.00  0.00     0.027 C 
HETATM   11  C11 UNL     1     -18.529  44.812 -24.224  1.00  0.00     0.130 C 
HETATM   12  C12 UNL     1     -18.652  43.303 -24.590  1.00  0.00     0.037 C 
HETATM   13  C13 UNL     1     -18.268  42.927 -26.013  1.00  0.00    -0.014 C 
HETATM   14  C14 UNL     1     -19.114  42.226 -26.801  1.00  0.00    -0.050 C 
HETATM   15  C15 UNL     1     -20.552  42.053 -26.388  1.00  0.00     0.042 C 
HETATM   16  C16 UNL     1     -20.458  41.428 -24.995  1.00  0.00     0.001 C 
HETATM   17  C17 UNL     1     -19.487  40.203 -25.004  1.00  0.00     0.037 C 
HETATM   18  C18 UNL     1     -19.418  39.318 -26.289  1.00  0.00     0.123 C 
HETATM   19  O6  UNL     1     -19.412  39.983 -27.568  1.00  0.00    -0.371 OA
HETATM   20  C22 UNL     1     -18.615  41.167 -27.757  1.00  0.00     0.183 C 
HETATM   21  C29 UNL     1     -20.004  42.625 -24.088  1.00  0.00     0.032 C 
HETATM   22  C30 UNL     1     -19.977  42.373 -22.583  1.00  0.00    -0.053 C 
HETATM   23  C31 UNL     1     -20.846  43.104 -21.754  1.00  0.00     0.008 C 
HETATM   24  C32 UNL     1     -20.631  43.175 -20.376  1.00  0.00     0.012 C 
HETATM   25  C33 UNL     1     -19.529  42.529 -19.805  1.00  0.00    -0.010 C 
HETATM   26  C34 UNL     1     -18.777  41.652 -20.598  1.00  0.00     0.012 C 
HETATM   27  C35 UNL     1     -18.996  41.582 -21.976  1.00  0.00     0.008 C 
ENDROOT
BRANCH   1  28
HETATM   28  N3  UNL     1     -19.845  42.237 -17.370  1.00  0.00    -0.341 N 
HETATM   29  C1  UNL     1     -20.852  42.836 -16.865  1.00  0.00     0.124 C 
HETATM   30  N1  UNL     1     -21.365  44.059 -17.129  1.00  0.00    -0.279 NA
HETATM   31  N2  UNL     1     -21.585  42.229 -15.907  1.00  0.00    -0.279 NA
HETATM   32  H1  UNL     1     -20.715  44.629 -17.670  1.00  0.00     0.126 HD
HETATM   33  H2  UNL     1     -21.632  44.545 -16.280  1.00  0.00     0.126 HD
HETATM   34  H3  UNL     1     -21.308  41.255 -15.817  1.00  0.00     0.126 HD
HETATM   35  H4  UNL     1     -22.582  42.291 -16.076  1.00  0.00     0.126 HD
ATOM     36  H3  UNL     1     -19.604  41.296 -17.059  1.00  0.00     0.164 HD
ENDBRANCH   1  28
BRANCH  11  37
HETATM   37  S1  UNL     1     -19.459  45.860 -25.369  1.00  0.00     0.099 S 
HETATM   38  O2  UNL     1     -18.942  45.742 -26.717  1.00  0.00    -0.601 OA
HETATM   39  O3  UNL     1     -20.877  45.814 -25.080  1.00  0.00    -0.601 OA
BRANCH  37  40
HETATM   40  O4  UNL     1     -18.946  47.303 -24.849  1.00  0.00    -0.295 OA
HETATM   41  H15 UNL     1     -18.802  47.866 -25.641  1.00  0.00     0.232 HD
ENDBRANCH  37  40
ENDBRANCH  11  37
BRANCH  18  42
HETATM   42  C19 UNL     1     -20.588  38.318 -26.381  1.00  0.00     0.034 C 
BRANCH  42  43
HETATM   43  C20 UNL     1     -21.207  37.932 -25.035  1.00  0.00     0.028 C 
BRANCH  43  44
HETATM   44  C21 UNL     1     -20.818  36.520 -24.601  1.00  0.00     0.164 C 
BRANCH  44  45
HETATM   45  O5  UNL     1     -19.535  36.486 -23.997  1.00  0.00    -0.401 OA
HETATM   46  H30 UNL     1     -18.970  37.149 -24.438  1.00  0.00     0.209 HD
ENDBRANCH  44  45
ENDBRANCH  43  44
ENDBRANCH  42  43
ENDBRANCH  18  42
BRANCH  20  47
HETATM   47  C23 UNL     1     -18.690  41.635 -29.202  1.00  0.00    -0.025 A 
HETATM   48  C24 UNL     1     -18.882  40.738 -30.267  1.00  0.00     0.013 A 
HETATM   49  C25 UNL     1     -18.980  41.201 -31.581  1.00  0.00     0.037 A 
HETATM   50  C26 UNL     1     -18.891  42.562 -31.841  1.00  0.00     0.065 A 
HETATM   51  C27 UNL     1     -18.706  43.474 -30.806  1.00  0.00     0.037 A 
HETATM   52  C28 UNL     1     -18.605  43.009 -29.492  1.00  0.00     0.013 A 
BRANCH  50  53
HETATM   53  O7  UNL     1     -18.998  42.974 -33.136  1.00  0.00    -0.361 OA
HETATM   54  H34 UNL     1     -18.940  43.942 -33.157  1.00  0.00     0.217 HD
ENDBRANCH  50  53
ENDBRANCH  20  47
TORSDOF 9
ENDMDL
MODEL 4
REMARK minimizedAffinity -8.82725048
REMARK CNNscore 0.34871164
REMARK CNNaffinity 6.38216972
REMARK  9 active torsions:
REMARK  status: ('A' for Active; 'I' for Inactive)
REMARK       I    between atoms: N1_1  and  C1_2 
REMARK       I    between atoms: C1_2  and  N2_3 
REMARK    1  A    between atoms: N3_4  and  C2_6 
REMARK    2  A    between atoms: C11_16  and  S1_17 
REMARK    3  A    between atoms: S1_17  and  O4_20 
REMARK    4  A    between atoms: C18_27  and  C19_28 
REMARK    5  A    between atoms: C19_28  and  C20_29 
REMARK    6  A    between atoms: C20_29  and  C21_30 
REMARK    7  A    between atoms: C21_30  and  O5_31 
REMARK    8  A    between atoms: C22_33  and  C23_34 
REMARK    9  A    between atoms: C26_37  and  O7_38 
ROOT
HETATM    1  C2  UNL     1      -8.565  45.029 -31.666  1.00  0.00     0.263 C 
HETATM    2  O1  UNL     1      -7.439  45.548 -30.882  1.00  0.00    -0.322 OA
HETATM    3  C3  UNL     1      -7.786  46.428 -29.882  1.00  0.00     0.071 C 
HETATM    4  C4  UNL     1      -8.586  47.548 -30.096  1.00  0.00     0.037 C 
HETATM    5  C5  UNL     1      -9.096  48.250 -29.002  1.00  0.00     0.010 C 
HETATM    6  C6  UNL     1      -8.786  47.849 -27.694  1.00  0.00    -0.058 C 
HETATM    7  C7  UNL     1      -7.869  46.810 -27.501  1.00  0.00     0.010 C 
HETATM    8  C8  UNL     1      -7.361  46.109 -28.595  1.00  0.00     0.037 C 
HETATM    9  C9  UNL     1      -9.504  48.460 -26.515  1.00  0.00     0.040 C 
HETATM   10  C10 UNL     1     -10.981  48.019 -26.428  1.00  0.00     0.027 C 
HETATM   11  C11 UNL     1     -11.218  46.488 -26.314  1.00  0.00     0.130 C 
HETATM   12  C12 UNL     1     -12.546  46.064 -27.009  1.00  0.00     0.037 C 
HETATM   13  C13 UNL     1     -13.830  46.486 -26.311  1.00  0.00    -0.014 C 
HETATM   14  C14 UNL     1     -14.789  45.581 -26.012  1.00  0.00    -0.050 C 
HETATM   15  C15 UNL     1     -14.487  44.109 -26.106  1.00  0.00     0.042 C 
HETATM   16  C16 UNL     1     -13.995  43.930 -27.544  1.00  0.00     0.001 C 
HETATM   17  C17 UNL     1     -14.984  44.598 -28.553  1.00  0.00     0.037 C 
HETATM   18  C18 UNL     1     -16.510  44.586 -28.217  1.00  0.00     0.123 C 
HETATM   19  O6  UNL     1     -16.905  44.860 -26.858  1.00  0.00    -0.371 OA
HETATM   20  C22 UNL     1     -16.259  45.917 -26.124  1.00  0.00     0.183 C 
HETATM   21  C29 UNL     1     -12.556  44.554 -27.518  1.00  0.00     0.032 C 
HETATM   22  C30 UNL     1     -11.711  44.383 -28.777  1.00  0.00    -0.053 C 
HETATM   23  C31 UNL     1     -10.528  43.627 -28.706  1.00  0.00     0.008 C 
HETATM   24  C32 UNL     1      -9.556  43.723 -29.704  1.00  0.00     0.012 C 
HETATM   25  C33 UNL     1      -9.743  44.593 -30.784  1.00  0.00    -0.010 C 
HETATM   26  C34 UNL     1     -10.996  45.201 -30.950  1.00  0.00     0.012 C 
HETATM   27  C35 UNL     1     -11.967  45.101 -29.951  1.00  0.00     0.008 C 
ENDROOT
BRANCH   1  28
HETATM   28  N3  UNL     1      -8.257  43.993 -32.667  1.00  0.00    -0.341 N 
HETATM   29  C1  UNL     1      -8.231  44.291 -33.908  1.00  0.00     0.124 C 
HETATM   30  N1  UNL     1      -8.434  45.474 -34.528  1.00  0.00    -0.279 NA
HETATM   31  N2  UNL     1      -7.966  43.334 -34.823  1.00  0.00    -0.279 NA
HETATM   32  H1  UNL     1      -8.856  46.158 -33.901  1.00  0.00     0.126 HD
HETATM   33  H2  UNL     1      -9.001  45.369 -35.362  1.00  0.00     0.126 HD
HETATM   34  H3  UNL     1      -7.656  42.483 -34.362  1.00  0.00     0.126 HD
HETATM   35  H4  UNL     1      -7.280  43.625 -35.509  1.00  0.00     0.126 HD
ATOM     36  H3  UNL     1      -8.064  43.037 -32.369  1.00  0.00     0.164 HD
ENDBRANCH   1  28
BRANCH  11  37
HETATM   37  S1  UNL     1     -11.150  45.928 -24.595  1.00  0.00     0.099 S 
HETATM   38  O2  UNL     1     -11.856  44.674 -24.429  1.00  0.00    -0.601 OA
HETATM   39  O3  UNL     1      -9.838  46.155 -24.026  1.00  0.00    -0.601 OA
BRANCH  37  40
HETATM   40  O4  UNL     1     -12.119  47.044 -23.938  1.00  0.00    -0.295 OA
HETATM   41  H15 UNL     1     -12.679  46.589 -23.270  1.00  0.00     0.232 HD
ENDBRANCH  37  40
ENDBRANCH  11  37
BRANCH  18  42
HETATM   42  C19 UNL     1     -17.176  43.235 -28.547  1.00  0.00     0.034 C 
BRANCH  42  43
HETATM   43  C20 UNL     1     -18.705  43.274 -28.602  1.00  0.00     0.028 C 
BRANCH  43  44
HETATM   44  C21 UNL     1     -19.238  43.116 -30.025  1.00  0.00     0.164 C 
BRANCH  44  45
HETATM   45  O5  UNL     1     -18.934  44.243 -30.831  1.00  0.00    -0.401 OA
HETATM   46  H30 UNL     1     -18.966  45.040 -30.270  1.00  0.00     0.209 HD
ENDBRANCH  44  45
ENDBRANCH  43  44
ENDBRANCH  42  43
ENDBRANCH  18  42
BRANCH  20  47
HETATM   47  C23 UNL     1     -16.902  46.084 -24.756  1.00  0.00    -0.025 A 
HETATM   48  C24 UNL     1     -16.148  46.059 -23.570  1.00  0.00     0.013 A 
HETATM   49  C25 UNL     1     -16.762  46.249 -22.330  1.00  0.00     0.037 A 
HETATM   50  C26 UNL     1     -18.132  46.469 -22.265  1.00  0.00     0.065 A 
HETATM   51  C27 UNL     1     -18.903  46.504 -23.423  1.00  0.00     0.037 A 
HETATM   52  C28 UNL     1     -18.288  46.311 -24.663  1.00  0.00     0.013 A 
BRANCH  50  53
HETATM   53  O7  UNL     1     -18.692  46.656 -21.036  1.00  0.00    -0.361 OA
HETATM   54  H34 UNL     1     -19.642  46.819 -21.152  1.00  0.00     0.217 HD
ENDBRANCH  50  53
ENDBRANCH  20  47
TORSDOF 9
ENDMDL
MODEL 5
REMARK minimizedAffinity -9.34769821
REMARK CNNscore 0.31433624
REMARK CNNaffinity 7.1259346
REMARK  9 active torsions:
REMARK  status: ('A' for Active; 'I' for Inactive)
REMARK       I    between atoms: N1_1  and  C1_2 
REMARK       I    between atoms: C1_2  and  N2_3 
REMARK    1  A    between atoms: N3_4  and  C2_6 
REMARK    2  A    between atoms: C11_16  and  S1_17 
REMARK    3  A    between atoms: S1_17  and  O4_20 
REMARK    4  A    between atoms: C18_27  and  C19_28 
REMARK    5  A    between atoms: C19_28  and  C20_29 
REMARK    6  A    between atoms: C20_29  and  C21_30 
REMARK    7  A    between atoms: C21_30  and  O5_31 
REMARK    8  A    between atoms: C22_33  and  C23_34 
REMARK    9  A    between atoms: C26_37  and  O7_38 
ROOT
HETATM    1  C2  UNL     1      -6.685  44.195 -19.361  1.00  0.00     0.263 C 
HETATM    2  O1  UNL     1      -6.551  44.496 -17.932  1.00  0.00    -0.322 OA
HETATM    3  C3  UNL     1      -5.406  45.177 -17.587  1.00  0.00     0.071 C 
HETATM    4  C4  UNL     1      -4.130  44.759 -17.959  1.00  0.00     0.037 C 
HETATM    5  C5  UNL     1      -3.045  45.622 -17.788  1.00  0.00     0.010 C 
HETATM    6  C6  UNL     1      -3.230  46.892 -17.223  1.00  0.00    -0.058 C 
HETATM    7  C7  UNL     1      -4.492  47.238 -16.727  1.00  0.00     0.010 C 
HETATM    8  C8  UNL     1      -5.575  46.376 -16.899  1.00  0.00     0.037 C 
HETATM    9  C9  UNL     1      -2.113  47.907 -17.239  1.00  0.00     0.040 C 
HETATM   10  C10 UNL     1      -1.824  48.449 -18.655  1.00  0.00     0.027 C 
HETATM   11  C11 UNL     1      -3.023  49.135 -19.368  1.00  0.00     0.130 C 
HETATM   12  C12 UNL     1      -2.964  48.924 -20.911  1.00  0.00     0.037 C 
HETATM   13  C13 UNL     1      -1.871  49.684 -21.648  1.00  0.00    -0.014 C 
HETATM   14  C14 UNL     1      -2.165  50.472 -22.706  1.00  0.00    -0.050 C 
HETATM   15  C15 UNL     1      -3.597  50.834 -22.997  1.00  0.00     0.042 C 
HETATM   16  C16 UNL     1      -4.299  49.479 -23.112  1.00  0.00     0.001 C 
HETATM   17  C17 UNL     1      -3.514  48.531 -24.076  1.00  0.00     0.037 C 
HETATM   18  C18 UNL     1      -2.774  49.160 -25.299  1.00  0.00     0.123 C 
HETATM   19  O6  UNL     1      -2.051  50.390 -25.092  1.00  0.00    -0.371 OA
HETATM   20  C22 UNL     1      -1.251  50.560 -23.907  1.00  0.00     0.183 C 
HETATM   21  C29 UNL     1      -4.386  48.985 -21.625  1.00  0.00     0.032 C 
HETATM   22  C30 UNL     1      -5.196  47.717 -21.370  1.00  0.00    -0.053 C 
HETATM   23  C31 UNL     1      -6.358  47.798 -20.583  1.00  0.00     0.008 C 
HETATM   24  C32 UNL     1      -6.932  46.649 -20.034  1.00  0.00     0.012 C 
HETATM   25  C33 UNL     1      -6.341  45.398 -20.250  1.00  0.00    -0.010 C 
HETATM   26  C34 UNL     1      -5.299  45.298 -21.182  1.00  0.00     0.012 C 
HETATM   27  C35 UNL     1      -4.729  46.448 -21.731  1.00  0.00     0.008 C 
ENDROOT
BRANCH   1  28
HETATM   28  N3  UNL     1      -7.948  43.575 -19.795  1.00  0.00    -0.341 N 
HETATM   29  C1  UNL     1      -7.932  42.584 -20.598  1.00  0.00     0.124 C 
HETATM   30  N1  UNL     1      -6.890  41.930 -21.159  1.00  0.00    -0.279 NA
HETATM   31  N2  UNL     1      -9.094  42.030 -21.007  1.00  0.00    -0.279 NA
HETATM   32  H1  UNL     1      -6.021  42.454 -21.059  1.00  0.00     0.126 HD
HETATM   33  H2  UNL     1      -7.060  41.721 -22.136  1.00  0.00     0.126 HD
HETATM   34  H3  UNL     1      -9.870  42.406 -20.470  1.00  0.00     0.126 HD
HETATM   35  H4  UNL     1      -9.090  41.018 -20.948  1.00  0.00     0.126 HD
ATOM     36  H3  UNL     1      -8.838  43.939 -19.454  1.00  0.00     0.164 HD
ENDBRANCH   1  28
BRANCH  11  37
HETATM   37  S1  UNL     1      -3.145  50.887 -18.933  1.00  0.00     0.099 S 
HETATM   38  O2  UNL     1      -3.966  51.602 -19.887  1.00  0.00    -0.601 OA
HETATM   39  O3  UNL     1      -3.298  51.057 -17.503  1.00  0.00    -0.601 OA
BRANCH  37  40
HETATM   40  O4  UNL     1      -1.626  51.328 -19.273  1.00  0.00    -0.295 OA
HETATM   41  H15 UNL     1      -1.666  52.210 -19.703  1.00  0.00     0.232 HD
ENDBRANCH  37  40
ENDBRANCH  11  37
BRANCH  18  42
HETATM   42  C19 UNL     1      -3.728  49.468 -26.472  1.00  0.00     0.034 C 
BRANCH  42  43
HETATM   43  C20 UNL     1      -4.651  48.312 -26.865  1.00  0.00     0.028 C 
BRANCH  43  44
HETATM   44  C21 UNL     1      -4.843  48.213 -28.377  1.00  0.00     0.164 C 
BRANCH  44  45
HETATM   45  O5  UNL     1      -4.301  49.336 -29.054  1.00  0.00    -0.401 OA
HETATM   46  H30 UNL     1      -4.424  50.123 -28.490  1.00  0.00     0.209 HD
ENDBRANCH  44  45
ENDBRANCH  43  44
ENDBRANCH  42  43
ENDBRANCH  18  42
BRANCH  20  47
HETATM   47  C23 UNL     1      -0.509  51.886 -23.951  1.00  0.00    -0.025 A 
HETATM   48  C24 UNL     1       0.264  52.345 -22.871  1.00  0.00     0.013 A 
HETATM   49  C25 UNL     1       0.962  53.552 -22.953  1.00  0.00     0.037 A 
HETATM   50  C26 UNL     1       0.896  54.308 -24.116  1.00  0.00     0.065 A 
HETATM   51  C27 UNL     1       0.143  53.878 -25.204  1.00  0.00     0.037 A 
HETATM   52  C28 UNL     1      -0.557  52.670 -25.119  1.00  0.00     0.013 A 
BRANCH  50  53
HETATM   53  O7  UNL     1       1.596  55.477 -24.159  1.00  0.00    -0.361 OA
HETATM   54  H34 UNL     1       1.472  55.879 -25.034  1.00  0.00     0.217 HD
ENDBRANCH  50  53
ENDBRANCH  20  47
TORSDOF 9
ENDMDL
MODEL 6
REMARK minimizedAffinity -9.27362919
REMARK CNNscore 0.312246382
REMARK CNNaffinity 6.84583282
REMARK  9 active torsions:
REMARK  status: ('A' for Active; 'I' for Inactive)
REMARK       I    between atoms: N1_1  and  C1_2 
REMARK       I    between atoms: C1_2  and  N2_3 
REMARK    1  A    between atoms: N3_4  and  C2_6 
REMARK    2  A    between atoms: C11_16  and  S1_17 
REMARK    3  A    between atoms: S1_17  and  O4_20 
REMARK    4  A    between atoms: C18_27  and  C19_28 
REMARK    5  A    between atoms: C19_28  and  C20_29 
REMARK    6  A    between atoms: C20_29  and  C21_30 
REMARK    7  A    between atoms: C21_30  and  O5_31 
REMARK    8  A    between atoms: C22_33  and  C23_34 
REMARK    9  A    between atoms: C26_37  and  O7_38 
ROOT
HETATM    1  C2  UNL     1      -7.959  44.350 -20.006  1.00  0.00     0.263 C 
HETATM    2  O1  UNL     1      -8.545  44.430 -21.349  1.00  0.00    -0.322 OA
HETATM    3  C3  UNL     1      -8.426  45.657 -21.962  1.00  0.00     0.071 C 
HETATM    4  C4  UNL     1      -8.814  46.851 -21.359  1.00  0.00     0.037 C 
HETATM    5  C5  UNL     1      -8.438  48.067 -21.933  1.00  0.00     0.010 C 
HETATM    6  C6  UNL     1      -7.697  48.091 -23.124  1.00  0.00    -0.058 C 
HETATM    7  C7  UNL     1      -7.438  46.887 -23.788  1.00  0.00     0.010 C 
HETATM    8  C8  UNL     1      -7.813  45.672 -23.213  1.00  0.00     0.037 C 
HETATM    9  C9  UNL     1      -7.101  49.383 -23.629  1.00  0.00     0.040 C 
HETATM   10  C10 UNL     1      -5.933  49.880 -22.751  1.00  0.00     0.027 C 
HETATM   11  C11 UNL     1      -4.738  48.897 -22.606  1.00  0.00     0.130 C 
HETATM   12  C12 UNL     1      -4.056  49.032 -21.212  1.00  0.00     0.037 C 
HETATM   13  C13 UNL     1      -3.256  50.306 -20.980  1.00  0.00    -0.014 C 
HETATM   14  C14 UNL     1      -1.971  50.254 -20.564  1.00  0.00    -0.050 C 
HETATM   15  C15 UNL     1      -1.225  48.946 -20.596  1.00  0.00     0.042 C 
HETATM   16  C16 UNL     1      -2.105  48.004 -19.772  1.00  0.00     0.001 C 
HETATM   17  C17 UNL     1      -2.487  48.660 -18.406  1.00  0.00     0.037 C 
HETATM   18  C18 UNL     1      -1.448  49.601 -17.715  1.00  0.00     0.123 C 
HETATM   19  O6  UNL     1      -0.725  50.533 -18.544  1.00  0.00    -0.371 OA
HETATM   20  C22 UNL     1      -1.416  51.257 -19.579  1.00  0.00     0.183 C 
HETATM   21  C29 UNL     1      -3.315  47.708 -20.725  1.00  0.00     0.032 C 
HETATM   22  C30 UNL     1      -4.311  46.649 -20.261  1.00  0.00    -0.053 C 
HETATM   23  C31 UNL     1      -4.449  45.469 -21.011  1.00  0.00     0.008 C 
HETATM   24  C32 UNL     1      -5.561  44.641 -20.844  1.00  0.00     0.012 C 
HETATM   25  C33 UNL     1      -6.566  44.990 -19.934  1.00  0.00    -0.010 C 
HETATM   26  C34 UNL     1      -6.338  46.060 -19.059  1.00  0.00     0.012 C 
HETATM   27  C35 UNL     1      -5.223  46.885 -19.226  1.00  0.00     0.008 C 
ENDROOT
BRANCH   1  28
HETATM   28  N3  UNL     1      -7.955  43.027 -19.360  1.00  0.00    -0.341 N 
HETATM   29  C1  UNL     1      -7.816  41.972 -20.063  1.00  0.00     0.124 C 
HETATM   30  N1  UNL     1      -7.641  41.825 -21.395  1.00  0.00    -0.279 NA
HETATM   31  N2  UNL     1      -7.830  40.760 -19.467  1.00  0.00    -0.279 NA
HETATM   32  H1  UNL     1      -7.853  42.687 -21.898  1.00  0.00     0.126 HD
HETATM   33  H2  UNL     1      -8.196  41.061 -21.765  1.00  0.00     0.126 HD
HETATM   34  H3  UNL     1      -7.799  40.865 -18.456  1.00  0.00     0.126 HD
HETATM   35  H4  UNL     1      -7.074  40.160 -19.776  1.00  0.00     0.126 HD
ATOM     36  H3  UNL     1      -8.064  42.954 -18.348  1.00  0.00     0.164 HD
ENDBRANCH   1  28
BRANCH  11  37
HETATM   37  S1  UNL     1      -3.550  49.087 -23.958  1.00  0.00     0.099 S 
HETATM   38  O2  UNL     1      -2.200  48.829 -23.502  1.00  0.00    -0.601 OA
HETATM   39  O3  UNL     1      -4.069  48.527 -25.188  1.00  0.00    -0.601 OA
BRANCH  37  40
HETATM   40  O4  UNL     1      -3.633  50.694 -24.130  1.00  0.00    -0.295 OA
HETATM   41  H15 UNL     1      -2.720  51.019 -24.291  1.00  0.00     0.232 HD
ENDBRANCH  37  40
ENDBRANCH  11  37
BRANCH  18  42
HETATM   42  C19 UNL     1      -0.350  48.818 -16.967  1.00  0.00     0.034 C 
BRANCH  42  43
HETATM   43  C20 UNL     1       0.350  49.604 -15.856  1.00  0.00     0.028 C 
BRANCH  43  44
HETATM   44  C21 UNL     1       1.019  48.690 -14.831  1.00  0.00     0.164 C 
BRANCH  44  45
HETATM   45  O5  UNL     1       1.154  47.363 -15.316  1.00  0.00    -0.401 OA
HETATM   46  H30 UNL     1       0.383  47.161 -15.878  1.00  0.00     0.209 HD
ENDBRANCH  44  45
ENDBRANCH  43  44
ENDBRANCH  42  43
ENDBRANCH  18  42
BRANCH  20  47
HETATM   47  C23 UNL     1      -0.477  52.246 -20.254  1.00  0.00    -0.025 A 
HETATM   48  C24 UNL     1       0.219  53.227 -19.528  1.00  0.00     0.013 A 
HETATM   49  C25 UNL     1       1.100  54.100 -20.171  1.00  0.00     0.037 A 
HETATM   50  C26 UNL     1       1.295  53.996 -21.542  1.00  0.00     0.065 A 
HETATM   51  C27 UNL     1       0.623  53.031 -22.286  1.00  0.00     0.037 A 
HETATM   52  C28 UNL     1      -0.260  52.160 -21.642  1.00  0.00     0.013 A 
BRANCH  50  53
HETATM   53  O7  UNL     1       2.168  54.862 -22.131  1.00  0.00    -0.361 OA
HETATM   54  H34 UNL     1       2.215  54.655 -23.078  1.00  0.00     0.217 HD
ENDBRANCH  50  53
ENDBRANCH  20  47
TORSDOF 9
ENDMDL
MODEL 7
REMARK minimizedAffinity -7.13341475
REMARK CNNscore 0.240705296
REMARK CNNaffinity 6.3462615
REMARK  9 active torsions:
REMARK  status: ('A' for Active; 'I' for Inactive)
REMARK       I    between atoms: N1_1  and  C1_2 
REMARK       I    between atoms: C1_2  and  N2_3 
REMARK    1  A    between atoms: N3_4  and  C2_6 
REMARK    2  A    between atoms: C11_16  and  S1_17 
REMARK    3  A    between atoms: S1_17  and  O4_20 
REMARK    4  A    between atoms: C18_27  and  C19_28 
REMARK    5  A    between atoms: C19_28  and  C20_29 
REMARK    6  A    between atoms: C20_29  and  C21_30 
REMARK    7  A    between atoms: C21_30  and  O5_31 
REMARK    8  A    between atoms: C22_33  and  C23_34 
REMARK    9  A    between atoms: C26_37  and  O7_38 
ROOT
HETATM    1  C2  UNL     1      -1.007  53.374 -10.111  1.00  0.00     0.263 C 
HETATM    2  O1  UNL     1       0.120  52.747 -10.808  1.00  0.00    -0.322 OA
HETATM    3  C3  UNL     1       1.311  53.432 -10.719  1.00  0.00     0.071 C 
HETATM    4  C4  UNL     1       1.438  54.783 -11.031  1.00  0.00     0.037 C 
HETATM    5  C5  UNL     1       2.607  55.464 -10.684  1.00  0.00     0.010 C 
HETATM    6  C6  UNL     1       3.659  54.790 -10.047  1.00  0.00    -0.058 C 
HETATM    7  C7  UNL     1       3.569  53.404  -9.869  1.00  0.00     0.010 C 
HETATM    8  C8  UNL     1       2.401  52.725 -10.216  1.00  0.00     0.037 C 
HETATM    9  C9  UNL     1       4.825  55.558  -9.473  1.00  0.00     0.040 C 
HETATM   10  C10 UNL     1       4.437  56.378  -8.224  1.00  0.00     0.027 C 
HETATM   11  C11 UNL     1       3.851  55.560  -7.040  1.00  0.00     0.130 C 
HETATM   12  C12 UNL     1       2.803  56.389  -6.238  1.00  0.00     0.037 C 
HETATM   13  C13 UNL     1       3.356  57.530  -5.398  1.00  0.00    -0.014 C 
HETATM   14  C14 UNL     1       3.060  57.633  -4.083  1.00  0.00    -0.050 C 
HETATM   15  C15 UNL     1       2.417  56.474  -3.367  1.00  0.00     0.042 C 
HETATM   16  C16 UNL     1       1.159  56.190  -4.190  1.00  0.00     0.001 C 
HETATM   17  C17 UNL     1       0.355  57.507  -4.442  1.00  0.00     0.037 C 
HETATM   18  C18 UNL     1       0.358  58.604  -3.329  1.00  0.00     0.123 C 
HETATM   19  O6  UNL     1       1.604  58.887  -2.662  1.00  0.00    -0.371 OA
HETATM   20  C22 UNL     1       2.822  58.973  -3.426  1.00  0.00     0.183 C 
HETATM   21  C29 UNL     1       1.718  55.500  -5.484  1.00  0.00     0.032 C 
HETATM   22  C30 UNL     1       0.689  54.930  -6.455  1.00  0.00    -0.053 C 
HETATM   23  C31 UNL     1       0.660  53.542  -6.680  1.00  0.00     0.008 C 
HETATM   24  C32 UNL     1      -0.002  53.010  -7.789  1.00  0.00     0.012 C 
HETATM   25  C33 UNL     1      -0.631  53.861  -8.705  1.00  0.00    -0.010 C 
HETATM   26  C34 UNL     1      -0.762  55.219  -8.382  1.00  0.00     0.012 C 
HETATM   27  C35 UNL     1      -0.101  55.748  -7.271  1.00  0.00     0.008 C 
ENDROOT
BRANCH   1  28
HETATM   28  N3  UNL     1      -2.271  52.620 -10.077  1.00  0.00    -0.341 N 
HETATM   29  C1  UNL     1      -3.281  53.032 -10.740  1.00  0.00     0.124 C 
HETATM   30  N1  UNL     1      -3.417  54.107 -11.547  1.00  0.00    -0.279 NA
HETATM   31  N2  UNL     1      -4.443  52.345 -10.691  1.00  0.00    -0.279 NA
HETATM   32  H1  UNL     1      -2.647  54.765 -11.428  1.00  0.00     0.126 HD
HETATM   33  H2  UNL     1      -4.303  54.578 -11.398  1.00  0.00     0.126 HD
HETATM   34  H3  UNL     1      -4.306  51.455 -10.221  1.00  0.00     0.126 HD
HETATM   35  H4  UNL     1      -4.850  52.194 -11.607  1.00  0.00     0.126 HD
ATOM     36  H3  UNL     1      -2.341  51.767  -9.522  1.00  0.00     0.164 HD
ENDBRANCH   1  28
BRANCH  11  37
HETATM   37  S1  UNL     1       5.156  54.908  -5.969  1.00  0.00     0.099 S 
HETATM   38  O2  UNL     1       4.643  54.614  -4.647  1.00  0.00    -0.601 OA
HETATM   39  O3  UNL     1       6.006  53.984  -6.690  1.00  0.00    -0.601 OA
BRANCH  37  40
HETATM   40  O4  UNL     1       6.022  56.263  -5.790  1.00  0.00    -0.295 OA
HETATM   41  H15 UNL     1       6.318  56.300  -4.854  1.00  0.00     0.232 HD
ENDBRANCH  37  40
ENDBRANCH  11  37
BRANCH  18  42
HETATM   42  C19 UNL     1      -0.628  58.289  -2.186  1.00  0.00     0.034 C 
BRANCH  42  43
HETATM   43  C20 UNL     1      -2.104  58.473  -2.545  1.00  0.00     0.028 C 
BRANCH  43  44
HETATM   44  C21 UNL     1      -2.572  59.914  -2.350  1.00  0.00     0.164 C 
BRANCH  44  45
HETATM   45  O5  UNL     1      -3.760  60.187  -3.077  1.00  0.00    -0.401 OA
HETATM   46  H30 UNL     1      -3.734  59.678  -3.910  1.00  0.00     0.209 HD
ENDBRANCH  44  45
ENDBRANCH  43  44
ENDBRANCH  42  43
ENDBRANCH  18  42
BRANCH  20  47
HETATM   47  C23 UNL     1       3.984  59.373  -2.530  1.00  0.00    -0.025 A 
HETATM   48  C24 UNL     1       5.322  59.158  -2.904  1.00  0.00     0.013 A 
HETATM   49  C25 UNL     1       6.369  59.567  -2.076  1.00  0.00     0.037 A 
HETATM   50  C26 UNL     1       6.089  60.197  -0.870  1.00  0.00     0.065 A 
HETATM   51  C27 UNL     1       4.775  60.428  -0.476  1.00  0.00     0.037 A 
HETATM   52  C28 UNL     1       3.728  60.016  -1.305  1.00  0.00     0.013 A 
BRANCH  50  53
HETATM   53  O7  UNL     1       7.140  60.586  -0.093  1.00  0.00    -0.361 OA
HETATM   54  H34 UNL     1       6.791  61.027   0.698  1.00  0.00     0.217 HD
ENDBRANCH  50  53
ENDBRANCH  20  47
TORSDOF 9
ENDMDL
MODEL 8
REMARK minimizedAffinity -7.39894724
REMARK CNNscore 0.236965954
REMARK CNNaffinity 6.03234673
REMARK  9 active torsions:
REMARK  status: ('A' for Active; 'I' for Inactive)
REMARK       I    between atoms: N1_1  and  C1_2 
REMARK       I    between atoms: C1_2  and  N2_3 
REMARK    1  A    between atoms: N3_4  and  C2_6 
REMARK    2  A    between atoms: C11_16  and  S1_17 
REMARK    3  A    between atoms: S1_17  and  O4_20 
REMARK    4  A    between atoms: C18_27  and  C19_28 
REMARK    5  A    between atoms: C19_28  and  C20_29 
REMARK    6  A    between atoms: C20_29  and  C21_30 
REMARK    7  A    between atoms: C21_30  and  O5_31 
REMARK    8  A    between atoms: C22_33  and  C23_34 
REMARK    9  A    between atoms: C26_37  and  O7_38 
ROOT
HETATM    1  C2  UNL     1     -15.673  44.409 -25.042  1.00  0.00     0.263 C 
HETATM    2  O1  UNL     1     -15.787  43.865 -26.399  1.00  0.00    -0.322 OA
HETATM    3  C3  UNL     1     -14.944  44.436 -27.326  1.00  0.00     0.071 C 
HETATM    4  C4  UNL     1     -14.851  45.811 -27.526  1.00  0.00     0.037 C 
HETATM    5  C5  UNL     1     -13.807  46.326 -28.298  1.00  0.00     0.010 C 
HETATM    6  C6  UNL     1     -12.872  45.466 -28.891  1.00  0.00    -0.058 C 
HETATM    7  C7  UNL     1     -13.063  44.083 -28.795  1.00  0.00     0.010 C 
HETATM    8  C8  UNL     1     -14.105  43.570 -28.023  1.00  0.00     0.037 C 
HETATM    9  C9  UNL     1     -11.624  46.020 -29.537  1.00  0.00     0.040 C 
HETATM   10  C10 UNL     1     -10.626  46.589 -28.506  1.00  0.00     0.027 C 
HETATM   11  C11 UNL     1     -10.129  45.585 -27.429  1.00  0.00     0.130 C 
HETATM   12  C12 UNL     1      -9.845  46.299 -26.074  1.00  0.00     0.037 C 
HETATM   13  C13 UNL     1      -8.621  47.204 -26.039  1.00  0.00    -0.014 C 
HETATM   14  C14 UNL     1      -7.671  47.052 -25.089  1.00  0.00    -0.050 C 
HETATM   15  C15 UNL     1      -7.662  45.817 -24.228  1.00  0.00     0.042 C 
HETATM   16  C16 UNL     1      -9.061  45.793 -23.610  1.00  0.00     0.001 C 
HETATM   17  C17 UNL     1      -9.415  47.184 -22.990  1.00  0.00     0.037 C 
HETATM   18  C18 UNL     1      -8.266  48.026 -22.348  1.00  0.00     0.123 C 
HETATM   19  O6  UNL     1      -7.001  48.082 -23.039  1.00  0.00    -0.371 OA
HETATM   20  C22 UNL     1      -6.973  48.242 -24.470  1.00  0.00     0.183 C 
HETATM   21  C29 UNL     1      -9.979  45.349 -24.802  1.00  0.00     0.032 C 
HETATM   22  C30 UNL     1     -11.441  45.061 -24.472  1.00  0.00    -0.053 C 
HETATM   23  C31 UNL     1     -11.933  43.755 -24.639  1.00  0.00     0.008 C 
HETATM   24  C32 UNL     1     -13.306  43.508 -24.691  1.00  0.00     0.012 C 
HETATM   25  C33 UNL     1     -14.214  44.570 -24.594  1.00  0.00    -0.010 C 
HETATM   26  C34 UNL     1     -13.731  45.837 -24.242  1.00  0.00     0.012 C 
HETATM   27  C35 UNL     1     -12.357  46.080 -24.188  1.00  0.00     0.008 C 
ENDROOT
BRANCH   1  28
HETATM   28  N3  UNL     1     -16.467  43.750 -23.992  1.00  0.00    -0.341 N 
HETATM   29  C1  UNL     1     -17.370  44.401 -23.368  1.00  0.00     0.124 C 
HETATM   30  N1  UNL     1     -17.780  45.681 -23.510  1.00  0.00    -0.279 NA
HETATM   31  N2  UNL     1     -18.083  43.797 -22.394  1.00  0.00    -0.279 NA
HETATM   32  H1  UNL     1     -17.121  46.227 -24.065  1.00  0.00     0.126 HD
HETATM   33  H2  UNL     1     -17.933  46.128 -22.612  1.00  0.00     0.126 HD
HETATM   34  H3  UNL     1     -17.896  42.798 -22.389  1.00  0.00     0.126 HD
HETATM   35  H4  UNL     1     -19.080  43.962 -22.475  1.00  0.00     0.126 HD
ATOM     36  H3  UNL     1     -16.296  42.771 -23.763  1.00  0.00     0.164 HD
ENDBRANCH   1  28
BRANCH  11  37
HETATM   37  S1  UNL     1      -8.697  44.641 -28.006  1.00  0.00     0.099 S 
HETATM   38  O2  UNL     1      -7.982  44.053 -26.893  1.00  0.00    -0.601 OA
HETATM   39  O3  UNL     1      -9.019  43.889 -29.200  1.00  0.00    -0.601 OA
BRANCH  37  40
HETATM   40  O4  UNL     1      -7.773  45.876 -28.492  1.00  0.00    -0.295 OA
HETATM   41  H15 UNL     1      -6.848  45.672 -28.229  1.00  0.00     0.232 HD
ENDBRANCH  37  40
ENDBRANCH  11  37
BRANCH  18  42
HETATM   42  C19 UNL     1      -7.907  47.548 -20.927  1.00  0.00     0.034 C 
BRANCH  42  43
HETATM   43  C20 UNL     1      -8.208  48.558 -19.818  1.00  0.00     0.028 C 
BRANCH  43  44
HETATM   44  C21 UNL     1      -7.890  48.007 -18.429  1.00  0.00     0.164 C 
BRANCH  44  45
HETATM   45  O5  UNL     1      -8.183  48.948 -17.407  1.00  0.00    -0.401 OA
HETATM   46  H30 UNL     1      -7.995  49.842 -17.749  1.00  0.00     0.209 HD
ENDBRANCH  44  45
ENDBRANCH  43  44
ENDBRANCH  42  43
ENDBRANCH  18  42
BRANCH  20  47
HETATM   47  C23 UNL     1      -5.540  48.370 -24.963  1.00  0.00    -0.025 A 
HETATM   48  C24 UNL     1      -5.202  48.222 -26.319  1.00  0.00     0.013 A 
HETATM   49  C25 UNL     1      -3.882  48.379 -26.746  1.00  0.00     0.037 A 
HETATM   50  C26 UNL     1      -2.890  48.689 -25.825  1.00  0.00     0.065 A 
HETATM   51  C27 UNL     1      -3.196  48.846 -24.476  1.00  0.00     0.037 A 
HETATM   52  C28 UNL     1      -4.517  48.686 -24.049  1.00  0.00     0.013 A 
BRANCH  50  53
HETATM   53  O7  UNL     1      -1.615  48.839 -26.283  1.00  0.00    -0.361 OA
HETATM   54  H34 UNL     1      -1.044  49.074 -25.534  1.00  0.00     0.217 HD
ENDBRANCH  50  53
ENDBRANCH  20  47
TORSDOF 9
ENDMDL
MODEL 9
REMARK minimizedAffinity -7.53249502
REMARK CNNscore 0.232616067
REMARK CNNaffinity 5.81593132
REMARK  9 active torsions:
REMARK  status: ('A' for Active; 'I' for Inactive)
REMARK       I    between atoms: N1_1  and  C1_2 
REMARK       I    between atoms: C1_2  and  N2_3 
REMARK    1  A    between atoms: N3_4  and  C2_6 
REMARK    2  A    between atoms: C11_16  and  S1_17 
REMARK    3  A    between atoms: S1_17  and  O4_20 
REMARK    4  A    between atoms: C18_27  and  C19_28 
REMARK    5  A    between atoms: C19_28  and  C20_29 
REMARK    6  A    between atoms: C20_29  and  C21_30 
REMARK    7  A    between atoms: C21_30  and  O5_31 
REMARK    8  A    between atoms: C22_33  and  C23_34 
REMARK    9  A    between atoms: C26_37  and  O7_38 
ROOT
HETATM    1  C2  UNL     1      -4.682  48.119 -19.547  1.00  0.00     0.263 C 
HETATM    2  O1  UNL     1      -5.354  47.571 -18.364  1.00  0.00    -0.322 OA
HETATM    3  C3  UNL     1      -6.729  47.565 -18.429  1.00  0.00     0.071 C 
HETATM    4  C4  UNL     1      -7.482  48.693 -18.746  1.00  0.00     0.037 C 
HETATM    5  C5  UNL     1      -8.842  48.555 -19.034  1.00  0.00     0.010 C 
HETATM    6  C6  UNL     1      -9.455  47.295 -18.980  1.00  0.00    -0.058 C 
HETATM    7  C7  UNL     1      -8.715  46.198 -18.524  1.00  0.00     0.010 C 
HETATM    8  C8  UNL     1      -7.357  46.336 -18.237  1.00  0.00     0.037 C 
HETATM    9  C9  UNL     1     -10.859  47.103 -19.501  1.00  0.00     0.040 C 
HETATM   10  C10 UNL     1     -10.941  47.210 -21.039  1.00  0.00     0.027 C 
HETATM   11  C11 UNL     1     -10.061  46.202 -21.829  1.00  0.00     0.130 C 
HETATM   12  C12 UNL     1      -9.558  46.814 -23.170  1.00  0.00     0.037 C 
HETATM   13  C13 UNL     1     -10.609  47.005 -24.253  1.00  0.00    -0.014 C 
HETATM   14  C14 UNL     1     -10.428  46.502 -25.495  1.00  0.00    -0.050 C 
HETATM   15  C15 UNL     1      -9.324  45.509 -25.748  1.00  0.00     0.042 C 
HETATM   16  C16 UNL     1      -8.067  46.232 -25.262  1.00  0.00     0.001 C 
HETATM   17  C17 UNL     1      -7.988  47.671 -25.867  1.00  0.00     0.037 C 
HETATM   18  C18 UNL     1      -8.542  47.903 -27.310  1.00  0.00     0.123 C 
HETATM   19  O6  UNL     1      -9.786  47.267 -27.666  1.00  0.00    -0.371 OA
HETATM   20  C22 UNL     1     -10.878  47.253 -26.728  1.00  0.00     0.183 C 
HETATM   21  C29 UNL     1      -8.196  46.179 -23.699  1.00  0.00     0.032 C 
HETATM   22  C30 UNL     1      -6.998  46.675 -22.895  1.00  0.00    -0.053 C 
HETATM   23  C31 UNL     1      -6.301  45.765 -22.080  1.00  0.00     0.008 C 
HETATM   24  C32 UNL     1      -5.441  46.217 -21.076  1.00  0.00     0.012 C 
HETATM   25  C33 UNL     1      -5.277  47.590 -20.859  1.00  0.00    -0.010 C 
HETATM   26  C34 UNL     1      -5.822  48.488 -21.786  1.00  0.00     0.012 C 
HETATM   27  C35 UNL     1      -6.679  48.033 -22.791  1.00  0.00     0.008 C 
ENDROOT
BRANCH   1  28
HETATM   28  N3  UNL     1      -3.212  48.037 -19.575  1.00  0.00    -0.341 N 
HETATM   29  C1  UNL     1      -2.526  48.505 -18.606  1.00  0.00     0.124 C 
HETATM   30  N1  UNL     1      -2.925  49.097 -17.458  1.00  0.00    -0.279 NA
HETATM   31  N2  UNL     1      -1.178  48.443 -18.644  1.00  0.00    -0.279 NA
HETATM   32  H1  UNL     1      -3.908  49.365 -17.496  1.00  0.00     0.126 HD
HETATM   33  H2  UNL     1      -2.352  49.902 -17.232  1.00  0.00     0.126 HD
HETATM   34  H3  UNL     1      -0.875  47.861 -19.421  1.00  0.00     0.126 HD
HETATM   35  H4  UNL     1      -0.774  48.103 -17.779  1.00  0.00     0.126 HD
ATOM     36  H3  UNL     1      -2.741  47.605 -20.370  1.00  0.00     0.164 HD
ENDBRANCH   1  28
BRANCH  11  37
HETATM   37  S1  UNL     1     -10.916  44.628 -22.086  1.00  0.00     0.099 S 
HETATM   38  O2  UNL     1     -11.093  43.924 -20.833  1.00  0.00    -0.601 OA
HETATM   39  O3  UNL     1     -11.987  44.771 -23.049  1.00  0.00    -0.601 OA
BRANCH  37  40
HETATM   40  O4  UNL     1      -9.733  43.831 -22.850  1.00  0.00    -0.295 OA
HETATM   41  H15 UNL     1      -9.734  42.909 -22.510  1.00  0.00     0.232 HD
ENDBRANCH  37  40
ENDBRANCH  11  37
BRANCH  18  42
HETATM   42  C19 UNL     1      -7.552  47.451 -28.402  1.00  0.00     0.034 C 
BRANCH  42  43
HETATM   43  C20 UNL     1      -6.084  47.764 -28.104  1.00  0.00     0.028 C 
BRANCH  43  44
HETATM   44  C21 UNL     1      -5.228  47.791 -29.368  1.00  0.00     0.164 C 
BRANCH  44  45
HETATM   45  O5  UNL     1      -4.877  49.115 -29.741  1.00  0.00    -0.401 OA
HETATM   46  H30 UNL     1      -5.620  49.705 -29.515  1.00  0.00     0.209 HD
ENDBRANCH  44  45
ENDBRANCH  43  44
ENDBRANCH  42  43
ENDBRANCH  18  42
BRANCH  20  47
HETATM   47  C23 UNL     1     -12.109  46.617 -27.354  1.00  0.00    -0.025 A 
HETATM   48  C24 UNL     1     -12.021  45.743 -28.451  1.00  0.00     0.013 A 
HETATM   49  C25 UNL     1     -13.167  45.148 -28.984  1.00  0.00     0.037 A 
HETATM   50  C26 UNL     1     -14.408  45.418 -28.423  1.00  0.00     0.065 A 
HETATM   51  C27 UNL     1     -14.526  46.276 -27.333  1.00  0.00     0.037 A 
HETATM   52  C28 UNL     1     -13.379  46.872 -26.803  1.00  0.00     0.013 A 
BRANCH  50  53
HETATM   53  O7  UNL     1     -15.502  44.812 -28.968  1.00  0.00    -0.361 OA
HETATM   54  H34 UNL     1     -16.285  45.078 -28.461  1.00  0.00     0.217 HD
ENDBRANCH  50  53
ENDBRANCH  20  47
TORSDOF 9
ENDMDL
