MODEL 1
REMARK minimizedAffinity -8.99787521
REMARK  2 active torsions:
REMARK  status: ('A' for Active; 'I' for Inactive)
REMARK    1  A    between atoms: C1_2  and  C2_3 
REMARK       I    between atoms: C1_2  and  N2_16 
REMARK    2  A    between atoms: C10_14  and  O2_15 
ROOT
HETATM    1  O1  UNL     1      12.173  35.804  17.633  1.00  0.00    -0.267 OA
HETATM    2  C1  UNL     1      13.242  36.214  18.076  1.00  0.00     0.258 C 
HETATM    3  N2  UNL     1      13.602  36.243  19.424  1.00  0.00    -0.339 N 
HETATM    4  C11 UNL     1      15.002  35.992  19.817  1.00  0.00     0.127 C 
HETATM    5  C12 UNL     1      15.145  34.959  20.943  1.00  0.00     0.024 C 
HETATM    6  C13 UNL     1      14.063  33.885  20.855  1.00  0.00     0.037 C 
HETATM    7  C14 UNL     1      12.705  34.522  20.952  1.00  0.00    -0.060 C 
HETATM    8  C15 UNL     1      11.574  33.831  21.319  1.00  0.00    -0.015 C 
HETATM    9  C16 UNL     1      10.178  34.520  21.538  1.00  0.00     0.031 C 
HETATM   10  C17 UNL     1      10.549  35.960  21.732  1.00  0.00     0.019 C 
HETATM   11  C18 UNL     1      11.146  36.221  20.319  1.00  0.00     0.031 C 
HETATM   12  C19 UNL     1      10.040  36.918  19.594  1.00  0.00     0.124 C 
HETATM   13  N3  UNL     1       8.907  35.908  19.595  1.00  0.00    -0.407 N 
HETATM   14  C20 UNL     1       7.592  36.518  19.701  1.00  0.00     0.117 C 
HETATM   15  C21 UNL     1       6.499  35.548  19.257  1.00  0.00     0.019 C 
HETATM   16  C22 UNL     1       6.639  34.148  19.851  1.00  0.00     0.004 C 
HETATM   17  C23 UNL     1       7.741  34.068  20.897  1.00  0.00     0.026 C 
HETATM   18  C24 UNL     1       9.089  34.577  20.345  1.00  0.00     0.086 C 
HETATM   19  C25 UNL     1      12.637  36.047  20.509  1.00  0.00     0.122 C 
ENDROOT
BRANCH   2  20
HETATM   20  C2  UNL     1      14.196  36.700  17.054  1.00  0.00     0.081 A 
HETATM   21  C3  UNL     1      14.716  35.857  16.095  1.00  0.00     0.108 A 
HETATM   22  N1  UNL     1      15.582  36.253  15.133  1.00  0.00    -0.363 N 
HETATM   23  C4  UNL     1      16.005  37.543  15.112  1.00  0.00     0.067 A 
ATOM     24  H1  UNL     1      15.913  35.590  14.432  1.00  0.00     0.165 HD
HETATM   25  C5  UNL     1      16.898  38.011  14.136  1.00  0.00     0.061 A 
HETATM   26  C9  UNL     1      15.564  38.469  16.084  1.00  0.00     0.026 A 
HETATM   27 CL1  UNL     1      17.489  36.947  12.898  1.00  0.00    -0.082 Cl
HETATM   28  C6  UNL     1      17.354  39.334  14.108  1.00  0.00     0.026 A 
HETATM   29  C7  UNL     1      16.919  40.234  15.070  1.00  0.00     0.003 A 
HETATM   30  C8  UNL     1      16.031  39.802  16.052  1.00  0.00     0.017 A 
HETATM   31  C10 UNL     1      14.663  38.013  17.068  1.00  0.00     0.095 A 
BRANCH  31  32
HETATM   32  O2  UNL     1      14.261  38.900  18.043  1.00  0.00    -0.359 OA
HETATM   33  H5  UNL     1      13.879  38.379  18.788  1.00  0.00     0.217 HD
ENDBRANCH  31  32
ENDBRANCH   2  20
TORSDOF 2
ENDMDL
MODEL 2
REMARK minimizedAffinity -8.92815971
REMARK  2 active torsions:
REMARK  status: ('A' for Active; 'I' for Inactive)
REMARK    1  A    between atoms: C1_2  and  C2_3 
REMARK       I    between atoms: C1_2  and  N2_16 
REMARK    2  A    between atoms: C10_14  and  O2_15 
ROOT
HETATM    1  O1  UNL     1      14.176  36.837  17.361  1.00  0.00    -0.267 OA
HETATM    2  C1  UNL     1      13.870  35.881  18.066  1.00  0.00     0.258 C 
HETATM    3  N2  UNL     1      14.710  34.816  18.397  1.00  0.00    -0.339 N 
HETATM    4  C11 UNL     1      14.615  34.191  19.730  1.00  0.00     0.127 C 
HETATM    5  C12 UNL     1      15.972  34.034  20.430  1.00  0.00     0.024 C 
HETATM    6  C13 UNL     1      16.918  35.178  20.075  1.00  0.00     0.037 C 
HETATM    7  C14 UNL     1      17.141  35.211  18.588  1.00  0.00    -0.060 C 
HETATM    8  C15 UNL     1      18.225  35.822  18.003  1.00  0.00    -0.015 C 
HETATM    9  C16 UNL     1      18.523  35.754  16.461  1.00  0.00     0.031 C 
HETATM   10  C17 UNL     1      17.715  34.569  16.023  1.00  0.00     0.019 C 
HETATM   11  C18 UNL     1      16.304  35.137  16.349  1.00  0.00     0.031 C 
HETATM   12  C19 UNL     1      15.793  35.594  15.021  1.00  0.00     0.124 C 
HETATM   13  N3  UNL     1      16.788  36.656  14.592  1.00  0.00    -0.407 N 
HETATM   14  C20 UNL     1      17.016  36.684  13.156  1.00  0.00     0.117 C 
HETATM   15  C21 UNL     1      17.646  38.008  12.726  1.00  0.00     0.019 C 
HETATM   16  C22 UNL     1      18.820  38.445  13.601  1.00  0.00     0.004 C 
HETATM   17  C23 UNL     1      19.221  37.379  14.611  1.00  0.00     0.026 C 
HETATM   18  C24 UNL     1      18.021  36.929  15.470  1.00  0.00     0.086 C 
HETATM   19  C25 UNL     1      15.982  34.566  17.713  1.00  0.00     0.122 C 
ENDROOT
BRANCH   2  20
HETATM   20  C2  UNL     1      12.486  35.908  18.590  1.00  0.00     0.081 A 
HETATM   21  C3  UNL     1      12.226  35.852  19.943  1.00  0.00     0.108 A 
HETATM   22  N1  UNL     1      10.981  35.885  20.474  1.00  0.00    -0.363 N 
HETATM   23  C4  UNL     1       9.908  35.943  19.644  1.00  0.00     0.067 A 
ATOM     24  H1  UNL     1      10.851  35.867  21.485  1.00  0.00     0.165 HD
HETATM   25  C5  UNL     1       8.595  35.984  20.137  1.00  0.00     0.061 A 
HETATM   26  C9  UNL     1      10.074  35.955  18.240  1.00  0.00     0.026 A 
HETATM   27 CL1  UNL     1       8.294  35.977  21.847  1.00  0.00    -0.082 Cl
HETATM   28  C6  UNL     1       7.478  36.030  19.295  1.00  0.00     0.026 A 
HETATM   29  C7  UNL     1       7.651  36.036  17.918  1.00  0.00     0.003 A 
HETATM   30  C8  UNL     1       8.941  35.998  17.397  1.00  0.00     0.017 A 
HETATM   31  C10 UNL     1      11.388  35.918  17.731  1.00  0.00     0.095 A 
BRANCH  31  32
HETATM   32  O2  UNL     1      11.556  35.890  16.364  1.00  0.00    -0.359 OA
HETATM   33  H5  UNL     1      12.475  35.587  16.177  1.00  0.00     0.217 HD
ENDBRANCH  31  32
ENDBRANCH   2  20
TORSDOF 2
ENDMDL
MODEL 3
REMARK minimizedAffinity -8.7044878
REMARK  2 active torsions:
REMARK  status: ('A' for Active; 'I' for Inactive)
REMARK    1  A    between atoms: C1_2  and  C2_3 
REMARK       I    between atoms: C1_2  and  N2_16 
REMARK    2  A    between atoms: C10_14  and  O2_15 
ROOT
HETATM    1  O1  UNL     1      14.523  35.390  15.602  1.00  0.00    -0.267 OA
HETATM    2  C1  UNL     1      14.524  36.103  16.602  1.00  0.00     0.258 C 
HETATM    3  N2  UNL     1      15.461  37.098  16.886  1.00  0.00    -0.339 N 
HETATM    4  C11 UNL     1      15.036  38.332  17.577  1.00  0.00     0.127 C 
HETATM    5  C12 UNL     1      15.523  39.615  16.890  1.00  0.00     0.024 C 
HETATM    6  C13 UNL     1      15.584  39.448  15.374  1.00  0.00     0.037 C 
HETATM    7  C14 UNL     1      16.522  38.325  15.024  1.00  0.00    -0.060 C 
HETATM    8  C15 UNL     1      17.109  38.194  13.788  1.00  0.00    -0.015 C 
HETATM    9  C16 UNL     1      18.181  37.093  13.457  1.00  0.00     0.031 C 
HETATM   10  C17 UNL     1      18.666  36.688  14.817  1.00  0.00     0.019 C 
HETATM   11  C18 UNL     1      17.330  36.100  15.356  1.00  0.00     0.031 C 
HETATM   12  C19 UNL     1      17.503  34.625  15.189  1.00  0.00     0.124 C 
HETATM   13  N3  UNL     1      17.683  34.445  13.692  1.00  0.00    -0.407 N 
HETATM   14  C20 UNL     1      18.598  33.368  13.348  1.00  0.00     0.117 C 
HETATM   15  C21 UNL     1      18.411  32.932  11.896  1.00  0.00     0.019 C 
HETATM   16  C22 UNL     1      18.341  34.095  10.908  1.00  0.00     0.004 C 
HETATM   17  C23 UNL     1      18.645  35.434  11.563  1.00  0.00     0.026 C 
HETATM   18  C24 UNL     1      17.743  35.687  12.788  1.00  0.00     0.086 C 
HETATM   19  C25 UNL     1      16.725  37.231  16.158  1.00  0.00     0.122 C 
ENDROOT
BRANCH   2  20
HETATM   20  C2  UNL     1      13.417  35.849  17.551  1.00  0.00     0.081 A 
HETATM   21  C3  UNL     1      13.656  35.428  18.842  1.00  0.00     0.108 A 
HETATM   22  N1  UNL     1      12.681  35.193  19.751  1.00  0.00    -0.363 N 
HETATM   23  C4  UNL     1      11.383  35.342  19.383  1.00  0.00     0.067 A 
ATOM     24  H1  UNL     1      12.919  34.908  20.701  1.00  0.00     0.165 HD
HETATM   25  C5  UNL     1      10.330  35.116  20.284  1.00  0.00     0.061 A 
HETATM   26  C9  UNL     1      11.037  35.723  18.067  1.00  0.00     0.026 A 
HETATM   27 CL1  UNL     1      10.657  34.649  21.924  1.00  0.00    -0.082 Cl
HETATM   28  C6  UNL     1       8.986  35.252  19.918  1.00  0.00     0.026 A 
HETATM   29  C7  UNL     1       8.659  35.622  18.621  1.00  0.00     0.003 A 
HETATM   30  C8  UNL     1       9.679  35.855  17.703  1.00  0.00     0.017 A 
HETATM   31  C10 UNL     1      12.085  35.957  17.153  1.00  0.00     0.095 A 
BRANCH  31  32
HETATM   32  O2  UNL     1      11.756  36.290  15.857  1.00  0.00    -0.359 OA
HETATM   33  H5  UNL     1      12.553  36.144  15.294  1.00  0.00     0.217 HD
ENDBRANCH  31  32
ENDBRANCH   2  20
TORSDOF 2
ENDMDL
MODEL 4
REMARK minimizedAffinity -8.11296082
REMARK  2 active torsions:
REMARK  status: ('A' for Active; 'I' for Inactive)
REMARK    1  A    between atoms: C1_2  and  C2_3 
REMARK       I    between atoms: C1_2  and  N2_16 
REMARK    2  A    between atoms: C10_14  and  O2_15 
ROOT
HETATM    1  O1  UNL     1      15.656  35.247  14.462  1.00  0.00    -0.267 OA
HETATM    2  C1  UNL     1      15.418  36.116  15.295  1.00  0.00     0.258 C 
HETATM    3  N2  UNL     1      16.213  37.235  15.548  1.00  0.00    -0.339 N 
HETATM    4  C11 UNL     1      15.582  38.520  15.910  1.00  0.00     0.127 C 
HETATM    5  C12 UNL     1      16.104  39.709  15.092  1.00  0.00     0.024 C 
HETATM    6  C13 UNL     1      16.465  39.291  13.668  1.00  0.00     0.037 C 
HETATM    7  C14 UNL     1      17.526  38.225  13.705  1.00  0.00    -0.060 C 
HETATM    8  C15 UNL     1      18.346  37.944  12.639  1.00  0.00    -0.015 C 
HETATM    9  C16 UNL     1      19.534  36.916  12.714  1.00  0.00     0.031 C 
HETATM   10  C17 UNL     1      19.776  36.802  14.189  1.00  0.00     0.019 C 
HETATM   11  C18 UNL     1      18.404  36.183  14.585  1.00  0.00     0.031 C 
HETATM   12  C19 UNL     1      18.704  34.726  14.731  1.00  0.00     0.124 C 
HETATM   13  N3  UNL     1      19.179  34.311  13.350  1.00  0.00    -0.407 N 
HETATM   14  C20 UNL     1      20.214  33.290  13.380  1.00  0.00     0.117 C 
HETATM   15  C21 UNL     1      20.339  32.595  12.025  1.00  0.00     0.019 C 
HETATM   16  C22 UNL     1      20.381  33.557  10.840  1.00  0.00     0.004 C 
HETATM   17  C23 UNL     1      20.463  35.013  11.276  1.00  0.00     0.026 C 
HETATM   18  C24 UNL     1      19.328  35.380  12.254  1.00  0.00     0.086 C 
HETATM   19  C25 UNL     1      17.582  37.368  15.042  1.00  0.00     0.122 C 
ENDROOT
BRANCH   2  20
HETATM   20  C2  UNL     1      14.169  35.919  16.064  1.00  0.00     0.081 A 
HETATM   21  C3  UNL     1      12.985  36.514  15.682  1.00  0.00     0.108 A 
HETATM   22  N1  UNL     1      11.815  36.357  16.343  1.00  0.00    -0.363 N 
HETATM   23  C4  UNL     1      11.787  35.601  17.471  1.00  0.00     0.067 A 
ATOM     24  H1  UNL     1      10.964  36.801  15.999  1.00  0.00     0.165 HD
HETATM   25  C5  UNL     1      10.601  35.400  18.195  1.00  0.00     0.061 A 
HETATM   26  C9  UNL     1      12.961  34.990  17.968  1.00  0.00     0.026 A 
HETATM   27 CL1  UNL     1       9.109  36.106  17.659  1.00  0.00    -0.082 Cl
HETATM   28  C6  UNL     1      10.558  34.634  19.366  1.00  0.00     0.026 A 
HETATM   29  C7  UNL     1      11.718  34.043  19.847  1.00  0.00     0.003 A 
HETATM   30  C8  UNL     1      12.910  34.222  19.152  1.00  0.00     0.017 A 
HETATM   31  C10 UNL     1      14.157  35.181  17.247  1.00  0.00     0.095 A 
BRANCH  31  32
HETATM   32  O2  UNL     1      15.314  34.623  17.747  1.00  0.00    -0.359 OA
HETATM   33  H5  UNL     1      16.079  35.066  17.310  1.00  0.00     0.217 HD
ENDBRANCH  31  32
ENDBRANCH   2  20
TORSDOF 2
ENDMDL
MODEL 5
REMARK minimizedAffinity -7.96243715
REMARK  2 active torsions:
REMARK  status: ('A' for Active; 'I' for Inactive)
REMARK    1  A    between atoms: C1_2  and  C2_3 
REMARK       I    between atoms: C1_2  and  N2_16 
REMARK    2  A    between atoms: C10_14  and  O2_15 
ROOT
HETATM    1  O1  UNL     1       1.539  67.246  -3.073  1.00  0.00    -0.267 OA
HETATM    2  C1  UNL     1       1.856  66.060  -3.065  1.00  0.00     0.258 C 
HETATM    3  N2  UNL     1       1.210  65.054  -2.345  1.00  0.00    -0.339 N 
HETATM    4  C11 UNL     1       1.098  63.697  -2.917  1.00  0.00     0.127 C 
HETATM    5  C12 UNL     1      -0.325  63.125  -2.857  1.00  0.00     0.024 C 
HETATM    6  C13 UNL     1      -1.374  64.222  -3.016  1.00  0.00     0.037 C 
HETATM    7  C14 UNL     1      -1.216  65.240  -1.920  1.00  0.00    -0.060 C 
HETATM    8  C15 UNL     1      -2.222  66.094  -1.536  1.00  0.00    -0.015 C 
HETATM    9  C16 UNL     1      -2.099  67.074  -0.313  1.00  0.00     0.031 C 
HETATM   10  C17 UNL     1      -0.970  66.477   0.473  1.00  0.00     0.019 C 
HETATM   11  C18 UNL     1       0.155  66.671  -0.583  1.00  0.00     0.031 C 
HETATM   12  C19 UNL     1       0.874  67.893  -0.111  1.00  0.00     0.124 C 
HETATM   13  N3  UNL     1      -0.186  68.979  -0.150  1.00  0.00    -0.407 N 
HETATM   14  C20 UNL     1      -0.044  69.960   0.914  1.00  0.00     0.117 C 
HETATM   15  C21 UNL     1      -0.816  71.238   0.590  1.00  0.00     0.019 C 
HETATM   16  C22 UNL     1      -2.238  70.989   0.092  1.00  0.00     0.004 C 
HETATM   17  C23 UNL     1      -2.641  69.525   0.190  1.00  0.00     0.026 C 
HETATM   18  C24 UNL     1      -1.629  68.606  -0.527  1.00  0.00     0.086 C 
HETATM   19  C25 UNL     1       0.238  65.333  -1.285  1.00  0.00     0.122 C 
ENDROOT
BRANCH   2  20
HETATM   20  C2  UNL     1       3.023  65.720  -3.910  1.00  0.00     0.081 A 
HETATM   21  C3  UNL     1       4.038  64.910  -3.445  1.00  0.00     0.108 A 
HETATM   22  N1  UNL     1       5.119  64.560  -4.180  1.00  0.00    -0.363 N 
HETATM   23  C4  UNL     1       5.252  65.051  -5.439  1.00  0.00     0.067 A 
ATOM     24  H1  UNL     1       5.827  63.936  -3.792  1.00  0.00     0.165 HD
HETATM   25  C5  UNL     1       6.350  64.719  -6.248  1.00  0.00     0.061 A 
HETATM   26  C9  UNL     1       4.287  65.928  -5.984  1.00  0.00     0.026 A 
HETATM   27 CL1  UNL     1       7.583  63.645  -5.665  1.00  0.00    -0.082 Cl
HETATM   28  C6  UNL     1       6.509  65.226  -7.543  1.00  0.00     0.026 A 
HETATM   29  C7  UNL     1       5.558  66.090  -8.067  1.00  0.00     0.003 A 
HETATM   30  C8  UNL     1       4.456  66.438  -7.291  1.00  0.00     0.017 A 
HETATM   31  C10 UNL     1       3.177  66.265  -5.184  1.00  0.00     0.095 A 
BRANCH  31  32
HETATM   32  O2  UNL     1       2.252  67.151  -5.693  1.00  0.00    -0.359 OA
HETATM   33  H5  UNL     1       1.716  67.495  -4.941  1.00  0.00     0.217 HD
ENDBRANCH  31  32
ENDBRANCH   2  20
TORSDOF 2
ENDMDL
MODEL 6
REMARK minimizedAffinity -7.77146101
REMARK  2 active torsions:
REMARK  status: ('A' for Active; 'I' for Inactive)
REMARK    1  A    between atoms: C1_2  and  C2_3 
REMARK       I    between atoms: C1_2  and  N2_16 
REMARK    2  A    between atoms: C10_14  and  O2_15 
ROOT
HETATM    1  O1  UNL     1       2.574  67.324  -3.809  1.00  0.00    -0.267 OA
HETATM    2  C1  UNL     1       2.530  66.277  -4.448  1.00  0.00     0.258 C 
HETATM    3  N2  UNL     1       1.450  65.392  -4.478  1.00  0.00    -0.339 N 
HETATM    4  C11 UNL     1       1.129  64.667  -5.723  1.00  0.00     0.127 C 
HETATM    5  C12 UNL     1      -0.353  64.750  -6.114  1.00  0.00     0.024 C 
HETATM    6  C13 UNL     1      -0.962  66.090  -5.709  1.00  0.00     0.037 C 
HETATM    7  C14 UNL     1      -0.842  66.275  -4.221  1.00  0.00    -0.060 C 
HETATM    8  C15 UNL     1      -1.634  67.140  -3.504  1.00  0.00    -0.015 C 
HETATM    9  C16 UNL     1      -1.593  67.245  -1.936  1.00  0.00     0.031 C 
HETATM   10  C17 UNL     1      -0.949  65.951  -1.537  1.00  0.00     0.019 C 
HETATM   11  C18 UNL     1       0.437  66.185  -2.203  1.00  0.00     0.031 C 
HETATM   12  C19 UNL     1       1.305  66.617  -1.066  1.00  0.00     0.124 C 
HETATM   13  N3  UNL     1       0.649  67.893  -0.569  1.00  0.00    -0.407 N 
HETATM   14  C20 UNL     1       0.752  68.071   0.870  1.00  0.00     0.117 C 
HETATM   15  C21 UNL     1       0.496  69.524   1.264  1.00  0.00     0.019 C 
HETATM   16  C22 UNL     1      -0.736  70.135   0.599  1.00  0.00     0.004 C 
HETATM   17  C23 UNL     1      -1.545  69.108  -0.181  1.00  0.00     0.026 C 
HETATM   18  C24 UNL     1      -0.672  68.356  -1.207  1.00  0.00     0.086 C 
HETATM   19  C25 UNL     1       0.337  65.463  -3.529  1.00  0.00     0.122 C 
ENDROOT
BRANCH   2  20
HETATM   20  C2  UNL     1       3.744  65.975  -5.238  1.00  0.00     0.081 A 
HETATM   21  C3  UNL     1       3.985  66.588  -6.450  1.00  0.00     0.108 A 
HETATM   22  N1  UNL     1       5.084  66.356  -7.206  1.00  0.00    -0.363 N 
HETATM   23  C4  UNL     1       5.999  65.447  -6.784  1.00  0.00     0.067 A 
ATOM     24  H1  UNL     1       5.222  66.859  -8.083  1.00  0.00     0.165 HD
HETATM   25  C5  UNL     1       7.159  65.169  -7.524  1.00  0.00     0.061 A 
HETATM   26  C9  UNL     1       5.814  64.733  -5.578  1.00  0.00     0.026 A 
HETATM   27 CL1  UNL     1       7.474  66.000  -9.015  1.00  0.00    -0.082 Cl
HETATM   28  C6  UNL     1       8.107  64.225  -7.109  1.00  0.00     0.026 A 
HETATM   29  C7  UNL     1       7.912  63.527  -5.926  1.00  0.00     0.003 A 
HETATM   30  C8  UNL     1       6.773  63.780  -5.168  1.00  0.00     0.017 A 
HETATM   31  C10 UNL     1       4.656  65.006  -4.823  1.00  0.00     0.095 A 
BRANCH  31  32
HETATM   32  O2  UNL     1       4.448  64.285  -3.666  1.00  0.00    -0.359 OA
HETATM   33  H5  UNL     1       3.499  64.380  -3.416  1.00  0.00     0.217 HD
ENDBRANCH  31  32
ENDBRANCH   2  20
TORSDOF 2
ENDMDL
MODEL 7
REMARK minimizedAffinity -7.75490141
REMARK  2 active torsions:
REMARK  status: ('A' for Active; 'I' for Inactive)
REMARK    1  A    between atoms: C1_2  and  C2_3 
REMARK       I    between atoms: C1_2  and  N2_16 
REMARK    2  A    between atoms: C10_14  and  O2_15 
ROOT
HETATM    1  O1  UNL     1      14.350  37.947  17.804  1.00  0.00    -0.267 OA
HETATM    2  C1  UNL     1      15.568  38.105  17.791  1.00  0.00     0.258 C 
HETATM    3  N2  UNL     1      16.507  37.206  18.299  1.00  0.00    -0.339 N 
HETATM    4  C11 UNL     1      17.809  37.043  17.624  1.00  0.00     0.127 C 
HETATM    5  C12 UNL     1      18.184  35.577  17.366  1.00  0.00     0.024 C 
HETATM    6  C13 UNL     1      16.948  34.727  17.082  1.00  0.00     0.037 C 
HETATM    7  C14 UNL     1      16.009  34.787  18.255  1.00  0.00    -0.060 C 
HETATM    8  C15 UNL     1      15.043  33.839  18.494  1.00  0.00    -0.015 C 
HETATM    9  C16 UNL     1      14.143  33.834  19.783  1.00  0.00     0.031 C 
HETATM   10  C17 UNL     1      14.921  34.696  20.730  1.00  0.00     0.019 C 
HETATM   11  C18 UNL     1      14.837  36.028  19.930  1.00  0.00     0.031 C 
HETATM   12  C19 UNL     1      13.747  36.783  20.617  1.00  0.00     0.124 C 
HETATM   13  N3  UNL     1      12.525  35.898  20.448  1.00  0.00    -0.407 N 
HETATM   14  C20 UNL     1      11.620  35.942  21.585  1.00  0.00     0.117 C 
HETATM   15  C21 UNL     1      10.236  35.419  21.206  1.00  0.00     0.019 C 
HETATM   16  C22 UNL     1      10.266  34.107  20.423  1.00  0.00     0.004 C 
HETATM   17  C23 UNL     1      11.665  33.513  20.339  1.00  0.00     0.026 C 
HETATM   18  C24 UNL     1      12.681  34.525  19.771  1.00  0.00     0.086 C 
HETATM   19  C25 UNL     1      16.143  36.082  19.166  1.00  0.00     0.122 C 
ENDROOT
BRANCH   2  20
HETATM   20  C2  UNL     1      16.027  39.367  17.168  1.00  0.00     0.081 A 
HETATM   21  C3  UNL     1      16.415  40.448  17.931  1.00  0.00     0.108 A 
HETATM   22  N1  UNL     1      16.853  41.618  17.413  1.00  0.00    -0.363 N 
HETATM   23  C4  UNL     1      16.889  41.774  16.064  1.00  0.00     0.067 A 
ATOM     24  H1  UNL     1      17.153  42.376  18.027  1.00  0.00     0.165 HD
HETATM   25  C5  UNL     1      17.338  42.963  15.470  1.00  0.00     0.061 A 
HETATM   26  C9  UNL     1      16.465  40.738  15.200  1.00  0.00     0.026 A 
HETATM   27 CL1  UNL     1      17.883  44.288  16.450  1.00  0.00    -0.082 Cl
HETATM   28  C6  UNL     1      17.370  43.144  14.082  1.00  0.00     0.026 A 
HETATM   29  C7  UNL     1      16.946  42.123  13.244  1.00  0.00     0.003 A 
HETATM   30  C8  UNL     1      16.496  40.930  13.801  1.00  0.00     0.017 A 
HETATM   31  C10 UNL     1      16.016  39.537  15.784  1.00  0.00     0.095 A 
BRANCH  31  32
HETATM   32  O2  UNL     1      15.563  38.537  14.950  1.00  0.00    -0.359 OA
HETATM   33  H5  UNL     1      15.037  37.904  15.493  1.00  0.00     0.217 HD
ENDBRANCH  31  32
ENDBRANCH   2  20
TORSDOF 2
ENDMDL
MODEL 8
REMARK minimizedAffinity -7.70488787
REMARK  2 active torsions:
REMARK  status: ('A' for Active; 'I' for Inactive)
REMARK    1  A    between atoms: C1_2  and  C2_3 
REMARK       I    between atoms: C1_2  and  N2_16 
REMARK    2  A    between atoms: C10_14  and  O2_15 
ROOT
HETATM    1  O1  UNL     1      19.521  43.378   4.524  1.00  0.00    -0.267 OA
HETATM    2  C1  UNL     1      18.575  43.118   3.786  1.00  0.00     0.258 C 
HETATM    3  N2  UNL     1      17.414  43.881   3.658  1.00  0.00    -0.339 N 
HETATM    4  C11 UNL     1      16.749  43.994   2.345  1.00  0.00     0.127 C 
HETATM    5  C12 UNL     1      16.419  45.440   1.949  1.00  0.00     0.024 C 
HETATM    6  C13 UNL     1      17.468  46.415   2.476  1.00  0.00     0.037 C 
HETATM    7  C14 UNL     1      17.537  46.328   3.976  1.00  0.00    -0.060 C 
HETATM    8  C15 UNL     1      18.050  47.329   4.765  1.00  0.00    -0.015 C 
HETATM    9  C16 UNL     1      18.012  47.292   6.336  1.00  0.00     0.031 C 
HETATM   10  C17 UNL     1      16.940  46.281   6.614  1.00  0.00     0.019 C 
HETATM   11  C18 UNL     1      17.643  45.042   5.989  1.00  0.00     0.031 C 
HETATM   12  C19 UNL     1      18.205  44.322   7.172  1.00  0.00     0.124 C 
HETATM   13  N3  UNL     1      19.171  45.322   7.783  1.00  0.00    -0.407 N 
HETATM   14  C20 UNL     1      19.232  45.249   9.234  1.00  0.00     0.117 C 
HETATM   15  C21 UNL     1      20.496  45.923   9.765  1.00  0.00     0.019 C 
HETATM   16  C22 UNL     1      20.768  47.294   9.149  1.00  0.00     0.004 C 
HETATM   17  C23 UNL     1      19.626  47.772   8.264  1.00  0.00     0.026 C 
HETATM   18  C24 UNL     1      19.273  46.733   7.180  1.00  0.00     0.086 C 
HETATM   19  C25 UNL     1      17.055  44.947   4.598  1.00  0.00     0.122 C 
ENDROOT
BRANCH   2  20
HETATM   20  C2  UNL     1      18.731  41.885   2.982  1.00  0.00     0.081 A 
HETATM   21  C3  UNL     1      18.446  41.863   1.633  1.00  0.00     0.108 A 
HETATM   22  N1  UNL     1      18.582  40.766   0.852  1.00  0.00    -0.363 N 
HETATM   23  C4  UNL     1      18.988  39.598   1.413  1.00  0.00     0.067 A 
ATOM     24  H1  UNL     1      18.381  40.815  -0.147  1.00  0.00     0.165 HD
HETATM   25  C5  UNL     1      19.151  38.430   0.652  1.00  0.00     0.061 A 
HETATM   26  C9  UNL     1      19.257  39.511   2.798  1.00  0.00     0.026 A 
HETATM   27 CL1  UNL     1      18.849  38.443  -1.057  1.00  0.00    -0.082 Cl
HETATM   28  C6  UNL     1      19.557  37.216   1.217  1.00  0.00     0.026 A 
HETATM   29  C7  UNL     1      19.813  37.140   2.579  1.00  0.00     0.003 A 
HETATM   30  C8  UNL     1      19.663  38.281   3.362  1.00  0.00     0.017 A 
HETATM   31  C10 UNL     1      19.102  40.678   3.574  1.00  0.00     0.095 A 
BRANCH  31  32
HETATM   32  O2  UNL     1      19.323  40.591   4.932  1.00  0.00    -0.359 OA
HETATM   33  H5  UNL     1      18.912  41.380   5.357  1.00  0.00     0.217 HD
ENDBRANCH  31  32
ENDBRANCH   2  20
TORSDOF 2
ENDMDL
MODEL 9
REMARK minimizedAffinity -7.70230818
REMARK  2 active torsions:
REMARK  status: ('A' for Active; 'I' for Inactive)
REMARK    1  A    between atoms: C1_2  and  C2_3 
REMARK       I    between atoms: C1_2  and  N2_16 
REMARK    2  A    between atoms: C10_14  and  O2_15 
ROOT
HETATM    1  O1  UNL     1       3.895  65.366  -4.926  1.00  0.00    -0.267 OA
HETATM    2  C1  UNL     1       4.233  65.784  -6.030  1.00  0.00     0.258 C 
HETATM    3  N2  UNL     1       3.464  66.604  -6.857  1.00  0.00    -0.339 N 
HETATM    4  C11 UNL     1       4.120  67.632  -7.688  1.00  0.00     0.127 C 
HETATM    5  C12 UNL     1       3.472  69.019  -7.570  1.00  0.00     0.024 C 
HETATM    6  C13 UNL     1       2.923  69.260  -6.166  1.00  0.00     0.037 C 
HETATM    7  C14 UNL     1       1.894  68.214  -5.836  1.00  0.00    -0.060 C 
HETATM    8  C15 UNL     1       0.938  68.381  -4.862  1.00  0.00    -0.015 C 
HETATM    9  C16 UNL     1      -0.212  67.343  -4.598  1.00  0.00     0.031 C 
HETATM   10  C17 UNL     1      -0.245  66.558  -5.875  1.00  0.00     0.019 C 
HETATM   11  C18 UNL     1       1.177  65.934  -5.783  1.00  0.00     0.031 C 
HETATM   12  C19 UNL     1       0.921  64.550  -5.281  1.00  0.00     0.124 C 
HETATM   13  N3  UNL     1       0.266  64.766  -3.929  1.00  0.00    -0.407 N 
HETATM   14  C20 UNL     1      -0.739  63.765  -3.610  1.00  0.00     0.117 C 
HETATM   15  C21 UNL     1      -1.040  63.746  -2.112  1.00  0.00     0.019 C 
HETATM   16  C22 UNL     1      -1.260  65.133  -1.511  1.00  0.00     0.004 C 
HETATM   17  C23 UNL     1      -1.303  66.226  -2.569  1.00  0.00     0.026 C 
HETATM   18  C24 UNL     1      -0.049  66.199  -3.467  1.00  0.00     0.086 C 
HETATM   19  C25 UNL     1       2.036  66.846  -6.631  1.00  0.00     0.122 C 
ENDROOT
BRANCH   2  20
HETATM   20  C2  UNL     1       5.579  65.357  -6.473  1.00  0.00     0.081 A 
HETATM   21  C3  UNL     1       6.179  65.905  -7.588  1.00  0.00     0.108 A 
HETATM   22  N1  UNL     1       7.411  65.558  -8.028  1.00  0.00    -0.363 N 
HETATM   23  C4  UNL     1       8.103  64.593  -7.370  1.00  0.00     0.067 A 
ATOM     24  H1  UNL     1       7.815  66.017  -8.845  1.00  0.00     0.165 HD
HETATM   25  C5  UNL     1       9.385  64.196  -7.779  1.00  0.00     0.061 A 
HETATM   26  C9  UNL     1       7.550  63.939  -6.245  1.00  0.00     0.026 A 
HETATM   27 CL1  UNL     1      10.147  64.945  -9.147  1.00  0.00    -0.082 Cl
HETATM   28  C6  UNL     1      10.107  63.193  -7.119  1.00  0.00     0.026 A 
HETATM   29  C7  UNL     1       9.552  62.555  -6.019  1.00  0.00     0.003 A 
HETATM   30  C8  UNL     1       8.282  62.926  -5.587  1.00  0.00     0.017 A 
HETATM   31  C10 UNL     1       6.264  64.332  -5.822  1.00  0.00     0.095 A 
BRANCH  31  32
HETATM   32  O2  UNL     1       5.701  63.671  -4.751  1.00  0.00    -0.359 OA
HETATM   33  H5  UNL     1       4.732  63.852  -4.758  1.00  0.00     0.217 HD
ENDBRANCH  31  32
ENDBRANCH   2  20
TORSDOF 2
ENDMDL
