MODEL 1
REMARK minimizedAffinity -10.5157185
REMARK  6 active torsions:
REMARK  status: ('A' for Active; 'I' for Inactive)
REMARK    1  A    between atoms: C3_3  and  O1_4 
REMARK    2  A    between atoms: N1_14  and  O2_16 
REMARK    3  A    between atoms: O2_16  and  C13_17 
REMARK    4  A    between atoms: C13_17  and  C14_18 
REMARK       I    between atoms: C14_18  and  N2_20 
REMARK    5  A    between atoms: N2_20  and  C15_21 
REMARK    6  A    between atoms: C15_21  and  C17_23 
ROOT
HETATM    1  C1  UNL     1       2.143  51.067 -26.335  1.00  0.00     0.015 C 
HETATM    2  C2  UNL     1       1.188  51.737 -26.045  1.00  0.00    -0.078 C 
HETATM    3  C3  UNL     1       0.012  52.574 -25.721  1.00  0.00     0.128 C 
HETATM    4  C4  UNL     1       0.449  54.046 -25.502  1.00  0.00     0.052 C 
HETATM    5  C5  UNL     1       0.525  54.266 -23.977  1.00  0.00     0.010 C 
HETATM    6  C6  UNL     1       0.287  52.884 -23.369  1.00  0.00     0.002 C 
HETATM    7  C7  UNL     1      -0.203  52.800 -21.919  1.00  0.00    -0.004 C 
HETATM    8  C8  UNL     1       0.777  53.484 -20.957  1.00  0.00     0.010 C 
HETATM    9  C9  UNL     1       0.285  53.397 -19.518  1.00  0.00     0.035 C 
HETATM   10  C10 UNL     1       0.000  51.977 -19.091  1.00  0.00    -0.069 C 
HETATM   11  C11 UNL     1       0.480  51.534 -17.913  1.00  0.00     0.030 C 
HETATM   12  C12 UNL     1       0.118  50.203 -17.363  1.00  0.00     0.032 C 
HETATM   13  N1  UNL     1       0.614  49.874 -16.204  1.00  0.00    -0.271 N 
ATOM     14  H1  UNL     1       1.274  50.447 -15.678  1.00  0.00     0.194 HD
HETATM   15  C23 UNL     1      -0.859  49.354 -18.148  1.00  0.00     0.060 C 
HETATM   16  C24 UNL     1      -0.738  49.626 -19.641  1.00  0.00     0.020 C 
HETATM   17  C25 UNL     1      -0.870  51.128 -20.025  1.00  0.00    -0.016 C 
HETATM   18  C26 UNL     1      -2.340  51.568 -19.845  1.00  0.00     0.020 C 
HETATM   19  C27 UNL     1      -0.379  51.303 -21.516  1.00  0.00     0.002 C 
HETATM   20  C28 UNL     1      -1.225  50.511 -22.552  1.00  0.00     0.007 C 
HETATM   21  C29 UNL     1      -0.768  50.718 -24.007  1.00  0.00     0.014 C 
HETATM   22  C30 UNL     1      -0.677  52.210 -24.371  1.00  0.00     0.003 C 
HETATM   23  C31 UNL     1      -2.116  52.810 -24.352  1.00  0.00     0.020 C 
ENDROOT
BRANCH   3  24
HETATM   24  O1  UNL     1      -0.897  52.491 -26.810  1.00  0.00    -0.377 OA
HETATM   25  H2  UNL     1      -0.378  52.634 -27.620  1.00  0.00     0.211 HD
ENDBRANCH   3  24
BRANCH  13  26
HETATM   26  O2  UNL     1       0.127  48.632 -15.769  1.00  0.00    -0.271 OA
BRANCH  26  27
HETATM   27  C13 UNL     1      -0.315  48.764 -14.426  1.00  0.00     0.303 C 
BRANCH  27  28
HETATM   28  C14 UNL     1      -1.659  49.480 -14.405  1.00  0.00     0.244 C 
HETATM   29  O3  UNL     1      -2.546  49.252 -15.227  1.00  0.00    -0.271 OA
HETATM   30  N2  UNL     1      -1.803  50.406 -13.393  1.00  0.00    -0.351 N 
HETATM   31  H16 UNL     1      -1.102  50.465 -12.666  1.00  0.00     0.163 HD
BRANCH  30  32
HETATM   32  C15 UNL     1      -3.029  51.166 -13.215  1.00  0.00     0.113 C 
HETATM   33  C16 UNL     1      -3.537  51.716 -14.554  1.00  0.00     0.037 C 
BRANCH  32  34
HETATM   34  C17 UNL     1      -2.804  52.242 -12.165  1.00  0.00    -0.036 A 
HETATM   35  C18 UNL     1      -3.857  52.998 -11.626  1.00  0.00     0.009 A 
HETATM   36  C19 UNL     1      -3.607  53.994 -10.677  1.00  0.00     0.001 A 
HETATM   37  C20 UNL     1      -2.304  54.253 -10.263  1.00  0.00     0.000 A 
HETATM   38  C21 UNL     1      -1.245  53.526 -10.803  1.00  0.00     0.001 A 
HETATM   39  C22 UNL     1      -1.493  52.532 -11.751  1.00  0.00     0.009 A 
ENDBRANCH  32  34
ENDBRANCH  30  32
ENDBRANCH  27  28
ENDBRANCH  26  27
ENDBRANCH  13  26
TORSDOF 6
ENDMDL
MODEL 2
REMARK minimizedAffinity -10.3292503
REMARK  6 active torsions:
REMARK  status: ('A' for Active; 'I' for Inactive)
REMARK    1  A    between atoms: C3_3  and  O1_4 
REMARK    2  A    between atoms: N1_14  and  O2_16 
REMARK    3  A    between atoms: O2_16  and  C13_17 
REMARK    4  A    between atoms: C13_17  and  C14_18 
REMARK       I    between atoms: C14_18  and  N2_20 
REMARK    5  A    between atoms: N2_20  and  C15_21 
REMARK    6  A    between atoms: C15_21  and  C17_23 
ROOT
HETATM    1  C1  UNL     1       2.143  51.064 -26.273  1.00  0.00     0.015 C 
HETATM    2  C2  UNL     1       1.178  51.720 -25.985  1.00  0.00    -0.078 C 
HETATM    3  C3  UNL     1      -0.010  52.541 -25.662  1.00  0.00     0.128 C 
HETATM    4  C4  UNL     1       0.411  54.011 -25.407  1.00  0.00     0.052 C 
HETATM    5  C5  UNL     1       0.460  54.201 -23.877  1.00  0.00     0.010 C 
HETATM    6  C6  UNL     1       0.224  52.805 -23.301  1.00  0.00     0.002 C 
HETATM    7  C7  UNL     1      -0.289  52.688 -21.861  1.00  0.00    -0.004 C 
HETATM    8  C8  UNL     1       0.670  53.359 -20.869  1.00  0.00     0.010 C 
HETATM    9  C9  UNL     1       0.155  53.238 -19.440  1.00  0.00     0.035 C 
HETATM   10  C10 UNL     1      -0.125  51.807 -19.047  1.00  0.00    -0.069 C 
HETATM   11  C11 UNL     1       0.339  51.344 -17.872  1.00  0.00     0.030 C 
HETATM   12  C12 UNL     1      -0.020  50.000 -17.355  1.00  0.00     0.032 C 
HETATM   13  N1  UNL     1       0.460  49.650 -16.194  1.00  0.00    -0.271 N 
ATOM     14  H1  UNL     1       1.106  50.218 -15.647  1.00  0.00     0.194 HD
HETATM   15  C23 UNL     1      -0.977  49.159 -18.173  1.00  0.00     0.060 C 
HETATM   16  C24 UNL     1      -0.834  49.462 -19.658  1.00  0.00     0.020 C 
HETATM   17  C25 UNL     1      -0.972  50.971 -20.013  1.00  0.00    -0.016 C 
HETATM   18  C26 UNL     1      -2.448  51.395 -19.848  1.00  0.00     0.020 C 
HETATM   19  C27 UNL     1      -0.459  51.181 -21.492  1.00  0.00     0.002 C 
HETATM   20  C28 UNL     1      -1.281  50.404 -22.557  1.00  0.00     0.007 C 
HETATM   21  C29 UNL     1      -0.803  50.644 -24.001  1.00  0.00     0.014 C 
HETATM   22  C30 UNL     1      -0.718  52.144 -24.332  1.00  0.00     0.003 C 
HETATM   23  C31 UNL     1      -2.162  52.732 -24.324  1.00  0.00     0.020 C 
ENDROOT
BRANCH   3  24
HETATM   24  O1  UNL     1      -0.901  52.473 -26.769  1.00  0.00    -0.377 OA
HETATM   25  H2  UNL     1      -0.370  52.637 -27.567  1.00  0.00     0.211 HD
ENDBRANCH   3  24
BRANCH  13  26
HETATM   26  O2  UNL     1      -0.024  48.395 -15.793  1.00  0.00    -0.271 OA
BRANCH  26  27
HETATM   27  C13 UNL     1      -0.753  48.557 -14.585  1.00  0.00     0.303 C 
BRANCH  27  28
HETATM   28  C14 UNL     1      -0.051  49.584 -13.706  1.00  0.00     0.244 C 
HETATM   29  O3  UNL     1       1.122  49.468 -13.356  1.00  0.00    -0.271 OA
HETATM   30  N2  UNL     1      -0.837  50.654 -13.331  1.00  0.00    -0.351 N 
HETATM   31  H16 UNL     1      -1.751  50.774 -13.748  1.00  0.00     0.163 HD
BRANCH  30  32
HETATM   32  C15 UNL     1      -0.321  51.735 -12.507  1.00  0.00     0.113 C 
HETATM   33  C16 UNL     1       0.646  51.204 -11.442  1.00  0.00     0.037 C 
BRANCH  32  34
HETATM   34  C17 UNL     1      -1.484  52.525 -11.930  1.00  0.00    -0.036 A 
HETATM   35  C18 UNL     1      -1.319  53.460 -10.896  1.00  0.00     0.009 A 
HETATM   36  C19 UNL     1      -2.418  54.151 -10.377  1.00  0.00     0.001 A 
HETATM   37  C20 UNL     1      -3.695  53.910 -10.876  1.00  0.00     0.000 A 
HETATM   38  C21 UNL     1      -3.879  52.970 -11.888  1.00  0.00     0.001 A 
HETATM   39  C22 UNL     1      -2.783  52.278 -12.407  1.00  0.00     0.009 A 
ENDBRANCH  32  34
ENDBRANCH  30  32
ENDBRANCH  27  28
ENDBRANCH  26  27
ENDBRANCH  13  26
TORSDOF 6
ENDMDL
MODEL 3
REMARK minimizedAffinity -9.88914299
REMARK  6 active torsions:
REMARK  status: ('A' for Active; 'I' for Inactive)
REMARK    1  A    between atoms: C3_3  and  O1_4 
REMARK    2  A    between atoms: N1_14  and  O2_16 
REMARK    3  A    between atoms: O2_16  and  C13_17 
REMARK    4  A    between atoms: C13_17  and  C14_18 
REMARK       I    between atoms: C14_18  and  N2_20 
REMARK    5  A    between atoms: N2_20  and  C15_21 
REMARK    6  A    between atoms: C15_21  and  C17_23 
ROOT
HETATM    1  C1  UNL     1       1.705  50.751 -26.498  1.00  0.00     0.015 C 
HETATM    2  C2  UNL     1       0.808  51.487 -26.187  1.00  0.00    -0.078 C 
HETATM    3  C3  UNL     1      -0.297  52.407 -25.834  1.00  0.00     0.128 C 
HETATM    4  C4  UNL     1       0.260  53.829 -25.563  1.00  0.00     0.052 C 
HETATM    5  C5  UNL     1       0.347  53.988 -24.031  1.00  0.00     0.010 C 
HETATM    6  C6  UNL     1      -0.007  52.610 -23.473  1.00  0.00     0.002 C 
HETATM    7  C7  UNL     1      -0.509  52.516 -22.027  1.00  0.00    -0.004 C 
HETATM    8  C8  UNL     1       0.520  53.082 -21.040  1.00  0.00     0.010 C 
HETATM    9  C9  UNL     1       0.016  52.986 -19.606  1.00  0.00     0.035 C 
HETATM   10  C10 UNL     1      -0.387  51.580 -19.229  1.00  0.00    -0.069 C 
HETATM   11  C11 UNL     1       0.049  51.057 -18.068  1.00  0.00     0.030 C 
HETATM   12  C12 UNL     1      -0.425  49.743 -17.566  1.00  0.00     0.032 C 
HETATM   13  N1  UNL     1       0.038  49.333 -16.418  1.00  0.00    -0.271 N 
ATOM     14  H1  UNL     1       0.740  49.830 -15.872  1.00  0.00     0.194 HD
HETATM   15  C23 UNL     1      -1.465  49.006 -18.382  1.00  0.00     0.060 C 
HETATM   16  C24 UNL     1      -1.315  49.319 -19.864  1.00  0.00     0.020 C 
HETATM   17  C25 UNL     1      -1.321  50.839 -20.195  1.00  0.00    -0.016 C 
HETATM   18  C26 UNL     1      -2.749  51.393 -20.001  1.00  0.00     0.020 C 
HETATM   19  C27 UNL     1      -0.810  51.026 -21.678  1.00  0.00     0.002 C 
HETATM   20  C28 UNL     1      -1.714  50.344 -22.742  1.00  0.00     0.007 C 
HETATM   21  C29 UNL     1      -1.236  50.563 -24.189  1.00  0.00     0.014 C 
HETATM   22  C30 UNL     1      -1.019  52.054 -24.499  1.00  0.00     0.003 C 
HETATM   23  C31 UNL     1      -2.404  52.771 -24.461  1.00  0.00     0.020 C 
ENDROOT
BRANCH   3  24
HETATM   24  O1  UNL     1      -1.205  52.438 -26.928  1.00  0.00    -0.377 OA
HETATM   25  H2  UNL     1      -0.672  52.566 -27.731  1.00  0.00     0.211 HD
ENDBRANCH   3  24
BRANCH  13  26
HETATM   26  O2  UNL     1      -0.553  48.121 -16.028  1.00  0.00    -0.271 OA
BRANCH  26  27
HETATM   27  C13 UNL     1      -0.420  47.985 -14.621  1.00  0.00     0.303 C 
BRANCH  27  28
HETATM   28  C14 UNL     1       0.944  48.510 -14.191  1.00  0.00     0.244 C 
HETATM   29  O3  UNL     1       1.981  47.865 -14.338  1.00  0.00    -0.271 OA
HETATM   30  N2  UNL     1       0.923  49.766 -13.620  1.00  0.00    -0.351 N 
HETATM   31  H16 UNL     1       0.070  50.309 -13.639  1.00  0.00     0.163 HD
BRANCH  30  32
HETATM   32  C15 UNL     1       2.137  50.425 -13.169  1.00  0.00     0.113 C 
HETATM   33  C16 UNL     1       1.870  51.287 -11.929  1.00  0.00     0.037 C 
BRANCH  32  34
HETATM   34  C17 UNL     1       2.745  51.201 -14.327  1.00  0.00    -0.036 A 
HETATM   35  C18 UNL     1       4.107  51.113 -14.658  1.00  0.00     0.009 A 
HETATM   36  C19 UNL     1       4.633  51.859 -15.717  1.00  0.00     0.001 A 
HETATM   37  C20 UNL     1       3.809  52.709 -16.450  1.00  0.00     0.000 A 
HETATM   38  C21 UNL     1       2.460  52.825 -16.120  1.00  0.00     0.001 A 
HETATM   39  C22 UNL     1       1.933  52.080 -15.063  1.00  0.00     0.009 A 
ENDBRANCH  32  34
ENDBRANCH  30  32
ENDBRANCH  27  28
ENDBRANCH  26  27
ENDBRANCH  13  26
TORSDOF 6
ENDMDL
MODEL 4
REMARK minimizedAffinity -9.81573677
REMARK  6 active torsions:
REMARK  status: ('A' for Active; 'I' for Inactive)
REMARK    1  A    between atoms: C3_3  and  O1_4 
REMARK    2  A    between atoms: N1_14  and  O2_16 
REMARK    3  A    between atoms: O2_16  and  C13_17 
REMARK    4  A    between atoms: C13_17  and  C14_18 
REMARK       I    between atoms: C14_18  and  N2_20 
REMARK    5  A    between atoms: N2_20  and  C15_21 
REMARK    6  A    between atoms: C15_21  and  C17_23 
ROOT
HETATM    1  C1  UNL     1       1.819  50.602 -26.324  1.00  0.00     0.015 C 
HETATM    2  C2  UNL     1       0.879  51.302 -26.054  1.00  0.00    -0.078 C 
HETATM    3  C3  UNL     1      -0.281  52.170 -25.755  1.00  0.00     0.128 C 
HETATM    4  C4  UNL     1       0.141  53.661 -25.813  1.00  0.00     0.052 C 
HETATM    5  C5  UNL     1       0.352  54.122 -24.356  1.00  0.00     0.010 C 
HETATM    6  C6  UNL     1       0.204  52.852 -23.519  1.00  0.00     0.002 C 
HETATM    7  C7  UNL     1      -0.148  52.996 -22.033  1.00  0.00    -0.004 C 
HETATM    8  C8  UNL     1       0.902  53.832 -21.288  1.00  0.00     0.010 C 
HETATM    9  C9  UNL     1       0.547  53.971 -19.813  1.00  0.00     0.035 C 
HETATM   10  C10 UNL     1       0.336  52.634 -19.143  1.00  0.00    -0.069 C 
HETATM   11  C11 UNL     1       0.933  52.387 -17.961  1.00  0.00     0.030 C 
HETATM   12  C12 UNL     1       0.655  51.159 -17.177  1.00  0.00     0.032 C 
HETATM   13  N1  UNL     1       1.264  51.022 -16.033  1.00  0.00    -0.271 N 
ATOM     14  H1  UNL     1       1.956  51.676 -15.669  1.00  0.00     0.194 HD
HETATM   15  C23 UNL     1      -0.371  50.188 -17.722  1.00  0.00     0.060 C 
HETATM   16  C24 UNL     1      -0.395  50.219 -19.244  1.00  0.00     0.020 C 
HETATM   17  C25 UNL     1      -0.597  51.640 -19.845  1.00  0.00    -0.016 C 
HETATM   18  C26 UNL     1      -2.053  52.091 -19.597  1.00  0.00     0.020 C 
HETATM   19  C27 UNL     1      -0.251  51.581 -21.384  1.00  0.00     0.002 C 
HETATM   20  C28 UNL     1      -1.170  50.627 -22.197  1.00  0.00     0.007 C 
HETATM   21  C29 UNL     1      -0.856  50.604 -23.704  1.00  0.00     0.014 C 
HETATM   22  C30 UNL     1      -0.833  52.020 -24.305  1.00  0.00     0.003 C 
HETATM   23  C31 UNL     1      -2.277  52.604 -24.243  1.00  0.00     0.020 C 
ENDROOT
BRANCH   3  24
HETATM   24  O1  UNL     1      -1.285  51.908 -26.726  1.00  0.00    -0.377 OA
HETATM   25  H2  UNL     1      -0.847  51.924 -27.594  1.00  0.00     0.211 HD
ENDBRANCH   3  24
BRANCH  13  26
HETATM   26  O2  UNL     1       0.848  49.860 -15.363  1.00  0.00    -0.271 OA
BRANCH  26  27
HETATM   27  C13 UNL     1       0.549  50.197 -14.016  1.00  0.00     0.303 C 
BRANCH  27  28
HETATM   28  C14 UNL     1       1.833  50.594 -13.300  1.00  0.00     0.244 C 
HETATM   29  O3  UNL     1       2.936  50.560 -13.843  1.00  0.00    -0.271 OA
HETATM   30  N2  UNL     1       1.661  50.994 -11.990  1.00  0.00    -0.351 N 
HETATM   31  H16 UNL     1       0.727  51.131 -11.627  1.00  0.00     0.163 HD
BRANCH  30  32
HETATM   32  C15 UNL     1       2.778  51.424 -11.165  1.00  0.00     0.113 C 
HETATM   33  C16 UNL     1       2.869  50.589  -9.882  1.00  0.00     0.037 C 
BRANCH  32  34
HETATM   34  C17 UNL     1       2.666  52.918 -10.909  1.00  0.00    -0.036 A 
HETATM   35  C18 UNL     1       1.436  53.594 -10.926  1.00  0.00     0.009 A 
HETATM   36  C19 UNL     1       1.377  54.973 -10.707  1.00  0.00     0.001 A 
HETATM   37  C20 UNL     1       2.544  55.696 -10.479  1.00  0.00     0.000 A 
HETATM   38  C21 UNL     1       3.776  55.044 -10.479  1.00  0.00     0.001 A 
HETATM   39  C22 UNL     1       3.837  53.666 -10.698  1.00  0.00     0.009 A 
ENDBRANCH  32  34
ENDBRANCH  30  32
ENDBRANCH  27  28
ENDBRANCH  26  27
ENDBRANCH  13  26
TORSDOF 6
ENDMDL
MODEL 5
REMARK minimizedAffinity -9.74417305
REMARK  6 active torsions:
REMARK  status: ('A' for Active; 'I' for Inactive)
REMARK    1  A    between atoms: C3_3  and  O1_4 
REMARK    2  A    between atoms: N1_14  and  O2_16 
REMARK    3  A    between atoms: O2_16  and  C13_17 
REMARK    4  A    between atoms: C13_17  and  C14_18 
REMARK       I    between atoms: C14_18  and  N2_20 
REMARK    5  A    between atoms: N2_20  and  C15_21 
REMARK    6  A    between atoms: C15_21  and  C17_23 
ROOT
HETATM    1  C1  UNL     1       0.152  55.546 -26.221  1.00  0.00     0.015 C 
HETATM    2  C2  UNL     1      -0.086  54.403 -26.506  1.00  0.00    -0.078 C 
HETATM    3  C3  UNL     1      -0.372  53.002 -26.890  1.00  0.00     0.128 C 
HETATM    4  C4  UNL     1      -1.787  52.901 -27.518  1.00  0.00     0.052 C 
HETATM    5  C5  UNL     1      -2.725  52.368 -26.415  1.00  0.00     0.010 C 
HETATM    6  C6  UNL     1      -1.865  52.332 -25.152  1.00  0.00     0.002 C 
HETATM    7  C7  UNL     1      -2.292  51.407 -24.006  1.00  0.00    -0.004 C 
HETATM    8  C8  UNL     1      -3.702  51.750 -23.506  1.00  0.00     0.010 C 
HETATM    9  C9  UNL     1      -4.120  50.828 -22.367  1.00  0.00     0.035 C 
HETATM   10  C10 UNL     1      -3.123  50.824 -21.233  1.00  0.00    -0.069 C 
HETATM   11  C11 UNL     1      -3.562  50.962 -19.968  1.00  0.00     0.030 C 
HETATM   12  C12 UNL     1      -2.660  50.820 -18.798  1.00  0.00     0.032 C 
HETATM   13  N1  UNL     1      -3.185  50.948 -17.612  1.00  0.00    -0.271 N 
ATOM     14  H1  UNL     1      -4.160  51.190 -17.439  1.00  0.00     0.194 HD
HETATM   15  C23 UNL     1      -1.212  50.465 -19.060  1.00  0.00     0.060 C 
HETATM   16  C24 UNL     1      -0.748  51.022 -20.398  1.00  0.00     0.020 C 
HETATM   17  C25 UNL     1      -1.648  50.616 -21.601  1.00  0.00    -0.016 C 
HETATM   18  C26 UNL     1      -1.436  49.117 -21.906  1.00  0.00     0.020 C 
HETATM   19  C27 UNL     1      -1.272  51.530 -22.832  1.00  0.00     0.002 C 
HETATM   20  C28 UNL     1       0.197  51.364 -23.310  1.00  0.00     0.007 C 
HETATM   21  C29 UNL     1       0.547  52.225 -24.537  1.00  0.00     0.014 C 
HETATM   22  C30 UNL     1      -0.452  52.014 -25.688  1.00  0.00     0.003 C 
HETATM   23  C31 UNL     1      -0.297  50.554 -26.212  1.00  0.00     0.020 C 
ENDROOT
BRANCH   3  24
HETATM   24  O1  UNL     1       0.611  52.599 -27.834  1.00  0.00    -0.377 OA
HETATM   25  H2  UNL     1       0.670  53.307 -28.498  1.00  0.00     0.211 HD
ENDBRANCH   3  24
BRANCH  13  26
HETATM   26  O2  UNL     1      -2.239  50.709 -16.602  1.00  0.00    -0.271 OA
BRANCH  26  27
HETATM   27  C13 UNL     1      -2.880  50.844 -15.342  1.00  0.00     0.303 C 
BRANCH  27  28
HETATM   28  C14 UNL     1      -1.853  51.256 -14.295  1.00  0.00     0.244 C 
HETATM   29  O3  UNL     1      -2.168  51.659 -13.177  1.00  0.00    -0.271 OA
HETATM   30  N2  UNL     1      -0.539  51.144 -14.703  1.00  0.00    -0.351 N 
HETATM   31  H16 UNL     1      -0.325  50.687 -15.579  1.00  0.00     0.163 HD
BRANCH  30  32
HETATM   32  C15 UNL     1       0.569  51.477 -13.823  1.00  0.00     0.113 C 
HETATM   33  C16 UNL     1       0.203  52.638 -12.890  1.00  0.00     0.037 C 
BRANCH  32  34
HETATM   34  C17 UNL     1       1.811  51.741 -14.659  1.00  0.00    -0.036 A 
HETATM   35  C18 UNL     1       3.106  51.478 -14.186  1.00  0.00     0.009 A 
HETATM   36  C19 UNL     1       4.225  51.754 -14.977  1.00  0.00     0.001 A 
HETATM   37  C20 UNL     1       4.065  52.305 -16.246  1.00  0.00     0.000 A 
HETATM   38  C21 UNL     1       2.787  52.591 -16.723  1.00  0.00     0.001 A 
HETATM   39  C22 UNL     1       1.669  52.316 -15.933  1.00  0.00     0.009 A 
ENDBRANCH  32  34
ENDBRANCH  30  32
ENDBRANCH  27  28
ENDBRANCH  26  27
ENDBRANCH  13  26
TORSDOF 6
ENDMDL
MODEL 6
REMARK minimizedAffinity -9.68869686
REMARK  6 active torsions:
REMARK  status: ('A' for Active; 'I' for Inactive)
REMARK    1  A    between atoms: C3_3  and  O1_4 
REMARK    2  A    between atoms: N1_14  and  O2_16 
REMARK    3  A    between atoms: O2_16  and  C13_17 
REMARK    4  A    between atoms: C13_17  and  C14_18 
REMARK       I    between atoms: C14_18  and  N2_20 
REMARK    5  A    between atoms: N2_20  and  C15_21 
REMARK    6  A    between atoms: C15_21  and  C17_23 
ROOT
HETATM    1  C1  UNL     1       4.442  49.574 -14.175  1.00  0.00     0.015 C 
HETATM    2  C2  UNL     1       3.329  49.982 -13.977  1.00  0.00    -0.078 C 
HETATM    3  C3  UNL     1       1.962  50.477 -13.699  1.00  0.00     0.128 C 
HETATM    4  C4  UNL     1       0.982  49.283 -13.558  1.00  0.00     0.052 C 
HETATM    5  C5  UNL     1       0.233  49.162 -14.901  1.00  0.00     0.010 C 
HETATM    6  C6  UNL     1       0.911  50.176 -15.822  1.00  0.00     0.002 C 
HETATM    7  C7  UNL     1       0.133  50.688 -17.040  1.00  0.00    -0.004 C 
HETATM    8  C8  UNL     1      -0.276  49.535 -17.967  1.00  0.00     0.010 C 
HETATM    9  C9  UNL     1      -1.047  50.050 -19.176  1.00  0.00     0.035 C 
HETATM   10  C10 UNL     1      -0.290  51.117 -19.931  1.00  0.00    -0.069 C 
HETATM   11  C11 UNL     1      -0.189  51.031 -21.270  1.00  0.00     0.030 C 
HETATM   12  C12 UNL     1       0.410  52.115 -22.089  1.00  0.00     0.032 C 
HETATM   13  N1  UNL     1       0.441  51.948 -23.381  1.00  0.00    -0.271 N 
ATOM     14  H1  UNL     1       0.130  51.103 -23.859  1.00  0.00     0.194 HD
HETATM   15  C23 UNL     1       0.874  53.367 -21.376  1.00  0.00     0.060 C 
HETATM   16  C24 UNL     1       1.338  53.047 -19.961  1.00  0.00     0.020 C 
HETATM   17  C25 UNL     1       0.289  52.275 -19.109  1.00  0.00    -0.016 C 
HETATM   18  C26 UNL     1      -0.868  53.232 -18.745  1.00  0.00     0.020 C 
HETATM   19  C27 UNL     1       1.013  51.709 -17.826  1.00  0.00     0.002 C 
HETATM   20  C28 UNL     1       1.603  52.810 -16.901  1.00  0.00     0.007 C 
HETATM   21  C29 UNL     1       2.272  52.255 -15.631  1.00  0.00     0.014 C 
HETATM   22  C30 UNL     1       1.337  51.307 -14.860  1.00  0.00     0.003 C 
HETATM   23  C31 UNL     1       0.139  52.139 -14.307  1.00  0.00     0.020 C 
ENDROOT
BRANCH   3  24
HETATM   24  O1  UNL     1       2.005  51.220 -12.488  1.00  0.00    -0.377 OA
HETATM   25  H2  UNL     1       2.491  50.679 -11.843  1.00  0.00     0.211 HD
ENDBRANCH   3  24
BRANCH  13  26
HETATM   26  O2  UNL     1       0.956  53.079 -24.034  1.00  0.00    -0.271 OA
BRANCH  26  27
HETATM   27  C13 UNL     1       0.217  53.287 -25.229  1.00  0.00     0.303 C 
BRANCH  27  28
HETATM   28  C14 UNL     1      -0.147  51.939 -25.837  1.00  0.00     0.244 C 
HETATM   29  O3  UNL     1       0.696  51.098 -26.143  1.00  0.00    -0.271 OA
HETATM   30  N2  UNL     1      -1.500  51.738 -26.022  1.00  0.00    -0.351 N 
HETATM   31  H16 UNL     1      -2.161  52.400 -25.637  1.00  0.00     0.163 HD
BRANCH  30  32
HETATM   32  C15 UNL     1      -2.024  50.500 -26.575  1.00  0.00     0.113 C 
HETATM   33  C16 UNL     1      -2.857  50.767 -27.834  1.00  0.00     0.037 C 
BRANCH  32  34
HETATM   34  C17 UNL     1      -2.784  49.750 -25.493  1.00  0.00    -0.036 A 
HETATM   35  C18 UNL     1      -3.940  49.001 -25.767  1.00  0.00     0.009 A 
HETATM   36  C19 UNL     1      -4.624  48.343 -24.741  1.00  0.00     0.001 A 
HETATM   37  C20 UNL     1      -4.170  48.433 -23.428  1.00  0.00     0.000 A 
HETATM   38  C21 UNL     1      -3.037  49.189 -23.136  1.00  0.00     0.001 A 
HETATM   39  C22 UNL     1      -2.352  49.848 -24.160  1.00  0.00     0.009 A 
ENDBRANCH  32  34
ENDBRANCH  30  32
ENDBRANCH  27  28
ENDBRANCH  26  27
ENDBRANCH  13  26
TORSDOF 6
ENDMDL
MODEL 7
REMARK minimizedAffinity -9.6165657
REMARK  6 active torsions:
REMARK  status: ('A' for Active; 'I' for Inactive)
REMARK    1  A    between atoms: C3_3  and  O1_4 
REMARK    2  A    between atoms: N1_14  and  O2_16 
REMARK    3  A    between atoms: O2_16  and  C13_17 
REMARK    4  A    between atoms: C13_17  and  C14_18 
REMARK       I    between atoms: C14_18  and  N2_20 
REMARK    5  A    between atoms: N2_20  and  C15_21 
REMARK    6  A    between atoms: C15_21  and  C17_23 
ROOT
HETATM    1  C1  UNL     1      -3.904  53.024 -11.107  1.00  0.00     0.015 C 
HETATM    2  C2  UNL     1      -3.309  51.983 -11.187  1.00  0.00    -0.078 C 
HETATM    3  C3  UNL     1      -2.586  50.693 -11.253  1.00  0.00     0.128 C 
HETATM    4  C4  UNL     1      -1.269  50.777 -10.439  1.00  0.00     0.052 C 
HETATM    5  C5  UNL     1      -0.132  51.009 -11.455  1.00  0.00     0.010 C 
HETATM    6  C6  UNL     1      -0.838  51.210 -12.795  1.00  0.00     0.002 C 
HETATM    7  C7  UNL     1      -0.041  50.964 -14.082  1.00  0.00    -0.004 C 
HETATM    8  C8  UNL     1       1.196  51.869 -14.156  1.00  0.00     0.010 C 
HETATM    9  C9  UNL     1       1.982  51.621 -15.437  1.00  0.00     0.035 C 
HETATM   10  C10 UNL     1       1.127  51.761 -16.674  1.00  0.00    -0.069 C 
HETATM   11  C11 UNL     1       1.579  52.496 -17.708  1.00  0.00     0.030 C 
HETATM   12  C12 UNL     1       0.863  52.557 -19.006  1.00  0.00     0.032 C 
HETATM   13  N1  UNL     1       1.393  53.277 -19.955  1.00  0.00    -0.271 N 
ATOM     14  H1  UNL     1       2.235  53.841 -19.845  1.00  0.00     0.194 HD
HETATM   15  C23 UNL     1      -0.390  51.721 -19.164  1.00  0.00     0.060 C 
HETATM   16  C24 UNL     1      -1.108  51.560 -17.832  1.00  0.00     0.020 C 
HETATM   17  C25 UNL     1      -0.208  51.007 -16.689  1.00  0.00    -0.016 C 
HETATM   18  C26 UNL     1       0.087  49.514 -16.957  1.00  0.00     0.020 C 
HETATM   19  C27 UNL     1      -0.958  51.224 -15.317  1.00  0.00     0.002 C 
HETATM   20  C28 UNL     1      -2.311  50.465 -15.215  1.00  0.00     0.007 C 
HETATM   21  C29 UNL     1      -3.019  50.647 -13.861  1.00  0.00     0.014 C 
HETATM   22  C30 UNL     1      -2.090  50.313 -12.681  1.00  0.00     0.003 C 
HETATM   23  C31 UNL     1      -1.770  48.787 -12.723  1.00  0.00     0.020 C 
ENDROOT
BRANCH   3  24
HETATM   24  O1  UNL     1      -3.434  49.690 -10.710  1.00  0.00    -0.377 OA
HETATM   25  H2  UNL     1      -3.778  50.037  -9.870  1.00  0.00     0.211 HD
ENDBRANCH   3  24
BRANCH  13  26
HETATM   26  O2  UNL     1       0.658  53.179 -21.147  1.00  0.00    -0.271 OA
BRANCH  26  27
HETATM   27  C13 UNL     1       1.343  53.901 -22.160  1.00  0.00     0.303 C 
BRANCH  27  28
HETATM   28  C14 UNL     1       0.658  53.662 -23.500  1.00  0.00     0.244 C 
HETATM   29  O3  UNL     1       0.658  54.496 -24.404  1.00  0.00    -0.271 OA
HETATM   30  N2  UNL     1       0.034  52.437 -23.618  1.00  0.00    -0.351 N 
HETATM   31  H16 UNL     1       0.171  51.736 -22.902  1.00  0.00     0.163 HD
BRANCH  30  32
HETATM   32  C15 UNL     1      -0.652  52.039 -24.835  1.00  0.00     0.113 C 
HETATM   33  C16 UNL     1      -1.485  50.771 -24.609  1.00  0.00     0.037 C 
BRANCH  32  34
HETATM   34  C17 UNL     1       0.361  51.905 -25.961  1.00  0.00    -0.036 A 
HETATM   35  C18 UNL     1       1.677  51.468 -25.740  1.00  0.00     0.009 A 
HETATM   36  C19 UNL     1       2.586  51.379 -26.799  1.00  0.00     0.001 A 
HETATM   37  C20 UNL     1       2.196  51.734 -28.087  1.00  0.00     0.000 A 
HETATM   38  C21 UNL     1       0.899  52.189 -28.320  1.00  0.00     0.001 A 
HETATM   39  C22 UNL     1      -0.010  52.279 -27.263  1.00  0.00     0.009 A 
ENDBRANCH  32  34
ENDBRANCH  30  32
ENDBRANCH  27  28
ENDBRANCH  26  27
ENDBRANCH  13  26
TORSDOF 6
ENDMDL
MODEL 8
REMARK minimizedAffinity -9.41452599
REMARK  6 active torsions:
REMARK  status: ('A' for Active; 'I' for Inactive)
REMARK    1  A    between atoms: C3_3  and  O1_4 
REMARK    2  A    between atoms: N1_14  and  O2_16 
REMARK    3  A    between atoms: O2_16  and  C13_17 
REMARK    4  A    between atoms: C13_17  and  C14_18 
REMARK       I    between atoms: C14_18  and  N2_20 
REMARK    5  A    between atoms: N2_20  and  C15_21 
REMARK    6  A    between atoms: C15_21  and  C17_23 
ROOT
HETATM    1  C1  UNL     1       1.606  50.696 -26.322  1.00  0.00     0.015 C 
HETATM    2  C2  UNL     1       0.708  51.421 -25.985  1.00  0.00    -0.078 C 
HETATM    3  C3  UNL     1      -0.399  52.325 -25.602  1.00  0.00     0.128 C 
HETATM    4  C4  UNL     1       0.130  53.773 -25.435  1.00  0.00     0.052 C 
HETATM    5  C5  UNL     1       0.312  54.008 -23.921  1.00  0.00     0.010 C 
HETATM    6  C6  UNL     1       0.039  52.649 -23.277  1.00  0.00     0.002 C 
HETATM    7  C7  UNL     1      -0.364  52.611 -21.798  1.00  0.00    -0.004 C 
HETATM    8  C8  UNL     1       0.709  53.252 -20.909  1.00  0.00     0.010 C 
HETATM    9  C9  UNL     1       0.304  53.210 -19.441  1.00  0.00     0.035 C 
HETATM   10  C10 UNL     1      -0.030  51.813 -18.975  1.00  0.00    -0.069 C 
HETATM   11  C11 UNL     1       0.498  51.359 -17.823  1.00  0.00     0.030 C 
HETATM   12  C12 UNL     1       0.100  50.058 -17.230  1.00  0.00     0.032 C 
HETATM   13  N1  UNL     1       0.649  49.717 -16.098  1.00  0.00    -0.271 N 
ATOM     14  H1  UNL     1       1.370  50.259 -15.624  1.00  0.00     0.194 HD
HETATM   15  C23 UNL     1      -0.968  49.254 -17.940  1.00  0.00     0.060 C 
HETATM   16  C24 UNL     1      -0.926  49.499 -19.442  1.00  0.00     0.020 C 
HETATM   17  C25 UNL     1      -1.001  51.002 -19.841  1.00  0.00    -0.016 C 
HETATM   18  C26 UNL     1      -2.430  51.524 -19.577  1.00  0.00     0.020 C 
HETATM   19  C27 UNL     1      -0.595  51.131 -21.361  1.00  0.00     0.002 C 
HETATM   20  C28 UNL     1      -1.545  50.373 -22.330  1.00  0.00     0.007 C 
HETATM   21  C29 UNL     1      -1.170  50.537 -23.814  1.00  0.00     0.014 C 
HETATM   22  C30 UNL     1      -1.021  52.017 -24.207  1.00  0.00     0.003 C 
HETATM   23  C31 UNL     1      -2.421  52.695 -24.108  1.00  0.00     0.020 C 
ENDROOT
BRANCH   3  24
HETATM   24  O1  UNL     1      -1.377  52.278 -26.632  1.00  0.00    -0.377 OA
HETATM   25  H2  UNL     1      -0.903  52.382 -27.475  1.00  0.00     0.211 HD
ENDBRANCH   3  24
BRANCH  13  26
HETATM   26  O2  UNL     1       0.123  48.508 -15.614  1.00  0.00    -0.271 OA
BRANCH  26  27
HETATM   27  C13 UNL     1       1.190  47.727 -15.096  1.00  0.00     0.303 C 
BRANCH  27  28
HETATM   28  C14 UNL     1       0.637  46.414 -14.558  1.00  0.00     0.244 C 
HETATM   29  O3  UNL     1      -0.456  46.331 -14.000  1.00  0.00    -0.271 OA
HETATM   30  N2  UNL     1       1.462  45.323 -14.743  1.00  0.00    -0.351 N 
HETATM   31  H16 UNL     1       2.288  45.413 -15.319  1.00  0.00     0.163 HD
BRANCH  30  32
HETATM   32  C15 UNL     1       1.082  43.990 -14.306  1.00  0.00     0.113 C 
HETATM   33  C16 UNL     1       2.145  43.389 -13.378  1.00  0.00     0.037 C 
BRANCH  32  34
HETATM   34  C17 UNL     1       0.785  43.129 -15.523  1.00  0.00    -0.036 A 
HETATM   35  C18 UNL     1       1.785  42.726 -16.422  1.00  0.00     0.009 A 
HETATM   36  C19 UNL     1       1.469  41.952 -17.542  1.00  0.00     0.001 A 
HETATM   37  C20 UNL     1       0.149  41.580 -17.784  1.00  0.00     0.000 A 
HETATM   38  C21 UNL     1      -0.859  41.990 -16.914  1.00  0.00     0.001 A 
HETATM   39  C22 UNL     1      -0.544  42.763 -15.795  1.00  0.00     0.009 A 
ENDBRANCH  32  34
ENDBRANCH  30  32
ENDBRANCH  27  28
ENDBRANCH  26  27
ENDBRANCH  13  26
TORSDOF 6
ENDMDL
MODEL 9
REMARK minimizedAffinity -9.40375614
REMARK  6 active torsions:
REMARK  status: ('A' for Active; 'I' for Inactive)
REMARK    1  A    between atoms: C3_3  and  O1_4 
REMARK    2  A    between atoms: N1_14  and  O2_16 
REMARK    3  A    between atoms: O2_16  and  C13_17 
REMARK    4  A    between atoms: C13_17  and  C14_18 
REMARK       I    between atoms: C14_18  and  N2_20 
REMARK    5  A    between atoms: N2_20  and  C15_21 
REMARK    6  A    between atoms: C15_21  and  C17_23 
ROOT
HETATM    1  C1  UNL     1       1.901  50.718 -26.397  1.00  0.00     0.015 C 
HETATM    2  C2  UNL     1       0.968  51.425 -26.128  1.00  0.00    -0.078 C 
HETATM    3  C3  UNL     1      -0.185  52.305 -25.829  1.00  0.00     0.128 C 
HETATM    4  C4  UNL     1       0.254  53.791 -25.874  1.00  0.00     0.052 C 
HETATM    5  C5  UNL     1       0.461  54.238 -24.412  1.00  0.00     0.010 C 
HETATM    6  C6  UNL     1       0.294  52.964 -23.585  1.00  0.00     0.002 C 
HETATM    7  C7  UNL     1      -0.066  53.101 -22.101  1.00  0.00    -0.004 C 
HETATM    8  C8  UNL     1       0.988  53.920 -21.343  1.00  0.00     0.010 C 
HETATM    9  C9  UNL     1       0.626  54.052 -19.869  1.00  0.00     0.035 C 
HETATM   10  C10 UNL     1       0.396  52.712 -19.210  1.00  0.00    -0.069 C 
HETATM   11  C11 UNL     1       0.983  52.451 -18.027  1.00  0.00     0.030 C 
HETATM   12  C12 UNL     1       0.686  51.219 -17.253  1.00  0.00     0.032 C 
HETATM   13  N1  UNL     1       1.287  51.067 -16.106  1.00  0.00    -0.271 N 
ATOM     14  H1  UNL     1       1.984  51.711 -15.734  1.00  0.00     0.194 HD
HETATM   15  C23 UNL     1      -0.346  50.264 -17.812  1.00  0.00     0.060 C 
HETATM   16  C24 UNL     1      -0.361  50.307 -19.333  1.00  0.00     0.020 C 
HETATM   17  C25 UNL     1      -0.543  51.735 -19.925  1.00  0.00    -0.016 C 
HETATM   18  C26 UNL     1      -1.996  52.200 -19.683  1.00  0.00     0.020 C 
HETATM   19  C27 UNL     1      -0.188  51.683 -21.463  1.00  0.00     0.002 C 
HETATM   20  C28 UNL     1      -1.113  50.745 -22.289  1.00  0.00     0.007 C 
HETATM   21  C29 UNL     1      -0.790  50.730 -23.794  1.00  0.00     0.014 C 
HETATM   22  C30 UNL     1      -0.747  52.150 -24.384  1.00  0.00     0.003 C 
HETATM   23  C31 UNL     1      -2.186  52.749 -24.327  1.00  0.00     0.020 C 
ENDROOT
BRANCH   3  24
HETATM   24  O1  UNL     1      -1.185  52.060 -26.809  1.00  0.00    -0.377 OA
HETATM   25  H2  UNL     1      -0.742  52.079 -27.674  1.00  0.00     0.211 HD
ENDBRANCH   3  24
BRANCH  13  26
HETATM   26  O2  UNL     1       0.853  49.905 -15.448  1.00  0.00    -0.271 OA
BRANCH  26  27
HETATM   27  C13 UNL     1       0.293  50.277 -14.198  1.00  0.00     0.303 C 
BRANCH  27  28
HETATM   28  C14 UNL     1      -0.531  49.118 -13.650  1.00  0.00     0.244 C 
HETATM   29  O3  UNL     1      -0.059  47.998 -13.462  1.00  0.00    -0.271 OA
HETATM   30  N2  UNL     1      -1.850  49.424 -13.384  1.00  0.00    -0.351 N 
HETATM   31  H16 UNL     1      -2.159  50.386 -13.431  1.00  0.00     0.163 HD
BRANCH  30  32
HETATM   32  C15 UNL     1      -2.772  48.441 -12.840  1.00  0.00     0.113 C 
HETATM   33  C16 UNL     1      -3.438  47.631 -13.959  1.00  0.00     0.037 C 
BRANCH  32  34
HETATM   34  C17 UNL     1      -3.764  49.138 -11.923  1.00  0.00    -0.036 A 
HETATM   35  C18 UNL     1      -3.527  50.416 -11.392  1.00  0.00     0.009 A 
HETATM   36  C19 UNL     1      -4.455  51.015 -10.535  1.00  0.00     0.001 A 
HETATM   37  C20 UNL     1      -5.624  50.343 -10.190  1.00  0.00     0.000 A 
HETATM   38  C21 UNL     1      -5.864  49.065 -10.692  1.00  0.00     0.001 A 
HETATM   39  C22 UNL     1      -4.939  48.465 -11.548  1.00  0.00     0.009 A 
ENDBRANCH  32  34
ENDBRANCH  30  32
ENDBRANCH  27  28
ENDBRANCH  26  27
ENDBRANCH  13  26
TORSDOF 6
ENDMDL
