MODEL 1
REMARK minimizedAffinity -9.40538406
REMARK  6 active torsions:
REMARK  status: ('A' for Active; 'I' for Inactive)
REMARK    1  A    between atoms: C2_2  and  C30_31 
REMARK    2  A    between atoms: C3_3  and  C4_4 
REMARK    3  A    between atoms: C4_4  and  C5_5 
REMARK    4  A    between atoms: C5_5  and  C6_6 
REMARK    5  A    between atoms: C6_6  and  C8_8 
REMARK    6  A    between atoms: C30_31  and  O3_33 
ROOT
HETATM    1  C8  UNL     1      -6.079   7.057  15.079  1.00  0.00    -0.002 C 
HETATM    2  C9  UNL     1      -5.933   8.566  15.464  1.00  0.00     0.007 C 
HETATM    3  C10 UNL     1      -4.538   9.034  14.995  1.00  0.00     0.015 C 
HETATM    4  C11 UNL     1      -4.072   7.933  14.030  1.00  0.00    -0.013 C 
HETATM    5  C12 UNL     1      -4.775   8.221  12.658  1.00  0.00     0.021 C 
HETATM    6  C13 UNL     1      -2.579   7.826  13.694  1.00  0.00    -0.070 C 
HETATM    7  C14 UNL     1      -1.868   8.923  13.375  1.00  0.00    -0.022 C 
HETATM    8  C15 UNL     1      -0.547   8.879  12.672  1.00  0.00     0.034 C 
HETATM    9  C16 UNL     1      -0.371   7.554  11.898  1.00  0.00     0.013 C 
HETATM   10  C17 UNL     1       0.885   7.543  10.953  1.00  0.00     0.018 C 
HETATM   11  C18 UNL     1       2.204   8.004  11.594  1.00  0.00     0.023 C 
HETATM   12  C19 UNL     1       0.613   8.487   9.754  1.00  0.00     0.023 C 
HETATM   13  C20 UNL     1       1.114   6.130  10.392  1.00  0.00     0.135 C 
HETATM   14  O1  UNL     1       1.492   5.934   9.235  1.00  0.00    -0.297 OA
HETATM   15  C21 UNL     1       0.978   4.966  11.342  1.00  0.00     0.080 C 
HETATM   16  C22 UNL     1      -0.354   5.029  12.068  1.00  0.00     0.017 C 
HETATM   17  C23 UNL     1      -0.560   6.335  12.868  1.00  0.00    -0.031 C 
HETATM   18  C24 UNL     1       0.458   6.354  14.046  1.00  0.00     0.016 C 
HETATM   19  C25 UNL     1      -2.007   6.404  13.545  1.00  0.00     0.024 C 
HETATM   20  C26 UNL     1      -3.091   5.450  12.998  1.00  0.00     0.010 C 
HETATM   21  C27 UNL     1      -4.410   5.441  13.821  1.00  0.00     0.011 C 
HETATM   22  C28 UNL     1      -4.597   6.651  14.767  1.00  0.00    -0.029 C 
HETATM   23  C29 UNL     1      -3.889   6.388  16.138  1.00  0.00     0.016 C 
ENDROOT
BRANCH   1  24
HETATM   24  C6  UNL     1      -6.904   6.257  16.134  1.00  0.00    -0.014 C 
HETATM   25  C7  UNL     1      -7.354   4.895  15.591  1.00  0.00     0.010 C 
BRANCH  24  26
HETATM   26  C5  UNL     1      -8.148   7.070  16.581  1.00  0.00     0.008 C 
BRANCH  26  27
HETATM   27  C4  UNL     1      -9.170   7.283  15.456  1.00  0.00     0.028 C 
BRANCH  27  28
HETATM   28  C3  UNL     1      -8.746   6.567  14.203  1.00  0.00    -0.013 C 
HETATM   29  C2  UNL     1      -9.426   6.473  13.041  1.00  0.00     0.008 C 
HETATM   30  C1  UNL     1     -10.786   7.046  12.773  1.00  0.00     0.055 C 
BRANCH  29  31
HETATM   31  C30 UNL     1      -8.850   5.738  11.882  1.00  0.00     0.171 C 
HETATM   32  O2  UNL     1      -8.020   4.848  11.957  1.00  0.00    -0.646 OA
BRANCH  31  33
HETATM   33  O3  UNL     1      -9.311   6.146  10.687  1.00  0.00    -0.773 OA
HETATM   34  H46 UNL     1      -8.828   5.578  10.052  1.00  0.00     0.167 HD
ENDBRANCH  31  33
ENDBRANCH  29  31
ENDBRANCH  27  28
ENDBRANCH  26  27
ENDBRANCH  24  26
ENDBRANCH   1  24
TORSDOF 6
ENDMDL
MODEL 2
REMARK minimizedAffinity -9.2671032
REMARK  6 active torsions:
REMARK  status: ('A' for Active; 'I' for Inactive)
REMARK    1  A    between atoms: C2_2  and  C30_31 
REMARK    2  A    between atoms: C3_3  and  C4_4 
REMARK    3  A    between atoms: C4_4  and  C5_5 
REMARK    4  A    between atoms: C5_5  and  C6_6 
REMARK    5  A    between atoms: C6_6  and  C8_8 
REMARK    6  A    between atoms: C30_31  and  O3_33 
ROOT
HETATM    1  C8  UNL     1      -6.260   7.321  14.428  1.00  0.00    -0.002 C 
HETATM    2  C9  UNL     1      -5.932   8.675  15.137  1.00  0.00     0.007 C 
HETATM    3  C10 UNL     1      -4.417   8.927  14.984  1.00  0.00     0.015 C 
HETATM    4  C11 UNL     1      -3.977   7.945  13.886  1.00  0.00    -0.013 C 
HETATM    5  C12 UNL     1      -4.360   8.611  12.518  1.00  0.00     0.021 C 
HETATM    6  C13 UNL     1      -2.489   7.601  13.755  1.00  0.00    -0.070 C 
HETATM    7  C14 UNL     1      -1.555   8.571  13.779  1.00  0.00    -0.022 C 
HETATM    8  C15 UNL     1      -0.156   8.387  13.280  1.00  0.00     0.034 C 
HETATM    9  C16 UNL     1      -0.070   7.213  12.279  1.00  0.00     0.013 C 
HETATM   10  C17 UNL     1       1.316   7.118  11.544  1.00  0.00     0.018 C 
HETATM   11  C18 UNL     1       2.556   7.180  12.452  1.00  0.00     0.023 C 
HETATM   12  C19 UNL     1       1.431   8.296  10.543  1.00  0.00     0.023 C 
HETATM   13  C20 UNL     1       1.400   5.811  10.738  1.00  0.00     0.135 C 
HETATM   14  O1  UNL     1       1.943   5.753   9.633  1.00  0.00    -0.297 OA
HETATM   15  C21 UNL     1       0.899   4.548  11.393  1.00  0.00     0.080 C 
HETATM   16  C22 UNL     1      -0.513   4.748  11.915  1.00  0.00     0.017 C 
HETATM   17  C23 UNL     1      -0.635   5.905  12.934  1.00  0.00    -0.031 C 
HETATM   18  C24 UNL     1       0.140   5.506  14.224  1.00  0.00     0.016 C 
HETATM   19  C25 UNL     1      -2.149   6.143  13.395  1.00  0.00     0.024 C 
HETATM   20  C26 UNL     1      -3.261   5.541  12.509  1.00  0.00     0.010 C 
HETATM   21  C27 UNL     1      -4.690   5.651  13.112  1.00  0.00     0.011 C 
HETATM   22  C28 UNL     1      -4.837   6.686  14.254  1.00  0.00    -0.029 C 
HETATM   23  C29 UNL     1      -4.445   6.044  15.627  1.00  0.00     0.016 C 
ENDROOT
BRANCH   1  24
HETATM   24  C6  UNL     1      -7.386   6.528  15.160  1.00  0.00    -0.014 C 
HETATM   25  C7  UNL     1      -7.385   6.801  16.670  1.00  0.00     0.010 C 
BRANCH  24  26
HETATM   26  C5  UNL     1      -7.227   5.004  14.912  1.00  0.00     0.008 C 
BRANCH  26  27
HETATM   27  C4  UNL     1      -7.936   4.520  13.639  1.00  0.00     0.028 C 
BRANCH  27  28
HETATM   28  C3  UNL     1      -6.937   4.053  12.615  1.00  0.00    -0.013 C 
HETATM   29  C2  UNL     1      -6.728   2.789  12.190  1.00  0.00     0.008 C 
HETATM   30  C1  UNL     1      -7.439   1.566  12.691  1.00  0.00     0.055 C 
BRANCH  29  31
HETATM   31  C30 UNL     1      -5.707   2.499  11.148  1.00  0.00     0.171 C 
HETATM   32  O2  UNL     1      -5.323   3.288  10.301  1.00  0.00    -0.646 OA
BRANCH  31  33
HETATM   33  O3  UNL     1      -5.219   1.246  11.188  1.00  0.00    -0.773 OA
HETATM   34  H46 UNL     1      -4.585   1.226  10.442  1.00  0.00     0.167 HD
ENDBRANCH  31  33
ENDBRANCH  29  31
ENDBRANCH  27  28
ENDBRANCH  26  27
ENDBRANCH  24  26
ENDBRANCH   1  24
TORSDOF 6
ENDMDL
MODEL 3
REMARK minimizedAffinity -9.19682217
REMARK  6 active torsions:
REMARK  status: ('A' for Active; 'I' for Inactive)
REMARK    1  A    between atoms: C2_2  and  C30_31 
REMARK    2  A    between atoms: C3_3  and  C4_4 
REMARK    3  A    between atoms: C4_4  and  C5_5 
REMARK    4  A    between atoms: C5_5  and  C6_6 
REMARK    5  A    between atoms: C6_6  and  C8_8 
REMARK    6  A    between atoms: C30_31  and  O3_33 
ROOT
HETATM    1  C8  UNL     1      -3.379   8.676  14.095  1.00  0.00    -0.002 C 
HETATM    2  C9  UNL     1      -2.955   8.185  15.518  1.00  0.00     0.007 C 
HETATM    3  C10 UNL     1      -1.473   7.759  15.441  1.00  0.00     0.015 C 
HETATM    4  C11 UNL     1      -0.972   8.360  14.119  1.00  0.00    -0.013 C 
HETATM    5  C12 UNL     1      -0.659   9.869  14.410  1.00  0.00     0.021 C 
HETATM    6  C13 UNL     1       0.313   7.805  13.493  1.00  0.00    -0.070 C 
HETATM    7  C14 UNL     1       1.410   7.601  14.247  1.00  0.00    -0.022 C 
HETATM    8  C15 UNL     1       2.786   7.441  13.680  1.00  0.00     0.034 C 
HETATM    9  C16 UNL     1       2.884   8.061  12.268  1.00  0.00     0.013 C 
HETATM   10  C17 UNL     1       4.354   8.135  11.717  1.00  0.00     0.018 C 
HETATM   11  C18 UNL     1       5.171   6.837  11.823  1.00  0.00     0.023 C 
HETATM   12  C19 UNL     1       5.128   9.220  12.510  1.00  0.00     0.023 C 
HETATM   13  C20 UNL     1       4.346   8.557  10.238  1.00  0.00     0.135 C 
HETATM   14  O1  UNL     1       5.197   9.310   9.763  1.00  0.00    -0.297 OA
HETATM   15  C21 UNL     1       3.321   7.920   9.333  1.00  0.00     0.080 C 
HETATM   16  C22 UNL     1       1.930   8.067   9.924  1.00  0.00     0.017 C 
HETATM   17  C23 UNL     1       1.789   7.442  11.331  1.00  0.00    -0.031 C 
HETATM   18  C24 UNL     1       1.929   5.898  11.198  1.00  0.00     0.016 C 
HETATM   19  C25 UNL     1       0.339   7.693  11.958  1.00  0.00     0.024 C 
HETATM   20  C26 UNL     1      -0.520   8.812  11.330  1.00  0.00     0.010 C 
HETATM   21  C27 UNL     1      -1.979   8.875  11.863  1.00  0.00     0.011 C 
HETATM   22  C28 UNL     1      -2.219   8.126  13.196  1.00  0.00    -0.029 C 
HETATM   23  C29 UNL     1      -2.518   6.613  12.927  1.00  0.00     0.016 C 
ENDROOT
BRANCH   1  24
HETATM   24  C6  UNL     1      -4.861   8.319  13.766  1.00  0.00    -0.014 C 
HETATM   25  C7  UNL     1      -5.802   8.658  14.929  1.00  0.00     0.010 C 
BRANCH  24  26
HETATM   26  C5  UNL     1      -4.992   6.812  13.419  1.00  0.00     0.008 C 
BRANCH  26  27
HETATM   27  C4  UNL     1      -5.467   5.956  14.602  1.00  0.00     0.028 C 
BRANCH  27  28
HETATM   28  C3  UNL     1      -6.604   5.061  14.194  1.00  0.00    -0.013 C 
HETATM   29  C2  UNL     1      -6.555   4.002  13.358  1.00  0.00     0.008 C 
HETATM   30  C1  UNL     1      -5.339   3.518  12.625  1.00  0.00     0.055 C 
BRANCH  29  31
HETATM   31  C30 UNL     1      -7.778   3.204  13.073  1.00  0.00     0.171 C 
HETATM   32  O2  UNL     1      -7.795   2.012  12.816  1.00  0.00    -0.646 OA
BRANCH  31  33
HETATM   33  O3  UNL     1      -8.919   3.914  13.102  1.00  0.00    -0.773 OA
HETATM   34  H46 UNL     1      -9.605   3.250  12.885  1.00  0.00     0.167 HD
ENDBRANCH  31  33
ENDBRANCH  29  31
ENDBRANCH  27  28
ENDBRANCH  26  27
ENDBRANCH  24  26
ENDBRANCH   1  24
TORSDOF 6
ENDMDL
MODEL 4
REMARK minimizedAffinity -9.06298351
REMARK  6 active torsions:
REMARK  status: ('A' for Active; 'I' for Inactive)
REMARK    1  A    between atoms: C2_2  and  C30_31 
REMARK    2  A    between atoms: C3_3  and  C4_4 
REMARK    3  A    between atoms: C4_4  and  C5_5 
REMARK    4  A    between atoms: C5_5  and  C6_6 
REMARK    5  A    between atoms: C6_6  and  C8_8 
REMARK    6  A    between atoms: C30_31  and  O3_33 
ROOT
HETATM    1  C8  UNL     1      -2.790   8.442  15.010  1.00  0.00    -0.002 C 
HETATM    2  C9  UNL     1      -1.876   7.950  16.179  1.00  0.00     0.007 C 
HETATM    3  C10 UNL     1      -0.514   7.553  15.570  1.00  0.00     0.015 C 
HETATM    4  C11 UNL     1      -0.531   8.172  14.164  1.00  0.00    -0.013 C 
HETATM    5  C12 UNL     1      -0.158   9.685  14.342  1.00  0.00     0.021 C 
HETATM    6  C13 UNL     1       0.452   7.644  13.111  1.00  0.00    -0.070 C 
HETATM    7  C14 UNL     1       1.750   7.457  13.418  1.00  0.00    -0.022 C 
HETATM    8  C15 UNL     1       2.833   7.326  12.393  1.00  0.00     0.034 C 
HETATM    9  C16 UNL     1       2.407   7.956  11.047  1.00  0.00     0.013 C 
HETATM   10  C17 UNL     1       3.580   8.061  10.006  1.00  0.00     0.018 C 
HETATM   11  C18 UNL     1       4.400   6.778   9.796  1.00  0.00     0.023 C 
HETATM   12  C19 UNL     1       4.570   9.156  10.481  1.00  0.00     0.023 C 
HETATM   13  C20 UNL     1       3.034   8.491   8.635  1.00  0.00     0.135 C 
HETATM   14  O1  UNL     1       3.646   9.263   7.895  1.00  0.00    -0.297 OA
HETATM   15  C21 UNL     1       1.762   7.840   8.150  1.00  0.00     0.080 C 
HETATM   16  C22 UNL     1       0.674   7.958   9.203  1.00  0.00     0.017 C 
HETATM   17  C23 UNL     1       1.058   7.322  10.559  1.00  0.00    -0.031 C 
HETATM   18  C24 UNL     1       1.165   5.781  10.366  1.00  0.00     0.016 C 
HETATM   19  C25 UNL     1      -0.074   7.542  11.668  1.00  0.00     0.024 C 
HETATM   20  C26 UNL     1      -1.118   8.648  11.404  1.00  0.00     0.010 C 
HETATM   21  C27 UNL     1      -2.289   8.681  12.426  1.00  0.00     0.011 C 
HETATM   22  C28 UNL     1      -2.022   7.919  13.747  1.00  0.00    -0.029 C 
HETATM   23  C29 UNL     1      -2.375   6.403  13.585  1.00  0.00     0.016 C 
ENDROOT
BRANCH   1  24
HETATM   24  C6  UNL     1      -4.286   8.059  15.230  1.00  0.00    -0.014 C 
HETATM   25  C7  UNL     1      -4.431   6.672  15.868  1.00  0.00     0.010 C 
BRANCH  24  26
HETATM   26  C5  UNL     1      -5.058   8.090  13.884  1.00  0.00     0.008 C 
BRANCH  26  27
HETATM   27  C4  UNL     1      -6.497   7.567  13.997  1.00  0.00     0.028 C 
BRANCH  27  28
HETATM   28  C3  UNL     1      -6.592   6.148  13.508  1.00  0.00    -0.013 C 
HETATM   29  C2  UNL     1      -7.702   5.487  13.119  1.00  0.00     0.008 C 
HETATM   30  C1  UNL     1      -9.099   6.034  13.132  1.00  0.00     0.055 C 
BRANCH  29  31
HETATM   31  C30 UNL     1      -7.618   4.081  12.638  1.00  0.00     0.171 C 
HETATM   32  O2  UNL     1      -6.724   3.628  11.944  1.00  0.00    -0.646 OA
BRANCH  31  33
HETATM   33  O3  UNL     1      -8.647   3.305  13.022  1.00  0.00    -0.773 OA
HETATM   34  H46 UNL     1      -8.440   2.438  12.616  1.00  0.00     0.167 HD
ENDBRANCH  31  33
ENDBRANCH  29  31
ENDBRANCH  27  28
ENDBRANCH  26  27
ENDBRANCH  24  26
ENDBRANCH   1  24
TORSDOF 6
ENDMDL
MODEL 5
REMARK minimizedAffinity -8.92601395
REMARK  6 active torsions:
REMARK  status: ('A' for Active; 'I' for Inactive)
REMARK    1  A    between atoms: C2_2  and  C30_31 
REMARK    2  A    between atoms: C3_3  and  C4_4 
REMARK    3  A    between atoms: C4_4  and  C5_5 
REMARK    4  A    between atoms: C5_5  and  C6_6 
REMARK    5  A    between atoms: C6_6  and  C8_8 
REMARK    6  A    between atoms: C30_31  and  O3_33 
ROOT
HETATM    1  C8  UNL     1       0.840   6.976  12.409  1.00  0.00    -0.002 C 
HETATM    2  C9  UNL     1       1.254   5.475  12.549  1.00  0.00     0.007 C 
HETATM    3  C10 UNL     1      -0.010   4.675  12.928  1.00  0.00     0.015 C 
HETATM    4  C11 UNL     1      -1.172   5.634  12.625  1.00  0.00    -0.013 C 
HETATM    5  C12 UNL     1      -1.423   5.551  11.079  1.00  0.00     0.021 C 
HETATM    6  C13 UNL     1      -2.540   5.364  13.262  1.00  0.00    -0.070 C 
HETATM    7  C14 UNL     1      -3.070   4.126  13.250  1.00  0.00    -0.022 C 
HETATM    8  C15 UNL     1      -4.521   3.843  13.485  1.00  0.00     0.034 C 
HETATM    9  C16 UNL     1      -5.387   5.090  13.199  1.00  0.00     0.013 C 
HETATM   10  C17 UNL     1      -6.930   4.795  13.199  1.00  0.00     0.018 C 
HETATM   11  C18 UNL     1      -7.456   4.006  14.409  1.00  0.00     0.023 C 
HETATM   12  C19 UNL     1      -7.278   3.966  11.936  1.00  0.00     0.023 C 
HETATM   13  C20 UNL     1      -7.722   6.111  13.126  1.00  0.00     0.135 C 
HETATM   14  O1  UNL     1      -8.760   6.219  12.470  1.00  0.00    -0.297 OA
HETATM   15  C21 UNL     1      -7.258   7.258  13.988  1.00  0.00     0.080 C 
HETATM   16  C22 UNL     1      -5.780   7.526  13.761  1.00  0.00     0.017 C 
HETATM   17  C23 UNL     1      -4.880   6.304  14.054  1.00  0.00    -0.031 C 
HETATM   18  C24 UNL     1      -4.930   6.013  15.582  1.00  0.00     0.016 C 
HETATM   19  C25 UNL     1      -3.343   6.596  13.719  1.00  0.00     0.024 C 
HETATM   20  C26 UNL     1      -3.034   7.800  12.804  1.00  0.00     0.010 C 
HETATM   21  C27 UNL     1      -1.521   8.133  12.673  1.00  0.00     0.011 C 
HETATM   22  C28 UNL     1      -0.564   6.997  13.108  1.00  0.00    -0.029 C 
HETATM   23  C29 UNL     1      -0.313   7.055  14.652  1.00  0.00     0.016 C 
ENDROOT
BRANCH   1  24
HETATM   24  C6  UNL     1       1.965   7.945  12.885  1.00  0.00    -0.014 C 
HETATM   25  C7  UNL     1       1.795   9.350  12.293  1.00  0.00     0.010 C 
BRANCH  24  26
HETATM   26  C5  UNL     1       3.361   7.388  12.498  1.00  0.00     0.008 C 
BRANCH  26  27
HETATM   27  C4  UNL     1       3.663   7.498  10.996  1.00  0.00     0.028 C 
BRANCH  27  28
HETATM   28  C3  UNL     1       3.815   6.134  10.380  1.00  0.00    -0.013 C 
HETATM   29  C2  UNL     1       3.290   5.697   9.216  1.00  0.00     0.008 C 
HETATM   30  C1  UNL     1       2.400   6.488   8.303  1.00  0.00     0.055 C 
BRANCH  29  31
HETATM   31  C30 UNL     1       3.556   4.314   8.736  1.00  0.00     0.171 C 
HETATM   32  O2  UNL     1       3.901   4.017   7.605  1.00  0.00    -0.646 OA
BRANCH  31  33
HETATM   33  O3  UNL     1       3.369   3.362   9.667  1.00  0.00    -0.773 OA
HETATM   34  H46 UNL     1       3.572   2.533   9.187  1.00  0.00     0.167 HD
ENDBRANCH  31  33
ENDBRANCH  29  31
ENDBRANCH  27  28
ENDBRANCH  26  27
ENDBRANCH  24  26
ENDBRANCH   1  24
TORSDOF 6
ENDMDL
MODEL 6
REMARK minimizedAffinity -8.89790058
REMARK  6 active torsions:
REMARK  status: ('A' for Active; 'I' for Inactive)
REMARK    1  A    between atoms: C2_2  and  C30_31 
REMARK    2  A    between atoms: C3_3  and  C4_4 
REMARK    3  A    between atoms: C4_4  and  C5_5 
REMARK    4  A    between atoms: C5_5  and  C6_6 
REMARK    5  A    between atoms: C6_6  and  C8_8 
REMARK    6  A    between atoms: C30_31  and  O3_33 
ROOT
HETATM    1  C8  UNL     1      -5.256   4.980  13.157  1.00  0.00    -0.002 C 
HETATM    2  C9  UNL     1      -6.169   3.718  13.026  1.00  0.00     0.007 C 
HETATM    3  C10 UNL     1      -7.598   4.130  13.441  1.00  0.00     0.015 C 
HETATM    4  C11 UNL     1      -7.569   5.666  13.428  1.00  0.00    -0.013 C 
HETATM    5  C12 UNL     1      -7.738   6.099  11.930  1.00  0.00     0.021 C 
HETATM    6  C13 UNL     1      -8.659   6.433  14.186  1.00  0.00    -0.070 C 
HETATM    7  C14 UNL     1      -9.954   6.086  14.062  1.00  0.00    -0.022 C 
HETATM    8  C15 UNL     1     -11.092   6.985  14.434  1.00  0.00     0.034 C 
HETATM    9  C16 UNL     1     -10.654   8.467  14.442  1.00  0.00     0.013 C 
HETATM   10  C17 UNL     1     -11.852   9.473  14.594  1.00  0.00     0.018 C 
HETATM   11  C18 UNL     1     -12.837   9.168  15.734  1.00  0.00     0.023 C 
HETATM   12  C19 UNL     1     -12.672   9.472  13.278  1.00  0.00     0.023 C 
HETATM   13  C20 UNL     1     -11.321  10.899  14.811  1.00  0.00     0.135 C 
HETATM   14  O1  UNL     1     -11.865  11.887  14.314  1.00  0.00    -0.297 OA
HETATM   15  C21 UNL     1     -10.167  11.081  15.765  1.00  0.00     0.080 C 
HETATM   16  C22 UNL     1      -9.024  10.152  15.395  1.00  0.00     0.017 C 
HETATM   17  C23 UNL     1      -9.421   8.658  15.393  1.00  0.00    -0.031 C 
HETATM   18  C24 UNL     1      -9.732   8.231  16.857  1.00  0.00     0.016 C 
HETATM   19  C25 UNL     1      -8.219   7.717  14.913  1.00  0.00     0.024 C 
HETATM   20  C26 UNL     1      -7.057   8.387  14.150  1.00  0.00     0.010 C 
HETATM   21  C27 UNL     1      -5.845   7.453  13.880  1.00  0.00     0.011 C 
HETATM   22  C28 UNL     1      -6.143   5.940  14.022  1.00  0.00    -0.029 C 
HETATM   23  C29 UNL     1      -5.994   5.492  15.515  1.00  0.00     0.016 C 
ENDROOT
BRANCH   1  24
HETATM   24  C6  UNL     1      -3.813   4.617  13.623  1.00  0.00    -0.014 C 
HETATM   25  C7  UNL     1      -3.002   5.866  13.993  1.00  0.00     0.010 C 
BRANCH  24  26
HETATM   26  C5  UNL     1      -3.066   3.829  12.514  1.00  0.00     0.008 C 
BRANCH  26  27
HETATM   27  C4  UNL     1      -3.772   2.524  12.116  1.00  0.00     0.028 C 
BRANCH  27  28
HETATM   28  C3  UNL     1      -2.837   1.616  11.366  1.00  0.00    -0.013 C 
HETATM   29  C2  UNL     1      -1.530   1.824  11.098  1.00  0.00     0.008 C 
HETATM   30  C1  UNL     1      -0.742   3.046  11.470  1.00  0.00     0.055 C 
BRANCH  29  31
HETATM   31  C30 UNL     1      -0.737   0.808  10.356  1.00  0.00     0.171 C 
HETATM   32  O2  UNL     1      -0.718   0.680   9.143  1.00  0.00    -0.646 OA
BRANCH  31  33
HETATM   33  O3  UNL     1      -0.018  -0.013  11.142  1.00  0.00    -0.773 OA
HETATM   34  H46 UNL     1       0.421  -0.611  10.504  1.00  0.00     0.167 HD
ENDBRANCH  31  33
ENDBRANCH  29  31
ENDBRANCH  27  28
ENDBRANCH  26  27
ENDBRANCH  24  26
ENDBRANCH   1  24
TORSDOF 6
ENDMDL
MODEL 7
REMARK minimizedAffinity -8.88795662
REMARK  6 active torsions:
REMARK  status: ('A' for Active; 'I' for Inactive)
REMARK    1  A    between atoms: C2_2  and  C30_31 
REMARK    2  A    between atoms: C3_3  and  C4_4 
REMARK    3  A    between atoms: C4_4  and  C5_5 
REMARK    4  A    between atoms: C5_5  and  C6_6 
REMARK    5  A    between atoms: C6_6  and  C8_8 
REMARK    6  A    between atoms: C30_31  and  O3_33 
ROOT
HETATM    1  C8  UNL     1      -2.708   4.388  12.889  1.00  0.00    -0.002 C 
HETATM    2  C9  UNL     1      -2.875   4.142  11.354  1.00  0.00     0.007 C 
HETATM    3  C10 UNL     1      -1.650   4.759  10.646  1.00  0.00     0.015 C 
HETATM    4  C11 UNL     1      -0.637   4.998  11.777  1.00  0.00    -0.013 C 
HETATM    5  C12 UNL     1       0.053   3.616  12.051  1.00  0.00     0.021 C 
HETATM    6  C13 UNL     1       0.519   5.977  11.541  1.00  0.00    -0.070 C 
HETATM    7  C14 UNL     1       1.239   5.926  10.404  1.00  0.00    -0.022 C 
HETATM    8  C15 UNL     1       2.589   6.552  10.250  1.00  0.00     0.034 C 
HETATM    9  C16 UNL     1       3.268   6.762  11.623  1.00  0.00     0.013 C 
HETATM   10  C17 UNL     1       4.775   7.196  11.517  1.00  0.00     0.018 C 
HETATM   11  C18 UNL     1       5.065   8.362  10.558  1.00  0.00     0.023 C 
HETATM   12  C19 UNL     1       5.607   5.986  11.020  1.00  0.00     0.023 C 
HETATM   13  C20 UNL     1       5.311   7.592  12.902  1.00  0.00     0.135 C 
HETATM   14  O1  UNL     1       6.456   7.321  13.267  1.00  0.00    -0.297 OA
HETATM   15  C21 UNL     1       4.427   8.444  13.780  1.00  0.00     0.080 C 
HETATM   16  C22 UNL     1       3.052   7.813  13.914  1.00  0.00     0.017 C 
HETATM   17  C23 UNL     1       2.334   7.604  12.561  1.00  0.00    -0.031 C 
HETATM   18  C24 UNL     1       1.999   9.001  11.963  1.00  0.00     0.016 C 
HETATM   19  C25 UNL     1       0.930   6.858  12.734  1.00  0.00     0.024 C 
HETATM   20  C26 UNL     1       0.686   6.105  14.060  1.00  0.00     0.010 C 
HETATM   21  C27 UNL     1      -0.761   5.565  14.233  1.00  0.00     0.011 C 
HETATM   22  C28 UNL     1      -1.588   5.484  12.927  1.00  0.00    -0.029 C 
HETATM   23  C29 UNL     1      -2.273   6.859  12.628  1.00  0.00     0.016 C 
ENDROOT
BRANCH   1  24
HETATM   24  C6  UNL     1      -4.074   4.642  13.597  1.00  0.00    -0.014 C 
HETATM   25  C7  UNL     1      -5.252   4.112  12.770  1.00  0.00     0.010 C 
BRANCH  24  26
HETATM   26  C5  UNL     1      -4.273   6.158  13.866  1.00  0.00     0.008 C 
BRANCH  26  27
HETATM   27  C4  UNL     1      -5.606   6.699  13.330  1.00  0.00     0.028 C 
BRANCH  27  28
HETATM   28  C3  UNL     1      -6.586   6.917  14.451  1.00  0.00    -0.013 C 
HETATM   29  C2  UNL     1      -7.871   6.509  14.508  1.00  0.00     0.008 C 
HETATM   30  C1  UNL     1      -8.607   5.774  13.427  1.00  0.00     0.055 C 
BRANCH  29  31
HETATM   31  C30 UNL     1      -8.704   6.791  15.709  1.00  0.00     0.171 C 
HETATM   32  O2  UNL     1      -8.276   7.161  16.789  1.00  0.00    -0.646 OA
BRANCH  31  33
HETATM   33  O3  UNL     1     -10.020   6.589  15.527  1.00  0.00    -0.773 OA
HETATM   34  H46 UNL     1     -10.406   6.805  16.400  1.00  0.00     0.167 HD
ENDBRANCH  31  33
ENDBRANCH  29  31
ENDBRANCH  27  28
ENDBRANCH  26  27
ENDBRANCH  24  26
ENDBRANCH   1  24
TORSDOF 6
ENDMDL
MODEL 8
REMARK minimizedAffinity -8.86928463
REMARK  6 active torsions:
REMARK  status: ('A' for Active; 'I' for Inactive)
REMARK    1  A    between atoms: C2_2  and  C30_31 
REMARK    2  A    between atoms: C3_3  and  C4_4 
REMARK    3  A    between atoms: C4_4  and  C5_5 
REMARK    4  A    between atoms: C5_5  and  C6_6 
REMARK    5  A    between atoms: C6_6  and  C8_8 
REMARK    6  A    between atoms: C30_31  and  O3_33 
ROOT
HETATM    1  C8  UNL     1      -6.679   7.261  14.631  1.00  0.00    -0.002 C 
HETATM    2  C9  UNL     1      -6.350   8.635  15.300  1.00  0.00     0.007 C 
HETATM    3  C10 UNL     1      -4.836   8.885  15.132  1.00  0.00     0.015 C 
HETATM    4  C11 UNL     1      -4.400   7.874  14.060  1.00  0.00    -0.013 C 
HETATM    5  C12 UNL     1      -4.791   8.500  12.676  1.00  0.00     0.021 C 
HETATM    6  C13 UNL     1      -2.911   7.528  13.931  1.00  0.00    -0.070 C 
HETATM    7  C14 UNL     1      -1.980   8.500  13.923  1.00  0.00    -0.022 C 
HETATM    8  C15 UNL     1      -0.583   8.305  13.423  1.00  0.00     0.034 C 
HETATM    9  C16 UNL     1      -0.499   7.104  12.454  1.00  0.00     0.013 C 
HETATM   10  C17 UNL     1       0.883   6.990  11.715  1.00  0.00     0.018 C 
HETATM   11  C18 UNL     1       2.128   7.080  12.614  1.00  0.00     0.023 C 
HETATM   12  C19 UNL     1       0.991   8.140  10.681  1.00  0.00     0.023 C 
HETATM   13  C20 UNL     1       0.965   5.662  10.945  1.00  0.00     0.135 C 
HETATM   14  O1  UNL     1       1.502   5.574   9.839  1.00  0.00    -0.297 OA
HETATM   15  C21 UNL     1       0.470   4.417  11.638  1.00  0.00     0.080 C 
HETATM   16  C22 UNL     1      -0.940   4.629  12.162  1.00  0.00     0.017 C 
HETATM   17  C23 UNL     1      -1.059   5.813  13.148  1.00  0.00    -0.031 C 
HETATM   18  C24 UNL     1      -0.277   5.452  14.444  1.00  0.00     0.016 C 
HETATM   19  C25 UNL     1      -2.570   6.062  13.610  1.00  0.00     0.024 C 
HETATM   20  C26 UNL     1      -3.686   5.434  12.747  1.00  0.00     0.010 C 
HETATM   21  C27 UNL     1      -5.112   5.558  13.354  1.00  0.00     0.011 C 
HETATM   22  C28 UNL     1      -5.255   6.624  14.468  1.00  0.00    -0.029 C 
HETATM   23  C29 UNL     1      -4.855   6.021  15.856  1.00  0.00     0.016 C 
ENDROOT
BRANCH   1  24
HETATM   24  C6  UNL     1      -7.799   6.488  15.391  1.00  0.00    -0.014 C 
HETATM   25  C7  UNL     1      -7.432   5.013  15.602  1.00  0.00     0.010 C 
BRANCH  24  26
HETATM   26  C5  UNL     1      -9.142   6.578  14.618  1.00  0.00     0.008 C 
BRANCH  26  27
HETATM   27  C4  UNL     1     -10.025   7.750  15.070  1.00  0.00     0.028 C 
BRANCH  27  28
HETATM   28  C3  UNL     1     -10.938   8.192  13.959  1.00  0.00    -0.013 C 
HETATM   29  C2  UNL     1     -11.433   9.430  13.748  1.00  0.00     0.008 C 
HETATM   30  C1  UNL     1     -11.197  10.630  14.618  1.00  0.00     0.055 C 
BRANCH  29  31
HETATM   31  C30 UNL     1     -12.314   9.706  12.581  1.00  0.00     0.171 C 
HETATM   32  O2  UNL     1     -13.476  10.068  12.648  1.00  0.00    -0.646 OA
BRANCH  31  33
HETATM   33  O3  UNL     1     -11.727   9.506  11.388  1.00  0.00    -0.773 OA
HETATM   34  H46 UNL     1     -12.438   9.717  10.748  1.00  0.00     0.167 HD
ENDBRANCH  31  33
ENDBRANCH  29  31
ENDBRANCH  27  28
ENDBRANCH  26  27
ENDBRANCH  24  26
ENDBRANCH   1  24
TORSDOF 6
ENDMDL
MODEL 9
REMARK minimizedAffinity -8.65285587
REMARK  6 active torsions:
REMARK  status: ('A' for Active; 'I' for Inactive)
REMARK    1  A    between atoms: C2_2  and  C30_31 
REMARK    2  A    between atoms: C3_3  and  C4_4 
REMARK    3  A    between atoms: C4_4  and  C5_5 
REMARK    4  A    between atoms: C5_5  and  C6_6 
REMARK    5  A    between atoms: C6_6  and  C8_8 
REMARK    6  A    between atoms: C30_31  and  O3_33 
ROOT
HETATM    1  C8  UNL     1      -2.357   6.700  13.374  1.00  0.00    -0.002 C 
HETATM    2  C9  UNL     1      -3.728   7.212  12.823  1.00  0.00     0.007 C 
HETATM    3  C10 UNL     1      -4.132   8.449  13.653  1.00  0.00     0.015 C 
HETATM    4  C11 UNL     1      -2.844   8.853  14.386  1.00  0.00    -0.013 C 
HETATM    5  C12 UNL     1      -1.984   9.663  13.355  1.00  0.00     0.021 C 
HETATM    6  C13 UNL     1      -2.946   9.763  15.616  1.00  0.00    -0.070 C 
HETATM    7  C14 UNL     1      -3.719  10.866  15.591  1.00  0.00    -0.022 C 
HETATM    8  C15 UNL     1      -3.585  11.993  16.565  1.00  0.00     0.034 C 
HETATM    9  C16 UNL     1      -2.181  12.010  17.211  1.00  0.00     0.013 C 
HETATM   10  C17 UNL     1      -1.898  13.301  18.062  1.00  0.00     0.018 C 
HETATM   11  C18 UNL     1      -2.991  13.683  19.074  1.00  0.00     0.023 C 
HETATM   12  C19 UNL     1      -1.734  14.505  17.100  1.00  0.00     0.023 C 
HETATM   13  C20 UNL     1      -0.582  13.144  18.841  1.00  0.00     0.135 C 
HETATM   14  O1  UNL     1       0.202  14.081  19.004  1.00  0.00    -0.297 OA
HETATM   15  C21 UNL     1      -0.320  11.822  19.519  1.00  0.00     0.080 C 
HETATM   16  C22 UNL     1      -0.478  10.681  18.529  1.00  0.00     0.017 C 
HETATM   17  C23 UNL     1      -1.878  10.622  17.875  1.00  0.00    -0.031 C 
HETATM   18  C24 UNL     1      -2.917  10.253  18.974  1.00  0.00     0.016 C 
HETATM   19  C25 UNL     1      -1.979   9.464  16.777  1.00  0.00     0.024 C 
HETATM   20  C26 UNL     1      -0.655   8.889  16.230  1.00  0.00     0.010 C 
HETATM   21  C27 UNL     1      -0.828   7.648  15.310  1.00  0.00     0.011 C 
HETATM   22  C28 UNL     1      -2.257   7.444  14.751  1.00  0.00    -0.029 C 
HETATM   23  C29 UNL     1      -3.136   6.649  15.773  1.00  0.00     0.016 C 
ENDROOT
BRANCH   1  24
HETATM   24  C6  UNL     1      -2.241   5.146  13.315  1.00  0.00    -0.014 C 
HETATM   25  C7  UNL     1      -1.520   4.676  12.046  1.00  0.00     0.010 C 
BRANCH  24  26
HETATM   26  C5  UNL     1      -3.648   4.493  13.380  1.00  0.00     0.008 C 
BRANCH  26  27
HETATM   27  C4  UNL     1      -4.047   3.780  12.081  1.00  0.00     0.028 C 
BRANCH  27  28
HETATM   28  C3  UNL     1      -5.398   3.132  12.218  1.00  0.00    -0.013 C 
HETATM   29  C2  UNL     1      -6.530   3.691  12.695  1.00  0.00     0.008 C 
HETATM   30  C1  UNL     1      -6.663   5.086  13.229  1.00  0.00     0.055 C 
BRANCH  29  31
HETATM   31  C30 UNL     1      -7.797   2.912  12.745  1.00  0.00     0.171 C 
HETATM   32  O2  UNL     1      -8.915   3.393  12.816  1.00  0.00    -0.646 OA
BRANCH  31  33
HETATM   33  O3  UNL     1      -7.626   1.578  12.721  1.00  0.00    -0.773 OA
HETATM   34  H46 UNL     1      -8.540   1.231  12.772  1.00  0.00     0.167 HD
ENDBRANCH  31  33
ENDBRANCH  29  31
ENDBRANCH  27  28
ENDBRANCH  26  27
ENDBRANCH  24  26
ENDBRANCH   1  24
TORSDOF 6
ENDMDL
