MODEL 1
REMARK minimizedAffinity -9.89507961
REMARK  8 active torsions:
REMARK  status: ('A' for Active; 'I' for Inactive)
REMARK    1  A    between atoms: C4_4  and  C5_5 
REMARK    2  A    between atoms: C5_5  and  C6_6 
REMARK    3  A    between atoms: C6_6  and  C7_7 
REMARK    4  A    between atoms: C7_7  and  C9_9 
REMARK    5  A    between atoms: C25_26  and  C27_28 
REMARK    6  A    between atoms: C27_28  and  O3_30 
REMARK    7  A    between atoms: C28_31  and  O4_32 
REMARK    8  A    between atoms: C30_34  and  O5_35 
ROOT
HETATM    1  C9  UNL     1      -1.485  49.044 -18.301  1.00  0.00    -0.002 C 
HETATM    2  C10 UNL     1      -2.645  48.099 -18.722  1.00  0.00     0.007 C 
HETATM    3  C11 UNL     1      -2.839  48.266 -20.244  1.00  0.00     0.015 C 
HETATM    4  C12 UNL     1      -1.605  49.061 -20.726  1.00  0.00    -0.005 C 
HETATM    5  C13 UNL     1      -0.458  48.026 -20.945  1.00  0.00     0.021 C 
HETATM    6  C14 UNL     1      -1.642  49.854 -22.027  1.00  0.00    -0.000 C 
HETATM    7  C15 UNL     1      -0.888  50.973 -22.199  1.00  0.00    -0.058 C 
HETATM    8  C16 UNL     1      -0.056  51.542 -21.037  1.00  0.00     0.036 C 
HETATM    9  C17 UNL     1      -0.101  50.792 -19.694  1.00  0.00     0.015 C 
HETATM   10  C18 UNL     1      -1.419  50.044 -19.496  1.00  0.00    -0.028 C 
HETATM   11  C19 UNL     1      -2.559  51.104 -19.404  1.00  0.00     0.016 C 
HETATM   12  C20 UNL     1      -0.848  51.790 -23.538  1.00  0.00     0.011 C 
HETATM   13  C21 UNL     1      -1.797  52.988 -23.279  1.00  0.00     0.023 C 
HETATM   14  C22 UNL     1      -1.325  50.875 -24.711  1.00  0.00     0.029 C 
HETATM   15  C23 UNL     1      -2.642  50.165 -24.391  1.00  0.00     0.090 C 
HETATM   16  C24 UNL     1      -2.499  49.335 -23.140  1.00  0.00     0.157 C 
HETATM   17  O1  UNL     1      -3.111  48.273 -23.039  1.00  0.00    -0.293 OA
HETATM   18  C25 UNL     1      -1.263  51.494 -26.158  1.00  0.00     0.072 C 
HETATM   19  C26 UNL     1      -0.899  50.316 -27.119  1.00  0.00     0.030 C 
HETATM   20  C28 UNL     1      -0.135  52.554 -26.302  1.00  0.00     0.139 C 
HETATM   21  C29 UNL     1       1.028  52.273 -25.359  1.00  0.00     0.065 C 
HETATM   22  C30 UNL     1       0.626  52.243 -23.872  1.00  0.00     0.133 C 
ENDROOT
BRANCH   1  23
HETATM   23  C7  UNL     1      -1.562  49.460 -16.801  1.00  0.00    -0.014 C 
HETATM   24  C8  UNL     1      -2.495  50.635 -16.474  1.00  0.00     0.010 C 
BRANCH  23  25
HETATM   25  C6  UNL     1      -0.195  49.713 -16.112  1.00  0.00     0.008 C 
BRANCH  25  26
HETATM   26  C5  UNL     1       0.098  51.174 -15.732  1.00  0.00     0.028 C 
BRANCH  26  27
HETATM   27  C4  UNL     1       1.394  51.706 -16.281  1.00  0.00    -0.025 C 
HETATM   28  C2  UNL     1       2.555  51.916 -15.628  1.00  0.00    -0.091 C 
HETATM   29  C1  UNL     1       2.777  51.670 -14.160  1.00  0.00     0.042 C 
HETATM   30  C3  UNL     1       3.768  52.444 -16.358  1.00  0.00     0.042 C 
ENDBRANCH  26  27
ENDBRANCH  25  26
ENDBRANCH  23  25
ENDBRANCH   1  23
BRANCH  22  31
HETATM   31  O5  UNL     1       0.923  53.523 -23.304  1.00  0.00    -0.394 OA
HETATM   32  H46 UNL     1       0.383  54.179 -23.785  1.00  0.00     0.210 HD
ENDBRANCH  22  31
BRANCH  18  33
HETATM   33  C27 UNL     1      -2.573  52.068 -26.706  1.00  0.00     0.151 C 
HETATM   34  O2  UNL     1      -3.276  52.903 -26.154  1.00  0.00    -0.649 OA
BRANCH  33  35
HETATM   35  O3  UNL     1      -2.952  51.561 -27.889  1.00  0.00    -0.776 OA
HETATM   36  H40 UNL     1      -3.819  51.989 -28.061  1.00  0.00     0.167 HD
ENDBRANCH  33  35
ENDBRANCH  18  33
BRANCH  20  37
HETATM   37  O4  UNL     1      -0.557  53.899 -26.058  1.00  0.00    -0.394 OA
HETATM   38  H42 UNL     1       0.098  54.471 -26.496  1.00  0.00     0.210 HD
ENDBRANCH  20  37
TORSDOF 8
ENDMDL
MODEL 2
REMARK minimizedAffinity -9.34351158
REMARK  8 active torsions:
REMARK  status: ('A' for Active; 'I' for Inactive)
REMARK    1  A    between atoms: C4_4  and  C5_5 
REMARK    2  A    between atoms: C5_5  and  C6_6 
REMARK    3  A    between atoms: C6_6  and  C7_7 
REMARK    4  A    between atoms: C7_7  and  C9_9 
REMARK    5  A    between atoms: C25_26  and  C27_28 
REMARK    6  A    between atoms: C27_28  and  O3_30 
REMARK    7  A    between atoms: C28_31  and  O4_32 
REMARK    8  A    between atoms: C30_34  and  O5_35 
ROOT
HETATM    1  C9  UNL     1      -3.892  48.056 -19.934  1.00  0.00    -0.002 C 
HETATM    2  C10 UNL     1      -4.784  47.265 -20.931  1.00  0.00     0.007 C 
HETATM    3  C11 UNL     1      -4.398  47.727 -22.352  1.00  0.00     0.015 C 
HETATM    4  C12 UNL     1      -3.096  48.538 -22.177  1.00  0.00    -0.005 C 
HETATM    5  C13 UNL     1      -1.923  47.509 -22.149  1.00  0.00     0.021 C 
HETATM    6  C14 UNL     1      -2.665  49.564 -23.217  1.00  0.00    -0.000 C 
HETATM    7  C15 UNL     1      -1.930  50.657 -22.877  1.00  0.00    -0.058 C 
HETATM    8  C16 UNL     1      -1.609  50.955 -21.402  1.00  0.00     0.036 C 
HETATM    9  C17 UNL     1      -2.133  49.967 -20.344  1.00  0.00     0.015 C 
HETATM   10  C18 UNL     1      -3.410  49.260 -20.800  1.00  0.00    -0.028 C 
HETATM   11  C19 UNL     1      -4.529  50.337 -20.936  1.00  0.00     0.016 C 
HETATM   12  C20 UNL     1      -1.414  51.711 -23.918  1.00  0.00     0.011 C 
HETATM   13  C21 UNL     1      -2.422  52.882 -23.804  1.00  0.00     0.023 C 
HETATM   14  C22 UNL     1      -1.393  51.059 -25.338  1.00  0.00     0.029 C 
HETATM   15  C23 UNL     1      -2.714  50.365 -25.675  1.00  0.00     0.090 C 
HETATM   16  C24 UNL     1      -3.028  49.308 -24.648  1.00  0.00     0.157 C 
HETATM   17  O1  UNL     1      -3.605  48.277 -24.989  1.00  0.00    -0.293 OA
HETATM   18  C25 UNL     1      -0.810  51.937 -26.509  1.00  0.00     0.072 C 
HETATM   19  C26 UNL     1      -0.082  50.947 -27.474  1.00  0.00     0.030 C 
HETATM   20  C28 UNL     1       0.261  52.950 -26.014  1.00  0.00     0.139 C 
HETATM   21  C29 UNL     1       0.994  52.439 -24.779  1.00  0.00     0.065 C 
HETATM   22  C30 UNL     1       0.066  52.147 -23.585  1.00  0.00     0.133 C 
ENDROOT
BRANCH   1  23
HETATM   23  C7  UNL     1      -4.535  48.183 -18.520  1.00  0.00    -0.014 C 
HETATM   24  C8  UNL     1      -6.062  48.340 -18.486  1.00  0.00     0.010 C 
BRANCH  23  25
HETATM   25  C6  UNL     1      -3.910  49.265 -17.602  1.00  0.00     0.008 C 
BRANCH  25  26
HETATM   26  C5  UNL     1      -2.631  48.848 -16.857  1.00  0.00     0.028 C 
BRANCH  26  27
HETATM   27  C4  UNL     1      -1.515  49.854 -16.936  1.00  0.00    -0.025 C 
HETATM   28  C2  UNL     1      -0.244  49.730 -16.502  1.00  0.00    -0.091 C 
HETATM   29  C1  UNL     1       0.316  48.519 -15.807  1.00  0.00     0.042 C 
HETATM   30  C3  UNL     1       0.749  50.853 -16.688  1.00  0.00     0.042 C 
ENDBRANCH  26  27
ENDBRANCH  25  26
ENDBRANCH  23  25
ENDBRANCH   1  23
BRANCH  22  31
HETATM   31  O5  UNL     1       0.094  53.279 -22.711  1.00  0.00    -0.394 OA
HETATM   32  H46 UNL     1      -0.244  54.041 -23.222  1.00  0.00     0.210 HD
ENDBRANCH  22  31
BRANCH  18  33
HETATM   33  C27 UNL     1      -1.835  52.668 -27.382  1.00  0.00     0.151 C 
HETATM   34  O2  UNL     1      -1.857  53.870 -27.607  1.00  0.00    -0.649 OA
BRANCH  33  35
HETATM   35  O3  UNL     1      -2.785  51.878 -27.905  1.00  0.00    -0.776 OA
HETATM   36  H40 UNL     1      -3.375  52.503 -28.380  1.00  0.00     0.167 HD
ENDBRANCH  33  35
ENDBRANCH  18  33
BRANCH  20  37
HETATM   37  O4  UNL     1      -0.257  54.243 -25.689  1.00  0.00    -0.394 OA
HETATM   38  H42 UNL     1       0.499  54.855 -25.732  1.00  0.00     0.210 HD
ENDBRANCH  20  37
TORSDOF 8
ENDMDL
MODEL 3
REMARK minimizedAffinity -9.31634331
REMARK  8 active torsions:
REMARK  status: ('A' for Active; 'I' for Inactive)
REMARK    1  A    between atoms: C4_4  and  C5_5 
REMARK    2  A    between atoms: C5_5  and  C6_6 
REMARK    3  A    between atoms: C6_6  and  C7_7 
REMARK    4  A    between atoms: C7_7  and  C9_9 
REMARK    5  A    between atoms: C25_26  and  C27_28 
REMARK    6  A    between atoms: C27_28  and  O3_30 
REMARK    7  A    between atoms: C28_31  and  O4_32 
REMARK    8  A    between atoms: C30_34  and  O5_35 
ROOT
HETATM    1  C9  UNL     1      -1.375  50.774 -23.027  1.00  0.00    -0.002 C 
HETATM    2  C10 UNL     1      -0.855  52.238 -23.086  1.00  0.00     0.007 C 
HETATM    3  C11 UNL     1      -0.308  52.583 -21.685  1.00  0.00     0.015 C 
HETATM    4  C12 UNL     1      -0.237  51.236 -20.932  1.00  0.00    -0.005 C 
HETATM    5  C13 UNL     1       1.112  50.564 -21.338  1.00  0.00     0.021 C 
HETATM    6  C14 UNL     1      -0.233  51.187 -19.410  1.00  0.00    -0.000 C 
HETATM    7  C15 UNL     1      -0.747  50.126 -18.731  1.00  0.00    -0.058 C 
HETATM    8  C16 UNL     1      -1.458  48.987 -19.482  1.00  0.00     0.036 C 
HETATM    9  C17 UNL     1      -1.548  49.091 -21.015  1.00  0.00     0.015 C 
HETATM   10  C18 UNL     1      -1.547  50.542 -21.495  1.00  0.00    -0.028 C 
HETATM   11  C19 UNL     1      -2.850  51.218 -20.968  1.00  0.00     0.016 C 
HETATM   12  C20 UNL     1      -0.715  50.003 -17.167  1.00  0.00     0.011 C 
HETATM   13  C21 UNL     1      -2.137  50.429 -16.724  1.00  0.00     0.023 C 
HETATM   14  C22 UNL     1       0.406  50.934 -16.603  1.00  0.00     0.029 C 
HETATM   15  C23 UNL     1       0.317  52.353 -17.168  1.00  0.00     0.090 C 
HETATM   16  C24 UNL     1       0.405  52.324 -18.673  1.00  0.00     0.157 C 
HETATM   17  O1  UNL     1       0.963  53.244 -19.270  1.00  0.00    -0.293 OA
HETATM   18  C25 UNL     1       0.656  50.875 -15.049  1.00  0.00     0.072 C 
HETATM   19  C26 UNL     1       2.191  51.087 -14.848  1.00  0.00     0.030 C 
HETATM   20  C28 UNL     1       0.313  49.484 -14.446  1.00  0.00     0.139 C 
HETATM   21  C29 UNL     1       0.501  48.365 -15.462  1.00  0.00     0.065 C 
HETATM   22  C30 UNL     1      -0.358  48.529 -16.731  1.00  0.00     0.133 C 
ENDROOT
BRANCH   1  23
HETATM   23  C7  UNL     1      -2.471  50.480 -24.097  1.00  0.00    -0.014 C 
HETATM   24  C8  UNL     1      -2.815  49.001 -24.319  1.00  0.00     0.010 C 
BRANCH  23  25
HETATM   25  C6  UNL     1      -2.243  51.145 -25.479  1.00  0.00     0.008 C 
BRANCH  25  26
HETATM   26  C5  UNL     1      -1.338  50.368 -26.450  1.00  0.00     0.028 C 
BRANCH  26  27
HETATM   27  C4  UNL     1       0.134  50.611 -26.249  1.00  0.00    -0.025 C 
HETATM   28  C2  UNL     1       0.965  51.368 -26.993  1.00  0.00    -0.091 C 
HETATM   29  C1  UNL     1       0.567  52.127 -28.230  1.00  0.00     0.042 C 
HETATM   30  C3  UNL     1       2.422  51.508 -26.622  1.00  0.00     0.042 C 
ENDBRANCH  26  27
ENDBRANCH  25  26
ENDBRANCH  23  25
ENDBRANCH   1  23
BRANCH  22  31
HETATM   31  O5  UNL     1      -1.534  47.728 -16.579  1.00  0.00    -0.394 OA
HETATM   32  H46 UNL     1      -2.014  48.072 -15.800  1.00  0.00     0.210 HD
ENDBRANCH  22  31
BRANCH  18  33
HETATM   33  C27 UNL     1      -0.013  51.971 -14.213  1.00  0.00     0.151 C 
HETATM   34  O2  UNL     1      -1.190  52.002 -13.883  1.00  0.00    -0.649 OA
BRANCH  33  35
HETATM   35  O3  UNL     1       0.803  52.975 -13.856  1.00  0.00    -0.776 OA
HETATM   36  H40 UNL     1       0.211  53.601 -13.384  1.00  0.00     0.167 HD
ENDBRANCH  33  35
ENDBRANCH  18  33
BRANCH  20  37
HETATM   37  O4  UNL     1      -1.022  49.374 -13.943  1.00  0.00    -0.394 OA
HETATM   38  H42 UNL     1      -1.012  48.633 -13.311  1.00  0.00     0.210 HD
ENDBRANCH  20  37
TORSDOF 8
ENDMDL
MODEL 4
REMARK minimizedAffinity -9.14949226
REMARK  8 active torsions:
REMARK  status: ('A' for Active; 'I' for Inactive)
REMARK    1  A    between atoms: C4_4  and  C5_5 
REMARK    2  A    between atoms: C5_5  and  C6_6 
REMARK    3  A    between atoms: C6_6  and  C7_7 
REMARK    4  A    between atoms: C7_7  and  C9_9 
REMARK    5  A    between atoms: C25_26  and  C27_28 
REMARK    6  A    between atoms: C27_28  and  O3_30 
REMARK    7  A    between atoms: C28_31  and  O4_32 
REMARK    8  A    between atoms: C30_34  and  O5_35 
ROOT
HETATM    1  C9  UNL     1      -0.847  50.279 -21.721  1.00  0.00    -0.002 C 
HETATM    2  C10 UNL     1      -0.846  49.893 -20.215  1.00  0.00     0.007 C 
HETATM    3  C11 UNL     1      -2.134  49.084 -19.952  1.00  0.00     0.015 C 
HETATM    4  C12 UNL     1      -2.701  48.755 -21.351  1.00  0.00    -0.005 C 
HETATM    5  C13 UNL     1      -1.954  47.480 -21.851  1.00  0.00     0.021 C 
HETATM    6  C14 UNL     1      -4.175  48.421 -21.541  1.00  0.00    -0.000 C 
HETATM    7  C15 UNL     1      -4.823  48.698 -22.704  1.00  0.00    -0.058 C 
HETATM    8  C16 UNL     1      -4.112  49.469 -23.831  1.00  0.00     0.036 C 
HETATM    9  C17 UNL     1      -2.652  49.893 -23.593  1.00  0.00     0.015 C 
HETATM   10  C18 UNL     1      -2.346  50.102 -22.110  1.00  0.00    -0.028 C 
HETATM   11  C19 UNL     1      -3.202  51.307 -21.612  1.00  0.00     0.016 C 
HETATM   12  C20 UNL     1      -6.322  48.322 -22.969  1.00  0.00     0.011 C 
HETATM   13  C21 UNL     1      -7.094  49.644 -22.723  1.00  0.00     0.023 C 
HETATM   14  C22 UNL     1      -6.744  47.177 -21.993  1.00  0.00     0.029 C 
HETATM   15  C23 UNL     1      -6.371  47.489 -20.542  1.00  0.00     0.090 C 
HETATM   16  C24 UNL     1      -4.886  47.724 -20.422  1.00  0.00     0.157 C 
HETATM   17  O1  UNL     1      -4.293  47.376 -19.402  1.00  0.00    -0.293 OA
HETATM   18  C25 UNL     1      -8.197  46.596 -22.173  1.00  0.00     0.072 C 
HETATM   19  C26 UNL     1      -8.100  45.073 -21.836  1.00  0.00     0.030 C 
HETATM   20  C28 UNL     1      -8.699  46.700 -23.641  1.00  0.00     0.139 C 
HETATM   21  C29 UNL     1      -7.547  46.653 -24.637  1.00  0.00     0.065 C 
HETATM   22  C30 UNL     1      -6.510  47.773 -24.437  1.00  0.00     0.133 C 
ENDROOT
BRANCH   1  23
HETATM   23  C7  UNL     1      -0.001  51.555 -22.016  1.00  0.00    -0.014 C 
HETATM   24  C8  UNL     1       0.107  52.572 -20.871  1.00  0.00     0.010 C 
BRANCH  23  25
HETATM   25  C6  UNL     1      -0.377  52.315 -23.314  1.00  0.00     0.008 C 
BRANCH  25  26
HETATM   26  C5  UNL     1       0.774  52.544 -24.309  1.00  0.00     0.028 C 
BRANCH  26  27
HETATM   27  C4  UNL     1       0.387  52.362 -25.751  1.00  0.00    -0.025 C 
HETATM   28  C2  UNL     1       1.138  51.886 -26.765  1.00  0.00    -0.091 C 
HETATM   29  C1  UNL     1       2.573  51.449 -26.644  1.00  0.00     0.042 C 
HETATM   30  C3  UNL     1       0.566  51.758 -28.156  1.00  0.00     0.042 C 
ENDBRANCH  26  27
ENDBRANCH  25  26
ENDBRANCH  23  25
ENDBRANCH   1  23
BRANCH  22  31
HETATM   31  O5  UNL     1      -6.810  48.828 -25.357  1.00  0.00    -0.394 OA
HETATM   32  H46 UNL     1      -7.704  49.153 -25.134  1.00  0.00     0.210 HD
ENDBRANCH  22  31
BRANCH  18  33
HETATM   33  C27 UNL     1      -9.269  47.148 -21.228  1.00  0.00     0.151 C 
HETATM   34  O2  UNL     1     -10.432  46.776 -21.169  1.00  0.00    -0.649 OA
BRANCH  33  35
HETATM   35  O3  UNL     1      -8.850  48.142 -20.430  1.00  0.00    -0.776 OA
HETATM   36  H40 UNL     1      -9.660  48.408 -19.942  1.00  0.00     0.167 HD
ENDBRANCH  33  35
ENDBRANCH  18  33
BRANCH  20  37
HETATM   37  O4  UNL     1      -9.450  47.884 -23.923  1.00  0.00    -0.394 OA
HETATM   38  H42 UNL     1      -9.980  47.684 -24.715  1.00  0.00     0.210 HD
ENDBRANCH  20  37
TORSDOF 8
ENDMDL
MODEL 5
REMARK minimizedAffinity -9.13864613
REMARK  8 active torsions:
REMARK  status: ('A' for Active; 'I' for Inactive)
REMARK    1  A    between atoms: C4_4  and  C5_5 
REMARK    2  A    between atoms: C5_5  and  C6_6 
REMARK    3  A    between atoms: C6_6  and  C7_7 
REMARK    4  A    between atoms: C7_7  and  C9_9 
REMARK    5  A    between atoms: C25_26  and  C27_28 
REMARK    6  A    between atoms: C27_28  and  O3_30 
REMARK    7  A    between atoms: C28_31  and  O4_32 
REMARK    8  A    between atoms: C30_34  and  O5_35 
ROOT
HETATM    1  C9  UNL     1      -4.689  48.181 -20.380  1.00  0.00    -0.002 C 
HETATM    2  C10 UNL     1      -5.398  47.411 -21.529  1.00  0.00     0.007 C 
HETATM    3  C11 UNL     1      -4.733  47.852 -22.851  1.00  0.00     0.015 C 
HETATM    4  C12 UNL     1      -3.464  48.625 -22.429  1.00  0.00    -0.005 C 
HETATM    5  C13 UNL     1      -2.351  47.561 -22.177  1.00  0.00     0.021 C 
HETATM    6  C14 UNL     1      -2.810  49.631 -23.368  1.00  0.00    -0.000 C 
HETATM    7  C15 UNL     1      -2.121  50.703 -22.893  1.00  0.00    -0.058 C 
HETATM    8  C16 UNL     1      -2.079  51.000 -21.384  1.00  0.00     0.036 C 
HETATM    9  C17 UNL     1      -2.827  50.036 -20.446  1.00  0.00     0.015 C 
HETATM   10  C18 UNL     1      -4.013  49.364 -21.138  1.00  0.00    -0.028 C 
HETATM   11  C19 UNL     1      -5.052  50.475 -21.486  1.00  0.00     0.016 C 
HETATM   12  C20 UNL     1      -1.383  51.734 -23.817  1.00  0.00     0.011 C 
HETATM   13  C21 UNL     1      -2.357  52.937 -23.899  1.00  0.00     0.023 C 
HETATM   14  C22 UNL     1      -1.110  51.073 -25.206  1.00  0.00     0.029 C 
HETATM   15  C23 UNL     1      -2.363  50.418 -25.790  1.00  0.00     0.090 C 
HETATM   16  C24 UNL     1      -2.900  49.377 -24.841  1.00  0.00     0.157 C 
HETATM   17  O1  UNL     1      -3.433  48.361 -25.287  1.00  0.00    -0.293 OA
HETATM   18  C25 UNL     1      -0.287  51.926 -26.244  1.00  0.00     0.072 C 
HETATM   19  C26 UNL     1       0.582  50.908 -27.051  1.00  0.00     0.030 C 
HETATM   20  C28 UNL     1       0.701  52.909 -25.553  1.00  0.00     0.139 C 
HETATM   21  C29 UNL     1       1.167  52.384 -24.201  1.00  0.00     0.065 C 
HETATM   22  C30 UNL     1       0.019  52.127 -23.206  1.00  0.00     0.133 C 
ENDROOT
BRANCH   1  23
HETATM   23  C7  UNL     1      -5.587  48.337 -19.116  1.00  0.00    -0.014 C 
HETATM   24  C8  UNL     1      -5.270  47.397 -17.944  1.00  0.00     0.010 C 
BRANCH  23  25
HETATM   25  C6  UNL     1      -7.115  48.296 -19.378  1.00  0.00     0.008 C 
BRANCH  25  26
HETATM   26  C5  UNL     1      -8.008  48.426 -18.132  1.00  0.00     0.028 C 
BRANCH  26  27
HETATM   27  C4  UNL     1      -9.475  48.561 -18.436  1.00  0.00    -0.025 C 
HETATM   28  C2  UNL     1     -10.245  47.768 -19.208  1.00  0.00    -0.091 C 
HETATM   29  C1  UNL     1      -9.758  46.559 -19.961  1.00  0.00     0.042 C 
HETATM   30  C3  UNL     1     -11.718  48.055 -19.383  1.00  0.00     0.042 C 
ENDBRANCH  26  27
ENDBRANCH  25  26
ENDBRANCH  23  25
ENDBRANCH   1  23
BRANCH  22  31
HETATM   31  O5  UNL     1      -0.086  53.264 -22.344  1.00  0.00    -0.394 OA
HETATM   32  H46 UNL     1      -0.296  54.032 -22.910  1.00  0.00     0.210 HD
ENDBRANCH  22  31
BRANCH  18  33
HETATM   33  C27 UNL     1      -1.102  52.682 -27.298  1.00  0.00     0.151 C 
HETATM   34  O2  UNL     1      -2.154  53.274 -27.100  1.00  0.00    -0.649 OA
BRANCH  33  35
HETATM   35  O3  UNL     1      -0.587  52.641 -28.536  1.00  0.00    -0.776 OA
HETATM   36  H40 UNL     1      -1.249  53.117 -29.082  1.00  0.00     0.167 HD
ENDBRANCH  33  35
ENDBRANCH  18  33
BRANCH  20  37
HETATM   37  O4  UNL     1       0.170  54.219 -25.334  1.00  0.00    -0.394 OA
HETATM   38  H42 UNL     1       0.939  54.808 -25.232  1.00  0.00     0.210 HD
ENDBRANCH  20  37
TORSDOF 8
ENDMDL
MODEL 6
REMARK minimizedAffinity -9.10702801
REMARK  8 active torsions:
REMARK  status: ('A' for Active; 'I' for Inactive)
REMARK    1  A    between atoms: C4_4  and  C5_5 
REMARK    2  A    between atoms: C5_5  and  C6_6 
REMARK    3  A    between atoms: C6_6  and  C7_7 
REMARK    4  A    between atoms: C7_7  and  C9_9 
REMARK    5  A    between atoms: C25_26  and  C27_28 
REMARK    6  A    between atoms: C27_28  and  O3_30 
REMARK    7  A    between atoms: C28_31  and  O4_32 
REMARK    8  A    between atoms: C30_34  and  O5_35 
ROOT
HETATM    1  C9  UNL     1      -2.175  50.501 -21.971  1.00  0.00    -0.002 C 
HETATM    2  C10 UNL     1      -1.658  51.946 -22.212  1.00  0.00     0.007 C 
HETATM    3  C11 UNL     1      -0.803  52.334 -20.986  1.00  0.00     0.015 C 
HETATM    4  C12 UNL     1      -0.587  51.017 -20.209  1.00  0.00    -0.005 C 
HETATM    5  C13 UNL     1       0.625  50.294 -20.876  1.00  0.00     0.021 C 
HETATM    6  C14 UNL     1      -0.240  51.030 -18.725  1.00  0.00    -0.000 C 
HETATM    7  C15 UNL     1      -0.604  50.011 -17.901  1.00  0.00    -0.058 C 
HETATM    8  C16 UNL     1      -1.485  48.861 -18.421  1.00  0.00     0.036 C 
HETATM    9  C17 UNL     1      -1.917  48.905 -19.898  1.00  0.00     0.015 C 
HETATM   10  C18 UNL     1      -2.001  50.335 -20.431  1.00  0.00    -0.028 C 
HETATM   11  C19 UNL     1      -3.140  51.067 -19.656  1.00  0.00     0.016 C 
HETATM   12  C20 UNL     1      -0.223  49.951 -16.381  1.00  0.00     0.011 C 
HETATM   13  C21 UNL     1      -1.501  50.432 -15.649  1.00  0.00     0.023 C 
HETATM   14  C22 UNL     1       1.012  50.874 -16.126  1.00  0.00     0.029 C 
HETATM   15  C23 UNL     1       0.821  52.271 -16.720  1.00  0.00     0.090 C 
HETATM   16  C24 UNL     1       0.567  52.179 -18.204  1.00  0.00     0.157 C 
HETATM   17  O1  UNL     1       0.991  53.059 -18.952  1.00  0.00    -0.293 OA
HETATM   18  C25 UNL     1       1.605  50.872 -14.666  1.00  0.00     0.072 C 
HETATM   19  C26 UNL     1       3.149  51.051 -14.825  1.00  0.00     0.030 C 
HETATM   20  C28 UNL     1       1.384  49.516 -13.939  1.00  0.00     0.139 C 
HETATM   21  C29 UNL     1       1.320  48.352 -14.920  1.00  0.00     0.065 C 
HETATM   22  C30 UNL     1       0.199  48.487 -15.969  1.00  0.00     0.133 C 
ENDROOT
BRANCH   1  23
HETATM   23  C7  UNL     1      -3.488  50.192 -22.753  1.00  0.00    -0.014 C 
HETATM   24  C8  UNL     1      -4.791  50.289 -21.946  1.00  0.00     0.010 C 
BRANCH  23  25
HETATM   25  C6  UNL     1      -3.495  48.855 -23.537  1.00  0.00     0.008 C 
BRANCH  25  26
HETATM   26  C5  UNL     1      -2.804  48.886 -24.911  1.00  0.00     0.028 C 
BRANCH  26  27
HETATM   27  C4  UNL     1      -3.647  48.349 -26.037  1.00  0.00    -0.025 C 
HETATM   28  C2  UNL     1      -3.857  48.888 -27.255  1.00  0.00    -0.091 C 
HETATM   29  C1  UNL     1      -3.282  50.194 -27.732  1.00  0.00     0.042 C 
HETATM   30  C3  UNL     1      -4.729  48.187 -28.269  1.00  0.00     0.042 C 
ENDBRANCH  26  27
ENDBRANCH  25  26
ENDBRANCH  23  25
ENDBRANCH   1  23
BRANCH  22  31
HETATM   31  O5  UNL     1      -0.925  47.723 -15.521  1.00  0.00    -0.394 OA
HETATM   32  H46 UNL     1      -1.211  48.111 -14.671  1.00  0.00     0.210 HD
ENDBRANCH  22  31
BRANCH  18  33
HETATM   33  C27 UNL     1       1.160  52.018 -13.753  1.00  0.00     0.151 C 
HETATM   34  O2  UNL     1       0.017  52.436 -13.633  1.00  0.00    -0.649 OA
BRANCH  33  35
HETATM   35  O3  UNL     1       2.153  52.595 -13.059  1.00  0.00    -0.776 OA
HETATM   36  H40 UNL     1       1.709  53.328 -12.579  1.00  0.00     0.167 HD
ENDBRANCH  33  35
ENDBRANCH  18  33
BRANCH  20  37
HETATM   37  O4  UNL     1       0.195  49.461 -13.145  1.00  0.00    -0.394 OA
HETATM   38  H42 UNL     1       0.335  48.747 -12.498  1.00  0.00     0.210 HD
ENDBRANCH  20  37
TORSDOF 8
ENDMDL
MODEL 7
REMARK minimizedAffinity -8.82841587
REMARK  8 active torsions:
REMARK  status: ('A' for Active; 'I' for Inactive)
REMARK    1  A    between atoms: C4_4  and  C5_5 
REMARK    2  A    between atoms: C5_5  and  C6_6 
REMARK    3  A    between atoms: C6_6  and  C7_7 
REMARK    4  A    between atoms: C7_7  and  C9_9 
REMARK    5  A    between atoms: C25_26  and  C27_28 
REMARK    6  A    between atoms: C27_28  and  O3_30 
REMARK    7  A    between atoms: C28_31  and  O4_32 
REMARK    8  A    between atoms: C30_34  and  O5_35 
ROOT
HETATM    1  C9  UNL     1      -0.852  52.343 -20.750  1.00  0.00    -0.002 C 
HETATM    2  C10 UNL     1      -0.330  51.841 -22.126  1.00  0.00     0.007 C 
HETATM    3  C11 UNL     1      -1.223  50.655 -22.547  1.00  0.00     0.015 C 
HETATM    4  C12 UNL     1      -2.422  50.683 -21.573  1.00  0.00    -0.005 C 
HETATM    5  C13 UNL     1      -3.446  51.710 -22.147  1.00  0.00     0.021 C 
HETATM    6  C14 UNL     1      -3.254  49.432 -21.317  1.00  0.00    -0.000 C 
HETATM    7  C15 UNL     1      -3.880  49.226 -20.128  1.00  0.00    -0.058 C 
HETATM    8  C16 UNL     1      -3.671  50.199 -18.954  1.00  0.00     0.036 C 
HETATM    9  C17 UNL     1      -2.748  51.408 -19.187  1.00  0.00     0.015 C 
HETATM   10  C18 UNL     1      -1.680  51.123 -20.242  1.00  0.00    -0.028 C 
HETATM   11  C19 UNL     1      -0.746  50.004 -19.685  1.00  0.00     0.016 C 
HETATM   12  C20 UNL     1      -4.794  47.984 -19.836  1.00  0.00     0.011 C 
HETATM   13  C21 UNL     1      -3.881  47.021 -19.036  1.00  0.00     0.023 C 
HETATM   14  C22 UNL     1      -5.282  47.378 -21.191  1.00  0.00     0.029 C 
HETATM   15  C23 UNL     1      -4.131  47.155 -22.173  1.00  0.00     0.090 C 
HETATM   16  C24 UNL     1      -3.410  48.453 -22.439  1.00  0.00     0.157 C 
HETATM   17  O1  UNL     1      -2.935  48.670 -23.553  1.00  0.00    -0.293 OA
HETATM   18  C25 UNL     1      -6.294  46.174 -21.101  1.00  0.00     0.072 C 
HETATM   19  C26 UNL     1      -7.260  46.327 -22.320  1.00  0.00     0.030 C 
HETATM   20  C28 UNL     1      -7.175  46.234 -19.821  1.00  0.00     0.139 C 
HETATM   21  C29 UNL     1      -7.388  47.666 -19.348  1.00  0.00     0.065 C 
HETATM   22  C30 UNL     1      -6.080  48.414 -19.028  1.00  0.00     0.133 C 
ENDROOT
BRANCH   1  23
HETATM   23  C7  UNL     1       0.245  53.076 -19.920  1.00  0.00    -0.014 C 
HETATM   24  C8  UNL     1       1.633  53.165 -20.569  1.00  0.00     0.010 C 
BRANCH  23  25
HETATM   25  C6  UNL     1       0.416  52.580 -18.461  1.00  0.00     0.008 C 
BRANCH  25  26
HETATM   26  C5  UNL     1       1.808  52.795 -17.844  1.00  0.00     0.028 C 
BRANCH  26  27
HETATM   27  C4  UNL     1       1.934  52.314 -16.424  1.00  0.00    -0.025 C 
HETATM   28  C2  UNL     1       3.055  52.140 -15.696  1.00  0.00    -0.091 C 
HETATM   29  C1  UNL     1       4.454  52.383 -16.194  1.00  0.00     0.042 C 
HETATM   30  C3  UNL     1       2.981  51.661 -14.265  1.00  0.00     0.042 C 
ENDBRANCH  26  27
ENDBRANCH  25  26
ENDBRANCH  23  25
ENDBRANCH   1  23
BRANCH  22  31
HETATM   31  O5  UNL     1      -5.860  48.344 -17.616  1.00  0.00    -0.394 OA
HETATM   32  H46 UNL     1      -5.771  47.398 -17.389  1.00  0.00     0.210 HD
ENDBRANCH  22  31
BRANCH  18  33
HETATM   33  C27 UNL     1      -5.692  44.772 -21.239  1.00  0.00     0.151 C 
HETATM   34  O2  UNL     1      -6.048  43.915 -22.035  1.00  0.00    -0.649 OA
BRANCH  33  35
HETATM   35  O3  UNL     1      -4.704  44.502 -20.372  1.00  0.00    -0.776 OA
HETATM   36  H40 UNL     1      -4.477  43.565 -20.560  1.00  0.00     0.167 HD
ENDBRANCH  33  35
ENDBRANCH  18  33
BRANCH  20  37
HETATM   37  O4  UNL     1      -6.650  45.499 -18.711  1.00  0.00    -0.394 OA
HETATM   38  H42 UNL     1      -7.405  45.323 -18.123  1.00  0.00     0.210 HD
ENDBRANCH  20  37
TORSDOF 8
ENDMDL
MODEL 8
REMARK minimizedAffinity -8.79933548
REMARK  8 active torsions:
REMARK  status: ('A' for Active; 'I' for Inactive)
REMARK    1  A    between atoms: C4_4  and  C5_5 
REMARK    2  A    between atoms: C5_5  and  C6_6 
REMARK    3  A    between atoms: C6_6  and  C7_7 
REMARK    4  A    between atoms: C7_7  and  C9_9 
REMARK    5  A    between atoms: C25_26  and  C27_28 
REMARK    6  A    between atoms: C27_28  and  O3_30 
REMARK    7  A    between atoms: C28_31  and  O4_32 
REMARK    8  A    between atoms: C30_34  and  O5_35 
ROOT
HETATM    1  C9  UNL     1      -0.907  51.340 -16.937  1.00  0.00    -0.002 C 
HETATM    2  C10 UNL     1       0.616  51.648 -16.902  1.00  0.00     0.007 C 
HETATM    3  C11 UNL     1       1.042  52.003 -18.343  1.00  0.00     0.015 C 
HETATM    4  C12 UNL     1      -0.279  52.193 -19.122  1.00  0.00    -0.005 C 
HETATM    5  C13 UNL     1      -0.751  53.657 -18.857  1.00  0.00     0.021 C 
HETATM    6  C14 UNL     1      -0.321  52.057 -20.639  1.00  0.00    -0.000 C 
HETATM    7  C15 UNL     1      -1.443  51.638 -21.284  1.00  0.00    -0.058 C 
HETATM    8  C16 UNL     1      -2.675  51.173 -20.488  1.00  0.00     0.036 C 
HETATM    9  C17 UNL     1      -2.591  51.217 -18.952  1.00  0.00     0.015 C 
HETATM   10  C18 UNL     1      -1.156  51.056 -18.449  1.00  0.00    -0.028 C 
HETATM   11  C19 UNL     1      -0.673  49.625 -18.838  1.00  0.00     0.016 C 
HETATM   12  C20 UNL     1      -1.555  51.536 -22.845  1.00  0.00     0.011 C 
HETATM   13  C21 UNL     1      -1.337  50.032 -23.144  1.00  0.00     0.023 C 
HETATM   14  C22 UNL     1      -0.470  52.453 -23.497  1.00  0.00     0.029 C 
HETATM   15  C23 UNL     1       0.919  52.216 -22.902  1.00  0.00     0.090 C 
HETATM   16  C24 UNL     1       0.899  52.452 -21.412  1.00  0.00     0.157 C 
HETATM   17  O1  UNL     1       1.887  52.927 -20.856  1.00  0.00    -0.293 OA
HETATM   18  C25 UNL     1      -0.487  52.557 -25.068  1.00  0.00     0.072 C 
HETATM   19  C26 UNL     1      -0.055  54.020 -25.411  1.00  0.00     0.030 C 
HETATM   20  C28 UNL     1      -1.911  52.360 -25.660  1.00  0.00     0.139 C 
HETATM   21  C29 UNL     1      -2.995  52.804 -24.686  1.00  0.00     0.065 C 
HETATM   22  C30 UNL     1      -2.961  52.057 -23.339  1.00  0.00     0.133 C 
ENDROOT
BRANCH   1  23
HETATM   23  C7  UNL     1      -1.359  50.406 -15.773  1.00  0.00    -0.014 C 
HETATM   24  C8  UNL     1      -2.618  49.566 -16.034  1.00  0.00     0.010 C 
BRANCH  23  25
HETATM   25  C6  UNL     1      -1.505  51.092 -14.390  1.00  0.00     0.008 C 
BRANCH  25  26
HETATM   26  C5  UNL     1      -2.948  51.352 -13.926  1.00  0.00     0.028 C 
BRANCH  26  27
HETATM   27  C4  UNL     1      -3.208  50.987 -12.489  1.00  0.00    -0.025 C 
HETATM   28  C2  UNL     1      -3.630  51.784 -11.487  1.00  0.00    -0.091 C 
HETATM   29  C1  UNL     1      -3.912  53.257 -11.615  1.00  0.00     0.042 C 
HETATM   30  C3  UNL     1      -3.855  51.228 -10.101  1.00  0.00     0.042 C 
ENDBRANCH  26  27
ENDBRANCH  25  26
ENDBRANCH  23  25
ENDBRANCH   1  23
BRANCH  22  31
HETATM   31  O5  UNL     1      -3.922  50.999 -23.392  1.00  0.00    -0.394 OA
HETATM   32  H46 UNL     1      -3.649  50.402 -24.116  1.00  0.00     0.210 HD
ENDBRANCH  22  31
BRANCH  18  33
HETATM   33  C27 UNL     1       0.504  51.661 -25.818  1.00  0.00     0.151 C 
HETATM   34  O2  UNL     1       0.339  50.480 -26.087  1.00  0.00    -0.649 OA
BRANCH  33  35
HETATM   35  O3  UNL     1       1.648  52.268 -26.169  1.00  0.00    -0.776 OA
HETATM   36  H40 UNL     1       2.177  51.550 -26.581  1.00  0.00     0.167 HD
ENDBRANCH  33  35
ENDBRANCH  18  33
BRANCH  20  37
HETATM   37  O4  UNL     1      -2.211  51.013 -26.036  1.00  0.00    -0.394 OA
HETATM   38  H42 UNL     1      -2.940  51.068 -26.679  1.00  0.00     0.210 HD
ENDBRANCH  20  37
TORSDOF 8
ENDMDL
MODEL 9
REMARK minimizedAffinity -8.78698063
REMARK  8 active torsions:
REMARK  status: ('A' for Active; 'I' for Inactive)
REMARK    1  A    between atoms: C4_4  and  C5_5 
REMARK    2  A    between atoms: C5_5  and  C6_6 
REMARK    3  A    between atoms: C6_6  and  C7_7 
REMARK    4  A    between atoms: C7_7  and  C9_9 
REMARK    5  A    between atoms: C25_26  and  C27_28 
REMARK    6  A    between atoms: C27_28  and  O3_30 
REMARK    7  A    between atoms: C28_31  and  O4_32 
REMARK    8  A    between atoms: C30_34  and  O5_35 
ROOT
HETATM    1  C9  UNL     1      -0.823  50.735 -22.721  1.00  0.00    -0.002 C 
HETATM    2  C10 UNL     1      -0.441  51.479 -21.411  1.00  0.00     0.007 C 
HETATM    3  C11 UNL     1      -1.316  50.891 -20.283  1.00  0.00     0.015 C 
HETATM    4  C12 UNL     1      -1.961  49.624 -20.887  1.00  0.00    -0.005 C 
HETATM    5  C13 UNL     1      -0.920  48.472 -20.735  1.00  0.00     0.021 C 
HETATM    6  C14 UNL     1      -3.244  49.044 -20.306  1.00  0.00    -0.000 C 
HETATM    7  C15 UNL     1      -4.131  48.362 -21.080  1.00  0.00    -0.058 C 
HETATM    8  C16 UNL     1      -3.921  48.254 -22.600  1.00  0.00     0.036 C 
HETATM    9  C17 UNL     1      -2.673  48.929 -23.197  1.00  0.00     0.015 C 
HETATM   10  C18 UNL     1      -2.216  50.130 -22.368  1.00  0.00    -0.028 C 
HETATM   11  C19 UNL     1      -3.335  51.214 -22.442  1.00  0.00     0.016 C 
HETATM   12  C20 UNL     1      -5.436  47.697 -20.518  1.00  0.00     0.011 C 
HETATM   13  C21 UNL     1      -6.558  48.706 -20.871  1.00  0.00     0.023 C 
HETATM   14  C22 UNL     1      -5.276  47.475 -18.979  1.00  0.00     0.029 C 
HETATM   15  C23 UNL     1      -4.796  48.737 -18.260  1.00  0.00     0.090 C 
HETATM   16  C24 UNL     1      -3.481  49.199 -18.835  1.00  0.00     0.157 C 
HETATM   17  O1  UNL     1      -2.645  49.725 -18.102  1.00  0.00    -0.293 OA
HETATM   18  C25 UNL     1      -6.454  46.727 -18.249  1.00  0.00     0.072 C 
HETATM   19  C26 UNL     1      -5.792  45.871 -17.120  1.00  0.00     0.030 C 
HETATM   20  C28 UNL     1      -7.198  45.734 -19.186  1.00  0.00     0.139 C 
HETATM   21  C29 UNL     1      -6.280  45.188 -20.273  1.00  0.00     0.065 C 
HETATM   22  C30 UNL     1      -5.667  46.279 -21.171  1.00  0.00     0.133 C 
ENDROOT
BRANCH   1  23
HETATM   23  C7  UNL     1      -0.521  51.575 -24.000  1.00  0.00    -0.014 C 
HETATM   24  C8  UNL     1      -0.345  53.085 -23.788  1.00  0.00     0.010 C 
BRANCH  23  25
HETATM   25  C6  UNL     1      -1.498  51.356 -25.184  1.00  0.00     0.008 C 
BRANCH  25  26
HETATM   26  C5  UNL     1      -0.946  50.530 -26.358  1.00  0.00     0.028 C 
BRANCH  26  27
HETATM   27  C4  UNL     1       0.525  50.720 -26.608  1.00  0.00    -0.025 C 
HETATM   28  C2  UNL     1       1.133  51.678 -27.338  1.00  0.00    -0.091 C 
HETATM   29  C1  UNL     1       0.422  52.770 -28.091  1.00  0.00     0.042 C 
HETATM   30  C3  UNL     1       2.637  51.718 -27.461  1.00  0.00     0.042 C 
ENDBRANCH  26  27
ENDBRANCH  25  26
ENDBRANCH  23  25
ENDBRANCH   1  23
BRANCH  22  31
HETATM   31  O5  UNL     1      -6.455  46.372 -22.361  1.00  0.00    -0.394 OA
HETATM   32  H46 UNL     1      -7.356  46.630 -22.086  1.00  0.00     0.210 HD
ENDBRANCH  22  31
BRANCH  18  33
HETATM   33  C27 UNL     1      -7.478  47.612 -17.531  1.00  0.00     0.151 C 
HETATM   34  O2  UNL     1      -8.123  48.518 -18.041  1.00  0.00    -0.649 OA
BRANCH  33  35
HETATM   35  O3  UNL     1      -7.626  47.347 -16.225  1.00  0.00    -0.776 OA
HETATM   36  H40 UNL     1      -8.263  48.028 -15.918  1.00  0.00     0.167 HD
ENDBRANCH  33  35
ENDBRANCH  18  33
BRANCH  20  37
HETATM   37  O4  UNL     1      -8.342  46.288 -19.841  1.00  0.00    -0.394 OA
HETATM   38  H42 UNL     1      -8.896  45.531 -20.102  1.00  0.00     0.210 HD
ENDBRANCH  20  37
TORSDOF 8
ENDMDL
