MODEL 1
REMARK minimizedAffinity -7.51627922
REMARK CNNscore 0.71063894
REMARK CNNaffinity 6.72042036
REMARK  6 active torsions:
REMARK  status: ('A' for Active; 'I' for Inactive)
REMARK    1  A    between atoms: C2_2  and  C3_3 
REMARK    2  A    between atoms: C5_5  and  C6_6 
REMARK    3  A    between atoms: C6_6  and  C7_7 
REMARK    4  A    between atoms: C8_8  and  C9_9 
REMARK       I    between atoms: C9_9  and  N1_11 
REMARK    5  A    between atoms: N1_11  and  C10_12 
REMARK    6  A    between atoms: C10_12  and  C12_14 
ROOT
HETATM    1  C7  UNL     1       2.090  54.277  -9.555  1.00  0.00     0.036 C 
HETATM    2  C8  UNL     1       3.023  53.159 -10.004  1.00  0.00     0.011 C 
HETATM    3  C18 UNL     1       4.306  53.035  -9.622  1.00  0.00    -0.013 C 
HETATM    4  C19 UNL     1       4.976  53.984  -8.686  1.00  0.00     0.034 C 
HETATM    5  C20 UNL     1       3.981  54.855  -7.889  1.00  0.00     0.005 C 
HETATM    6  C21 UNL     1       4.708  55.861  -6.908  1.00  0.00    -0.043 C 
HETATM    7  C22 UNL     1       6.071  56.381  -7.417  1.00  0.00     0.015 C 
HETATM    8  C23 UNL     1       5.003  55.108  -5.582  1.00  0.00     0.015 C 
HETATM    9  C24 UNL     1       3.822  57.085  -6.587  1.00  0.00     0.009 C 
HETATM   10  C25 UNL     1       2.348  56.733  -6.579  1.00  0.00     0.002 C 
HETATM   11  C26 UNL     1       1.856  56.289  -7.955  1.00  0.00     0.010 C 
HETATM   12  C27 UNL     1       2.870  55.471  -8.819  1.00  0.00    -0.031 C 
HETATM   13  C28 UNL     1       3.506  56.415  -9.871  1.00  0.00     0.016 C 
ENDROOT
BRANCH   2  14
HETATM   14  C9  UNL     1       2.451  52.039 -10.805  1.00  0.00     0.248 C 
HETATM   15  O1  UNL     1       1.774  51.166 -10.279  1.00  0.00    -0.268 OA
HETATM   16  N1  UNL     1       2.730  52.123 -12.145  1.00  0.00    -0.349 N 
HETATM   17  H11 UNL     1       3.371  52.839 -12.458  1.00  0.00     0.163 HD
BRANCH  16  18
HETATM   18  C10 UNL     1       2.440  51.033 -13.059  1.00  0.00     0.114 C 
HETATM   19  C11 UNL     1       1.135  50.348 -12.654  1.00  0.00     0.037 C 
BRANCH  18  20
HETATM   20  C12 UNL     1       2.460  51.564 -14.485  1.00  0.00    -0.036 A 
HETATM   21  C13 UNL     1       1.311  51.639 -15.287  1.00  0.00     0.009 A 
HETATM   22  C14 UNL     1       1.378  52.164 -16.580  1.00  0.00     0.001 A 
HETATM   23  C15 UNL     1       2.588  52.633 -17.086  1.00  0.00     0.000 A 
HETATM   24  C16 UNL     1       3.734  52.581 -16.298  1.00  0.00     0.001 A 
HETATM   25  C17 UNL     1       3.669  52.055 -15.007  1.00  0.00     0.009 A 
ENDBRANCH  18  20
ENDBRANCH  16  18
ENDBRANCH   2  14
BRANCH   1  26
HETATM   26  C6  UNL     1       1.170  54.721 -10.743  1.00  0.00     0.038 C 
BRANCH  26  27
HETATM   27  C5  UNL     1      -0.294  54.847 -10.411  1.00  0.00    -0.019 C 
HETATM   28  C3  UNL     1      -1.315  54.028 -10.747  1.00  0.00    -0.067 C 
HETATM   29  C4  UNL     1      -1.158  52.759 -11.544  1.00  0.00     0.048 C 
BRANCH  28  30
HETATM   30  C2  UNL     1      -2.661  54.387 -10.303  1.00  0.00    -0.004 C 
HETATM   31  C1  UNL     1      -3.808  53.804 -10.674  1.00  0.00     0.012 C 
ENDBRANCH  28  30
ENDBRANCH  26  27
ENDBRANCH   1  26
TORSDOF 6
ENDMDL
MODEL 2
REMARK minimizedAffinity -6.43743467
REMARK CNNscore 0.492695361
REMARK CNNaffinity 6.56712294
REMARK  6 active torsions:
REMARK  status: ('A' for Active; 'I' for Inactive)
REMARK    1  A    between atoms: C2_2  and  C3_3 
REMARK    2  A    between atoms: C5_5  and  C6_6 
REMARK    3  A    between atoms: C6_6  and  C7_7 
REMARK    4  A    between atoms: C8_8  and  C9_9 
REMARK       I    between atoms: C9_9  and  N1_11 
REMARK    5  A    between atoms: N1_11  and  C10_12 
REMARK    6  A    between atoms: C10_12  and  C12_14 
ROOT
HETATM    1  C7  UNL     1      -0.495  54.484 -10.308  1.00  0.00     0.036 C 
HETATM    2  C8  UNL     1       0.871  53.870 -10.589  1.00  0.00     0.011 C 
HETATM    3  C18 UNL     1       1.074  52.596 -10.966  1.00  0.00    -0.013 C 
HETATM    4  C19 UNL     1      -0.034  51.617 -11.172  1.00  0.00     0.034 C 
HETATM    5  C20 UNL     1      -1.418  52.288 -11.317  1.00  0.00     0.005 C 
HETATM    6  C21 UNL     1      -2.581  51.237 -11.526  1.00  0.00    -0.043 C 
HETATM    7  C22 UNL     1      -2.365  49.889 -10.803  1.00  0.00     0.015 C 
HETATM    8  C23 UNL     1      -2.660  50.905 -13.041  1.00  0.00     0.015 C 
HETATM    9  C24 UNL     1      -3.947  51.802 -11.078  1.00  0.00     0.009 C 
HETATM   10  C25 UNL     1      -4.041  53.300 -11.297  1.00  0.00     0.002 C 
HETATM   11  C26 UNL     1      -3.040  54.070 -10.439  1.00  0.00     0.010 C 
HETATM   12  C27 UNL     1      -1.656  53.380 -10.207  1.00  0.00    -0.031 C 
HETATM   13  C28 UNL     1      -1.650  52.732  -8.799  1.00  0.00     0.016 C 
ENDROOT
BRANCH   2  14
HETATM   14  C9  UNL     1       2.062  54.768 -10.593  1.00  0.00     0.248 C 
HETATM   15  O1  UNL     1       1.944  55.974 -10.764  1.00  0.00    -0.268 OA
HETATM   16  N1  UNL     1       3.243  54.114 -10.354  1.00  0.00    -0.349 N 
HETATM   17  H11 UNL     1       3.234  53.104 -10.314  1.00  0.00     0.163 HD
BRANCH  16  18
HETATM   18  C10 UNL     1       4.529  54.768 -10.518  1.00  0.00     0.114 C 
HETATM   19  C11 UNL     1       4.401  55.924 -11.510  1.00  0.00     0.037 C 
BRANCH  18  20
HETATM   20  C12 UNL     1       5.060  55.166  -9.149  1.00  0.00    -0.036 A 
HETATM   21  C13 UNL     1       4.616  56.304  -8.459  1.00  0.00     0.009 A 
HETATM   22  C14 UNL     1       5.114  56.608  -7.190  1.00  0.00     0.001 A 
HETATM   23  C15 UNL     1       6.052  55.774  -6.585  1.00  0.00     0.000 A 
HETATM   24  C16 UNL     1       6.491  54.632  -7.248  1.00  0.00     0.001 A 
HETATM   25  C17 UNL     1       5.996  54.328  -8.517  1.00  0.00     0.009 A 
ENDBRANCH  18  20
ENDBRANCH  16  18
ENDBRANCH   2  14
BRANCH   1  26
HETATM   26  C6  UNL     1      -0.406  55.462  -9.088  1.00  0.00     0.038 C 
BRANCH  26  27
HETATM   27  C5  UNL     1       0.334  54.928  -7.889  1.00  0.00    -0.019 C 
HETATM   28  C3  UNL     1       1.199  55.565  -7.070  1.00  0.00    -0.067 C 
HETATM   29  C4  UNL     1       1.586  57.015  -7.208  1.00  0.00     0.048 C 
BRANCH  28  30
HETATM   30  C2  UNL     1       1.796  54.806  -5.972  1.00  0.00    -0.004 C 
HETATM   31  C1  UNL     1       2.816  53.942  -6.058  1.00  0.00     0.012 C 
ENDBRANCH  28  30
ENDBRANCH  26  27
ENDBRANCH   1  26
TORSDOF 6
ENDMDL
MODEL 3
REMARK minimizedAffinity -7.38276196
REMARK CNNscore 0.429912746
REMARK CNNaffinity 6.36061811
REMARK  6 active torsions:
REMARK  status: ('A' for Active; 'I' for Inactive)
REMARK    1  A    between atoms: C2_2  and  C3_3 
REMARK    2  A    between atoms: C5_5  and  C6_6 
REMARK    3  A    between atoms: C6_6  and  C7_7 
REMARK    4  A    between atoms: C8_8  and  C9_9 
REMARK       I    between atoms: C9_9  and  N1_11 
REMARK    5  A    between atoms: N1_11  and  C10_12 
REMARK    6  A    between atoms: C10_12  and  C12_14 
ROOT
HETATM    1  C7  UNL     1      -5.386  47.986 -25.282  1.00  0.00     0.036 C 
HETATM    2  C8  UNL     1      -4.400  48.509 -26.321  1.00  0.00     0.011 C 
HETATM    3  C18 UNL     1      -3.253  49.148 -26.032  1.00  0.00    -0.013 C 
HETATM    4  C19 UNL     1      -2.793  49.412 -24.637  1.00  0.00     0.034 C 
HETATM    5  C20 UNL     1      -3.517  48.546 -23.584  1.00  0.00     0.005 C 
HETATM    6  C21 UNL     1      -3.023  48.845 -22.111  1.00  0.00    -0.043 C 
HETATM    7  C22 UNL     1      -2.604  50.310 -21.860  1.00  0.00     0.015 C 
HETATM    8  C23 UNL     1      -1.758  47.984 -21.847  1.00  0.00     0.015 C 
HETATM    9  C24 UNL     1      -4.095  48.471 -21.064  1.00  0.00     0.009 C 
HETATM   10  C25 UNL     1      -4.933  47.287 -21.506  1.00  0.00     0.002 C 
HETATM   11  C26 UNL     1      -5.752  47.598 -22.757  1.00  0.00     0.010 C 
HETATM   12  C27 UNL     1      -5.076  48.538 -23.807  1.00  0.00    -0.031 C 
HETATM   13  C28 UNL     1      -5.654  49.967 -23.645  1.00  0.00     0.016 C 
ENDROOT
BRANCH   2  14
HETATM   14  C9  UNL     1      -4.638  48.171 -27.753  1.00  0.00     0.248 C 
HETATM   15  O1  UNL     1      -3.714  47.849 -28.488  1.00  0.00    -0.268 OA
HETATM   16  N1  UNL     1      -5.958  48.226 -28.120  1.00  0.00    -0.349 N 
HETATM   17  H11 UNL     1      -6.627  48.588 -27.454  1.00  0.00     0.163 HD
BRANCH  16  18
HETATM   18  C10 UNL     1      -6.374  48.132 -29.508  1.00  0.00     0.114 C 
HETATM   19  C11 UNL     1      -5.376  48.871 -30.400  1.00  0.00     0.037 C 
BRANCH  18  20
HETATM   20  C12 UNL     1      -6.579  46.668 -29.865  1.00  0.00    -0.036 A 
HETATM   21  C13 UNL     1      -6.106  46.101 -31.058  1.00  0.00     0.009 A 
HETATM   22  C14 UNL     1      -6.295  44.742 -31.326  1.00  0.00     0.001 A 
HETATM   23  C15 UNL     1      -6.946  43.929 -30.400  1.00  0.00     0.000 A 
HETATM   24  C16 UNL     1      -7.406  44.472 -29.205  1.00  0.00     0.001 A 
HETATM   25  C17 UNL     1      -7.220  45.829 -28.938  1.00  0.00     0.009 A 
ENDBRANCH  18  20
ENDBRANCH  16  18
ENDBRANCH   2  14
BRANCH   1  26
HETATM   26  C6  UNL     1      -6.856  48.206 -25.776  1.00  0.00     0.038 C 
BRANCH  26  27
HETATM   27  C5  UNL     1      -7.929  47.734 -24.829  1.00  0.00    -0.019 C 
HETATM   28  C3  UNL     1      -8.485  46.508 -24.717  1.00  0.00    -0.067 C 
HETATM   29  C4  UNL     1      -8.093  45.319 -25.556  1.00  0.00     0.048 C 
BRANCH  28  30
HETATM   30  C2  UNL     1      -9.529  46.314 -23.712  1.00  0.00    -0.004 C 
HETATM   31  C1  UNL     1      -9.523  45.419 -22.715  1.00  0.00     0.012 C 
ENDBRANCH  28  30
ENDBRANCH  26  27
ENDBRANCH   1  26
TORSDOF 6
ENDMDL
MODEL 4
REMARK minimizedAffinity -6.98815107
REMARK CNNscore 0.425545812
REMARK CNNaffinity 6.46733809
REMARK  6 active torsions:
REMARK  status: ('A' for Active; 'I' for Inactive)
REMARK    1  A    between atoms: C2_2  and  C3_3 
REMARK    2  A    between atoms: C5_5  and  C6_6 
REMARK    3  A    between atoms: C6_6  and  C7_7 
REMARK    4  A    between atoms: C8_8  and  C9_9 
REMARK       I    between atoms: C9_9  and  N1_11 
REMARK    5  A    between atoms: N1_11  and  C10_12 
REMARK    6  A    between atoms: C10_12  and  C12_14 
ROOT
HETATM    1  C7  UNL     1       0.197  52.701 -10.520  1.00  0.00     0.036 C 
HETATM    2  C8  UNL     1       1.570  52.774 -11.178  1.00  0.00     0.011 C 
HETATM    3  C18 UNL     1       2.584  53.546 -10.749  1.00  0.00    -0.013 C 
HETATM    4  C19 UNL     1       2.490  54.426  -9.548  1.00  0.00     0.034 C 
HETATM    5  C20 UNL     1       1.304  54.069  -8.624  1.00  0.00     0.005 C 
HETATM    6  C21 UNL     1       1.214  55.016  -7.361  1.00  0.00    -0.043 C 
HETATM    7  C22 UNL     1       1.686  56.466  -7.611  1.00  0.00     0.015 C 
HETATM    8  C23 UNL     1       2.151  54.442  -6.264  1.00  0.00     0.015 C 
HETATM    9  C24 UNL     1      -0.222  55.076  -6.794  1.00  0.00     0.009 C 
HETATM   10  C25 UNL     1      -0.964  53.768  -6.989  1.00  0.00     0.002 C 
HETATM   11  C26 UNL     1      -1.178  53.444  -8.466  1.00  0.00     0.010 C 
HETATM   12  C27 UNL     1      -0.029  53.865  -9.438  1.00  0.00    -0.031 C 
HETATM   13  C28 UNL     1      -0.434  55.179 -10.152  1.00  0.00     0.016 C 
ENDROOT
BRANCH   2  14
HETATM   14  C9  UNL     1       1.873  51.825 -12.288  1.00  0.00     0.248 C 
HETATM   15  O1  UNL     1       1.508  50.658 -12.239  1.00  0.00    -0.268 OA
HETATM   16  N1  UNL     1       2.545  52.401 -13.335  1.00  0.00    -0.349 N 
HETATM   17  H11 UNL     1       2.874  53.351 -13.231  1.00  0.00     0.163 HD
BRANCH  16  18
HETATM   18  C10 UNL     1       3.110  51.608 -14.413  1.00  0.00     0.114 C 
HETATM   19  C11 UNL     1       3.642  50.285 -13.861  1.00  0.00     0.037 C 
BRANCH  18  20
HETATM   20  C12 UNL     1       2.072  51.462 -15.516  1.00  0.00    -0.036 A 
HETATM   21  C13 UNL     1       1.178  50.384 -15.583  1.00  0.00     0.009 A 
HETATM   22  C14 UNL     1       0.223  50.312 -16.601  1.00  0.00     0.001 A 
HETATM   23  C15 UNL     1       0.138  51.322 -17.557  1.00  0.00     0.000 A 
HETATM   24  C16 UNL     1       1.007  52.408 -17.495  1.00  0.00     0.001 A 
HETATM   25  C17 UNL     1       1.963  52.479 -16.480  1.00  0.00     0.009 A 
ENDBRANCH  18  20
ENDBRANCH  16  18
ENDBRANCH   2  14
BRANCH   1  26
HETATM   26  C6  UNL     1      -0.919  52.588 -11.613  1.00  0.00     0.038 C 
BRANCH  26  27
HETATM   27  C5  UNL     1      -2.141  51.806 -11.205  1.00  0.00    -0.019 C 
HETATM   28  C3  UNL     1      -3.400  52.247 -10.991  1.00  0.00    -0.067 C 
HETATM   29  C4  UNL     1      -3.835  53.680 -11.148  1.00  0.00     0.048 C 
BRANCH  28  30
HETATM   30  C2  UNL     1      -4.412  51.272 -10.587  1.00  0.00    -0.004 C 
HETATM   31  C1  UNL     1      -4.207  50.154  -9.878  1.00  0.00     0.012 C 
ENDBRANCH  28  30
ENDBRANCH  26  27
ENDBRANCH   1  26
TORSDOF 6
ENDMDL
MODEL 5
REMARK minimizedAffinity -7.24885988
REMARK CNNscore 0.282540321
REMARK CNNaffinity 5.32003736
REMARK  6 active torsions:
REMARK  status: ('A' for Active; 'I' for Inactive)
REMARK    1  A    between atoms: C2_2  and  C3_3 
REMARK    2  A    between atoms: C5_5  and  C6_6 
REMARK    3  A    between atoms: C6_6  and  C7_7 
REMARK    4  A    between atoms: C8_8  and  C9_9 
REMARK       I    between atoms: C9_9  and  N1_11 
REMARK    5  A    between atoms: N1_11  and  C10_12 
REMARK    6  A    between atoms: C10_12  and  C12_14 
ROOT
HETATM    1  C7  UNL     1     -10.685  46.541 -28.894  1.00  0.00     0.036 C 
HETATM    2  C8  UNL     1      -9.506  46.494 -27.930  1.00  0.00     0.011 C 
HETATM    3  C18 UNL     1      -9.615  46.396 -26.593  1.00  0.00    -0.013 C 
HETATM    4  C19 UNL     1     -10.925  46.305 -25.884  1.00  0.00     0.034 C 
HETATM    5  C20 UNL     1     -12.095  45.922 -26.816  1.00  0.00     0.005 C 
HETATM    6  C21 UNL     1     -13.476  45.838 -26.050  1.00  0.00    -0.043 C 
HETATM    7  C22 UNL     1     -13.620  46.830 -24.875  1.00  0.00     0.015 C 
HETATM    8  C23 UNL     1     -13.596  44.419 -25.433  1.00  0.00     0.015 C 
HETATM    9  C24 UNL     1     -14.671  46.058 -27.005  1.00  0.00     0.009 C 
HETATM   10  C25 UNL     1     -14.386  45.538 -28.400  1.00  0.00     0.002 C 
HETATM   11  C26 UNL     1     -13.248  46.300 -29.076  1.00  0.00     0.010 C 
HETATM   12  C27 UNL     1     -12.085  46.770 -28.144  1.00  0.00    -0.031 C 
HETATM   13  C28 UNL     1     -12.275  48.275 -27.827  1.00  0.00     0.016 C 
ENDROOT
BRANCH   2  14
HETATM   14  C9  UNL     1      -8.130  46.404 -28.498  1.00  0.00     0.248 C 
HETATM   15  O1  UNL     1      -7.795  45.455 -29.195  1.00  0.00    -0.268 OA
HETATM   16  N1  UNL     1      -7.337  47.480 -28.192  1.00  0.00    -0.349 N 
HETATM   17  H11 UNL     1      -7.688  48.164 -27.537  1.00  0.00     0.163 HD
BRANCH  16  18
HETATM   18  C10 UNL     1      -5.913  47.489 -28.475  1.00  0.00     0.114 C 
HETATM   19  C11 UNL     1      -5.641  48.300 -29.742  1.00  0.00     0.037 C 
BRANCH  18  20
HETATM   20  C12 UNL     1      -5.166  47.972 -27.242  1.00  0.00    -0.036 A 
HETATM   21  C13 UNL     1      -5.764  48.064 -25.975  1.00  0.00     0.009 A 
HETATM   22  C14 UNL     1      -5.024  48.486 -24.867  1.00  0.00     0.001 A 
HETATM   23  C15 UNL     1      -3.676  48.809 -25.004  1.00  0.00     0.000 A 
HETATM   24  C16 UNL     1      -3.064  48.707 -26.250  1.00  0.00     0.001 A 
HETATM   25  C17 UNL     1      -3.801  48.288 -27.358  1.00  0.00     0.009 A 
ENDBRANCH  18  20
ENDBRANCH  16  18
ENDBRANCH   2  14
BRANCH   1  26
HETATM   26  C6  UNL     1     -10.388  47.545 -30.060  1.00  0.00     0.038 C 
BRANCH  26  27
HETATM   27  C5  UNL     1     -10.305  46.929 -31.433  1.00  0.00    -0.019 C 
HETATM   28  C3  UNL     1      -9.437  47.195 -32.432  1.00  0.00    -0.067 C 
HETATM   29  C4  UNL     1      -8.317  48.199 -32.340  1.00  0.00     0.048 C 
BRANCH  28  30
HETATM   30  C2  UNL     1      -9.582  46.456 -33.686  1.00  0.00    -0.004 C 
HETATM   31  C1  UNL     1      -8.632  46.253 -34.609  1.00  0.00     0.012 C 
ENDBRANCH  28  30
ENDBRANCH  26  27
ENDBRANCH   1  26
TORSDOF 6
ENDMDL
MODEL 6
REMARK minimizedAffinity -9.40332413
REMARK CNNscore 0.2501598
REMARK CNNaffinity 6.44556236
REMARK  6 active torsions:
REMARK  status: ('A' for Active; 'I' for Inactive)
REMARK    1  A    between atoms: C2_2  and  C3_3 
REMARK    2  A    between atoms: C5_5  and  C6_6 
REMARK    3  A    between atoms: C6_6  and  C7_7 
REMARK    4  A    between atoms: C8_8  and  C9_9 
REMARK       I    between atoms: C9_9  and  N1_11 
REMARK    5  A    between atoms: N1_11  and  C10_12 
REMARK    6  A    between atoms: C10_12  and  C12_14 
ROOT
HETATM    1  C7  UNL     1      -3.347  50.868 -26.130  1.00  0.00     0.036 C 
HETATM    2  C8  UNL     1      -3.552  49.406 -26.509  1.00  0.00     0.011 C 
HETATM    3  C18 UNL     1      -3.357  48.367 -25.678  1.00  0.00    -0.013 C 
HETATM    4  C19 UNL     1      -2.924  48.524 -24.259  1.00  0.00     0.034 C 
HETATM    5  C20 UNL     1      -3.118  49.958 -23.720  1.00  0.00     0.005 C 
HETATM    6  C21 UNL     1      -2.647  50.109 -22.218  1.00  0.00    -0.043 C 
HETATM    7  C22 UNL     1      -1.451  49.212 -21.827  1.00  0.00     0.015 C 
HETATM    8  C23 UNL     1      -3.824  49.679 -21.301  1.00  0.00     0.015 C 
HETATM    9  C24 UNL     1      -2.274  51.570 -21.881  1.00  0.00     0.009 C 
HETATM   10  C25 UNL     1      -3.111  52.564 -22.663  1.00  0.00     0.002 C 
HETATM   11  C26 UNL     1      -2.859  52.470 -24.166  1.00  0.00     0.010 C 
HETATM   12  C27 UNL     1      -2.580  51.040 -24.730  1.00  0.00    -0.031 C 
HETATM   13  C28 UNL     1      -1.053  50.873 -24.940  1.00  0.00     0.016 C 
ENDROOT
BRANCH   2  14
HETATM   14  C9  UNL     1      -4.147  49.097 -27.841  1.00  0.00     0.248 C 
HETATM   15  O1  UNL     1      -3.740  49.644 -28.857  1.00  0.00    -0.268 OA
HETATM   16  N1  UNL     1      -5.132  48.144 -27.795  1.00  0.00    -0.349 N 
HETATM   17  H11 UNL     1      -5.448  47.823 -26.890  1.00  0.00     0.163 HD
BRANCH  16  18
HETATM   18  C10 UNL     1      -5.971  47.853 -28.943  1.00  0.00     0.114 C 
HETATM   19  C11 UNL     1      -5.108  47.722 -30.198  1.00  0.00     0.037 C 
BRANCH  18  20
HETATM   20  C12 UNL     1      -6.827  46.634 -28.634  1.00  0.00    -0.036 A 
HETATM   21  C13 UNL     1      -7.646  46.545 -27.498  1.00  0.00     0.009 A 
HETATM   22  C14 UNL     1      -8.437  45.414 -27.276  1.00  0.00     0.001 A 
HETATM   23  C15 UNL     1      -8.430  44.363 -28.190  1.00  0.00     0.000 A 
HETATM   24  C16 UNL     1      -7.636  44.441 -29.330  1.00  0.00     0.001 A 
HETATM   25  C17 UNL     1      -6.845  45.569 -29.552  1.00  0.00     0.009 A 
ENDBRANCH  18  20
ENDBRANCH  16  18
ENDBRANCH   2  14
BRANCH   1  26
HETATM   26  C6  UNL     1      -2.716  51.652 -27.330  1.00  0.00     0.038 C 
BRANCH  26  27
HETATM   27  C5  UNL     1      -1.261  51.361 -27.594  1.00  0.00    -0.019 C 
HETATM   28  C3  UNL     1      -0.258  52.224 -27.868  1.00  0.00    -0.067 C 
HETATM   29  C4  UNL     1      -0.422  53.719 -27.944  1.00  0.00     0.048 C 
BRANCH  28  30
HETATM   30  C2  UNL     1       1.078  51.676 -28.098  1.00  0.00    -0.004 C 
HETATM   31  C1  UNL     1       2.126  51.750 -27.267  1.00  0.00     0.012 C 
ENDBRANCH  28  30
ENDBRANCH  26  27
ENDBRANCH   1  26
TORSDOF 6
ENDMDL
MODEL 7
REMARK minimizedAffinity -7.85324764
REMARK CNNscore 0.247850209
REMARK CNNaffinity 6.36676216
REMARK  6 active torsions:
REMARK  status: ('A' for Active; 'I' for Inactive)
REMARK    1  A    between atoms: C2_2  and  C3_3 
REMARK    2  A    between atoms: C5_5  and  C6_6 
REMARK    3  A    between atoms: C6_6  and  C7_7 
REMARK    4  A    between atoms: C8_8  and  C9_9 
REMARK       I    between atoms: C9_9  and  N1_11 
REMARK    5  A    between atoms: N1_11  and  C10_12 
REMARK    6  A    between atoms: C10_12  and  C12_14 
ROOT
HETATM    1  C7  UNL     1      -0.771  51.638 -14.041  1.00  0.00     0.036 C 
HETATM    2  C8  UNL     1      -2.041  50.994 -14.585  1.00  0.00     0.011 C 
HETATM    3  C18 UNL     1      -3.184  50.852 -13.891  1.00  0.00    -0.013 C 
HETATM    4  C19 UNL     1      -3.353  51.328 -12.487  1.00  0.00     0.034 C 
HETATM    5  C20 UNL     1      -2.271  52.343 -12.056  1.00  0.00     0.005 C 
HETATM    6  C21 UNL     1      -2.460  52.830 -10.563  1.00  0.00    -0.043 C 
HETATM    7  C22 UNL     1      -3.053  51.768  -9.611  1.00  0.00     0.015 C 
HETATM    8  C23 UNL     1      -3.467  54.013 -10.569  1.00  0.00     0.015 C 
HETATM    9  C24 UNL     1      -1.130  53.325  -9.952  1.00  0.00     0.009 C 
HETATM   10  C25 UNL     1      -0.226  53.955 -10.994  1.00  0.00     0.002 C 
HETATM   11  C26 UNL     1       0.221  52.948 -12.051  1.00  0.00     0.010 C 
HETATM   12  C27 UNL     1      -0.826  51.859 -12.452  1.00  0.00    -0.031 C 
HETATM   13  C28 UNL     1      -0.477  50.537 -11.722  1.00  0.00     0.016 C 
ENDROOT
BRANCH   2  14
HETATM   14  C9  UNL     1      -2.083  50.623 -16.029  1.00  0.00     0.248 C 
HETATM   15  O1  UNL     1      -2.944  51.073 -16.773  1.00  0.00    -0.268 OA
HETATM   16  N1  UNL     1      -1.066  49.787 -16.411  1.00  0.00    -0.349 N 
HETATM   17  H11 UNL     1      -0.461  49.408 -15.695  1.00  0.00     0.163 HD
BRANCH  16  18
HETATM   18  C10 UNL     1      -1.045  49.150 -17.715  1.00  0.00     0.114 C 
HETATM   19  C11 UNL     1      -2.402  48.507 -18.002  1.00  0.00     0.037 C 
BRANCH  18  20
HETATM   20  C12 UNL     1      -0.593  50.165 -18.754  1.00  0.00    -0.036 A 
HETATM   21  C13 UNL     1      -0.022  51.400 -18.416  1.00  0.00     0.009 A 
HETATM   22  C14 UNL     1       0.404  52.285 -19.410  1.00  0.00     0.001 A 
HETATM   23  C15 UNL     1       0.279  51.943 -20.755  1.00  0.00     0.000 A 
HETATM   24  C16 UNL     1      -0.271  50.715 -21.108  1.00  0.00     0.001 A 
HETATM   25  C17 UNL     1      -0.699  49.831 -20.116  1.00  0.00     0.009 A 
ENDBRANCH  18  20
ENDBRANCH  16  18
ENDBRANCH   2  14
BRANCH   1  26
HETATM   26  C6  UNL     1       0.489  50.863 -14.558  1.00  0.00     0.038 C 
BRANCH  26  27
HETATM   27  C5  UNL     1       1.576  51.725 -15.146  1.00  0.00    -0.019 C 
HETATM   28  C3  UNL     1       2.910  51.669 -14.938  1.00  0.00    -0.067 C 
HETATM   29  C4  UNL     1       3.588  50.664 -14.044  1.00  0.00     0.048 C 
BRANCH  28  30
HETATM   30  C2  UNL     1       3.756  52.640 -15.631  1.00  0.00    -0.004 C 
HETATM   31  C1  UNL     1       4.751  52.368 -16.486  1.00  0.00     0.012 C 
ENDBRANCH  28  30
ENDBRANCH  26  27
ENDBRANCH   1  26
TORSDOF 6
ENDMDL
MODEL 8
REMARK minimizedAffinity -9.51207924
REMARK CNNscore 0.247508034
REMARK CNNaffinity 6.50650454
REMARK  6 active torsions:
REMARK  status: ('A' for Active; 'I' for Inactive)
REMARK    1  A    between atoms: C2_2  and  C3_3 
REMARK    2  A    between atoms: C5_5  and  C6_6 
REMARK    3  A    between atoms: C6_6  and  C7_7 
REMARK    4  A    between atoms: C8_8  and  C9_9 
REMARK       I    between atoms: C9_9  and  N1_11 
REMARK    5  A    between atoms: N1_11  and  C10_12 
REMARK    6  A    between atoms: C10_12  and  C12_14 
ROOT
HETATM    1  C7  UNL     1      -2.062  50.495 -22.603  1.00  0.00     0.036 C 
HETATM    2  C8  UNL     1      -2.553  49.325 -23.447  1.00  0.00     0.011 C 
HETATM    3  C18 UNL     1      -3.045  48.177 -22.948  1.00  0.00    -0.013 C 
HETATM    4  C19 UNL     1      -3.185  47.913 -21.486  1.00  0.00     0.034 C 
HETATM    5  C20 UNL     1      -3.110  49.195 -20.628  1.00  0.00     0.005 C 
HETATM    6  C21 UNL     1      -3.252  48.897 -19.081  1.00  0.00    -0.043 C 
HETATM    7  C22 UNL     1      -2.662  47.541 -18.632  1.00  0.00     0.015 C 
HETATM    8  C23 UNL     1      -4.766  48.841 -18.741  1.00  0.00     0.015 C 
HETATM    9  C24 UNL     1      -2.600  50.005 -18.225  1.00  0.00     0.009 C 
HETATM   10  C25 UNL     1      -2.694  51.365 -18.889  1.00  0.00     0.002 C 
HETATM   11  C26 UNL     1      -1.911  51.421 -20.198  1.00  0.00     0.010 C 
HETATM   12  C27 UNL     1      -1.902  50.112 -21.052  1.00  0.00    -0.031 C 
HETATM   13  C28 UNL     1      -0.557  49.376 -20.826  1.00  0.00     0.016 C 
ENDROOT
BRANCH   2  14
HETATM   14  C9  UNL     1      -2.635  49.504 -24.925  1.00  0.00     0.248 C 
HETATM   15  O1  UNL     1      -3.345  48.781 -25.611  1.00  0.00    -0.268 OA
HETATM   16  N1  UNL     1      -1.884  50.551 -25.394  1.00  0.00    -0.349 N 
HETATM   17  H11 UNL     1      -1.268  51.027 -24.750  1.00  0.00     0.163 HD
BRANCH  16  18
HETATM   18  C10 UNL     1      -1.668  50.764 -26.814  1.00  0.00     0.114 C 
HETATM   19  C11 UNL     1      -2.654  51.809 -27.338  1.00  0.00     0.037 C 
BRANCH  18  20
HETATM   20  C12 UNL     1      -0.204  51.105 -27.045  1.00  0.00    -0.036 A 
HETATM   21  C13 UNL     1       0.240  51.861 -28.141  1.00  0.00     0.009 A 
HETATM   22  C14 UNL     1       1.594  52.171 -28.291  1.00  0.00     0.001 A 
HETATM   23  C15 UNL     1       2.522  51.743 -27.344  1.00  0.00     0.000 A 
HETATM   24  C16 UNL     1       2.097  51.006 -26.243  1.00  0.00     0.001 A 
HETATM   25  C17 UNL     1       0.745  50.693 -26.093  1.00  0.00     0.009 A 
ENDBRANCH  18  20
ENDBRANCH  16  18
ENDBRANCH   2  14
BRANCH   1  26
HETATM   26  C6  UNL     1      -0.793  51.138 -23.260  1.00  0.00     0.038 C 
BRANCH  26  27
HETATM   27  C5  UNL     1      -0.039  52.108 -22.387  1.00  0.00    -0.019 C 
HETATM   28  C3  UNL     1       0.638  53.221 -22.743  1.00  0.00    -0.067 C 
HETATM   29  C4  UNL     1       0.750  53.731 -24.156  1.00  0.00     0.048 C 
BRANCH  28  30
HETATM   30  C2  UNL     1       1.300  53.990 -21.690  1.00  0.00    -0.004 C 
HETATM   31  C1  UNL     1       1.068  53.908 -20.373  1.00  0.00     0.012 C 
ENDBRANCH  28  30
ENDBRANCH  26  27
ENDBRANCH   1  26
TORSDOF 6
ENDMDL
MODEL 9
REMARK minimizedAffinity -8.47050285
REMARK CNNscore 0.238657594
REMARK CNNaffinity 6.78234816
REMARK  6 active torsions:
REMARK  status: ('A' for Active; 'I' for Inactive)
REMARK    1  A    between atoms: C2_2  and  C3_3 
REMARK    2  A    between atoms: C5_5  and  C6_6 
REMARK    3  A    between atoms: C6_6  and  C7_7 
REMARK    4  A    between atoms: C8_8  and  C9_9 
REMARK       I    between atoms: C9_9  and  N1_11 
REMARK    5  A    between atoms: N1_11  and  C10_12 
REMARK    6  A    between atoms: C10_12  and  C12_14 
ROOT
HETATM    1  C7  UNL     1      -2.105  50.240 -22.608  1.00  0.00     0.036 C 
HETATM    2  C8  UNL     1      -1.232  51.253 -21.879  1.00  0.00     0.011 C 
HETATM    3  C18 UNL     1      -1.189  51.404 -20.543  1.00  0.00    -0.013 C 
HETATM    4  C19 UNL     1      -1.994  50.575 -19.600  1.00  0.00     0.034 C 
HETATM    5  C20 UNL     1      -2.547  49.285 -20.246  1.00  0.00     0.005 C 
HETATM    6  C21 UNL     1      -3.405  48.422 -19.234  1.00  0.00    -0.043 C 
HETATM    7  C22 UNL     1      -4.185  49.248 -18.188  1.00  0.00     0.015 C 
HETATM    8  C23 UNL     1      -2.431  47.518 -18.431  1.00  0.00     0.015 C 
HETATM    9  C24 UNL     1      -4.415  47.516 -19.973  1.00  0.00     0.009 C 
HETATM   10  C25 UNL     1      -3.889  47.060 -21.320  1.00  0.00     0.002 C 
HETATM   11  C26 UNL     1      -3.689  48.227 -22.284  1.00  0.00     0.010 C 
HETATM   12  C27 UNL     1      -3.204  49.570 -21.648  1.00  0.00    -0.031 C 
HETATM   13  C28 UNL     1      -4.420  50.519 -21.495  1.00  0.00     0.016 C 
ENDROOT
BRANCH   2  14
HETATM   14  C9  UNL     1      -0.245  52.038 -22.674  1.00  0.00     0.248 C 
HETATM   15  O1  UNL     1       0.939  52.065 -22.364  1.00  0.00    -0.268 OA
HETATM   16  N1  UNL     1      -0.792  52.665 -23.764  1.00  0.00    -0.349 N 
HETATM   17  H11 UNL     1      -1.796  52.646 -23.876  1.00  0.00     0.163 HD
BRANCH  16  18
HETATM   18  C10 UNL     1      -0.047  53.637 -24.545  1.00  0.00     0.114 C 
HETATM   19  C11 UNL     1       1.061  54.251 -23.689  1.00  0.00     0.037 C 
BRANCH  18  20
HETATM   20  C12 UNL     1       0.437  52.976 -25.827  1.00  0.00    -0.036 A 
HETATM   21  C13 UNL     1      -0.100  53.275 -27.088  1.00  0.00     0.009 A 
HETATM   22  C14 UNL     1       0.402  52.661 -28.240  1.00  0.00     0.001 A 
HETATM   23  C15 UNL     1       1.453  51.752 -28.149  1.00  0.00     0.000 A 
HETATM   24  C16 UNL     1       2.008  51.456 -26.908  1.00  0.00     0.001 A 
HETATM   25  C17 UNL     1       1.507  52.067 -25.757  1.00  0.00     0.009 A 
ENDBRANCH  18  20
ENDBRANCH  16  18
ENDBRANCH   2  14
BRANCH   1  26
HETATM   26  C6  UNL     1      -2.674  50.868 -23.926  1.00  0.00     0.038 C 
BRANCH  26  27
HETATM   27  C5  UNL     1      -3.254  49.885 -24.909  1.00  0.00    -0.019 C 
HETATM   28  C3  UNL     1      -2.747  49.460 -26.087  1.00  0.00    -0.067 C 
HETATM   29  C4  UNL     1      -1.423  49.907 -26.651  1.00  0.00     0.048 C 
BRANCH  28  30
HETATM   30  C2  UNL     1      -3.526  48.498 -26.865  1.00  0.00    -0.004 C 
HETATM   31  C1  UNL     1      -4.820  48.194 -26.698  1.00  0.00     0.012 C 
ENDBRANCH  28  30
ENDBRANCH  26  27
ENDBRANCH   1  26
TORSDOF 6
ENDMDL
