MODEL 1
REMARK minimizedAffinity -9.57266998
REMARK  9 active torsions:
REMARK  status: ('A' for Active; 'I' for Inactive)
REMARK    1  A    between atoms: C3_3  and  O1_4 
REMARK    2  A    between atoms: N1_14  and  O2_16 
REMARK    3  A    between atoms: O2_16  and  C13_17 
REMARK    4  A    between atoms: C13_17  and  C14_18 
REMARK       I    between atoms: C14_18  and  N2_20 
REMARK    5  A    between atoms: N2_20  and  C15_21 
REMARK    6  A    between atoms: C15_21  and  C16_22 
REMARK    7  A    between atoms: C15_21  and  C17_25 
REMARK    8  A    between atoms: C16_22  and  O5_24 
REMARK    9  A    between atoms: C17_25  and  C19_27 
ROOT
HETATM    1  C1  UNL     1      -7.980   5.036  15.979  1.00  0.00     0.015 C 
HETATM    2  C2  UNL     1      -7.326   5.685  15.209  1.00  0.00    -0.078 C 
HETATM    3  C3  UNL     1      -6.537   6.476  14.253  1.00  0.00     0.128 C 
HETATM    4  C4  UNL     1      -6.613   7.996  14.534  1.00  0.00     0.052 C 
HETATM    5  C5  UNL     1      -5.242   8.581  14.130  1.00  0.00     0.010 C 
HETATM    6  C6  UNL     1      -4.501   7.415  13.481  1.00  0.00     0.002 C 
HETATM    7  C7  UNL     1      -2.973   7.479  13.377  1.00  0.00    -0.004 C 
HETATM    8  C8  UNL     1      -2.516   8.725  12.605  1.00  0.00     0.010 C 
HETATM    9  C9  UNL     1      -0.999   8.770  12.480  1.00  0.00     0.035 C 
HETATM   10  C10 UNL     1      -0.440   7.512  11.858  1.00  0.00    -0.069 C 
HETATM   11  C11 UNL     1       0.427   7.609  10.834  1.00  0.00     0.030 C 
HETATM   12  C12 UNL     1       1.107   6.419  10.262  1.00  0.00     0.032 C 
HETATM   13  N1  UNL     1       1.899   6.602   9.244  1.00  0.00    -0.271 N 
ATOM     14  H1  UNL     1       2.054   7.503   8.792  1.00  0.00     0.194 HD
HETATM   15  C21 UNL     1       0.882   5.087  10.947  1.00  0.00     0.060 C 
HETATM   16  C22 UNL     1      -0.528   5.008  11.514  1.00  0.00     0.020 C 
HETATM   17  C23 UNL     1      -0.894   6.180  12.469  1.00  0.00    -0.016 C 
HETATM   18  C24 UNL     1      -0.148   5.986  13.809  1.00  0.00     0.020 C 
HETATM   19  C25 UNL     1      -2.459   6.192  12.658  1.00  0.00     0.002 C 
HETATM   20  C26 UNL     1      -3.024   4.901  13.310  1.00  0.00     0.007 C 
HETATM   21  C27 UNL     1      -4.551   4.930  13.501  1.00  0.00     0.014 C 
HETATM   22  C28 UNL     1      -5.009   6.183  14.267  1.00  0.00     0.003 C 
HETATM   23  C29 UNL     1      -4.470   6.123  15.725  1.00  0.00     0.020 C 
ENDROOT
BRANCH   3  24
HETATM   24  O1  UNL     1      -7.069   6.246  12.945  1.00  0.00    -0.377 OA
HETATM   25  H2  UNL     1      -8.029   6.390  13.001  1.00  0.00     0.211 HD
ENDBRANCH   3  24
BRANCH  13  26
HETATM   26  O2  UNL     1       2.511   5.406   8.848  1.00  0.00    -0.271 OA
BRANCH  26  27
HETATM   27  C13 UNL     1       3.568   5.102   9.754  1.00  0.00     0.303 C 
BRANCH  27  28
HETATM   28  C14 UNL     1       4.263   6.378  10.225  1.00  0.00     0.244 C 
HETATM   29  O3  UNL     1       4.379   7.365   9.503  1.00  0.00    -0.271 OA
HETATM   30  N2  UNL     1       4.763   6.322  11.505  1.00  0.00    -0.344 N 
HETATM   31  H16 UNL     1       4.451   5.543  12.081  1.00  0.00     0.163 HD
BRANCH  30  32
HETATM   32  C15 UNL     1       5.369   7.464  12.184  1.00  0.00     0.186 C 
BRANCH  32  33
HETATM   33  C16 UNL     1       6.840   7.531  11.771  1.00  0.00     0.163 C 
HETATM   34  O4  UNL     1       7.776   7.865  12.485  1.00  0.00    -0.648 OA
BRANCH  33  35
HETATM   35  O5  UNL     1       7.056   7.158  10.494  1.00  0.00    -0.775 OA
HETATM   36  H18 UNL     1       8.024   7.258  10.374  1.00  0.00     0.167 HD
ENDBRANCH  33  35
ENDBRANCH  32  33
BRANCH  32  37
HETATM   37  C17 UNL     1       4.641   8.804  11.922  1.00  0.00     0.014 C 
HETATM   38  C18 UNL     1       5.633   9.944  11.667  1.00  0.00     0.012 C 
BRANCH  37  39
HETATM   39  C19 UNL     1       3.567   9.202  12.961  1.00  0.00     0.002 C 
HETATM   40  C20 UNL     1       3.403  10.687  13.248  1.00  0.00     0.005 C 
ENDBRANCH  37  39
ENDBRANCH  32  37
ENDBRANCH  30  32
ENDBRANCH  27  28
ENDBRANCH  26  27
ENDBRANCH  13  26
TORSDOF 9
ENDMDL
MODEL 2
REMARK minimizedAffinity -9.34424305
REMARK  9 active torsions:
REMARK  status: ('A' for Active; 'I' for Inactive)
REMARK    1  A    between atoms: C3_3  and  O1_4 
REMARK    2  A    between atoms: N1_14  and  O2_16 
REMARK    3  A    between atoms: O2_16  and  C13_17 
REMARK    4  A    between atoms: C13_17  and  C14_18 
REMARK       I    between atoms: C14_18  and  N2_20 
REMARK    5  A    between atoms: N2_20  and  C15_21 
REMARK    6  A    between atoms: C15_21  and  C16_22 
REMARK    7  A    between atoms: C15_21  and  C17_25 
REMARK    8  A    between atoms: C16_22  and  O5_24 
REMARK    9  A    between atoms: C17_25  and  C19_27 
ROOT
HETATM    1  C1  UNL     1       3.958   8.484  11.517  1.00  0.00     0.015 C 
HETATM    2  C2  UNL     1       3.005   7.803  11.252  1.00  0.00    -0.078 C 
HETATM    3  C3  UNL     1       1.835   6.978  10.912  1.00  0.00     0.128 C 
HETATM    4  C4  UNL     1       2.211   5.502  10.636  1.00  0.00     0.052 C 
HETATM    5  C5  UNL     1       1.017   4.652  11.123  1.00  0.00     0.010 C 
HETATM    6  C6  UNL     1      -0.055   5.672  11.499  1.00  0.00     0.002 C 
HETATM    7  C7  UNL     1      -1.185   5.241  12.442  1.00  0.00    -0.004 C 
HETATM    8  C8  UNL     1      -1.954   4.038  11.879  1.00  0.00     0.010 C 
HETATM    9  C9  UNL     1      -3.093   3.631  12.804  1.00  0.00     0.035 C 
HETATM   10  C10 UNL     1      -4.026   4.781  13.101  1.00  0.00    -0.069 C 
HETATM   11  C11 UNL     1      -5.353   4.611  12.959  1.00  0.00     0.030 C 
HETATM   12  C12 UNL     1      -6.329   5.658  13.353  1.00  0.00     0.032 C 
HETATM   13  N1  UNL     1      -7.593   5.424  13.140  1.00  0.00    -0.271 N 
ATOM     14  H1  UNL     1      -7.952   4.583  12.687  1.00  0.00     0.194 HD
HETATM   15  C21 UNL     1      -5.788   6.898  14.037  1.00  0.00     0.060 C 
HETATM   16  C22 UNL     1      -4.411   7.250  13.495  1.00  0.00     0.020 C 
HETATM   17  C23 UNL     1      -3.380   6.088  13.580  1.00  0.00    -0.016 C 
HETATM   18  C24 UNL     1      -2.954   5.902  15.054  1.00  0.00     0.020 C 
HETATM   19  C25 UNL     1      -2.158   6.444  12.651  1.00  0.00     0.002 C 
HETATM   20  C26 UNL     1      -1.402   7.733  13.071  1.00  0.00     0.007 C 
HETATM   21  C27 UNL     1      -0.204   8.063  12.163  1.00  0.00     0.014 C 
HETATM   22  C28 UNL     1       0.762   6.873  12.034  1.00  0.00     0.003 C 
HETATM   23  C29 UNL     1       1.427   6.594  13.413  1.00  0.00     0.020 C 
ENDROOT
BRANCH   3  24
HETATM   24  O1  UNL     1       1.250   7.511   9.721  1.00  0.00    -0.377 OA
HETATM   25  H2  UNL     1       1.968   7.607   9.072  1.00  0.00     0.211 HD
ENDBRANCH   3  24
BRANCH  13  26
HETATM   26  O2  UNL     1      -8.395   6.470  13.611  1.00  0.00    -0.271 OA
BRANCH  26  27
HETATM   27  C13 UNL     1      -9.718   6.305  13.105  1.00  0.00     0.303 C 
BRANCH  27  28
HETATM   28  C14 UNL     1     -10.696   7.225  13.832  1.00  0.00     0.244 C 
HETATM   29  O3  UNL     1     -10.586   7.484  15.027  1.00  0.00    -0.271 OA
HETATM   30  N2  UNL     1     -11.714   7.717  13.048  1.00  0.00    -0.344 N 
HETATM   31  H16 UNL     1     -11.608   7.602  12.042  1.00  0.00     0.163 HD
BRANCH  30  32
HETATM   32  C15 UNL     1     -12.692   8.693  13.518  1.00  0.00     0.186 C 
BRANCH  32  33
HETATM   33  C16 UNL     1     -12.806   9.793  12.460  1.00  0.00     0.163 C 
HETATM   34  O4  UNL     1     -13.605  10.719  12.465  1.00  0.00    -0.648 OA
BRANCH  33  35
HETATM   35  O5  UNL     1     -11.900   9.678  11.468  1.00  0.00    -0.775 OA
HETATM   36  H18 UNL     1     -12.097  10.432  10.874  1.00  0.00     0.167 HD
ENDBRANCH  33  35
ENDBRANCH  32  33
BRANCH  32  37
HETATM   37  C17 UNL     1     -14.072   8.082  13.855  1.00  0.00     0.014 C 
HETATM   38  C18 UNL     1     -14.135   7.596  15.307  1.00  0.00     0.012 C 
BRANCH  37  39
HETATM   39  C19 UNL     1     -14.594   7.008  12.871  1.00  0.00     0.002 C 
HETATM   40  C20 UNL     1     -15.686   7.434  11.902  1.00  0.00     0.005 C 
ENDBRANCH  37  39
ENDBRANCH  32  37
ENDBRANCH  30  32
ENDBRANCH  27  28
ENDBRANCH  26  27
ENDBRANCH  13  26
TORSDOF 9
ENDMDL
MODEL 3
REMARK minimizedAffinity -9.32293701
REMARK  9 active torsions:
REMARK  status: ('A' for Active; 'I' for Inactive)
REMARK    1  A    between atoms: C3_3  and  O1_4 
REMARK    2  A    between atoms: N1_14  and  O2_16 
REMARK    3  A    between atoms: O2_16  and  C13_17 
REMARK    4  A    between atoms: C13_17  and  C14_18 
REMARK       I    between atoms: C14_18  and  N2_20 
REMARK    5  A    between atoms: N2_20  and  C15_21 
REMARK    6  A    between atoms: C15_21  and  C16_22 
REMARK    7  A    between atoms: C15_21  and  C17_25 
REMARK    8  A    between atoms: C16_22  and  O5_24 
REMARK    9  A    between atoms: C17_25  and  C19_27 
ROOT
HETATM    1  C1  UNL     1       2.688   8.767  11.980  1.00  0.00     0.015 C 
HETATM    2  C2  UNL     1       1.745   8.089  11.676  1.00  0.00    -0.078 C 
HETATM    3  C3  UNL     1       0.588   7.270  11.287  1.00  0.00     0.128 C 
HETATM    4  C4  UNL     1       0.976   5.803  10.980  1.00  0.00     0.052 C 
HETATM    5  C5  UNL     1      -0.225   4.935  11.417  1.00  0.00     0.010 C 
HETATM    6  C6  UNL     1      -1.309   5.940  11.795  1.00  0.00     0.002 C 
HETATM    7  C7  UNL     1      -2.459   5.479  12.699  1.00  0.00    -0.004 C 
HETATM    8  C8  UNL     1      -3.209   4.289  12.086  1.00  0.00     0.010 C 
HETATM    9  C9  UNL     1      -4.367   3.852  12.975  1.00  0.00     0.035 C 
HETATM   10  C10 UNL     1      -5.312   4.990  13.281  1.00  0.00    -0.069 C 
HETATM   11  C11 UNL     1      -6.634   4.818  13.103  1.00  0.00     0.030 C 
HETATM   12  C12 UNL     1      -7.624   5.850  13.502  1.00  0.00     0.032 C 
HETATM   13  N1  UNL     1      -8.881   5.617  13.254  1.00  0.00    -0.271 N 
ATOM     14  H1  UNL     1      -9.226   4.788  12.771  1.00  0.00     0.194 HD
HETATM   15  C21 UNL     1      -7.105   7.073  14.232  1.00  0.00     0.060 C 
HETATM   16  C22 UNL     1      -5.717   7.446  13.732  1.00  0.00     0.020 C 
HETATM   17  C23 UNL     1      -4.683   6.286  13.809  1.00  0.00    -0.016 C 
HETATM   18  C24 UNL     1      -4.290   6.063  15.287  1.00  0.00     0.020 C 
HETATM   19  C25 UNL     1      -3.442   6.672  12.918  1.00  0.00     0.002 C 
HETATM   20  C26 UNL     1      -2.702   7.953  13.389  1.00  0.00     0.007 C 
HETATM   21  C27 UNL     1      -1.485   8.312  12.519  1.00  0.00     0.014 C 
HETATM   22  C28 UNL     1      -0.511   7.130  12.380  1.00  0.00     0.003 C 
HETATM   23  C29 UNL     1       0.124   6.817  13.766  1.00  0.00     0.020 C 
ENDROOT
BRANCH   3  24
HETATM   24  O1  UNL     1       0.028   7.832  10.097  1.00  0.00    -0.377 OA
HETATM   25  H2  UNL     1       0.760   7.948   9.467  1.00  0.00     0.211 HD
ENDBRANCH   3  24
BRANCH  13  26
HETATM   26  O2  UNL     1      -9.700   6.646  13.734  1.00  0.00    -0.271 OA
BRANCH  26  27
HETATM   27  C13 UNL     1     -10.678   6.962  12.746  1.00  0.00     0.303 C 
BRANCH  27  28
HETATM   28  C14 UNL     1     -11.920   7.574  13.389  1.00  0.00     0.244 C 
HETATM   29  O3  UNL     1     -11.850   8.459  14.238  1.00  0.00    -0.271 OA
HETATM   30  N2  UNL     1     -13.113   7.042  12.957  1.00  0.00    -0.344 N 
HETATM   31  H16 UNL     1     -13.075   6.460  12.123  1.00  0.00     0.163 HD
BRANCH  30  32
HETATM   32  C15 UNL     1     -14.418   7.554  13.364  1.00  0.00     0.186 C 
BRANCH  32  33
HETATM   33  C16 UNL     1     -15.268   7.732  12.105  1.00  0.00     0.163 C 
HETATM   34  O4  UNL     1     -15.840   6.843  11.489  1.00  0.00    -0.648 OA
BRANCH  33  35
HETATM   35  O5  UNL     1     -15.368   9.015  11.703  1.00  0.00    -0.775 OA
HETATM   36  H18 UNL     1     -15.924   8.971  10.897  1.00  0.00     0.167 HD
ENDBRANCH  33  35
ENDBRANCH  32  33
BRANCH  32  37
HETATM   37  C17 UNL     1     -15.134   6.674  14.416  1.00  0.00     0.014 C 
HETATM   38  C18 UNL     1     -15.253   7.392  15.765  1.00  0.00     0.012 C 
BRANCH  37  39
HETATM   39  C19 UNL     1     -14.585   5.238  14.580  1.00  0.00     0.002 C 
HETATM   40  C20 UNL     1     -15.601   4.139  14.858  1.00  0.00     0.005 C 
ENDBRANCH  37  39
ENDBRANCH  32  37
ENDBRANCH  30  32
ENDBRANCH  27  28
ENDBRANCH  26  27
ENDBRANCH  13  26
TORSDOF 9
ENDMDL
MODEL 4
REMARK minimizedAffinity -9.32100773
REMARK  9 active torsions:
REMARK  status: ('A' for Active; 'I' for Inactive)
REMARK    1  A    between atoms: C3_3  and  O1_4 
REMARK    2  A    between atoms: N1_14  and  O2_16 
REMARK    3  A    between atoms: O2_16  and  C13_17 
REMARK    4  A    between atoms: C13_17  and  C14_18 
REMARK       I    between atoms: C14_18  and  N2_20 
REMARK    5  A    between atoms: N2_20  and  C15_21 
REMARK    6  A    between atoms: C15_21  and  C16_22 
REMARK    7  A    between atoms: C15_21  and  C17_25 
REMARK    8  A    between atoms: C16_22  and  O5_24 
REMARK    9  A    between atoms: C17_25  and  C19_27 
ROOT
HETATM    1  C1  UNL     1     -14.544   7.975  12.519  1.00  0.00     0.015 C 
HETATM    2  C2  UNL     1     -13.464   8.268  12.954  1.00  0.00    -0.078 C 
HETATM    3  C3  UNL     1     -12.140   8.641  13.474  1.00  0.00     0.128 C 
HETATM    4  C4  UNL     1     -12.215   9.298  14.874  1.00  0.00     0.052 C 
HETATM    5  C5  UNL     1     -10.931   8.876  15.621  1.00  0.00     0.010 C 
HETATM    6  C6  UNL     1     -10.099   8.141  14.574  1.00  0.00     0.002 C 
HETATM    7  C7  UNL     1      -8.992   7.190  15.046  1.00  0.00    -0.004 C 
HETATM    8  C8  UNL     1      -7.972   7.917  15.933  1.00  0.00     0.010 C 
HETATM    9  C9  UNL     1      -6.860   6.975  16.377  1.00  0.00     0.035 C 
HETATM   10  C10 UNL     1      -6.180   6.304  15.207  1.00  0.00    -0.069 C 
HETATM   11  C11 UNL     1      -4.837   6.314  15.126  1.00  0.00     0.030 C 
HETATM   12  C12 UNL     1      -4.105   5.568  14.073  1.00  0.00     0.032 C 
HETATM   13  N1  UNL     1      -2.806   5.668  14.045  1.00  0.00    -0.271 N 
ATOM     14  H1  UNL     1      -2.263   6.256  14.678  1.00  0.00     0.194 HD
HETATM   15  C21 UNL     1      -4.918   4.688  13.144  1.00  0.00     0.060 C 
HETATM   16  C22 UNL     1      -6.286   5.301  12.887  1.00  0.00     0.020 C 
HETATM   17  C23 UNL     1      -7.091   5.619  14.180  1.00  0.00    -0.016 C 
HETATM   18  C24 UNL     1      -7.598   4.294  14.793  1.00  0.00     0.020 C 
HETATM   19  C25 UNL     1      -8.276   6.587  13.797  1.00  0.00     0.002 C 
HETATM   20  C26 UNL     1      -9.286   5.977  12.789  1.00  0.00     0.007 C 
HETATM   21  C27 UNL     1     -10.444   6.926  12.433  1.00  0.00     0.014 C 
HETATM   22  C28 UNL     1     -11.162   7.449  13.688  1.00  0.00     0.003 C 
HETATM   23  C29 UNL     1     -11.879   6.268  14.404  1.00  0.00     0.020 C 
ENDROOT
BRANCH   3  24
HETATM   24  O1  UNL     1     -11.564   9.592  12.575  1.00  0.00    -0.377 OA
HETATM   25  H2  UNL     1     -12.230  10.286  12.432  1.00  0.00     0.211 HD
ENDBRANCH   3  24
BRANCH  13  26
HETATM   26  O2  UNL     1      -2.250   4.870  13.039  1.00  0.00    -0.271 OA
BRANCH  26  27
HETATM   27  C13 UNL     1      -0.844   5.100  12.987  1.00  0.00     0.303 C 
BRANCH  27  28
HETATM   28  C14 UNL     1      -0.383   5.322  11.549  1.00  0.00     0.244 C 
HETATM   29  O3  UNL     1      -0.441   4.437  10.698  1.00  0.00    -0.271 OA
HETATM   30  N2  UNL     1       0.121   6.576  11.293  1.00  0.00    -0.344 N 
HETATM   31  H16 UNL     1      -0.051   7.287  12.001  1.00  0.00     0.163 HD
BRANCH  30  32
HETATM   32  C15 UNL     1       0.518   7.029   9.963  1.00  0.00     0.186 C 
BRANCH  32  33
HETATM   33  C16 UNL     1      -0.083   8.418   9.739  1.00  0.00     0.163 C 
HETATM   34  O4  UNL     1      -0.606   8.820   8.710  1.00  0.00    -0.648 OA
BRANCH  33  35
HETATM   35  O5  UNL     1      -0.009   9.215  10.824  1.00  0.00    -0.775 OA
HETATM   36  H18 UNL     1      -0.418  10.056  10.533  1.00  0.00     0.167 HD
ENDBRANCH  33  35
ENDBRANCH  32  33
BRANCH  32  37
HETATM   37  C17 UNL     1       2.048   7.025   9.733  1.00  0.00     0.014 C 
HETATM   38  C18 UNL     1       2.397   7.236   8.256  1.00  0.00     0.012 C 
BRANCH  37  39
HETATM   39  C19 UNL     1       2.818   5.828  10.337  1.00  0.00     0.002 C 
HETATM   40  C20 UNL     1       4.283   6.054  10.682  1.00  0.00     0.005 C 
ENDBRANCH  37  39
ENDBRANCH  32  37
ENDBRANCH  30  32
ENDBRANCH  27  28
ENDBRANCH  26  27
ENDBRANCH  13  26
TORSDOF 9
ENDMDL
MODEL 5
REMARK minimizedAffinity -9.2015028
REMARK  9 active torsions:
REMARK  status: ('A' for Active; 'I' for Inactive)
REMARK    1  A    between atoms: C3_3  and  O1_4 
REMARK    2  A    between atoms: N1_14  and  O2_16 
REMARK    3  A    between atoms: O2_16  and  C13_17 
REMARK    4  A    between atoms: C13_17  and  C14_18 
REMARK       I    between atoms: C14_18  and  N2_20 
REMARK    5  A    between atoms: N2_20  and  C15_21 
REMARK    6  A    between atoms: C15_21  and  C16_22 
REMARK    7  A    between atoms: C15_21  and  C17_25 
REMARK    8  A    between atoms: C16_22  and  O5_24 
REMARK    9  A    between atoms: C17_25  and  C19_27 
ROOT
HETATM    1  C1  UNL     1      -9.901   7.034  14.994  1.00  0.00     0.015 C 
HETATM    2  C2  UNL     1      -8.877   6.411  14.926  1.00  0.00    -0.078 C 
HETATM    3  C3  UNL     1      -7.625   5.642  14.862  1.00  0.00     0.128 C 
HETATM    4  C4  UNL     1      -7.704   4.464  13.860  1.00  0.00     0.052 C 
HETATM    5  C5  UNL     1      -6.288   4.308  13.263  1.00  0.00     0.010 C 
HETATM    6  C6  UNL     1      -5.423   5.279  14.061  1.00  0.00     0.002 C 
HETATM    7  C7  UNL     1      -4.087   5.739  13.464  1.00  0.00    -0.004 C 
HETATM    8  C8  UNL     1      -3.173   4.546  13.155  1.00  0.00     0.010 C 
HETATM    9  C9  UNL     1      -1.837   5.009  12.588  1.00  0.00     0.035 C 
HETATM   10  C10 UNL     1      -1.146   6.002  13.493  1.00  0.00    -0.069 C 
HETATM   11  C11 UNL     1       0.144   5.812  13.823  1.00  0.00     0.030 C 
HETATM   12  C12 UNL     1       0.914   6.813  14.604  1.00  0.00     0.032 C 
HETATM   13  N1  UNL     1       2.146   6.526  14.914  1.00  0.00    -0.271 N 
ATOM     14  H1  UNL     1       2.604   5.644  14.687  1.00  0.00     0.194 HD
HETATM   15  C21 UNL     1       0.231   8.127  14.926  1.00  0.00     0.060 C 
HETATM   16  C22 UNL     1      -1.260   7.915  15.145  1.00  0.00     0.020 C 
HETATM   17  C23 UNL     1      -1.979   7.202  13.964  1.00  0.00    -0.016 C 
HETATM   18  C24 UNL     1      -2.108   8.192  12.784  1.00  0.00     0.020 C 
HETATM   19  C25 UNL     1      -3.385   6.701  14.474  1.00  0.00     0.002 C 
HETATM   20  C26 UNL     1      -4.329   7.842  14.939  1.00  0.00     0.007 C 
HETATM   21  C27 UNL     1      -5.702   7.341  15.422  1.00  0.00     0.014 C 
HETATM   22  C28 UNL     1      -6.387   6.448  14.373  1.00  0.00     0.003 C 
HETATM   23  C29 UNL     1      -6.741   7.300  13.120  1.00  0.00     0.020 C 
ENDROOT
BRANCH   3  24
HETATM   24  O1  UNL     1      -7.375   5.096  16.159  1.00  0.00    -0.377 OA
HETATM   25  H2  UNL     1      -8.192   4.650  16.441  1.00  0.00     0.211 HD
ENDBRANCH   3  24
BRANCH  13  26
HETATM   26  O2  UNL     1       2.763   7.581  15.598  1.00  0.00    -0.271 OA
BRANCH  26  27
HETATM   27  C13 UNL     1       4.113   7.696  15.156  1.00  0.00     0.303 C 
BRANCH  27  28
HETATM   28  C14 UNL     1       4.175   8.304  13.756  1.00  0.00     0.244 C 
HETATM   29  O3  UNL     1       4.084   9.514  13.563  1.00  0.00    -0.271 OA
HETATM   30  N2  UNL     1       4.318   7.390  12.738  1.00  0.00    -0.344 N 
HETATM   31  H16 UNL     1       4.576   6.444  13.010  1.00  0.00     0.163 HD
BRANCH  30  32
HETATM   32  C15 UNL     1       4.503   7.765  11.339  1.00  0.00     0.186 C 
BRANCH  32  33
HETATM   33  C16 UNL     1       5.688   6.968  10.790  1.00  0.00     0.163 C 
HETATM   34  O4  UNL     1       6.759   7.429  10.422  1.00  0.00    -0.648 OA
BRANCH  33  35
HETATM   35  O5  UNL     1       5.467   5.639  10.752  1.00  0.00    -0.775 OA
HETATM   36  H18 UNL     1       6.294   5.268  10.378  1.00  0.00     0.167 HD
ENDBRANCH  33  35
ENDBRANCH  32  33
BRANCH  32  37
HETATM   37  C17 UNL     1       3.238   7.578  10.469  1.00  0.00     0.014 C 
HETATM   38  C18 UNL     1       2.329   6.476  11.024  1.00  0.00     0.012 C 
BRANCH  37  39
HETATM   39  C19 UNL     1       3.481   7.408   8.952  1.00  0.00     0.002 C 
HETATM   40  C20 UNL     1       2.891   8.469   8.035  1.00  0.00     0.005 C 
ENDBRANCH  37  39
ENDBRANCH  32  37
ENDBRANCH  30  32
ENDBRANCH  27  28
ENDBRANCH  26  27
ENDBRANCH  13  26
TORSDOF 9
ENDMDL
MODEL 6
REMARK minimizedAffinity -9.00411129
REMARK  9 active torsions:
REMARK  status: ('A' for Active; 'I' for Inactive)
REMARK    1  A    between atoms: C3_3  and  O1_4 
REMARK    2  A    between atoms: N1_14  and  O2_16 
REMARK    3  A    between atoms: O2_16  and  C13_17 
REMARK    4  A    between atoms: C13_17  and  C14_18 
REMARK       I    between atoms: C14_18  and  N2_20 
REMARK    5  A    between atoms: N2_20  and  C15_21 
REMARK    6  A    between atoms: C15_21  and  C16_22 
REMARK    7  A    between atoms: C15_21  and  C17_25 
REMARK    8  A    between atoms: C16_22  and  O5_24 
REMARK    9  A    between atoms: C17_25  and  C19_27 
ROOT
HETATM    1  C1  UNL     1      -5.242   9.600  15.912  1.00  0.00     0.015 C 
HETATM    2  C2  UNL     1      -4.498   8.709  15.602  1.00  0.00    -0.078 C 
HETATM    3  C3  UNL     1      -3.581   7.618  15.241  1.00  0.00     0.128 C 
HETATM    4  C4  UNL     1      -4.327   6.310  14.882  1.00  0.00     0.052 C 
HETATM    5  C5  UNL     1      -3.481   5.612  13.795  1.00  0.00     0.010 C 
HETATM    6  C6  UNL     1      -2.211   6.452  13.696  1.00  0.00     0.002 C 
HETATM    7  C7  UNL     1      -1.355   6.349  12.428  1.00  0.00    -0.004 C 
HETATM    8  C8  UNL     1      -0.903   4.904  12.175  1.00  0.00     0.010 C 
HETATM    9  C9  UNL     1      -0.030   4.810  10.930  1.00  0.00     0.035 C 
HETATM   10  C10 UNL     1       1.153   5.747  10.991  1.00  0.00    -0.069 C 
HETATM   11  C11 UNL     1       2.385   5.275  10.726  1.00  0.00     0.030 C 
HETATM   12  C12 UNL     1       3.570   6.166  10.647  1.00  0.00     0.032 C 
HETATM   13  N1  UNL     1       4.731   5.617  10.427  1.00  0.00    -0.271 N 
ATOM     14  H1  UNL     1       4.884   4.612  10.343  1.00  0.00     0.194 HD
HETATM   15  C21 UNL     1       3.334   7.658  10.760  1.00  0.00     0.060 C 
HETATM   16  C22 UNL     1       2.177   7.947  11.706  1.00  0.00     0.020 C 
HETATM   17  C23 UNL     1       0.857   7.212  11.335  1.00  0.00    -0.016 C 
HETATM   18  C24 UNL     1       0.242   7.885  10.087  1.00  0.00     0.020 C 
HETATM   19  C25 UNL     1      -0.109   7.277  12.579  1.00  0.00     0.002 C 
HETATM   20  C26 UNL     1      -0.509   8.719  12.991  1.00  0.00     0.007 C 
HETATM   21  C27 UNL     1      -1.462   8.769  14.199  1.00  0.00     0.014 C 
HETATM   22  C28 UNL     1      -2.706   7.890  13.983  1.00  0.00     0.003 C 
HETATM   23  C29 UNL     1      -3.564   8.482  12.829  1.00  0.00     0.020 C 
ENDROOT
BRANCH   3  24
HETATM   24  O1  UNL     1      -2.747   7.349  16.371  1.00  0.00    -0.377 OA
HETATM   25  H2  UNL     1      -3.335   7.240  17.138  1.00  0.00     0.211 HD
ENDBRANCH   3  24
BRANCH  13  26
HETATM   26  O2  UNL     1       5.743   6.579  10.322  1.00  0.00    -0.271 OA
BRANCH  26  27
HETATM   27  C13 UNL     1       6.694   6.369  11.362  1.00  0.00     0.303 C 
BRANCH  27  28
HETATM   28  C14 UNL     1       7.012   7.680  12.079  1.00  0.00     0.244 C 
HETATM   29  O3  UNL     1       7.065   8.754  11.487  1.00  0.00    -0.271 OA
HETATM   30  N2  UNL     1       7.253   7.554  13.428  1.00  0.00    -0.344 N 
HETATM   31  H16 UNL     1       6.997   6.666  13.854  1.00  0.00     0.163 HD
BRANCH  30  32
HETATM   32  C15 UNL     1       7.471   8.691  14.316  1.00  0.00     0.186 C 
BRANCH  32  33
HETATM   33  C16 UNL     1       6.966   8.306  15.708  1.00  0.00     0.163 C 
HETATM   34  O4  UNL     1       7.511   8.567  16.771  1.00  0.00    -0.648 OA
BRANCH  33  35
HETATM   35  O5  UNL     1       5.799   7.632  15.686  1.00  0.00    -0.775 OA
HETATM   36  H18 UNL     1       5.608   7.450  16.631  1.00  0.00     0.167 HD
ENDBRANCH  33  35
ENDBRANCH  32  33
BRANCH  32  37
HETATM   37  C17 UNL     1       8.939   9.180  14.357  1.00  0.00     0.014 C 
HETATM   38  C18 UNL     1       9.916   8.015  14.552  1.00  0.00     0.012 C 
BRANCH  37  39
HETATM   39  C19 UNL     1       9.235  10.343  15.331  1.00  0.00     0.002 C 
HETATM   40  C20 UNL     1      10.622  10.965  15.261  1.00  0.00     0.005 C 
ENDBRANCH  37  39
ENDBRANCH  32  37
ENDBRANCH  30  32
ENDBRANCH  27  28
ENDBRANCH  26  27
ENDBRANCH  13  26
TORSDOF 9
ENDMDL
MODEL 7
REMARK minimizedAffinity -8.97411537
REMARK  9 active torsions:
REMARK  status: ('A' for Active; 'I' for Inactive)
REMARK    1  A    between atoms: C3_3  and  O1_4 
REMARK    2  A    between atoms: N1_14  and  O2_16 
REMARK    3  A    between atoms: O2_16  and  C13_17 
REMARK    4  A    between atoms: C13_17  and  C14_18 
REMARK       I    between atoms: C14_18  and  N2_20 
REMARK    5  A    between atoms: N2_20  and  C15_21 
REMARK    6  A    between atoms: C15_21  and  C16_22 
REMARK    7  A    between atoms: C15_21  and  C17_25 
REMARK    8  A    between atoms: C16_22  and  O5_24 
REMARK    9  A    between atoms: C17_25  and  C19_27 
ROOT
HETATM    1  C1  UNL     1      -9.873   6.894  15.049  1.00  0.00     0.015 C 
HETATM    2  C2  UNL     1      -8.838   6.301  14.910  1.00  0.00    -0.078 C 
HETATM    3  C3  UNL     1      -7.573   5.566  14.757  1.00  0.00     0.128 C 
HETATM    4  C4  UNL     1      -7.625   4.529  13.609  1.00  0.00     0.052 C 
HETATM    5  C5  UNL     1      -6.203   4.474  13.010  1.00  0.00     0.010 C 
HETATM    6  C6  UNL     1      -5.359   5.345  13.937  1.00  0.00     0.002 C 
HETATM    7  C7  UNL     1      -4.027   5.900  13.418  1.00  0.00    -0.004 C 
HETATM    8  C8  UNL     1      -3.091   4.772  12.964  1.00  0.00     0.010 C 
HETATM    9  C9  UNL     1      -1.759   5.325  12.476  1.00  0.00     0.035 C 
HETATM   10  C10 UNL     1      -1.091   6.202  13.509  1.00  0.00    -0.069 C 
HETATM   11  C11 UNL     1       0.199   5.989  13.824  1.00  0.00     0.030 C 
HETATM   12  C12 UNL     1       0.947   6.891  14.736  1.00  0.00     0.032 C 
HETATM   13  N1  UNL     1       2.182   6.585  15.018  1.00  0.00    -0.271 N 
ATOM     14  H1  UNL     1       2.656   5.746  14.682  1.00  0.00     0.194 HD
HETATM   15  C21 UNL     1       0.240   8.140  15.221  1.00  0.00     0.060 C 
HETATM   16  C22 UNL     1      -1.249   7.879  15.397  1.00  0.00     0.020 C 
HETATM   17  C23 UNL     1      -1.947   7.316  14.126  1.00  0.00    -0.016 C 
HETATM   18  C24 UNL     1      -2.084   8.450  13.085  1.00  0.00     0.020 C 
HETATM   19  C25 UNL     1      -3.348   6.731  14.551  1.00  0.00     0.002 C 
HETATM   20  C26 UNL     1      -4.314   7.786  15.153  1.00  0.00     0.007 C 
HETATM   21  C27 UNL     1      -5.682   7.206  15.554  1.00  0.00     0.014 C 
HETATM   22  C28 UNL     1      -6.345   6.448  14.391  1.00  0.00     0.003 C 
HETATM   23  C29 UNL     1      -6.703   7.452  13.256  1.00  0.00     0.020 C 
ENDROOT
BRANCH   3  24
HETATM   24  O1  UNL     1      -7.324   4.858  15.974  1.00  0.00    -0.377 OA
HETATM   25  H2  UNL     1      -8.135   4.366  16.188  1.00  0.00     0.211 HD
ENDBRANCH   3  24
BRANCH  13  26
HETATM   26  O2  UNL     1       2.776   7.549  15.840  1.00  0.00    -0.271 OA
BRANCH  26  27
HETATM   27  C13 UNL     1       3.496   8.473  15.028  1.00  0.00     0.303 C 
BRANCH  27  28
HETATM   28  C14 UNL     1       4.966   8.073  14.923  1.00  0.00     0.244 C 
HETATM   29  O3  UNL     1       5.720   8.090  15.893  1.00  0.00    -0.271 OA
HETATM   30  N2  UNL     1       5.376   7.717  13.660  1.00  0.00    -0.344 N 
HETATM   31  H16 UNL     1       4.643   7.550  12.974  1.00  0.00     0.163 HD
BRANCH  30  32
HETATM   32  C15 UNL     1       6.709   7.202  13.361  1.00  0.00     0.186 C 
BRANCH  32  33
HETATM   33  C16 UNL     1       6.709   6.701  11.916  1.00  0.00     0.163 C 
HETATM   34  O4  UNL     1       7.314   7.202  10.978  1.00  0.00    -0.648 OA
BRANCH  33  35
HETATM   35  O5  UNL     1       5.964   5.592  11.734  1.00  0.00    -0.775 OA
HETATM   36  H18 UNL     1       6.052   5.398  10.777  1.00  0.00     0.167 HD
ENDBRANCH  33  35
ENDBRANCH  32  33
BRANCH  32  37
HETATM   37  C17 UNL     1       7.843   8.225  13.610  1.00  0.00     0.014 C 
HETATM   38  C18 UNL     1       7.703   9.454  12.706  1.00  0.00     0.012 C 
BRANCH  37  39
HETATM   39  C19 UNL     1       9.282   7.657  13.583  1.00  0.00     0.002 C 
HETATM   40  C20 UNL     1      10.319   8.366  14.440  1.00  0.00     0.005 C 
ENDBRANCH  37  39
ENDBRANCH  32  37
ENDBRANCH  30  32
ENDBRANCH  27  28
ENDBRANCH  26  27
ENDBRANCH  13  26
TORSDOF 9
ENDMDL
MODEL 8
REMARK minimizedAffinity -8.86662483
REMARK  9 active torsions:
REMARK  status: ('A' for Active; 'I' for Inactive)
REMARK    1  A    between atoms: C3_3  and  O1_4 
REMARK    2  A    between atoms: N1_14  and  O2_16 
REMARK    3  A    between atoms: O2_16  and  C13_17 
REMARK    4  A    between atoms: C13_17  and  C14_18 
REMARK       I    between atoms: C14_18  and  N2_20 
REMARK    5  A    between atoms: N2_20  and  C15_21 
REMARK    6  A    between atoms: C15_21  and  C16_22 
REMARK    7  A    between atoms: C15_21  and  C17_25 
REMARK    8  A    between atoms: C16_22  and  O5_24 
REMARK    9  A    between atoms: C17_25  and  C19_27 
ROOT
HETATM    1  C1  UNL     1      -7.661   8.160  15.609  1.00  0.00     0.015 C 
HETATM    2  C2  UNL     1      -6.711   7.482  15.327  1.00  0.00    -0.078 C 
HETATM    3  C3  UNL     1      -5.545   6.646  15.002  1.00  0.00     0.128 C 
HETATM    4  C4  UNL     1      -5.926   5.390  14.180  1.00  0.00     0.052 C 
HETATM    5  C5  UNL     1      -4.734   5.109  13.240  1.00  0.00     0.010 C 
HETATM    6  C6  UNL     1      -3.658   6.101  13.673  1.00  0.00     0.002 C 
HETATM    7  C7  UNL     1      -2.527   6.438  12.693  1.00  0.00    -0.004 C 
HETATM    8  C8  UNL     1      -1.763   5.177  12.267  1.00  0.00     0.010 C 
HETATM    9  C9  UNL     1      -0.624   5.518  11.316  1.00  0.00     0.035 C 
HETATM   10  C10 UNL     1       0.314   6.550  11.896  1.00  0.00    -0.069 C 
HETATM   11  C11 UNL     1       1.640   6.324  11.880  1.00  0.00     0.030 C 
HETATM   12  C12 UNL     1       2.620   7.349  12.319  1.00  0.00     0.032 C 
HETATM   13  N1  UNL     1       3.882   7.027  12.310  1.00  0.00    -0.271 N 
ATOM     14  H1  UNL     1       4.238   6.106  12.056  1.00  0.00     0.194 HD
HETATM   15  C21 UNL     1       2.085   8.719  12.683  1.00  0.00     0.060 C 
HETATM   16  C22 UNL     1       0.708   8.605  13.319  1.00  0.00     0.020 C 
HETATM   17  C23 UNL     1      -0.327   7.828  12.455  1.00  0.00    -0.016 C 
HETATM   18  C24 UNL     1      -0.750   8.715  11.262  1.00  0.00     0.020 C 
HETATM   19  C25 UNL     1      -1.550   7.447  13.374  1.00  0.00     0.002 C 
HETATM   20  C26 UNL     1      -2.300   8.671  13.963  1.00  0.00     0.007 C 
HETATM   21  C27 UNL     1      -3.499   8.287  14.848  1.00  0.00     0.014 C 
HETATM   22  C28 UNL     1      -4.469   7.342  14.118  1.00  0.00     0.003 C 
HETATM   23  C29 UNL     1      -5.132   8.097  12.930  1.00  0.00     0.020 C 
ENDROOT
BRANCH   3  24
HETATM   24  O1  UNL     1      -4.961   6.205  16.230  1.00  0.00    -0.377 OA
HETATM   25  H2  UNL     1      -5.680   5.828  16.766  1.00  0.00     0.211 HD
ENDBRANCH   3  24
BRANCH  13  26
HETATM   26  O2  UNL     1       4.690   8.105  12.693  1.00  0.00    -0.271 OA
BRANCH  26  27
HETATM   27  C13 UNL     1       5.655   7.650  13.639  1.00  0.00     0.303 C 
BRANCH  27  28
HETATM   28  C14 UNL     1       6.827   8.624  13.729  1.00  0.00     0.244 C 
HETATM   29  O3  UNL     1       6.906   9.622  13.017  1.00  0.00    -0.271 OA
HETATM   30  N2  UNL     1       7.790   8.281  14.650  1.00  0.00    -0.344 N 
HETATM   31  H16 UNL     1       7.542   7.553  15.317  1.00  0.00     0.163 HD
BRANCH  30  32
HETATM   32  C15 UNL     1       8.937   9.126  14.968  1.00  0.00     0.186 C 
BRANCH  32  33
HETATM   33  C16 UNL     1       9.431   8.743  16.365  1.00  0.00     0.163 C 
HETATM   34  O4  UNL     1       9.195   7.697  16.952  1.00  0.00    -0.648 OA
BRANCH  33  35
HETATM   35  O5  UNL     1      10.207   9.686  16.935  1.00  0.00    -0.775 OA
HETATM   36  H18 UNL     1      10.437   9.311  17.811  1.00  0.00     0.167 HD
ENDBRANCH  33  35
ENDBRANCH  32  33
BRANCH  32  37
HETATM   37  C17 UNL     1      10.074   9.056  13.922  1.00  0.00     0.014 C 
HETATM   38  C18 UNL     1      10.881   7.760  14.050  1.00  0.00     0.012 C 
BRANCH  37  39
HETATM   39  C19 UNL     1      10.995  10.297  13.843  1.00  0.00     0.002 C 
HETATM   40  C20 UNL     1      12.494  10.047  13.907  1.00  0.00     0.005 C 
ENDBRANCH  37  39
ENDBRANCH  32  37
ENDBRANCH  30  32
ENDBRANCH  27  28
ENDBRANCH  26  27
ENDBRANCH  13  26
TORSDOF 9
ENDMDL
MODEL 9
REMARK minimizedAffinity -8.80889893
REMARK  9 active torsions:
REMARK  status: ('A' for Active; 'I' for Inactive)
REMARK    1  A    between atoms: C3_3  and  O1_4 
REMARK    2  A    between atoms: N1_14  and  O2_16 
REMARK    3  A    between atoms: O2_16  and  C13_17 
REMARK    4  A    between atoms: C13_17  and  C14_18 
REMARK       I    between atoms: C14_18  and  N2_20 
REMARK    5  A    between atoms: N2_20  and  C15_21 
REMARK    6  A    between atoms: C15_21  and  C16_22 
REMARK    7  A    between atoms: C15_21  and  C17_25 
REMARK    8  A    between atoms: C16_22  and  O5_24 
REMARK    9  A    between atoms: C17_25  and  C19_27 
ROOT
HETATM    1  C1  UNL     1       1.708   6.727  13.301  1.00  0.00     0.015 C 
HETATM    2  C2  UNL     1       0.654   6.361  12.857  1.00  0.00    -0.078 C 
HETATM    3  C3  UNL     1      -0.634   5.925  12.298  1.00  0.00     0.128 C 
HETATM    4  C4  UNL     1      -0.618   4.440  11.858  1.00  0.00     0.052 C 
HETATM    5  C5  UNL     1      -2.042   3.898  12.110  1.00  0.00     0.010 C 
HETATM    6  C6  UNL     1      -2.855   5.123  12.519  1.00  0.00     0.002 C 
HETATM    7  C7  UNL     1      -4.169   4.916  13.283  1.00  0.00    -0.004 C 
HETATM    8  C8  UNL     1      -5.142   4.033  12.490  1.00  0.00     0.010 C 
HETATM    9  C9  UNL     1      -6.456   3.852  13.239  1.00  0.00     0.035 C 
HETATM   10  C10 UNL     1      -7.093   5.173  13.602  1.00  0.00    -0.069 C 
HETATM   11  C11 UNL     1      -8.390   5.384  13.313  1.00  0.00     0.030 C 
HETATM   12  C12 UNL     1      -9.106   6.608  13.753  1.00  0.00     0.032 C 
HETATM   13  N1  UNL     1     -10.350   6.748  13.392  1.00  0.00    -0.271 N 
ATOM     14  H1  UNL     1     -10.852   6.090  12.796  1.00  0.00     0.194 HD
HETATM   15  C21 UNL     1      -8.358   7.574  14.648  1.00  0.00     0.060 C 
HETATM   16  C22 UNL     1      -6.878   7.597  14.293  1.00  0.00     0.020 C 
HETATM   17  C23 UNL     1      -6.200   6.197  14.314  1.00  0.00    -0.016 C 
HETATM   18  C24 UNL     1      -6.027   5.746  15.782  1.00  0.00     0.020 C 
HETATM   19  C25 UNL     1      -4.819   6.307  13.562  1.00  0.00     0.002 C 
HETATM   20  C26 UNL     1      -3.817   7.291  14.224  1.00  0.00     0.007 C 
HETATM   21  C27 UNL     1      -2.469   7.380  13.487  1.00  0.00     0.014 C 
HETATM   22  C28 UNL     1      -1.833   5.994  13.288  1.00  0.00     0.003 C 
HETATM   23  C29 UNL     1      -1.443   5.400  14.672  1.00  0.00     0.020 C 
ENDROOT
BRANCH   3  24
HETATM   24  O1  UNL     1      -0.907   6.720  11.141  1.00  0.00    -0.377 OA
HETATM   25  H2  UNL     1      -0.111   6.688  10.582  1.00  0.00     0.211 HD
ENDBRANCH   3  24
BRANCH  13  26
HETATM   26  O2  UNL     1     -10.911   7.916  13.923  1.00  0.00    -0.271 OA
BRANCH  26  27
HETATM   27  C13 UNL     1     -12.068   7.572  14.682  1.00  0.00     0.303 C 
BRANCH  27  28
HETATM   28  C14 UNL     1     -13.294   7.459  13.780  1.00  0.00     0.244 C 
HETATM   29  O3  UNL     1     -13.246   6.932  12.671  1.00  0.00    -0.271 OA
HETATM   30  N2  UNL     1     -14.443   8.011  14.298  1.00  0.00    -0.344 N 
HETATM   31  H16 UNL     1     -14.427   8.247  15.288  1.00  0.00     0.163 HD
BRANCH  30  32
HETATM   32  C15 UNL     1     -15.746   7.919  13.647  1.00  0.00     0.186 C 
BRANCH  32  33
HETATM   33  C16 UNL     1     -15.553   8.227  12.161  1.00  0.00     0.163 C 
HETATM   34  O4  UNL     1     -15.349   9.330  11.673  1.00  0.00    -0.648 OA
BRANCH  33  35
HETATM   35  O5  UNL     1     -15.609   7.132  11.375  1.00  0.00    -0.775 OA
HETATM   36  H18 UNL     1     -15.479   7.480  10.468  1.00  0.00     0.167 HD
ENDBRANCH  33  35
ENDBRANCH  32  33
BRANCH  32  37
HETATM   37  C17 UNL     1     -16.456   6.561  13.860  1.00  0.00     0.014 C 
HETATM   38  C18 UNL     1     -15.663   5.651  14.805  1.00  0.00     0.012 C 
BRANCH  37  39
HETATM   39  C19 UNL     1     -16.885   5.815  12.576  1.00  0.00     0.002 C 
HETATM   40  C20 UNL     1     -18.105   4.911  12.678  1.00  0.00     0.005 C 
ENDBRANCH  37  39
ENDBRANCH  32  37
ENDBRANCH  30  32
ENDBRANCH  27  28
ENDBRANCH  26  27
ENDBRANCH  13  26
TORSDOF 9
ENDMDL
