MODEL 1
REMARK minimizedAffinity -6.06841898
REMARK CNNscore 0.726541162
REMARK CNNaffinity 6.52716208
REMARK  5 active torsions:
REMARK  status: ('A' for Active; 'I' for Inactive)
REMARK    1  A    between atoms: C2_2  and  C4_4 
REMARK    2  A    between atoms: C7_7  and  C8_8 
REMARK    3  A    between atoms: C8_8  and  O2_10 
REMARK    4  A    between atoms: C11_13  and  C12_14 
REMARK    5  A    between atoms: C12_14  and  O4_16 
ROOT
HETATM    1  C4  UNL     1       0.964  52.305 -11.697  1.00  0.00     0.019 C 
HETATM    2  C5  UNL     1       0.414  50.876 -11.581  1.00  0.00     0.011 C 
HETATM    3  C6  UNL     1       1.387  50.077 -12.433  1.00  0.00     0.021 C 
HETATM    4  C7  UNL     1       2.772  50.608 -12.003  1.00  0.00     0.050 C 
HETATM    5  C9  UNL     1       3.221  49.821 -10.754  1.00  0.00     0.022 C 
HETATM    6  C10 UNL     1       4.276  50.521  -9.899  1.00  0.00     0.023 C 
HETATM    7  C11 UNL     1       3.897  51.973  -9.457  1.00  0.00     0.057 C 
HETATM    8  C13 UNL     1       3.554  52.769 -10.761  1.00  0.00     0.011 C 
HETATM    9  C14 UNL     1       3.408  54.278 -10.551  1.00  0.00     0.007 C 
HETATM   10  C15 UNL     1       4.602  54.900  -9.823  1.00  0.00     0.006 C 
HETATM   11  C16 UNL     1       4.872  54.219  -8.467  1.00  0.00     0.003 C 
HETATM   12  C17 UNL     1       5.827  55.045  -7.502  1.00  0.00    -0.035 C 
HETATM   13  C18 UNL     1       7.172  55.434  -8.179  1.00  0.00     0.016 C 
HETATM   14  C19 UNL     1       5.123  56.405  -7.173  1.00  0.00     0.017 C 
HETATM   15  C20 UNL     1       5.594  57.022  -5.869  1.00  0.00     0.080 C 
HETATM   16  C21 UNL     1       5.187  56.141  -4.719  1.00  0.00     0.135 C 
HETATM   17  O5  UNL     1       4.827  56.654  -3.656  1.00  0.00    -0.297 OA
HETATM   18  C22 UNL     1       5.255  54.615  -4.914  1.00  0.00     0.017 C 
HETATM   19  C23 UNL     1       5.890  54.050  -3.618  1.00  0.00     0.023 C 
HETATM   20  C24 UNL     1       3.811  54.104  -4.986  1.00  0.00     0.023 C 
HETATM   21  C25 UNL     1       6.159  54.271  -6.162  1.00  0.00     0.009 C 
HETATM   22  C26 UNL     1       6.393  52.762  -6.402  1.00  0.00     0.007 C 
HETATM   23  C27 UNL     1       5.345  52.054  -7.259  1.00  0.00     0.011 C 
HETATM   24  C28 UNL     1       5.149  52.682  -8.664  1.00  0.00    -0.022 C 
HETATM   25  C29 UNL     1       6.466  52.440  -9.460  1.00  0.00     0.017 C 
HETATM   26  C30 UNL     1       2.528  52.140 -11.757  1.00  0.00     0.018 C 
ENDROOT
BRANCH   4  27
HETATM   27  C8  UNL     1       3.828  50.415 -13.092  1.00  0.00     0.149 C 
HETATM   28  O1  UNL     1       4.798  49.674 -13.025  1.00  0.00    -0.649 OA
BRANCH  27  29
HETATM   29  O2  UNL     1       3.617  51.117 -14.220  1.00  0.00    -0.776 OA
HETATM   30  H11 UNL     1       4.328  50.812 -14.819  1.00  0.00     0.167 HD
ENDBRANCH  27  29
ENDBRANCH   4  27
BRANCH   1  31
HETATM   31  C2  UNL     1       0.248  53.348 -10.866  1.00  0.00    -0.088 C 
HETATM   32  C1  UNL     1       0.500  54.667 -10.920  1.00  0.00     0.014 C 
HETATM   33  C3  UNL     1      -0.677  52.818  -9.796  1.00  0.00     0.043 C 
ENDBRANCH   1  31
BRANCH   7  34
HETATM   34  C12 UNL     1       2.680  51.838  -8.516  1.00  0.00     0.149 C 
HETATM   35  O3  UNL     1       2.048  52.749  -8.003  1.00  0.00    -0.649 OA
BRANCH  34  36
HETATM   36  O4  UNL     1       2.257  50.584  -8.306  1.00  0.00    -0.776 OA
HETATM   37  H16 UNL     1       1.500  50.690  -7.692  1.00  0.00     0.167 HD
ENDBRANCH  34  36
ENDBRANCH   7  34
TORSDOF 5
ENDMDL
MODEL 2
REMARK minimizedAffinity -7.04957104
REMARK CNNscore 0.621254802
REMARK CNNaffinity 5.91563654
REMARK  5 active torsions:
REMARK  status: ('A' for Active; 'I' for Inactive)
REMARK    1  A    between atoms: C2_2  and  C4_4 
REMARK    2  A    between atoms: C7_7  and  C8_8 
REMARK    3  A    between atoms: C8_8  and  O2_10 
REMARK    4  A    between atoms: C11_13  and  C12_14 
REMARK    5  A    between atoms: C12_14  and  O4_16 
ROOT
HETATM    1  C4  UNL     1     -16.746  46.423 -22.047  1.00  0.00     0.019 C 
HETATM    2  C5  UNL     1     -17.675  45.369 -21.427  1.00  0.00     0.011 C 
HETATM    3  C6  UNL     1     -18.952  45.540 -22.230  1.00  0.00     0.021 C 
HETATM    4  C7  UNL     1     -18.457  45.641 -23.690  1.00  0.00     0.050 C 
HETATM    5  C9  UNL     1     -18.303  44.209 -24.244  1.00  0.00     0.022 C 
HETATM    6  C10 UNL     1     -17.363  44.082 -25.441  1.00  0.00     0.023 C 
HETATM    7  C11 UNL     1     -15.936  44.679 -25.214  1.00  0.00     0.057 C 
HETATM    8  C13 UNL     1     -16.132  46.164 -24.759  1.00  0.00     0.011 C 
HETATM    9  C14 UNL     1     -14.842  46.988 -24.737  1.00  0.00     0.007 C 
HETATM   10  C15 UNL     1     -14.061  46.913 -26.051  1.00  0.00     0.006 C 
HETATM   11  C16 UNL     1     -13.734  45.460 -26.448  1.00  0.00     0.003 C 
HETATM   12  C17 UNL     1     -12.615  45.326 -27.569  1.00  0.00    -0.035 C 
HETATM   13  C18 UNL     1     -12.935  46.165 -28.838  1.00  0.00     0.016 C 
HETATM   14  C19 UNL     1     -11.287  45.931 -27.000  1.00  0.00     0.017 C 
HETATM   15  C20 UNL     1     -10.043  45.379 -27.671  1.00  0.00     0.080 C 
HETATM   16  C21 UNL     1      -9.910  43.913 -27.360  1.00  0.00     0.135 C 
HETATM   17  O5  UNL     1      -8.792  43.428 -27.172  1.00  0.00    -0.297 OA
HETATM   18  C22 UNL     1     -11.194  43.064 -27.306  1.00  0.00     0.017 C 
HETATM   19  C23 UNL     1     -10.867  41.752 -28.063  1.00  0.00     0.023 C 
HETATM   20  C24 UNL     1     -11.436  42.703 -25.835  1.00  0.00     0.023 C 
HETATM   21  C25 UNL     1     -12.377  43.828 -28.019  1.00  0.00     0.009 C 
HETATM   22  C26 UNL     1     -13.698  43.032 -28.125  1.00  0.00     0.007 C 
HETATM   23  C27 UNL     1     -14.646  43.156 -26.933  1.00  0.00     0.011 C 
HETATM   24  C28 UNL     1     -15.054  44.616 -26.600  1.00  0.00    -0.022 C 
HETATM   25  C29 UNL     1     -15.923  45.130 -27.787  1.00  0.00     0.017 C 
HETATM   26  C30 UNL     1     -17.113  46.446 -23.577  1.00  0.00     0.018 C 
ENDROOT
BRANCH   4  27
HETATM   27  C8  UNL     1     -19.444  46.393 -24.583  1.00  0.00     0.149 C 
HETATM   28  O1  UNL     1     -20.470  45.932 -25.063  1.00  0.00    -0.649 OA
BRANCH  27  29
HETATM   29  O2  UNL     1     -19.136  47.682 -24.814  1.00  0.00    -0.776 OA
HETATM   30  H11 UNL     1     -19.902  48.016 -25.322  1.00  0.00     0.167 HD
ENDBRANCH  27  29
ENDBRANCH   4  27
BRANCH   1  31
HETATM   31  C2  UNL     1     -15.330  46.441 -21.510  1.00  0.00    -0.088 C 
HETATM   32  C1  UNL     1     -14.433  47.409 -21.763  1.00  0.00     0.014 C 
HETATM   33  C3  UNL     1     -14.881  45.190 -20.794  1.00  0.00     0.043 C 
ENDBRANCH   1  31
BRANCH   7  34
HETATM   34  C12 UNL     1     -15.270  43.815 -24.121  1.00  0.00     0.149 C 
HETATM   35  O3  UNL     1     -14.160  43.976 -23.637  1.00  0.00    -0.649 OA
BRANCH  34  36
HETATM   36  O4  UNL     1     -16.034  42.832 -23.628  1.00  0.00    -0.776 OA
HETATM   37  H16 UNL     1     -15.457  42.393 -22.967  1.00  0.00     0.167 HD
ENDBRANCH  34  36
ENDBRANCH   7  34
TORSDOF 5
ENDMDL
MODEL 3
REMARK minimizedAffinity -7.11487532
REMARK CNNscore 0.580762684
REMARK CNNaffinity 6.41464996
REMARK  5 active torsions:
REMARK  status: ('A' for Active; 'I' for Inactive)
REMARK    1  A    between atoms: C2_2  and  C4_4 
REMARK    2  A    between atoms: C7_7  and  C8_8 
REMARK    3  A    between atoms: C8_8  and  O2_10 
REMARK    4  A    between atoms: C11_13  and  C12_14 
REMARK    5  A    between atoms: C12_14  and  O4_16 
ROOT
HETATM    1  C4  UNL     1       3.368  56.511  -8.709  1.00  0.00     0.019 C 
HETATM    2  C5  UNL     1       4.274  56.207  -7.506  1.00  0.00     0.011 C 
HETATM    3  C6  UNL     1       3.413  56.633  -6.329  1.00  0.00     0.021 C 
HETATM    4  C7  UNL     1       2.025  56.039  -6.656  1.00  0.00     0.050 C 
HETATM    5  C9  UNL     1       1.995  54.582  -6.150  1.00  0.00     0.022 C 
HETATM    6  C10 UNL     1       0.947  53.694  -6.817  1.00  0.00     0.023 C 
HETATM    7  C11 UNL     1       1.011  53.672  -8.379  1.00  0.00     0.057 C 
HETATM    8  C13 UNL     1       0.929  55.160  -8.857  1.00  0.00     0.011 C 
HETATM    9  C14 UNL     1       0.718  55.322 -10.365  1.00  0.00     0.007 C 
HETATM   10  C15 UNL     1      -0.464  54.507 -10.896  1.00  0.00     0.006 C 
HETATM   11  C16 UNL     1      -0.333  53.009 -10.556  1.00  0.00     0.003 C 
HETATM   12  C17 UNL     1      -1.301  52.064 -11.390  1.00  0.00    -0.035 C 
HETATM   13  C18 UNL     1      -2.790  52.502 -11.301  1.00  0.00     0.016 C 
HETATM   14  C19 UNL     1      -0.921  52.201 -12.904  1.00  0.00     0.017 C 
HETATM   15  C20 UNL     1      -1.320  50.993 -13.731  1.00  0.00     0.080 C 
HETATM   16  C21 UNL     1      -0.526  49.794 -13.289  1.00  0.00     0.135 C 
HETATM   17  O5  UNL     1      -0.144  48.972 -14.126  1.00  0.00    -0.297 OA
HETATM   18  C22 UNL     1      -0.235  49.632 -11.785  1.00  0.00     0.017 C 
HETATM   19  C23 UNL     1      -0.491  48.138 -11.462  1.00  0.00     0.023 C 
HETATM   20  C24 UNL     1       1.261  49.901 -11.582  1.00  0.00     0.023 C 
HETATM   21  C25 UNL     1      -1.208  50.549 -10.945  1.00  0.00     0.009 C 
HETATM   22  C26 UNL     1      -1.086  50.396  -9.412  1.00  0.00     0.007 C 
HETATM   23  C27 UNL     1      -0.043  51.284  -8.735  1.00  0.00     0.011 C 
HETATM   24  C28 UNL     1      -0.238  52.801  -8.998  1.00  0.00    -0.022 C 
HETATM   25  C29 UNL     1      -1.561  53.221  -8.288  1.00  0.00     0.017 C 
HETATM   26  C30 UNL     1       1.909  56.193  -8.215  1.00  0.00     0.018 C 
ENDROOT
BRANCH   4  27
HETATM   27  C8  UNL     1       0.894  56.805  -5.969  1.00  0.00     0.149 C 
HETATM   28  O1  UNL     1       0.965  57.368  -4.886  1.00  0.00    -0.649 OA
BRANCH  27  29
HETATM   29  O2  UNL     1      -0.256  56.867  -6.664  1.00  0.00    -0.776 OA
HETATM   30  H11 UNL     1      -0.823  57.451  -6.121  1.00  0.00     0.167 HD
ENDBRANCH  27  29
ENDBRANCH   4  27
BRANCH   1  31
HETATM   31  C2  UNL     1       3.919  56.103 -10.059  1.00  0.00    -0.088 C 
HETATM   32  C1  UNL     1       3.311  56.344 -11.233  1.00  0.00     0.014 C 
HETATM   33  C3  UNL     1       5.143  55.218 -10.032  1.00  0.00     0.043 C 
ENDBRANCH   1  31
BRANCH   7  34
HETATM   34  C12 UNL     1       2.355  53.010  -8.752  1.00  0.00     0.149 C 
HETATM   35  O3  UNL     1       2.559  51.819  -8.928  1.00  0.00    -0.649 OA
BRANCH  34  36
HETATM   36  O4  UNL     1       3.371  53.858  -8.956  1.00  0.00    -0.776 OA
HETATM   37  H16 UNL     1       4.128  53.273  -9.170  1.00  0.00     0.167 HD
ENDBRANCH  34  36
ENDBRANCH   7  34
TORSDOF 5
ENDMDL
MODEL 4
REMARK minimizedAffinity -6.54715633
REMARK CNNscore 0.500570595
REMARK CNNaffinity 5.57055807
REMARK  5 active torsions:
REMARK  status: ('A' for Active; 'I' for Inactive)
REMARK    1  A    between atoms: C2_2  and  C4_4 
REMARK    2  A    between atoms: C7_7  and  C8_8 
REMARK    3  A    between atoms: C8_8  and  O2_10 
REMARK    4  A    between atoms: C11_13  and  C12_14 
REMARK    5  A    between atoms: C12_14  and  O4_16 
ROOT
HETATM    1  C4  UNL     1       7.915  55.616  -4.472  1.00  0.00     0.019 C 
HETATM    2  C5  UNL     1       7.541  55.865  -3.003  1.00  0.00     0.011 C 
HETATM    3  C6  UNL     1       7.529  57.381  -2.917  1.00  0.00     0.021 C 
HETATM    4  C7  UNL     1       6.765  57.815  -4.188  1.00  0.00     0.050 C 
HETATM    5  C9  UNL     1       5.254  57.787  -3.872  1.00  0.00     0.022 C 
HETATM    6  C10 UNL     1       4.346  57.677  -5.094  1.00  0.00     0.023 C 
HETATM    7  C11 UNL     1       4.673  56.478  -6.043  1.00  0.00     0.057 C 
HETATM    8  C13 UNL     1       6.185  56.604  -6.428  1.00  0.00     0.011 C 
HETATM    9  C14 UNL     1       6.624  55.666  -7.556  1.00  0.00     0.007 C 
HETATM   10  C15 UNL     1       5.730  55.759  -8.795  1.00  0.00     0.006 C 
HETATM   11  C16 UNL     1       4.248  55.499  -8.460  1.00  0.00     0.003 C 
HETATM   12  C17 UNL     1       3.336  55.200  -9.727  1.00  0.00    -0.035 C 
HETATM   13  C18 UNL     1       3.450  56.300 -10.820  1.00  0.00     0.016 C 
HETATM   14  C19 UNL     1       3.865  53.890 -10.404  1.00  0.00     0.017 C 
HETATM   15  C20 UNL     1       2.810  53.175 -11.226  1.00  0.00     0.080 C 
HETATM   16  C21 UNL     1       1.720  52.672 -10.319  1.00  0.00     0.135 C 
HETATM   17  O5  UNL     1       1.186  51.584 -10.551  1.00  0.00    -0.297 OA
HETATM   18  C22 UNL     1       1.297  53.558  -9.133  1.00  0.00     0.017 C 
HETATM   19  C23 UNL     1      -0.252  53.522  -9.107  1.00  0.00     0.023 C 
HETATM   20  C24 UNL     1       1.799  52.874  -7.856  1.00  0.00     0.023 C 
HETATM   21  C25 UNL     1       1.808  55.036  -9.355  1.00  0.00     0.009 C 
HETATM   22  C26 UNL     1       1.355  56.050  -8.280  1.00  0.00     0.007 C 
HETATM   23  C27 UNL     1       2.260  56.170  -7.055  1.00  0.00     0.011 C 
HETATM   24  C28 UNL     1       3.732  56.532  -7.389  1.00  0.00    -0.022 C 
HETATM   25  C29 UNL     1       3.727  57.983  -7.957  1.00  0.00     0.017 C 
HETATM   26  C30 UNL     1       7.224  56.779  -5.275  1.00  0.00     0.018 C 
ENDROOT
BRANCH   4  27
HETATM   27  C8  UNL     1       7.132  59.232  -4.626  1.00  0.00     0.149 C 
HETATM   28  O1  UNL     1       6.562  60.258  -4.286  1.00  0.00    -0.649 OA
BRANCH  27  29
HETATM   29  O2  UNL     1       8.204  59.318  -5.436  1.00  0.00    -0.776 OA
HETATM   30  H11 UNL     1       8.337  60.281  -5.543  1.00  0.00     0.167 HD
ENDBRANCH  27  29
ENDBRANCH   4  27
BRANCH   1  31
HETATM   31  C2  UNL     1       7.921  54.166  -4.906  1.00  0.00    -0.088 C 
HETATM   32  C1  UNL     1       7.181  53.670  -5.912  1.00  0.00     0.014 C 
HETATM   33  C3  UNL     1       8.685  53.214  -4.016  1.00  0.00     0.043 C 
ENDBRANCH   1  31
BRANCH   7  34
HETATM   34  C12 UNL     1       4.378  55.193  -5.240  1.00  0.00     0.149 C 
HETATM   35  O3  UNL     1       4.164  55.115  -4.040  1.00  0.00    -0.649 OA
BRANCH  34  36
HETATM   36  O4  UNL     1       4.294  54.072  -5.967  1.00  0.00    -0.776 OA
HETATM   37  H16 UNL     1       4.114  53.373  -5.304  1.00  0.00     0.167 HD
ENDBRANCH  34  36
ENDBRANCH   7  34
TORSDOF 5
ENDMDL
MODEL 5
REMARK minimizedAffinity -6.56802559
REMARK CNNscore 0.478975058
REMARK CNNaffinity 5.96749163
REMARK  5 active torsions:
REMARK  status: ('A' for Active; 'I' for Inactive)
REMARK    1  A    between atoms: C2_2  and  C4_4 
REMARK    2  A    between atoms: C7_7  and  C8_8 
REMARK    3  A    between atoms: C8_8  and  O2_10 
REMARK    4  A    between atoms: C11_13  and  C12_14 
REMARK    5  A    between atoms: C12_14  and  O4_16 
ROOT
HETATM    1  C4  UNL     1       5.007  49.005  -7.512  1.00  0.00     0.019 C 
HETATM    2  C5  UNL     1       6.418  48.893  -6.916  1.00  0.00     0.011 C 
HETATM    3  C6  UNL     1       7.300  48.880  -8.153  1.00  0.00     0.021 C 
HETATM    4  C7  UNL     1       6.718  50.011  -9.030  1.00  0.00     0.050 C 
HETATM    5  C9  UNL     1       7.362  51.341  -8.587  1.00  0.00     0.022 C 
HETATM    6  C10 UNL     1       6.567  52.592  -8.956  1.00  0.00     0.023 C 
HETATM    7  C11 UNL     1       5.078  52.582  -8.478  1.00  0.00     0.057 C 
HETATM    8  C13 UNL     1       4.431  51.271  -9.039  1.00  0.00     0.011 C 
HETATM    9  C14 UNL     1       2.908  51.213  -8.891  1.00  0.00     0.007 C 
HETATM   10  C15 UNL     1       2.204  52.455  -9.442  1.00  0.00     0.006 C 
HETATM   11  C16 UNL     1       2.731  53.753  -8.798  1.00  0.00     0.003 C 
HETATM   12  C17 UNL     1       1.801  55.020  -9.028  1.00  0.00    -0.035 C 
HETATM   13  C18 UNL     1       1.480  55.263 -10.531  1.00  0.00     0.016 C 
HETATM   14  C19 UNL     1       0.416  54.731  -8.354  1.00  0.00     0.017 C 
HETATM   15  C20 UNL     1      -0.342  55.992  -7.982  1.00  0.00     0.080 C 
HETATM   16  C21 UNL     1       0.410  56.735  -6.911  1.00  0.00     0.135 C 
HETATM   17  O5  UNL     1      -0.214  57.312  -6.017  1.00  0.00    -0.297 OA
HETATM   18  C22 UNL     1       1.948  56.759  -6.989  1.00  0.00     0.017 C 
HETATM   19  C23 UNL     1       2.365  58.219  -6.679  1.00  0.00     0.023 C 
HETATM   20  C24 UNL     1       2.472  55.875  -5.851  1.00  0.00     0.023 C 
HETATM   21  C25 UNL     1       2.422  56.350  -8.438  1.00  0.00     0.009 C 
HETATM   22  C26 UNL     1       3.947  56.438  -8.675  1.00  0.00     0.007 C 
HETATM   23  C27 UNL     1       4.749  55.190  -8.313  1.00  0.00     0.011 C 
HETATM   24  C28 UNL     1       4.280  53.903  -9.041  1.00  0.00    -0.022 C 
HETATM   25  C29 UNL     1       4.600  54.092 -10.555  1.00  0.00     0.017 C 
HETATM   26  C30 UNL     1       5.170  49.919  -8.783  1.00  0.00     0.018 C 
ENDROOT
BRANCH   4  27
HETATM   27  C8  UNL     1       7.024  49.805 -10.514  1.00  0.00     0.149 C 
HETATM   28  O1  UNL     1       6.220  49.895 -11.430  1.00  0.00    -0.649 OA
BRANCH  27  29
HETATM   29  O2  UNL     1       8.311  49.532 -10.797  1.00  0.00    -0.776 OA
HETATM   30  H11 UNL     1       8.334  49.515 -11.775  1.00  0.00     0.167 HD
ENDBRANCH  27  29
ENDBRANCH   4  27
BRANCH   1  31
HETATM   31  C2  UNL     1       3.884  49.135  -6.506  1.00  0.00    -0.088 C 
HETATM   32  C1  UNL     1       4.039  49.573  -5.245  1.00  0.00     0.014 C 
HETATM   33  C3  UNL     1       2.552  48.560  -6.927  1.00  0.00     0.043 C 
ENDBRANCH   1  31
BRANCH   7  34
HETATM   34  C12 UNL     1       5.116  52.602  -6.934  1.00  0.00     0.149 C 
HETATM   35  O3  UNL     1       4.158  52.533  -6.179  1.00  0.00    -0.649 OA
BRANCH  34  36
HETATM   36  O4  UNL     1       6.340  52.638  -6.394  1.00  0.00    -0.776 OA
HETATM   37  H16 UNL     1       6.172  52.654  -5.428  1.00  0.00     0.167 HD
ENDBRANCH  34  36
ENDBRANCH   7  34
TORSDOF 5
ENDMDL
MODEL 6
REMARK minimizedAffinity -6.32811546
REMARK CNNscore 0.448972315
REMARK CNNaffinity 6.06313658
REMARK  5 active torsions:
REMARK  status: ('A' for Active; 'I' for Inactive)
REMARK    1  A    between atoms: C2_2  and  C4_4 
REMARK    2  A    between atoms: C7_7  and  C8_8 
REMARK    3  A    between atoms: C8_8  and  O2_10 
REMARK    4  A    between atoms: C11_13  and  C12_14 
REMARK    5  A    between atoms: C12_14  and  O4_16 
ROOT
HETATM    1  C4  UNL     1      -1.294  50.723  -8.575  1.00  0.00     0.019 C 
HETATM    2  C5  UNL     1      -0.975  49.238  -8.349  1.00  0.00     0.011 C 
HETATM    3  C6  UNL     1      -0.899  48.696  -9.766  1.00  0.00     0.021 C 
HETATM    4  C7  UNL     1      -0.060  49.753 -10.519  1.00  0.00     0.050 C 
HETATM    5  C9  UNL     1       1.432  49.417 -10.312  1.00  0.00     0.022 C 
HETATM    6  C10 UNL     1       2.388  50.588 -10.525  1.00  0.00     0.023 C 
HETATM    7  C11 UNL     1       2.050  51.865  -9.687  1.00  0.00     0.057 C 
HETATM    8  C13 UNL     1       0.564  52.237 -10.008  1.00  0.00     0.011 C 
HETATM    9  C14 UNL     1       0.134  53.608  -9.479  1.00  0.00     0.007 C 
HETATM   10  C15 UNL     1       1.086  54.734  -9.890  1.00  0.00     0.006 C 
HETATM   11  C16 UNL     1       2.538  54.451  -9.459  1.00  0.00     0.003 C 
HETATM   12  C17 UNL     1       3.491  55.722  -9.504  1.00  0.00    -0.035 C 
HETATM   13  C18 UNL     1       3.475  56.434 -10.887  1.00  0.00     0.016 C 
HETATM   14  C19 UNL     1       2.934  56.780  -8.491  1.00  0.00     0.017 C 
HETATM   15  C20 UNL     1       3.992  57.749  -7.997  1.00  0.00     0.080 C 
HETATM   16  C21 UNL     1       5.018  57.006  -7.185  1.00  0.00     0.135 C 
HETATM   17  O5  UNL     1       5.512  57.541  -6.189  1.00  0.00    -0.297 OA
HETATM   18  C22 UNL     1       5.426  55.595  -7.648  1.00  0.00     0.017 C 
HETATM   19  C23 UNL     1       6.969  55.537  -7.519  1.00  0.00     0.023 C 
HETATM   20  C24 UNL     1       4.837  54.600  -6.640  1.00  0.00     0.023 C 
HETATM   21  C25 UNL     1       4.993  55.373  -9.150  1.00  0.00     0.009 C 
HETATM   22  C26 UNL     1       5.442  54.029  -9.767  1.00  0.00     0.007 C 
HETATM   23  C27 UNL     1       4.489  52.852  -9.562  1.00  0.00     0.011 C 
HETATM   24  C28 UNL     1       3.052  53.104 -10.090  1.00  0.00    -0.022 C 
HETATM   25  C29 UNL     1       3.147  53.205 -11.643  1.00  0.00     0.017 C 
HETATM   26  C30 UNL     1      -0.517  51.116  -9.885  1.00  0.00     0.018 C 
ENDROOT
BRANCH   4  27
HETATM   27  C8  UNL     1      -0.344  49.752 -12.021  1.00  0.00     0.149 C 
HETATM   28  O1  UNL     1      -1.047  50.555 -12.617  1.00  0.00    -0.649 OA
BRANCH  27  29
HETATM   29  O2  UNL     1       0.277  48.783 -12.718  1.00  0.00    -0.776 OA
HETATM   30  H11 UNL     1       0.050  48.985 -13.647  1.00  0.00     0.167 HD
ENDBRANCH  27  29
ENDBRANCH   4  27
BRANCH   1  31
HETATM   31  C2  UNL     1      -1.346  51.576  -7.326  1.00  0.00    -0.088 C 
HETATM   32  C1  UNL     1      -1.594  52.897  -7.316  1.00  0.00     0.014 C 
HETATM   33  C3  UNL     1      -0.912  50.899  -6.047  1.00  0.00     0.043 C 
ENDBRANCH   1  31
BRANCH   7  34
HETATM   34  C12 UNL     1       2.251  51.480  -8.206  1.00  0.00     0.149 C 
HETATM   35  O3  UNL     1       1.414  51.002  -7.455  1.00  0.00    -0.649 OA
BRANCH  34  36
HETATM   36  O4  UNL     1       3.496  51.640  -7.738  1.00  0.00    -0.776 OA
HETATM   37  H16 UNL     1       3.434  51.360  -6.801  1.00  0.00     0.167 HD
ENDBRANCH  34  36
ENDBRANCH   7  34
TORSDOF 5
ENDMDL
MODEL 7
REMARK minimizedAffinity -7.14886141
REMARK CNNscore 0.359450638
REMARK CNNaffinity 5.90532446
REMARK  5 active torsions:
REMARK  status: ('A' for Active; 'I' for Inactive)
REMARK    1  A    between atoms: C2_2  and  C4_4 
REMARK    2  A    between atoms: C7_7  and  C8_8 
REMARK    3  A    between atoms: C8_8  and  O2_10 
REMARK    4  A    between atoms: C11_13  and  C12_14 
REMARK    5  A    between atoms: C12_14  and  O4_16 
ROOT
HETATM    1  C4  UNL     1       4.819  55.044  -8.977  1.00  0.00     0.019 C 
HETATM    2  C5  UNL     1       6.051  54.581  -9.770  1.00  0.00     0.011 C 
HETATM    3  C6  UNL     1       6.630  53.497  -8.878  1.00  0.00     0.021 C 
HETATM    4  C7  UNL     1       5.396  52.669  -8.457  1.00  0.00     0.050 C 
HETATM    5  C9  UNL     1       5.125  51.619  -9.554  1.00  0.00     0.022 C 
HETATM    6  C10 UNL     1       3.699  51.074  -9.582  1.00  0.00     0.023 C 
HETATM    7  C11 UNL     1       2.585  52.168  -9.662  1.00  0.00     0.057 C 
HETATM    8  C13 UNL     1       2.829  53.152  -8.469  1.00  0.00     0.011 C 
HETATM    9  C14 UNL     1       1.686  54.143  -8.232  1.00  0.00     0.007 C 
HETATM   10  C15 UNL     1       0.319  53.465  -8.117  1.00  0.00     0.006 C 
HETATM   11  C16 UNL     1      -0.003  52.599  -9.350  1.00  0.00     0.003 C 
HETATM   12  C17 UNL     1      -1.533  52.187  -9.476  1.00  0.00    -0.035 C 
HETATM   13  C18 UNL     1      -2.077  51.504  -8.189  1.00  0.00     0.016 C 
HETATM   14  C19 UNL     1      -2.375  53.498  -9.633  1.00  0.00     0.017 C 
HETATM   15  C20 UNL     1      -3.707  53.273 -10.323  1.00  0.00     0.080 C 
HETATM   16  C21 UNL     1      -3.472  52.847 -11.747  1.00  0.00     0.135 C 
HETATM   17  O5  UNL     1      -4.229  53.245 -12.636  1.00  0.00    -0.297 OA
HETATM   18  C22 UNL     1      -2.290  51.903 -12.035  1.00  0.00     0.017 C 
HETATM   19  C23 UNL     1      -2.831  50.835 -13.020  1.00  0.00     0.023 C 
HETATM   20  C24 UNL     1      -1.227  52.723 -12.777  1.00  0.00     0.023 C 
HETATM   21  C25 UNL     1      -1.806  51.219 -10.697  1.00  0.00     0.009 C 
HETATM   22  C26 UNL     1      -0.689  50.165 -10.870  1.00  0.00     0.007 C 
HETATM   23  C27 UNL     1       0.741  50.701 -10.839  1.00  0.00     0.011 C 
HETATM   24  C28 UNL     1       1.094  51.487  -9.549  1.00  0.00    -0.022 C 
HETATM   25  C29 UNL     1       1.084  50.464  -8.373  1.00  0.00     0.017 C 
HETATM   26  C30 UNL     1       4.263  53.744  -8.287  1.00  0.00     0.018 C 
ENDROOT
BRANCH   4  27
HETATM   27  C8  UNL     1       5.619  51.931  -7.137  1.00  0.00     0.149 C 
HETATM   28  O1  UNL     1       4.771  51.317  -6.507  1.00  0.00    -0.649 OA
BRANCH  27  29
HETATM   29  O2  UNL     1       6.883  51.958  -6.676  1.00  0.00    -0.776 OA
HETATM   30  H11 UNL     1       6.855  51.380  -5.888  1.00  0.00     0.167 HD
ENDBRANCH  27  29
ENDBRANCH   4  27
BRANCH   1  31
HETATM   31  C2  UNL     1       3.956  56.082  -9.662  1.00  0.00    -0.088 C 
HETATM   32  C1  UNL     1       3.828  56.205 -10.994  1.00  0.00     0.014 C 
HETATM   33  C3  UNL     1       3.356  57.137  -8.764  1.00  0.00     0.043 C 
ENDBRANCH   1  31
BRANCH   7  34
HETATM   34  C12 UNL     1       2.750  52.859 -11.033  1.00  0.00     0.149 C 
HETATM   35  O3  UNL     1       3.557  52.571 -11.904  1.00  0.00    -0.649 OA
BRANCH  34  36
HETATM   36  O4  UNL     1       1.865  53.829 -11.294  1.00  0.00    -0.776 OA
HETATM   37  H16 UNL     1       2.122  54.151 -12.184  1.00  0.00     0.167 HD
ENDBRANCH  34  36
ENDBRANCH   7  34
TORSDOF 5
ENDMDL
MODEL 8
REMARK minimizedAffinity -5.96715832
REMARK CNNscore 0.358569086
REMARK CNNaffinity 5.80566645
REMARK  5 active torsions:
REMARK  status: ('A' for Active; 'I' for Inactive)
REMARK    1  A    between atoms: C2_2  and  C4_4 
REMARK    2  A    between atoms: C7_7  and  C8_8 
REMARK    3  A    between atoms: C8_8  and  O2_10 
REMARK    4  A    between atoms: C11_13  and  C12_14 
REMARK    5  A    between atoms: C12_14  and  O4_16 
ROOT
HETATM    1  C4  UNL     1       0.428  50.015 -10.255  1.00  0.00     0.019 C 
HETATM    2  C5  UNL     1       1.043  49.133 -11.352  1.00  0.00     0.011 C 
HETATM    3  C6  UNL     1       0.610  49.838 -12.626  1.00  0.00     0.021 C 
HETATM    4  C7  UNL     1       0.883  51.329 -12.331  1.00  0.00     0.050 C 
HETATM    5  C9  UNL     1       2.360  51.623 -12.672  1.00  0.00     0.022 C 
HETATM    6  C10 UNL     1       2.943  52.855 -11.984  1.00  0.00     0.023 C 
HETATM    7  C11 UNL     1       2.785  52.868 -10.429  1.00  0.00     0.057 C 
HETATM    8  C13 UNL     1       1.261  52.677 -10.127  1.00  0.00     0.011 C 
HETATM    9  C14 UNL     1       0.878  52.921  -8.664  1.00  0.00     0.007 C 
HETATM   10  C15 UNL     1       1.383  54.263  -8.128  1.00  0.00     0.006 C 
HETATM   11  C16 UNL     1       2.908  54.415  -8.290  1.00  0.00     0.003 C 
HETATM   12  C17 UNL     1       3.542  55.587  -7.424  1.00  0.00    -0.035 C 
HETATM   13  C18 UNL     1       2.843  56.955  -7.664  1.00  0.00     0.016 C 
HETATM   14  C19 UNL     1       3.295  55.258  -5.912  1.00  0.00     0.017 C 
HETATM   15  C20 UNL     1       4.295  55.924  -4.985  1.00  0.00     0.080 C 
HETATM   16  C21 UNL     1       5.668  55.362  -5.236  1.00  0.00     0.135 C 
HETATM   17  O5  UNL     1       6.438  55.188  -4.288  1.00  0.00    -0.297 OA
HETATM   18  C22 UNL     1       6.065  55.040  -6.689  1.00  0.00     0.017 C 
HETATM   19  C23 UNL     1       7.511  55.571  -6.860  1.00  0.00     0.023 C 
HETATM   20  C24 UNL     1       6.112  53.513  -6.816  1.00  0.00     0.023 C 
HETATM   21  C25 UNL     1       5.090  55.774  -7.690  1.00  0.00     0.009 C 
HETATM   22  C26 UNL     1       5.450  55.615  -9.185  1.00  0.00     0.007 C 
HETATM   23  C27 UNL     1       4.867  54.387  -9.882  1.00  0.00     0.011 C 
HETATM   24  C28 UNL     1       3.320  54.291  -9.805  1.00  0.00    -0.022 C 
HETATM   25  C29 UNL     1       2.747  55.471 -10.647  1.00  0.00     0.017 C 
HETATM   26  C30 UNL     1       0.521  51.484 -10.811  1.00  0.00     0.018 C 
ENDROOT
BRANCH   4  27
HETATM   27  C8  UNL     1       0.007  52.254 -13.176  1.00  0.00     0.149 C 
HETATM   28  O1  UNL     1      -1.159  52.541 -12.948  1.00  0.00    -0.649 OA
BRANCH  27  29
HETATM   29  O2  UNL     1       0.620  52.805 -14.239  1.00  0.00    -0.776 OA
HETATM   30  H11 UNL     1      -0.052  53.415 -14.604  1.00  0.00     0.167 HD
ENDBRANCH  27  29
ENDBRANCH   4  27
BRANCH   1  31
HETATM   31  C2  UNL     1       0.764  49.618  -8.834  1.00  0.00    -0.088 C 
HETATM   32  C1  UNL     1       0.172  50.129  -7.741  1.00  0.00     0.014 C 
HETATM   33  C3  UNL     1       1.966  48.719  -8.667  1.00  0.00     0.043 C 
ENDBRANCH   1  31
BRANCH   7  34
HETATM   34  C12 UNL     1       3.640  51.699  -9.893  1.00  0.00     0.149 C 
HETATM   35  O3  UNL     1       3.778  51.371  -8.725  1.00  0.00    -0.649 OA
BRANCH  34  36
HETATM   36  O4  UNL     1       4.229  50.947 -10.832  1.00  0.00    -0.776 OA
HETATM   37  H16 UNL     1       4.724  50.274 -10.318  1.00  0.00     0.167 HD
ENDBRANCH  34  36
ENDBRANCH   7  34
TORSDOF 5
ENDMDL
MODEL 9
REMARK minimizedAffinity -5.79968357
REMARK CNNscore 0.309611082
REMARK CNNaffinity 5.21677208
REMARK  5 active torsions:
REMARK  status: ('A' for Active; 'I' for Inactive)
REMARK    1  A    between atoms: C2_2  and  C4_4 
REMARK    2  A    between atoms: C7_7  and  C8_8 
REMARK    3  A    between atoms: C8_8  and  O2_10 
REMARK    4  A    between atoms: C11_13  and  C12_14 
REMARK    5  A    between atoms: C12_14  and  O4_16 
ROOT
HETATM    1  C4  UNL     1     -10.228  45.439 -28.679  1.00  0.00     0.019 C 
HETATM    2  C5  UNL     1      -9.050  44.940 -27.828  1.00  0.00     0.011 C 
HETATM    3  C6  UNL     1      -9.021  45.942 -26.686  1.00  0.00     0.021 C 
HETATM    4  C7  UNL     1     -10.505  46.080 -26.280  1.00  0.00     0.050 C 
HETATM    5  C9  UNL     1     -10.836  44.951 -25.280  1.00  0.00     0.022 C 
HETATM    6  C10 UNL     1     -12.320  44.608 -25.170  1.00  0.00     0.023 C 
HETATM    7  C11 UNL     1     -13.015  44.280 -26.531  1.00  0.00     0.057 C 
HETATM    8  C13 UNL     1     -12.749  45.496 -27.481  1.00  0.00     0.011 C 
HETATM    9  C14 UNL     1     -13.570  45.471 -28.773  1.00  0.00     0.007 C 
HETATM   10  C15 UNL     1     -15.069  45.280 -28.528  1.00  0.00     0.006 C 
HETATM   11  C16 UNL     1     -15.364  44.008 -27.710  1.00  0.00     0.003 C 
HETATM   12  C17 UNL     1     -16.884  43.546 -27.749  1.00  0.00    -0.035 C 
HETATM   13  C18 UNL     1     -17.866  44.681 -27.341  1.00  0.00     0.016 C 
HETATM   14  C19 UNL     1     -17.246  43.202 -29.234  1.00  0.00     0.017 C 
HETATM   15  C20 UNL     1     -18.408  42.233 -29.357  1.00  0.00     0.080 C 
HETATM   16  C21 UNL     1     -18.014  40.899 -28.785  1.00  0.00     0.135 C 
HETATM   17  O5  UNL     1     -18.412  39.862 -29.323  1.00  0.00    -0.297 OA
HETATM   18  C22 UNL     1     -17.131  40.882 -27.523  1.00  0.00     0.017 C 
HETATM   19  C23 UNL     1     -17.743  39.805 -26.592  1.00  0.00     0.023 C 
HETATM   20  C24 UNL     1     -15.742  40.395 -27.949  1.00  0.00     0.023 C 
HETATM   21  C25 UNL     1     -17.167  42.296 -26.821  1.00  0.00     0.009 C 
HETATM   22  C26 UNL     1     -16.403  42.379 -25.480  1.00  0.00     0.007 C 
HETATM   23  C27 UNL     1     -14.918  42.726 -25.581  1.00  0.00     0.011 C 
HETATM   24  C28 UNL     1     -14.630  44.060 -26.318  1.00  0.00    -0.022 C 
HETATM   25  C29 UNL     1     -15.192  45.206 -25.423  1.00  0.00     0.017 C 
HETATM   26  C30 UNL     1     -11.277  45.991 -27.645  1.00  0.00     0.018 C 
ENDROOT
BRANCH   4  27
HETATM   27  C8  UNL     1     -10.795  47.418 -25.600  1.00  0.00     0.149 C 
HETATM   28  O1  UNL     1     -11.345  48.379 -26.117  1.00  0.00    -0.649 OA
BRANCH  27  29
HETATM   29  O2  UNL     1     -10.424  47.493 -24.309  1.00  0.00    -0.776 OA
HETATM   30  H11 UNL     1     -10.754  48.368 -24.023  1.00  0.00     0.167 HD
ENDBRANCH  27  29
ENDBRANCH   4  27
BRANCH   1  31
HETATM   31  C2  UNL     1     -10.579  44.577 -29.873  1.00  0.00    -0.088 C 
HETATM   32  C1  UNL     1     -11.402  44.954 -30.867  1.00  0.00     0.014 C 
HETATM   33  C3  UNL     1     -10.095  43.147 -29.819  1.00  0.00     0.043 C 
ENDBRANCH   1  31
BRANCH   7  34
HETATM   34  C12 UNL     1     -12.367  42.978 -27.050  1.00  0.00     0.149 C 
HETATM   35  O3  UNL     1     -12.646  42.382 -28.079  1.00  0.00    -0.649 OA
BRANCH  34  36
HETATM   36  O4  UNL     1     -11.355  42.510 -26.308  1.00  0.00    -0.776 OA
HETATM   37  H16 UNL     1     -11.078  41.693 -26.774  1.00  0.00     0.167 HD
ENDBRANCH  34  36
ENDBRANCH   7  34
TORSDOF 5
ENDMDL
