MODEL 1
REMARK minimizedAffinity -9.81335163
REMARK  7 active torsions:
REMARK  status: ('A' for Active; 'I' for Inactive)
REMARK    1  A    between atoms: C2_2  and  C30_33 
REMARK    2  A    between atoms: C3_3  and  C4_4 
REMARK    3  A    between atoms: C4_4  and  C5_5 
REMARK    4  A    between atoms: C5_5  and  C6_6 
REMARK    5  A    between atoms: C6_6  and  C8_8 
REMARK    6  A    between atoms: C10_10  and  O1_11 
REMARK    7  A    between atoms: C30_33  and  O5_35 
ROOT
HETATM    1  C8  UNL     1      -1.744   7.146  13.195  1.00  0.00     0.001 C 
HETATM    2  C9  UNL     1      -1.404   7.161  14.707  1.00  0.00     0.038 C 
HETATM    3  C10 UNL     1       0.130   7.344  14.811  1.00  0.00     0.131 C 
HETATM    4  C11 UNL     1       0.579   7.789  13.388  1.00  0.00     0.014 C 
HETATM    5  C12 UNL     1       0.357   9.330  13.259  1.00  0.00     0.023 C 
HETATM    6  C13 UNL     1       2.017   7.564  12.930  1.00  0.00    -0.058 C 
HETATM    7  C14 UNL     1       2.337   7.418  11.619  1.00  0.00    -0.000 C 
HETATM    8  C15 UNL     1       1.191   7.410  10.600  1.00  0.00     0.157 C 
HETATM    9  O2  UNL     1       1.416   7.450   9.390  1.00  0.00    -0.293 OA
HETATM   10  C16 UNL     1      -0.261   7.349  11.067  1.00  0.00     0.094 C 
HETATM   11  C17 UNL     1      -0.365   6.891  12.518  1.00  0.00    -0.019 C 
HETATM   12  C18 UNL     1      -0.008   5.373  12.564  1.00  0.00     0.017 C 
HETATM   13  C19 UNL     1       3.780   7.170  11.101  1.00  0.00    -0.008 C 
HETATM   14  C20 UNL     1       3.736   5.768  10.424  1.00  0.00     0.021 C 
HETATM   15  C21 UNL     1       4.192   8.240  10.043  1.00  0.00     0.022 C 
HETATM   16  C22 UNL     1       5.018   9.389  10.595  1.00  0.00     0.080 C 
HETATM   17  C23 UNL     1       6.320   8.896  11.178  1.00  0.00     0.135 C 
HETATM   18  O3  UNL     1       7.326   9.607  11.141  1.00  0.00    -0.297 OA
HETATM   19  C24 UNL     1       6.335   7.504  11.820  1.00  0.00     0.018 C 
HETATM   20  C25 UNL     1       6.952   6.530  10.800  1.00  0.00     0.023 C 
HETATM   21  C26 UNL     1       7.302   7.534  13.029  1.00  0.00     0.023 C 
HETATM   22  C27 UNL     1       4.872   7.101  12.262  1.00  0.00     0.014 C 
HETATM   23  C28 UNL     1       4.441   7.908  13.508  1.00  0.00     0.011 C 
HETATM   24  C29 UNL     1       3.056   7.547  14.008  1.00  0.00     0.036 C 
ENDROOT
BRANCH   1  25
HETATM   25  C6  UNL     1      -2.962   6.281  12.753  1.00  0.00    -0.013 C 
HETATM   26  C7  UNL     1      -4.259   7.049  13.070  1.00  0.00     0.010 C 
BRANCH  25  27
HETATM   27  C5  UNL     1      -3.040   4.871  13.381  1.00  0.00     0.008 C 
BRANCH  27  28
HETATM   28  C4  UNL     1      -3.733   3.845  12.475  1.00  0.00     0.028 C 
BRANCH  28  29
HETATM   29  C3  UNL     1      -5.213   3.807  12.741  1.00  0.00    -0.013 C 
HETATM   30  C2  UNL     1      -6.109   2.929  12.249  1.00  0.00     0.008 C 
HETATM   31  C1  UNL     1      -5.813   1.821  11.282  1.00  0.00     0.055 C 
BRANCH  30  32
HETATM   32  C30 UNL     1      -7.517   3.101  12.694  1.00  0.00     0.171 C 
HETATM   33  O4  UNL     1      -8.024   4.117  13.134  1.00  0.00    -0.646 OA
BRANCH  32  34
HETATM   34  O5  UNL     1      -8.235   1.973  12.566  1.00  0.00    -0.773 OA
HETATM   35  H44 UNL     1      -9.121   2.228  12.895  1.00  0.00     0.167 HD
ENDBRANCH  32  34
ENDBRANCH  30  32
ENDBRANCH  28  29
ENDBRANCH  27  28
ENDBRANCH  25  27
ENDBRANCH   1  25
BRANCH   3  36
HETATM   36  O1  UNL     1       0.444   8.286  15.827  1.00  0.00    -0.394 OA
HETATM   37  H17 UNL     1       0.052   7.964  16.657  1.00  0.00     0.210 HD
ENDBRANCH   3  36
TORSDOF 7
ENDMDL
MODEL 2
REMARK minimizedAffinity -9.49325752
REMARK  7 active torsions:
REMARK  status: ('A' for Active; 'I' for Inactive)
REMARK    1  A    between atoms: C2_2  and  C30_33 
REMARK    2  A    between atoms: C3_3  and  C4_4 
REMARK    3  A    between atoms: C4_4  and  C5_5 
REMARK    4  A    between atoms: C5_5  and  C6_6 
REMARK    5  A    between atoms: C6_6  and  C8_8 
REMARK    6  A    between atoms: C10_10  and  O1_11 
REMARK    7  A    between atoms: C30_33  and  O5_35 
ROOT
HETATM    1  C8  UNL     1      -1.660   7.724  13.621  1.00  0.00     0.001 C 
HETATM    2  C9  UNL     1      -1.327   7.540  15.123  1.00  0.00     0.038 C 
HETATM    3  C10 UNL     1       0.216   7.593  15.242  1.00  0.00     0.131 C 
HETATM    4  C11 UNL     1       0.704   8.162  13.877  1.00  0.00     0.014 C 
HETATM    5  C12 UNL     1       0.600   9.720  13.927  1.00  0.00     0.023 C 
HETATM    6  C13 UNL     1       2.123   7.883  13.390  1.00  0.00    -0.058 C 
HETATM    7  C14 UNL     1       2.436   7.864  12.070  1.00  0.00    -0.000 C 
HETATM    8  C15 UNL     1       1.298   8.059  11.061  1.00  0.00     0.157 C 
HETATM    9  O2  UNL     1       1.532   8.220   9.863  1.00  0.00    -0.293 OA
HETATM   10  C16 UNL     1      -0.156   8.056  11.524  1.00  0.00     0.094 C 
HETATM   11  C17 UNL     1      -0.302   7.444  12.914  1.00  0.00    -0.019 C 
HETATM   12  C18 UNL     1      -0.061   5.908  12.784  1.00  0.00     0.017 C 
HETATM   13  C19 UNL     1       3.860   7.568  11.521  1.00  0.00    -0.008 C 
HETATM   14  C20 UNL     1       3.712   6.260  10.688  1.00  0.00     0.021 C 
HETATM   15  C21 UNL     1       4.356   8.718  10.590  1.00  0.00     0.022 C 
HETATM   16  C22 UNL     1       5.265   9.730  11.267  1.00  0.00     0.080 C 
HETATM   17  C23 UNL     1       6.522   9.076  11.785  1.00  0.00     0.135 C 
HETATM   18  O3  UNL     1       7.580   9.708  11.825  1.00  0.00    -0.297 OA
HETATM   19  C24 UNL     1       6.429   7.623  12.263  1.00  0.00     0.018 C 
HETATM   20  C25 UNL     1       6.975   6.727  11.136  1.00  0.00     0.023 C 
HETATM   21  C26 UNL     1       7.390   7.441  13.463  1.00  0.00     0.023 C 
HETATM   22  C27 UNL     1       4.937   7.284  12.662  1.00  0.00     0.014 C 
HETATM   23  C28 UNL     1       4.563   7.974  13.994  1.00  0.00     0.011 C 
HETATM   24  C29 UNL     1       3.153   7.664  14.455  1.00  0.00     0.036 C 
ENDROOT
BRANCH   1  25
HETATM   25  C6  UNL     1      -2.939   7.010  13.089  1.00  0.00    -0.013 C 
HETATM   26  C7  UNL     1      -4.098   8.023  13.059  1.00  0.00     0.010 C 
BRANCH  25  27
HETATM   27  C5  UNL     1      -3.378   5.756  13.878  1.00  0.00     0.008 C 
BRANCH  27  28
HETATM   28  C4  UNL     1      -4.812   5.315  13.557  1.00  0.00     0.028 C 
BRANCH  28  29
HETATM   29  C3  UNL     1      -4.818   4.196  12.552  1.00  0.00    -0.013 C 
HETATM   30  C2  UNL     1      -5.830   3.350  12.276  1.00  0.00     0.008 C 
HETATM   31  C1  UNL     1      -7.164   3.325  12.961  1.00  0.00     0.055 C 
BRANCH  30  32
HETATM   32  C30 UNL     1      -5.579   2.342  11.213  1.00  0.00     0.171 C 
HETATM   33  O4  UNL     1      -5.552   1.132  11.347  1.00  0.00    -0.646 OA
BRANCH  32  34
HETATM   34  O5  UNL     1      -5.368   2.908  10.013  1.00  0.00    -0.773 OA
HETATM   35  H44 UNL     1      -5.213   2.141   9.424  1.00  0.00     0.167 HD
ENDBRANCH  32  34
ENDBRANCH  30  32
ENDBRANCH  28  29
ENDBRANCH  27  28
ENDBRANCH  25  27
ENDBRANCH   1  25
BRANCH   3  36
HETATM   36  O1  UNL     1       0.596   8.386  16.357  1.00  0.00    -0.394 OA
HETATM   37  H17 UNL     1       0.176   8.002  17.147  1.00  0.00     0.210 HD
ENDBRANCH   3  36
TORSDOF 7
ENDMDL
MODEL 3
REMARK minimizedAffinity -9.26596451
REMARK  7 active torsions:
REMARK  status: ('A' for Active; 'I' for Inactive)
REMARK    1  A    between atoms: C2_2  and  C30_33 
REMARK    2  A    between atoms: C3_3  and  C4_4 
REMARK    3  A    between atoms: C4_4  and  C5_5 
REMARK    4  A    between atoms: C5_5  and  C6_6 
REMARK    5  A    between atoms: C6_6  and  C8_8 
REMARK    6  A    between atoms: C10_10  and  O1_11 
REMARK    7  A    between atoms: C30_33  and  O5_35 
ROOT
HETATM    1  C8  UNL     1       3.798   8.053  11.282  1.00  0.00     0.001 C 
HETATM    2  C9  UNL     1       3.758   6.717  10.498  1.00  0.00     0.038 C 
HETATM    3  C10 UNL     1       2.346   6.119  10.720  1.00  0.00     0.131 C 
HETATM    4  C11 UNL     1       1.506   7.286  11.316  1.00  0.00     0.014 C 
HETATM    5  C12 UNL     1       0.993   8.176  10.139  1.00  0.00     0.023 C 
HETATM    6  C13 UNL     1       0.261   6.990  12.149  1.00  0.00    -0.058 C 
HETATM    7  C14 UNL     1      -0.184   7.849  13.101  1.00  0.00    -0.000 C 
HETATM    8  C15 UNL     1       0.648   9.108  13.375  1.00  0.00     0.157 C 
HETATM    9  O2  UNL     1       0.220  10.007  14.099  1.00  0.00    -0.293 OA
HETATM   10  C16 UNL     1       2.032   9.271  12.754  1.00  0.00     0.094 C 
HETATM   11  C17 UNL     1       2.582   7.942  12.247  1.00  0.00    -0.019 C 
HETATM   12  C18 UNL     1       2.950   7.075  13.490  1.00  0.00     0.017 C 
HETATM   13  C19 UNL     1      -1.433   7.588  13.987  1.00  0.00    -0.008 C 
HETATM   14  C20 UNL     1      -0.890   7.510  15.445  1.00  0.00     0.021 C 
HETATM   15  C21 UNL     1      -2.455   8.763  13.881  1.00  0.00     0.022 C 
HETATM   16  C22 UNL     1      -3.595   8.521  12.906  1.00  0.00     0.080 C 
HETATM   17  C23 UNL     1      -4.417   7.322  13.311  1.00  0.00     0.135 C 
HETATM   18  O3  UNL     1      -5.624   7.283  13.062  1.00  0.00    -0.297 OA
HETATM   19  C24 UNL     1      -3.700   6.169  14.022  1.00  0.00     0.018 C 
HETATM   20  C25 UNL     1      -3.988   6.302  15.529  1.00  0.00     0.023 C 
HETATM   21  C26 UNL     1      -4.351   4.839  13.574  1.00  0.00     0.023 C 
HETATM   22  C27 UNL     1      -2.158   6.202  13.677  1.00  0.00     0.014 C 
HETATM   23  C28 UNL     1      -1.920   5.739  12.221  1.00  0.00     0.011 C 
HETATM   24  C29 UNL     1      -0.455   5.714  11.831  1.00  0.00     0.036 C 
ENDROOT
BRANCH   1  25
HETATM   25  C6  UNL     1       5.176   8.488  11.866  1.00  0.00    -0.013 C 
HETATM   26  C7  UNL     1       5.809   9.530  10.925  1.00  0.00     0.010 C 
BRANCH  25  27
HETATM   27  C5  UNL     1       6.186   7.344  12.111  1.00  0.00     0.008 C 
BRANCH  27  28
HETATM   28  C4  UNL     1       7.559   7.843  12.578  1.00  0.00     0.028 C 
BRANCH  28  29
HETATM   29  C3  UNL     1       7.619   7.929  14.078  1.00  0.00    -0.013 C 
HETATM   30  C2  UNL     1       8.717   8.072  14.846  1.00  0.00     0.008 C 
HETATM   31  C1  UNL     1      10.132   8.128  14.352  1.00  0.00     0.055 C 
BRANCH  30  32
HETATM   32  C30 UNL     1       8.492   8.155  16.313  1.00  0.00     0.171 C 
HETATM   33  O4  UNL     1       9.329   8.386  17.167  1.00  0.00    -0.646 OA
BRANCH  32  34
HETATM   34  O5  UNL     1       7.209   7.940  16.645  1.00  0.00    -0.773 OA
HETATM   35  H44 UNL     1       7.211   8.018  17.621  1.00  0.00     0.167 HD
ENDBRANCH  32  34
ENDBRANCH  30  32
ENDBRANCH  28  29
ENDBRANCH  27  28
ENDBRANCH  25  27
ENDBRANCH   1  25
BRANCH   3  36
HETATM   36  O1  UNL     1       1.830   5.612   9.498  1.00  0.00    -0.394 OA
HETATM   37  H17 UNL     1       2.463   4.954   9.162  1.00  0.00     0.210 HD
ENDBRANCH   3  36
TORSDOF 7
ENDMDL
MODEL 4
REMARK minimizedAffinity -9.10867023
REMARK  7 active torsions:
REMARK  status: ('A' for Active; 'I' for Inactive)
REMARK    1  A    between atoms: C2_2  and  C30_33 
REMARK    2  A    between atoms: C3_3  and  C4_4 
REMARK    3  A    between atoms: C4_4  and  C5_5 
REMARK    4  A    between atoms: C5_5  and  C6_6 
REMARK    5  A    between atoms: C6_6  and  C8_8 
REMARK    6  A    between atoms: C10_10  and  O1_11 
REMARK    7  A    between atoms: C30_33  and  O5_35 
ROOT
HETATM    1  C8  UNL     1      -1.425   7.165  13.695  1.00  0.00     0.001 C 
HETATM    2  C9  UNL     1      -1.035   7.070  15.192  1.00  0.00     0.038 C 
HETATM    3  C10 UNL     1       0.501   7.259  15.259  1.00  0.00     0.131 C 
HETATM    4  C11 UNL     1       0.899   7.812  13.859  1.00  0.00     0.014 C 
HETATM    5  C12 UNL     1       0.662   9.356  13.853  1.00  0.00     0.023 C 
HETATM    6  C13 UNL     1       2.322   7.635  13.338  1.00  0.00    -0.058 C 
HETATM    7  C14 UNL     1       2.598   7.589  12.010  1.00  0.00    -0.000 C 
HETATM    8  C15 UNL     1       1.420   7.647  11.031  1.00  0.00     0.157 C 
HETATM    9  O2  UNL     1       1.604   7.778   9.821  1.00  0.00    -0.293 OA
HETATM   10  C16 UNL     1      -0.015   7.538  11.540  1.00  0.00     0.094 C 
HETATM   11  C17 UNL     1      -0.068   6.972  12.956  1.00  0.00    -0.019 C 
HETATM   12  C18 UNL     1       0.300   5.459  12.877  1.00  0.00     0.017 C 
HETATM   13  C19 UNL     1       4.026   7.394  11.428  1.00  0.00    -0.008 C 
HETATM   14  C20 UNL     1       3.968   6.045  10.650  1.00  0.00     0.021 C 
HETATM   15  C21 UNL     1       4.394   8.544  10.439  1.00  0.00     0.022 C 
HETATM   16  C22 UNL     1       5.231   9.656  11.048  1.00  0.00     0.080 C 
HETATM   17  C23 UNL     1       6.554   9.133  11.550  1.00  0.00     0.135 C 
HETATM   18  O3  UNL     1       7.555   9.853  11.533  1.00  0.00    -0.297 OA
HETATM   19  C24 UNL     1       6.601   7.697  12.085  1.00  0.00     0.018 C 
HETATM   20  C25 UNL     1       7.189   6.807  10.976  1.00  0.00     0.023 C 
HETATM   21  C26 UNL     1       7.607   7.647  13.260  1.00  0.00     0.023 C 
HETATM   22  C27 UNL     1       5.155   7.249  12.544  1.00  0.00     0.014 C 
HETATM   23  C28 UNL     1       4.762   7.958  13.860  1.00  0.00     0.011 C 
HETATM   24  C29 UNL     1       3.397   7.548  14.377  1.00  0.00     0.036 C 
ENDROOT
BRANCH   1  25
HETATM   25  C6  UNL     1      -2.652   6.324  13.231  1.00  0.00    -0.013 C 
HETATM   26  C7  UNL     1      -3.806   6.535  14.228  1.00  0.00     0.010 C 
BRANCH  25  27
HETATM   27  C5  UNL     1      -2.395   4.809  13.062  1.00  0.00     0.008 C 
BRANCH  27  28
HETATM   28  C4  UNL     1      -2.933   4.251  11.738  1.00  0.00     0.028 C 
BRANCH  28  29
HETATM   29  C3  UNL     1      -1.948   3.300  11.116  1.00  0.00    -0.013 C 
HETATM   30  C2  UNL     1      -2.038   1.956  11.052  1.00  0.00     0.008 C 
HETATM   31  C1  UNL     1      -3.136   1.121  11.639  1.00  0.00     0.055 C 
BRANCH  30  32
HETATM   32  C30 UNL     1      -0.929   1.252  10.355  1.00  0.00     0.171 C 
HETATM   33  O4  UNL     1      -0.919   0.874   9.197  1.00  0.00    -0.646 OA
BRANCH  32  34
HETATM   34  O5  UNL     1       0.129   1.049  11.156  1.00  0.00    -0.773 OA
HETATM   35  H44 UNL     1       0.766   0.580  10.578  1.00  0.00     0.167 HD
ENDBRANCH  32  34
ENDBRANCH  30  32
ENDBRANCH  28  29
ENDBRANCH  27  28
ENDBRANCH  25  27
ENDBRANCH   1  25
BRANCH   3  36
HETATM   36  O1  UNL     1       0.842   8.126  16.331  1.00  0.00    -0.394 OA
HETATM   37  H17 UNL     1       0.480   7.740  17.147  1.00  0.00     0.210 HD
ENDBRANCH   3  36
TORSDOF 7
ENDMDL
MODEL 5
REMARK minimizedAffinity -8.87125111
REMARK  7 active torsions:
REMARK  status: ('A' for Active; 'I' for Inactive)
REMARK    1  A    between atoms: C2_2  and  C30_33 
REMARK    2  A    between atoms: C3_3  and  C4_4 
REMARK    3  A    between atoms: C4_4  and  C5_5 
REMARK    4  A    between atoms: C5_5  and  C6_6 
REMARK    5  A    between atoms: C6_6  and  C8_8 
REMARK    6  A    between atoms: C10_10  and  O1_11 
REMARK    7  A    between atoms: C30_33  and  O5_35 
ROOT
HETATM    1  C8  UNL     1      -2.835   5.572  12.843  1.00  0.00     0.001 C 
HETATM    2  C9  UNL     1      -3.870   5.295  13.962  1.00  0.00     0.038 C 
HETATM    3  C10 UNL     1      -3.602   6.337  15.077  1.00  0.00     0.131 C 
HETATM    4  C11 UNL     1      -2.673   7.398  14.419  1.00  0.00     0.014 C 
HETATM    5  C12 UNL     1      -3.562   8.408  13.625  1.00  0.00     0.023 C 
HETATM    6  C13 UNL     1      -1.770   8.273  15.284  1.00  0.00    -0.058 C 
HETATM    7  C14 UNL     1      -0.611   8.795  14.810  1.00  0.00    -0.000 C 
HETATM    8  C15 UNL     1      -0.186   8.419  13.385  1.00  0.00     0.157 C 
HETATM    9  O2  UNL     1       0.759   8.983  12.834  1.00  0.00    -0.293 OA
HETATM   10  C16 UNL     1      -0.929   7.328  12.618  1.00  0.00     0.094 C 
HETATM   11  C17 UNL     1      -1.768   6.459  13.549  1.00  0.00    -0.019 C 
HETATM   12  C18 UNL     1      -0.792   5.576  14.385  1.00  0.00     0.017 C 
HETATM   13  C19 UNL     1       0.352   9.676  15.653  1.00  0.00    -0.008 C 
HETATM   14  C20 UNL     1       1.681   8.866  15.735  1.00  0.00     0.021 C 
HETATM   15  C21 UNL     1       0.625  11.043  14.953  1.00  0.00     0.022 C 
HETATM   16  C22 UNL     1      -0.226  12.194  15.462  1.00  0.00     0.080 C 
HETATM   17  C23 UNL     1       0.019  12.450  16.928  1.00  0.00     0.135 C 
HETATM   18  O3  UNL     1      -0.079  13.591  17.385  1.00  0.00    -0.297 OA
HETATM   19  C24 UNL     1       0.375  11.252  17.815  1.00  0.00     0.018 C 
HETATM   20  C25 UNL     1       1.900  11.267  18.026  1.00  0.00     0.023 C 
HETATM   21  C26 UNL     1      -0.257  11.471  19.211  1.00  0.00     0.023 C 
HETATM   22  C27 UNL     1      -0.148   9.917  17.148  1.00  0.00     0.014 C 
HETATM   23  C28 UNL     1      -1.687   9.822  17.265  1.00  0.00     0.011 C 
HETATM   24  C29 UNL     1      -2.255   8.546  16.674  1.00  0.00     0.036 C 
ENDROOT
BRANCH   1  25
HETATM   25  C6  UNL     1      -2.352   4.347  12.009  1.00  0.00    -0.013 C 
HETATM   26  C7  UNL     1      -0.981   4.676  11.389  1.00  0.00     0.010 C 
BRANCH  25  27
HETATM   27  C5  UNL     1      -3.315   3.878  10.896  1.00  0.00     0.008 C 
BRANCH  27  28
HETATM   28  C4  UNL     1      -4.389   2.905  11.399  1.00  0.00     0.028 C 
BRANCH  28  29
HETATM   29  C3  UNL     1      -5.643   3.641  11.782  1.00  0.00    -0.013 C 
HETATM   30  C2  UNL     1      -6.776   3.117  12.292  1.00  0.00     0.008 C 
HETATM   31  C1  UNL     1      -7.034   1.661  12.541  1.00  0.00     0.055 C 
BRANCH  30  32
HETATM   32  C30 UNL     1      -7.866   4.077  12.608  1.00  0.00     0.171 C 
HETATM   33  O4  UNL     1      -7.865   5.277  12.398  1.00  0.00    -0.646 OA
BRANCH  32  34
HETATM   34  O5  UNL     1      -8.922   3.479  13.183  1.00  0.00    -0.773 OA
HETATM   35  H44 UNL     1      -9.545   4.218  13.337  1.00  0.00     0.167 HD
ENDBRANCH  32  34
ENDBRANCH  30  32
ENDBRANCH  28  29
ENDBRANCH  27  28
ENDBRANCH  25  27
ENDBRANCH   1  25
BRANCH   3  36
HETATM   36  O1  UNL     1      -4.828   6.871  15.554  1.00  0.00    -0.394 OA
HETATM   37  H17 UNL     1      -5.371   6.127  15.866  1.00  0.00     0.210 HD
ENDBRANCH   3  36
TORSDOF 7
ENDMDL
MODEL 6
REMARK minimizedAffinity -8.79034233
REMARK  7 active torsions:
REMARK  status: ('A' for Active; 'I' for Inactive)
REMARK    1  A    between atoms: C2_2  and  C30_33 
REMARK    2  A    between atoms: C3_3  and  C4_4 
REMARK    3  A    between atoms: C4_4  and  C5_5 
REMARK    4  A    between atoms: C5_5  and  C6_6 
REMARK    5  A    between atoms: C6_6  and  C8_8 
REMARK    6  A    between atoms: C10_10  and  O1_11 
REMARK    7  A    between atoms: C30_33  and  O5_35 
ROOT
HETATM    1  C8  UNL     1      -0.836   6.229  12.012  1.00  0.00     0.001 C 
HETATM    2  C9  UNL     1      -1.579   7.400  12.703  1.00  0.00     0.038 C 
HETATM    3  C10 UNL     1      -0.522   8.504  12.956  1.00  0.00     0.131 C 
HETATM    4  C11 UNL     1       0.703   8.092  12.089  1.00  0.00     0.014 C 
HETATM    5  C12 UNL     1       0.465   8.591  10.628  1.00  0.00     0.023 C 
HETATM    6  C13 UNL     1       2.101   8.590  12.446  1.00  0.00    -0.058 C 
HETATM    7  C14 UNL     1       3.217   7.893  12.113  1.00  0.00    -0.000 C 
HETATM    8  C15 UNL     1       3.034   6.536  11.424  1.00  0.00     0.157 C 
HETATM    9  O2  UNL     1       3.994   5.931  10.946  1.00  0.00    -0.293 OA
HETATM   10  C16 UNL     1       1.650   5.901  11.318  1.00  0.00     0.094 C 
HETATM   11  C17 UNL     1       0.664   6.538  12.292  1.00  0.00    -0.019 C 
HETATM   12  C18 UNL     1       1.055   6.081  13.731  1.00  0.00     0.017 C 
HETATM   13  C19 UNL     1       4.660   8.347  12.468  1.00  0.00    -0.008 C 
HETATM   14  C20 UNL     1       5.216   7.239  13.411  1.00  0.00     0.021 C 
HETATM   15  C21 UNL     1       5.554   8.433  11.192  1.00  0.00     0.022 C 
HETATM   16  C22 UNL     1       5.690   9.830  10.609  1.00  0.00     0.080 C 
HETATM   17  C23 UNL     1       6.327  10.775  11.598  1.00  0.00     0.135 C 
HETATM   18  O3  UNL     1       7.029  11.708  11.202  1.00  0.00    -0.297 OA
HETATM   19  C24 UNL     1       6.058  10.541  13.088  1.00  0.00     0.018 C 
HETATM   20  C25 UNL     1       7.289   9.826  13.675  1.00  0.00     0.023 C 
HETATM   21  C26 UNL     1       5.981  11.917  13.793  1.00  0.00     0.023 C 
HETATM   22  C27 UNL     1       4.717   9.724  13.270  1.00  0.00     0.014 C 
HETATM   23  C28 UNL     1       3.493  10.619  12.969  1.00  0.00     0.011 C 
HETATM   24  C29 UNL     1       2.168   9.907  13.156  1.00  0.00     0.036 C 
ENDROOT
BRANCH   1  25
HETATM   25  C6  UNL     1      -1.366   4.791  12.295  1.00  0.00    -0.013 C 
HETATM   26  C7  UNL     1      -0.397   3.771  11.670  1.00  0.00     0.010 C 
BRANCH  25  27
HETATM   27  C5  UNL     1      -2.801   4.501  11.799  1.00  0.00     0.008 C 
BRANCH  27  28
HETATM   28  C4  UNL     1      -3.859   4.644  12.901  1.00  0.00     0.028 C 
BRANCH  28  29
HETATM   29  C3  UNL     1      -4.973   3.652  12.708  1.00  0.00    -0.013 C 
HETATM   30  C2  UNL     1      -6.298   3.882  12.801  1.00  0.00     0.008 C 
HETATM   31  C1  UNL     1      -6.938   5.187  13.168  1.00  0.00     0.055 C 
BRANCH  30  32
HETATM   32  C30 UNL     1      -7.190   2.722  12.537  1.00  0.00     0.171 C 
HETATM   33  O4  UNL     1      -8.335   2.579  12.928  1.00  0.00    -0.646 OA
BRANCH  32  34
HETATM   34  O5  UNL     1      -6.596   1.781  11.785  1.00  0.00    -0.773 OA
HETATM   35  H44 UNL     1      -7.284   1.090  11.700  1.00  0.00     0.167 HD
ENDBRANCH  32  34
ENDBRANCH  30  32
ENDBRANCH  28  29
ENDBRANCH  27  28
ENDBRANCH  25  27
ENDBRANCH   1  25
BRANCH   3  36
HETATM   36  O1  UNL     1      -1.053   9.778  12.622  1.00  0.00    -0.394 OA
HETATM   37  H17 UNL     1      -1.859   9.908  13.151  1.00  0.00     0.210 HD
ENDBRANCH   3  36
TORSDOF 7
ENDMDL
MODEL 7
REMARK minimizedAffinity -8.75637054
REMARK  7 active torsions:
REMARK  status: ('A' for Active; 'I' for Inactive)
REMARK    1  A    between atoms: C2_2  and  C30_33 
REMARK    2  A    between atoms: C3_3  and  C4_4 
REMARK    3  A    between atoms: C4_4  and  C5_5 
REMARK    4  A    between atoms: C5_5  and  C6_6 
REMARK    5  A    between atoms: C6_6  and  C8_8 
REMARK    6  A    between atoms: C10_10  and  O1_11 
REMARK    7  A    between atoms: C30_33  and  O5_35 
ROOT
HETATM    1  C8  UNL     1      -1.593   6.905  14.012  1.00  0.00     0.001 C 
HETATM    2  C9  UNL     1      -1.848   6.838  12.485  1.00  0.00     0.038 C 
HETATM    3  C10 UNL     1      -0.507   7.195  11.798  1.00  0.00     0.131 C 
HETATM    4  C11 UNL     1       0.560   7.102  12.929  1.00  0.00     0.014 C 
HETATM    5  C12 UNL     1       0.985   5.607  13.086  1.00  0.00     0.023 C 
HETATM    6  C13 UNL     1       1.874   7.869  12.812  1.00  0.00    -0.058 C 
HETATM    7  C14 UNL     1       2.571   8.268  13.905  1.00  0.00    -0.000 C 
HETATM    8  C15 UNL     1       1.960   7.989  15.284  1.00  0.00     0.157 C 
HETATM    9  O2  UNL     1       2.608   8.170  16.315  1.00  0.00    -0.293 OA
HETATM   10  C16 UNL     1       0.526   7.482  15.407  1.00  0.00     0.094 C 
HETATM   11  C17 UNL     1      -0.262   7.705  14.120  1.00  0.00    -0.019 C 
HETATM   12  C18 UNL     1      -0.532   9.235  13.987  1.00  0.00     0.017 C 
HETATM   13  C19 UNL     1       3.903   9.065  13.841  1.00  0.00    -0.008 C 
HETATM   14  C20 UNL     1       3.596  10.430  14.526  1.00  0.00     0.021 C 
HETATM   15  C21 UNL     1       5.035   8.336  14.631  1.00  0.00     0.022 C 
HETATM   16  C22 UNL     1       5.964   7.496  13.771  1.00  0.00     0.080 C 
HETATM   17  C23 UNL     1       6.683   8.344  12.751  1.00  0.00     0.135 C 
HETATM   18  O3  UNL     1       7.819   8.042  12.380  1.00  0.00    -0.297 OA
HETATM   19  C24 UNL     1       5.949   9.569  12.193  1.00  0.00     0.018 C 
HETATM   20  C25 UNL     1       6.489  10.808  12.930  1.00  0.00     0.023 C 
HETATM   21  C26 UNL     1       6.346   9.742  10.708  1.00  0.00     0.023 C 
HETATM   22  C27 UNL     1       4.388   9.379  12.355  1.00  0.00     0.014 C 
HETATM   23  C28 UNL     1       3.863   8.335  11.343  1.00  0.00     0.011 C 
HETATM   24  C29 UNL     1       2.363   8.126  11.420  1.00  0.00     0.036 C 
ENDROOT
BRANCH   1  25
HETATM   25  C6  UNL     1      -2.793   7.331  14.910  1.00  0.00    -0.013 C 
HETATM   26  C7  UNL     1      -2.255   7.768  16.285  1.00  0.00     0.010 C 
BRANCH  25  27
HETATM   27  C5  UNL     1      -3.889   6.259  15.109  1.00  0.00     0.008 C 
BRANCH  27  28
HETATM   28  C4  UNL     1      -4.232   5.502  13.820  1.00  0.00     0.028 C 
BRANCH  28  29
HETATM   29  C3  UNL     1      -5.721   5.389  13.643  1.00  0.00    -0.013 C 
HETATM   30  C2  UNL     1      -6.393   4.447  12.952  1.00  0.00     0.008 C 
HETATM   31  C1  UNL     1      -5.776   3.328  12.166  1.00  0.00     0.055 C 
BRANCH  30  32
HETATM   32  C30 UNL     1      -7.875   4.554  12.957  1.00  0.00     0.171 C 
HETATM   33  O4  UNL     1      -8.536   5.548  12.716  1.00  0.00    -0.646 OA
BRANCH  32  34
HETATM   34  O5  UNL     1      -8.470   3.392  13.272  1.00  0.00    -0.773 OA
HETATM   35  H44 UNL     1      -9.424   3.609  13.244  1.00  0.00     0.167 HD
ENDBRANCH  32  34
ENDBRANCH  30  32
ENDBRANCH  28  29
ENDBRANCH  27  28
ENDBRANCH  25  27
ENDBRANCH   1  25
BRANCH   3  36
HETATM   36  O1  UNL     1      -0.261   6.313  10.712  1.00  0.00    -0.394 OA
HETATM   37  H17 UNL     1      -1.018   6.379  10.104  1.00  0.00     0.210 HD
ENDBRANCH   3  36
TORSDOF 7
ENDMDL
MODEL 8
REMARK minimizedAffinity -8.70709896
REMARK  7 active torsions:
REMARK  status: ('A' for Active; 'I' for Inactive)
REMARK    1  A    between atoms: C2_2  and  C30_33 
REMARK    2  A    between atoms: C3_3  and  C4_4 
REMARK    3  A    between atoms: C4_4  and  C5_5 
REMARK    4  A    between atoms: C5_5  and  C6_6 
REMARK    5  A    between atoms: C6_6  and  C8_8 
REMARK    6  A    between atoms: C10_10  and  O1_11 
REMARK    7  A    between atoms: C30_33  and  O5_35 
ROOT
HETATM    1  C8  UNL     1      -1.293   8.161  14.488  1.00  0.00     0.001 C 
HETATM    2  C9  UNL     1      -0.796   8.036  15.951  1.00  0.00     0.038 C 
HETATM    3  C10 UNL     1       0.751   8.040  15.892  1.00  0.00     0.131 C 
HETATM    4  C11 UNL     1       1.097   8.527  14.454  1.00  0.00     0.014 C 
HETATM    5  C12 UNL     1       1.046  10.088  14.436  1.00  0.00     0.023 C 
HETATM    6  C13 UNL     1       2.442   8.175  13.825  1.00  0.00    -0.058 C 
HETATM    7  C14 UNL     1       2.602   8.083  12.481  1.00  0.00    -0.000 C 
HETATM    8  C15 UNL     1       1.363   8.271  11.598  1.00  0.00     0.157 C 
HETATM    9  O2  UNL     1       1.462   8.367  10.375  1.00  0.00    -0.293 OA
HETATM   10  C16 UNL     1      -0.029   8.341  12.221  1.00  0.00     0.094 C 
HETATM   11  C17 UNL     1      -0.033   7.800  13.648  1.00  0.00    -0.019 C 
HETATM   12  C18 UNL     1       0.145   6.253  13.570  1.00  0.00     0.017 C 
HETATM   13  C19 UNL     1       3.944   7.712  11.791  1.00  0.00    -0.008 C 
HETATM   14  C20 UNL     1       3.664   6.372  11.047  1.00  0.00     0.021 C 
HETATM   15  C21 UNL     1       4.365   8.799  10.753  1.00  0.00     0.022 C 
HETATM   16  C22 UNL     1       5.375   9.809  11.271  1.00  0.00     0.080 C 
HETATM   17  C23 UNL     1       6.663   9.136  11.677  1.00  0.00     0.135 C 
HETATM   18  O3  UNL     1       7.737   9.731  11.566  1.00  0.00    -0.297 OA
HETATM   19  C24 UNL     1       6.582   7.711  12.235  1.00  0.00     0.018 C 
HETATM   20  C25 UNL     1       6.968   6.745  11.101  1.00  0.00     0.023 C 
HETATM   21  C26 UNL     1       7.667   7.552  13.327  1.00  0.00     0.023 C 
HETATM   22  C27 UNL     1       5.136   7.443  12.816  1.00  0.00     0.014 C 
HETATM   23  C28 UNL     1       4.937   8.208  14.145  1.00  0.00     0.011 C 
HETATM   24  C29 UNL     1       3.580   7.970  14.777  1.00  0.00     0.036 C 
ENDROOT
BRANCH   1  25
HETATM   25  C6  UNL     1      -2.645   7.469  14.140  1.00  0.00    -0.013 C 
HETATM   26  C7  UNL     1      -3.317   8.240  12.989  1.00  0.00     0.010 C 
BRANCH  25  27
HETATM   27  C5  UNL     1      -3.643   7.331  15.312  1.00  0.00     0.008 C 
BRANCH  27  28
HETATM   28  C4  UNL     1      -4.950   8.102  15.084  1.00  0.00     0.028 C 
BRANCH  28  29
HETATM   29  C3  UNL     1      -6.126   7.337  15.624  1.00  0.00    -0.013 C 
HETATM   30  C2  UNL     1      -6.827   6.369  15.002  1.00  0.00     0.008 C 
HETATM   31  C1  UNL     1      -6.599   5.883  13.601  1.00  0.00     0.055 C 
BRANCH  30  32
HETATM   32  C30 UNL     1      -7.938   5.754  15.775  1.00  0.00     0.171 C 
HETATM   33  O4  UNL     1      -8.865   6.336  16.309  1.00  0.00    -0.646 OA
BRANCH  32  34
HETATM   34  O5  UNL     1      -7.831   4.417  15.847  1.00  0.00    -0.773 OA
HETATM   35  H44 UNL     1      -8.610   4.155  16.379  1.00  0.00     0.167 HD
ENDBRANCH  32  34
ENDBRANCH  30  32
ENDBRANCH  28  29
ENDBRANCH  27  28
ENDBRANCH  25  27
ENDBRANCH   1  25
BRANCH   3  36
HETATM   36  O1  UNL     1       1.279   8.871  16.916  1.00  0.00    -0.394 OA
HETATM   37  H17 UNL     1       0.941   8.539  17.766  1.00  0.00     0.210 HD
ENDBRANCH   3  36
TORSDOF 7
ENDMDL
MODEL 9
REMARK minimizedAffinity -8.69234848
REMARK  7 active torsions:
REMARK  status: ('A' for Active; 'I' for Inactive)
REMARK    1  A    between atoms: C2_2  and  C30_33 
REMARK    2  A    between atoms: C3_3  and  C4_4 
REMARK    3  A    between atoms: C4_4  and  C5_5 
REMARK    4  A    between atoms: C5_5  and  C6_6 
REMARK    5  A    between atoms: C6_6  and  C8_8 
REMARK    6  A    between atoms: C10_10  and  O1_11 
REMARK    7  A    between atoms: C30_33  and  O5_35 
ROOT
HETATM    1  C8  UNL     1      -4.651   5.895  13.468  1.00  0.00     0.001 C 
HETATM    2  C9  UNL     1      -5.610   6.208  14.644  1.00  0.00     0.038 C 
HETATM    3  C10 UNL     1      -4.875   7.225  15.552  1.00  0.00     0.131 C 
HETATM    4  C11 UNL     1      -3.681   7.739  14.695  1.00  0.00     0.014 C 
HETATM    5  C12 UNL     1      -4.199   8.877  13.759  1.00  0.00     0.023 C 
HETATM    6  C13 UNL     1      -2.445   8.324  15.371  1.00  0.00    -0.058 C 
HETATM    7  C14 UNL     1      -1.222   8.285  14.784  1.00  0.00    -0.000 C 
HETATM    8  C15 UNL     1      -1.096   7.563  13.438  1.00  0.00     0.157 C 
HETATM    9  O2  UNL     1      -0.063   7.633  12.773  1.00  0.00    -0.293 OA
HETATM   10  C16 UNL     1      -2.257   6.735  12.892  1.00  0.00     0.094 C 
HETATM   11  C17 UNL     1      -3.272   6.405  13.981  1.00  0.00    -0.019 C 
HETATM   12  C18 UNL     1      -2.623   5.355  14.934  1.00  0.00     0.017 C 
HETATM   13  C19 UNL     1       0.071   8.850  15.436  1.00  0.00    -0.008 C 
HETATM   14  C20 UNL     1       1.005   7.617  15.625  1.00  0.00     0.021 C 
HETATM   15  C21 UNL     1       0.768   9.886  14.501  1.00  0.00     0.022 C 
HETATM   16  C22 UNL     1       0.455  11.337  14.821  1.00  0.00     0.080 C 
HETATM   17  C23 UNL     1       0.908  11.701  16.214  1.00  0.00     0.135 C 
HETATM   18  O3  UNL     1       1.282  12.848  16.466  1.00  0.00    -0.297 OA
HETATM   19  C24 UNL     1       0.871  10.607  17.287  1.00  0.00     0.018 C 
HETATM   20  C25 UNL     1       2.305  10.072  17.454  1.00  0.00     0.023 C 
HETATM   21  C26 UNL     1       0.493  11.262  18.638  1.00  0.00     0.023 C 
HETATM   22  C27 UNL     1      -0.168   9.488  16.878  1.00  0.00     0.014 C 
HETATM   23  C28 UNL     1      -1.615  10.006  17.047  1.00  0.00     0.011 C 
HETATM   24  C29 UNL     1      -2.667   8.970  16.703  1.00  0.00     0.036 C 
ENDROOT
BRANCH   1  25
HETATM   25  C6  UNL     1      -4.734   4.466  12.850  1.00  0.00    -0.013 C 
HETATM   26  C7  UNL     1      -3.438   4.187  12.066  1.00  0.00     0.010 C 
BRANCH  25  27
HETATM   27  C5  UNL     1      -5.950   4.208  11.932  1.00  0.00     0.008 C 
BRANCH  27  28
HETATM   28  C4  UNL     1      -7.116   3.521  12.656  1.00  0.00     0.028 C 
BRANCH  28  29
HETATM   29  C3  UNL     1      -7.992   4.532  13.343  1.00  0.00    -0.013 C 
HETATM   30  C2  UNL     1      -8.752   5.482  12.764  1.00  0.00     0.008 C 
HETATM   31  C1  UNL     1      -8.841   5.759  11.293  1.00  0.00     0.055 C 
BRANCH  30  32
HETATM   32  C30 UNL     1      -9.547   6.342  13.679  1.00  0.00     0.171 C 
HETATM   33  O4  UNL     1     -10.391   7.161  13.362  1.00  0.00    -0.646 OA
BRANCH  32  34
HETATM   34  O5  UNL     1      -9.240   6.134  14.970  1.00  0.00    -0.773 OA
HETATM   35  H44 UNL     1      -9.823   6.760  15.447  1.00  0.00     0.167 HD
ENDBRANCH  32  34
ENDBRANCH  30  32
ENDBRANCH  28  29
ENDBRANCH  27  28
ENDBRANCH  25  27
ENDBRANCH   1  25
BRANCH   3  36
HETATM   36  O1  UNL     1      -5.767   8.253  15.959  1.00  0.00    -0.394 OA
HETATM   37  H17 UNL     1      -6.518   7.829  16.409  1.00  0.00     0.210 HD
ENDBRANCH   3  36
TORSDOF 7
ENDMDL
