MODEL 1
REMARK minimizedAffinity -7.47542
REMARK CNNscore 0.773959577
REMARK CNNaffinity 6.53676176
REMARK  13 active torsions:
REMARK  status: ('A' for Active; 'I' for Inactive)
REMARK    1  A    between atoms: C3_3  and  O1_4 
REMARK    2  A    between atoms: N1_14  and  O2_16 
REMARK    3  A    between atoms: O2_16  and  C13_17 
REMARK    4  A    between atoms: C13_17  and  C14_18 
REMARK       I    between atoms: C14_18  and  N2_20 
REMARK    5  A    between atoms: N2_20  and  C15_21 
REMARK    6  A    between atoms: C15_21  and  C17_23 
REMARK       I    between atoms: C17_23  and  N3_25 
REMARK    7  A    between atoms: N3_25  and  C18_26 
REMARK    8  A    between atoms: C18_26  and  C19_27 
REMARK    9  A    between atoms: C18_26  and  C22_31 
REMARK   10  A    between atoms: C19_27  and  C20_28 
REMARK   11  A    between atoms: C20_28  and  S1_29 
REMARK   12  A    between atoms: C22_31  and  O6_33 
REMARK   13  A    between atoms: C28_39  and  O7_40 
ROOT
HETATM    1  C1  UNL     1       0.565  52.610 -21.150  1.00  0.00     0.015 C 
HETATM    2  C2  UNL     1      -0.032  51.669 -20.707  1.00  0.00    -0.078 C 
HETATM    3  C3  UNL     1      -0.762  50.510 -20.166  1.00  0.00     0.128 C 
HETATM    4  C4  UNL     1      -0.476  49.227 -20.964  1.00  0.00     0.052 C 
HETATM    5  C5  UNL     1      -1.736  48.363 -20.829  1.00  0.00     0.010 C 
HETATM    6  C6  UNL     1      -2.752  49.180 -20.004  1.00  0.00     0.002 C 
HETATM    7  C7  UNL     1      -4.260  48.890 -20.219  1.00  0.00    -0.002 C 
HETATM    8  C8  UNL     1      -4.541  47.378 -20.363  1.00  0.00     0.010 C 
HETATM    9  C9  UNL     1      -4.852  46.964 -21.794  1.00  0.00     0.035 C 
HETATM   10  C10 UNL     1      -6.060  47.687 -22.322  1.00  0.00    -0.069 C 
HETATM   11  C11 UNL     1      -6.892  47.062 -23.174  1.00  0.00     0.030 C 
HETATM   12  C12 UNL     1      -8.103  47.739 -23.709  1.00  0.00     0.032 C 
HETATM   13  N1  UNL     1      -9.025  46.992 -24.245  1.00  0.00    -0.271 N 
ATOM     14  H1  UNL     1      -8.967  45.976 -24.322  1.00  0.00     0.194 HD
HETATM   15  C23 UNL     1      -8.223  49.246 -23.559  1.00  0.00     0.060 C 
HETATM   16  C24 UNL     1      -6.929  49.881 -23.047  1.00  0.00     0.020 C 
HETATM   17  C25 UNL     1      -6.297  49.122 -21.850  1.00  0.00    -0.014 C 
HETATM   18  C26 UNL     1      -7.341  49.105 -20.692  1.00  0.00     0.020 C 
HETATM   19  C27 UNL     1      -4.974  49.799 -21.283  1.00  0.00     0.031 C 
HETATM   20  C28 UNL     1      -3.951  50.354 -22.296  1.00  0.00     0.124 C 
HETATM   21  C29 UNL     1      -2.806  51.141 -21.625  1.00  0.00     0.045 C 
HETATM   22  C30 UNL     1      -2.319  50.639 -20.238  1.00  0.00     0.005 C 
HETATM   23  C31 UNL     1      -2.864  51.566 -19.133  1.00  0.00     0.020 C 
ENDROOT
BRANCH   3  24
HETATM   24  O1  UNL     1      -0.325  50.326 -18.818  1.00  0.00    -0.377 OA
HETATM   25  H2  UNL     1      -0.434  49.395 -18.569  1.00  0.00     0.211 HD
ENDBRANCH   3  24
BRANCH  20  26
HETATM   26  O7  UNL     1      -4.563  51.276 -23.200  1.00  0.00    -0.395 OA
HETATM   27  H40 UNL     1      -3.879  51.574 -23.826  1.00  0.00     0.210 HD
ENDBRANCH  20  26
BRANCH  13  28
HETATM   28  O2  UNL     1     -10.109  47.758 -24.705  1.00  0.00    -0.271 OA
BRANCH  28  29
HETATM   29  C13 UNL     1     -11.146  46.883 -25.138  1.00  0.00     0.303 C 
BRANCH  29  30
HETATM   30  C14 UNL     1     -12.183  46.651 -24.048  1.00  0.00     0.244 C 
HETATM   31  O3  UNL     1     -11.905  46.715 -22.850  1.00  0.00    -0.271 OA
HETATM   32  N2  UNL     1     -13.426  46.283 -24.503  1.00  0.00    -0.346 N 
HETATM   33  H16 UNL     1     -13.606  46.261 -25.509  1.00  0.00     0.163 HD
BRANCH  32  34
HETATM   34  C15 UNL     1     -14.474  45.802 -23.612  1.00  0.00     0.172 C 
HETATM   35  C16 UNL     1     -14.302  44.304 -23.351  1.00  0.00     0.042 C 
BRANCH  34  36
HETATM   36  C17 UNL     1     -15.856  46.079 -24.239  1.00  0.00     0.240 C 
HETATM   37  O4  UNL     1     -16.072  47.027 -24.993  1.00  0.00    -0.271 OA
HETATM   38  N3  UNL     1     -16.834  45.155 -23.911  1.00  0.00    -0.345 N 
HETATM   39  H21 UNL     1     -16.505  44.267 -23.545  1.00  0.00     0.163 HD
BRANCH  38  40
HETATM   40  C18 UNL     1     -18.073  45.102 -24.688  1.00  0.00     0.183 C 
BRANCH  40  41
HETATM   41  C19 UNL     1     -17.788  45.157 -26.193  1.00  0.00     0.046 C 
BRANCH  41  42
HETATM   42  C20 UNL     1     -18.572  44.088 -26.948  1.00  0.00     0.076 C 
BRANCH  42  43
HETATM   43  S1  UNL     1     -17.724  43.591 -28.490  1.00  0.00    -0.173 SA
HETATM   44  C21 UNL     1     -19.131  43.581 -29.630  1.00  0.00     0.089 C 
ENDBRANCH  42  43
ENDBRANCH  41  42
ENDBRANCH  40  41
BRANCH  40  45
HETATM   45  C22 UNL     1     -18.922  46.314 -24.296  1.00  0.00     0.163 C 
HETATM   46  O5  UNL     1     -19.532  47.047 -25.059  1.00  0.00    -0.648 OA
BRANCH  45  47
HETATM   47  O6  UNL     1     -18.981  46.504 -22.965  1.00  0.00    -0.775 OA
HETATM   48  H30 UNL     1     -19.508  47.325 -22.864  1.00  0.00     0.167 HD
ENDBRANCH  45  47
ENDBRANCH  40  45
ENDBRANCH  38  40
ENDBRANCH  34  36
ENDBRANCH  32  34
ENDBRANCH  29  30
ENDBRANCH  28  29
ENDBRANCH  13  28
TORSDOF 13
ENDMDL
MODEL 2
REMARK minimizedAffinity -7.40615749
REMARK CNNscore 0.634795547
REMARK CNNaffinity 6.40036201
REMARK  13 active torsions:
REMARK  status: ('A' for Active; 'I' for Inactive)
REMARK    1  A    between atoms: C3_3  and  O1_4 
REMARK    2  A    between atoms: N1_14  and  O2_16 
REMARK    3  A    between atoms: O2_16  and  C13_17 
REMARK    4  A    between atoms: C13_17  and  C14_18 
REMARK       I    between atoms: C14_18  and  N2_20 
REMARK    5  A    between atoms: N2_20  and  C15_21 
REMARK    6  A    between atoms: C15_21  and  C17_23 
REMARK       I    between atoms: C17_23  and  N3_25 
REMARK    7  A    between atoms: N3_25  and  C18_26 
REMARK    8  A    between atoms: C18_26  and  C19_27 
REMARK    9  A    between atoms: C18_26  and  C22_31 
REMARK   10  A    between atoms: C19_27  and  C20_28 
REMARK   11  A    between atoms: C20_28  and  S1_29 
REMARK   12  A    between atoms: C22_31  and  O6_33 
REMARK   13  A    between atoms: C28_39  and  O7_40 
ROOT
HETATM    1  C1  UNL     1       0.715  52.543 -21.233  1.00  0.00     0.015 C 
HETATM    2  C2  UNL     1       0.094  51.629 -20.765  1.00  0.00    -0.078 C 
HETATM    3  C3  UNL     1      -0.665  50.504 -20.194  1.00  0.00     0.128 C 
HETATM    4  C4  UNL     1      -0.407  49.193 -20.953  1.00  0.00     0.052 C 
HETATM    5  C5  UNL     1      -1.687  48.363 -20.799  1.00  0.00     0.010 C 
HETATM    6  C6  UNL     1      -2.687  49.227 -20.004  1.00  0.00     0.002 C 
HETATM    7  C7  UNL     1      -4.201  48.967 -20.217  1.00  0.00    -0.002 C 
HETATM    8  C8  UNL     1      -4.517  47.458 -20.319  1.00  0.00     0.010 C 
HETATM    9  C9  UNL     1      -4.831  47.010 -21.739  1.00  0.00     0.035 C 
HETATM   10  C10 UNL     1      -6.019  47.746 -22.293  1.00  0.00    -0.069 C 
HETATM   11  C11 UNL     1      -6.863  47.116 -23.131  1.00  0.00     0.030 C 
HETATM   12  C12 UNL     1      -8.055  47.806 -23.692  1.00  0.00     0.032 C 
HETATM   13  N1  UNL     1      -8.992  47.065 -24.210  1.00  0.00    -0.271 N 
ATOM     14  H1  UNL     1      -8.958  46.047 -24.257  1.00  0.00     0.194 HD
HETATM   15  C23 UNL     1      -8.140  49.319 -23.586  1.00  0.00     0.060 C 
HETATM   16  C24 UNL     1      -6.833  49.937 -23.086  1.00  0.00     0.020 C 
HETATM   17  C25 UNL     1      -6.225  49.199 -21.865  1.00  0.00    -0.014 C 
HETATM   18  C26 UNL     1      -7.274  49.241 -20.711  1.00  0.00     0.020 C 
HETATM   19  C27 UNL     1      -4.888  49.861 -21.311  1.00  0.00     0.031 C 
HETATM   20  C28 UNL     1      -3.848  50.362 -22.335  1.00  0.00     0.124 C 
HETATM   21  C29 UNL     1      -2.688  51.141 -21.682  1.00  0.00     0.045 C 
HETATM   22  C30 UNL     1      -2.218  50.668 -20.278  1.00  0.00     0.005 C 
HETATM   23  C31 UNL     1      -2.745  51.640 -19.203  1.00  0.00     0.020 C 
ENDROOT
BRANCH   3  24
HETATM   24  O1  UNL     1      -0.239  50.350 -18.839  1.00  0.00    -0.377 OA
HETATM   25  H2  UNL     1      -0.370  49.429 -18.564  1.00  0.00     0.211 HD
ENDBRANCH   3  24
BRANCH  20  26
HETATM   26  O7  UNL     1      -4.434  51.271 -23.268  1.00  0.00    -0.395 OA
HETATM   27  H40 UNL     1      -3.740  51.535 -23.899  1.00  0.00     0.210 HD
ENDBRANCH  20  26
BRANCH  13  28
HETATM   28  O2  UNL     1     -10.055  47.843 -24.697  1.00  0.00    -0.271 OA
BRANCH  28  29
HETATM   29  C13 UNL     1     -10.842  47.053 -25.583  1.00  0.00     0.303 C 
BRANCH  29  30
HETATM   30  C14 UNL     1     -11.952  46.313 -24.849  1.00  0.00     0.244 C 
HETATM   31  O3  UNL     1     -11.732  45.606 -23.865  1.00  0.00    -0.271 OA
HETATM   32  N2  UNL     1     -13.197  46.428 -25.418  1.00  0.00    -0.346 N 
HETATM   33  H16 UNL     1     -13.325  47.041 -26.224  1.00  0.00     0.163 HD
BRANCH  32  34
HETATM   34  C15 UNL     1     -14.329  45.614 -24.992  1.00  0.00     0.172 C 
HETATM   35  C16 UNL     1     -14.860  44.790 -26.166  1.00  0.00     0.042 C 
BRANCH  34  36
HETATM   36  C17 UNL     1     -15.441  46.525 -24.432  1.00  0.00     0.240 C 
HETATM   37  O4  UNL     1     -15.383  47.754 -24.469  1.00  0.00    -0.271 OA
HETATM   38  N3  UNL     1     -16.531  45.850 -23.909  1.00  0.00    -0.345 N 
HETATM   39  H21 UNL     1     -16.630  44.879 -24.188  1.00  0.00     0.163 HD
BRANCH  38  40
HETATM   40  C18 UNL     1     -17.781  46.570 -23.660  1.00  0.00     0.183 C 
BRANCH  40  41
HETATM   41  C19 UNL     1     -18.310  46.293 -22.249  1.00  0.00     0.046 C 
BRANCH  41  42
HETATM   42  C20 UNL     1     -17.177  45.962 -21.283  1.00  0.00     0.076 C 
BRANCH  42  43
HETATM   43  S1  UNL     1     -17.810  45.354 -19.679  1.00  0.00    -0.173 SA
HETATM   44  C21 UNL     1     -16.245  45.030 -18.829  1.00  0.00     0.089 C 
ENDBRANCH  42  43
ENDBRANCH  41  42
ENDBRANCH  40  41
BRANCH  40  45
HETATM   45  C22 UNL     1     -18.810  46.086 -24.684  1.00  0.00     0.163 C 
HETATM   46  O5  UNL     1     -18.681  46.093 -25.899  1.00  0.00    -0.648 OA
BRANCH  45  47
HETATM   47  O6  UNL     1     -19.923  45.588 -24.114  1.00  0.00    -0.775 OA
HETATM   48  H30 UNL     1     -20.500  45.365 -24.874  1.00  0.00     0.167 HD
ENDBRANCH  45  47
ENDBRANCH  40  45
ENDBRANCH  38  40
ENDBRANCH  34  36
ENDBRANCH  32  34
ENDBRANCH  29  30
ENDBRANCH  28  29
ENDBRANCH  13  28
TORSDOF 13
ENDMDL
MODEL 3
REMARK minimizedAffinity -8.54634857
REMARK CNNscore 0.56130445
REMARK CNNaffinity 6.28470612
REMARK  13 active torsions:
REMARK  status: ('A' for Active; 'I' for Inactive)
REMARK    1  A    between atoms: C3_3  and  O1_4 
REMARK    2  A    between atoms: N1_14  and  O2_16 
REMARK    3  A    between atoms: O2_16  and  C13_17 
REMARK    4  A    between atoms: C13_17  and  C14_18 
REMARK       I    between atoms: C14_18  and  N2_20 
REMARK    5  A    between atoms: N2_20  and  C15_21 
REMARK    6  A    between atoms: C15_21  and  C17_23 
REMARK       I    between atoms: C17_23  and  N3_25 
REMARK    7  A    between atoms: N3_25  and  C18_26 
REMARK    8  A    between atoms: C18_26  and  C19_27 
REMARK    9  A    between atoms: C18_26  and  C22_31 
REMARK   10  A    between atoms: C19_27  and  C20_28 
REMARK   11  A    between atoms: C20_28  and  S1_29 
REMARK   12  A    between atoms: C22_31  and  O6_33 
REMARK   13  A    between atoms: C28_39  and  O7_40 
ROOT
HETATM    1  C1  UNL     1      -0.099  53.450 -19.486  1.00  0.00     0.015 C 
HETATM    2  C2  UNL     1      -0.193  52.614 -20.340  1.00  0.00    -0.078 C 
HETATM    3  C3  UNL     1      -0.308  51.591 -21.393  1.00  0.00     0.128 C 
HETATM    4  C4  UNL     1      -0.737  52.197 -22.739  1.00  0.00     0.052 C 
HETATM    5  C5  UNL     1      -1.503  51.088 -23.471  1.00  0.00     0.010 C 
HETATM    6  C6  UNL     1      -1.555  49.877 -22.517  1.00  0.00     0.002 C 
HETATM    7  C7  UNL     1      -2.734  48.880 -22.674  1.00  0.00    -0.002 C 
HETATM    8  C8  UNL     1      -3.064  48.608 -24.158  1.00  0.00     0.010 C 
HETATM    9  C9  UNL     1      -4.341  49.294 -24.620  1.00  0.00     0.035 C 
HETATM   10  C10 UNL     1      -5.527  48.837 -23.815  1.00  0.00    -0.069 C 
HETATM   11  C11 UNL     1      -6.731  48.729 -24.405  1.00  0.00     0.030 C 
HETATM   12  C12 UNL     1      -7.925  48.269 -23.647  1.00  0.00     0.032 C 
HETATM   13  N1  UNL     1      -8.958  47.871 -24.332  1.00  0.00    -0.271 N 
ATOM     14  H1  UNL     1      -8.999  47.856 -25.351  1.00  0.00     0.194 HD
HETATM   15  C23 UNL     1      -7.861  48.243 -22.129  1.00  0.00     0.060 C 
HETATM   16  C24 UNL     1      -6.598  48.919 -21.593  1.00  0.00     0.020 C 
HETATM   17  C25 UNL     1      -5.304  48.501 -22.341  1.00  0.00    -0.014 C 
HETATM   18  C26 UNL     1      -5.148  46.956 -22.195  1.00  0.00     0.020 C 
HETATM   19  C27 UNL     1      -3.981  49.166 -21.762  1.00  0.00     0.031 C 
HETATM   20  C28 UNL     1      -4.031  50.656 -21.363  1.00  0.00     0.124 C 
HETATM   21  C29 UNL     1      -2.748  51.133 -20.653  1.00  0.00     0.045 C 
HETATM   22  C30 UNL     1      -1.404  50.508 -21.121  1.00  0.00     0.005 C 
HETATM   23  C31 UNL     1      -0.930  49.468 -20.087  1.00  0.00     0.020 C 
ENDROOT
BRANCH   3  24
HETATM   24  O1  UNL     1       0.979  50.989 -21.542  1.00  0.00    -0.377 OA
HETATM   25  H2  UNL     1       1.069  50.643 -22.444  1.00  0.00     0.211 HD
ENDBRANCH   3  24
BRANCH  20  26
HETATM   26  O7  UNL     1      -5.091  50.911 -20.439  1.00  0.00    -0.395 OA
HETATM   27  H40 UNL     1      -5.088  51.865 -20.242  1.00  0.00     0.210 HD
ENDBRANCH  20  26
BRANCH  13  28
HETATM   28  O2  UNL     1     -10.009  47.464 -23.494  1.00  0.00    -0.271 OA
BRANCH  28  29
HETATM   29  C13 UNL     1     -10.638  46.318 -24.058  1.00  0.00     0.303 C 
BRANCH  29  30
HETATM   30  C14 UNL     1     -11.766  46.700 -25.005  1.00  0.00     0.244 C 
HETATM   31  O3  UNL     1     -11.802  47.787 -25.582  1.00  0.00    -0.271 OA
HETATM   32  N2  UNL     1     -12.779  45.777 -25.099  1.00  0.00    -0.346 N 
HETATM   33  H16 UNL     1     -12.690  44.884 -24.611  1.00  0.00     0.163 HD
BRANCH  32  34
HETATM   34  C15 UNL     1     -14.039  46.064 -25.772  1.00  0.00     0.172 C 
HETATM   35  C16 UNL     1     -13.814  47.043 -26.925  1.00  0.00     0.042 C 
BRANCH  34  36
HETATM   36  C17 UNL     1     -15.045  46.653 -24.760  1.00  0.00     0.240 C 
HETATM   37  O4  UNL     1     -14.868  47.727 -24.187  1.00  0.00    -0.271 OA
HETATM   38  N3  UNL     1     -16.184  45.889 -24.568  1.00  0.00    -0.345 N 
HETATM   39  H21 UNL     1     -16.384  45.198 -25.284  1.00  0.00     0.163 HD
BRANCH  38  40
HETATM   40  C18 UNL     1     -17.352  46.479 -23.911  1.00  0.00     0.183 C 
BRANCH  40  41
HETATM   41  C19 UNL     1     -17.839  45.603 -22.752  1.00  0.00     0.046 C 
BRANCH  41  42
HETATM   42  C20 UNL     1     -17.847  46.372 -21.435  1.00  0.00     0.076 C 
BRANCH  42  43
HETATM   43  S1  UNL     1     -18.961  45.602 -20.207  1.00  0.00    -0.173 SA
HETATM   44  C21 UNL     1     -19.576  44.203 -21.178  1.00  0.00     0.089 C 
ENDBRANCH  42  43
ENDBRANCH  41  42
ENDBRANCH  40  41
BRANCH  40  45
HETATM   45  C22 UNL     1     -18.466  46.594 -24.954  1.00  0.00     0.163 C 
HETATM   46  O5  UNL     1     -19.445  47.321 -24.889  1.00  0.00    -0.648 OA
BRANCH  45  47
HETATM   47  O6  UNL     1     -18.258  45.814 -26.031  1.00  0.00    -0.775 OA
HETATM   48  H30 UNL     1     -19.058  45.951 -26.582  1.00  0.00     0.167 HD
ENDBRANCH  45  47
ENDBRANCH  40  45
ENDBRANCH  38  40
ENDBRANCH  34  36
ENDBRANCH  32  34
ENDBRANCH  29  30
ENDBRANCH  28  29
ENDBRANCH  13  28
TORSDOF 13
ENDMDL
MODEL 4
REMARK minimizedAffinity -7.27773952
REMARK CNNscore 0.491367042
REMARK CNNaffinity 6.5016427
REMARK  13 active torsions:
REMARK  status: ('A' for Active; 'I' for Inactive)
REMARK    1  A    between atoms: C3_3  and  O1_4 
REMARK    2  A    between atoms: N1_14  and  O2_16 
REMARK    3  A    between atoms: O2_16  and  C13_17 
REMARK    4  A    between atoms: C13_17  and  C14_18 
REMARK       I    between atoms: C14_18  and  N2_20 
REMARK    5  A    between atoms: N2_20  and  C15_21 
REMARK    6  A    between atoms: C15_21  and  C17_23 
REMARK       I    between atoms: C17_23  and  N3_25 
REMARK    7  A    between atoms: N3_25  and  C18_26 
REMARK    8  A    between atoms: C18_26  and  C19_27 
REMARK    9  A    between atoms: C18_26  and  C22_31 
REMARK   10  A    between atoms: C19_27  and  C20_28 
REMARK   11  A    between atoms: C20_28  and  S1_29 
REMARK   12  A    between atoms: C22_31  and  O6_33 
REMARK   13  A    between atoms: C28_39  and  O7_40 
ROOT
HETATM    1  C1  UNL     1       6.628  55.987  -1.728  1.00  0.00     0.015 C 
HETATM    2  C2  UNL     1       6.270  56.595  -2.698  1.00  0.00    -0.078 C 
HETATM    3  C3  UNL     1       5.826  57.341  -3.887  1.00  0.00     0.128 C 
HETATM    4  C4  UNL     1       4.300  57.520  -3.916  1.00  0.00     0.052 C 
HETATM    5  C5  UNL     1       3.918  57.601  -5.400  1.00  0.00     0.010 C 
HETATM    6  C6  UNL     1       5.219  57.412  -6.207  1.00  0.00     0.002 C 
HETATM    7  C7  UNL     1       5.105  56.831  -7.640  1.00  0.00    -0.002 C 
HETATM    8  C8  UNL     1       3.894  57.412  -8.403  1.00  0.00     0.010 C 
HETATM    9  C9  UNL     1       2.744  56.425  -8.536  1.00  0.00     0.035 C 
HETATM   10  C10 UNL     1       3.171  55.185  -9.270  1.00  0.00    -0.069 C 
HETATM   11  C11 UNL     1       2.297  54.551 -10.074  1.00  0.00     0.030 C 
HETATM   12  C12 UNL     1       2.685  53.328 -10.826  1.00  0.00     0.032 C 
HETATM   13  N1  UNL     1       1.926  52.966 -11.820  1.00  0.00    -0.271 N 
ATOM     14  H1  UNL     1       1.086  53.465 -12.112  1.00  0.00     0.194 HD
HETATM   15  C23 UNL     1       3.959  52.601 -10.432  1.00  0.00     0.060 C 
HETATM   16  C24 UNL     1       4.557  53.146  -9.133  1.00  0.00     0.020 C 
HETATM   17  C25 UNL     1       4.606  54.696  -9.076  1.00  0.00    -0.014 C 
HETATM   18  C26 UNL     1       5.474  55.190 -10.274  1.00  0.00     0.020 C 
HETATM   19  C27 UNL     1       5.265  55.271  -7.747  1.00  0.00     0.031 C 
HETATM   20  C28 UNL     1       4.906  54.595  -6.407  1.00  0.00     0.124 C 
HETATM   21  C29 UNL     1       5.743  55.124  -5.223  1.00  0.00     0.045 C 
HETATM   22  C30 UNL     1       6.132  56.628  -5.245  1.00  0.00     0.005 C 
HETATM   23  C31 UNL     1       7.614  56.773  -5.642  1.00  0.00     0.020 C 
ENDROOT
BRANCH   3  24
HETATM   24  O1  UNL     1       6.444  58.629  -3.834  1.00  0.00    -0.377 OA
HETATM   25  H2  UNL     1       5.896  59.268  -4.316  1.00  0.00     0.211 HD
ENDBRANCH   3  24
BRANCH  20  26
HETATM   26  O7  UNL     1       5.160  53.190  -6.450  1.00  0.00    -0.395 OA
HETATM   27  H40 UNL     1       4.895  52.816  -5.590  1.00  0.00     0.210 HD
ENDBRANCH  20  26
BRANCH  13  28
HETATM   28  O2  UNL     1       2.408  51.802 -12.441  1.00  0.00    -0.271 OA
BRANCH  28  29
HETATM   29  C13 UNL     1       2.634  52.069 -13.821  1.00  0.00     0.303 C 
BRANCH  29  30
HETATM   30  C14 UNL     1       1.339  52.051 -14.621  1.00  0.00     0.244 C 
HETATM   31  O3  UNL     1       0.238  52.218 -14.096  1.00  0.00    -0.271 OA
HETATM   32  N2  UNL     1       1.488  51.750 -15.953  1.00  0.00    -0.346 N 
HETATM   33  H16 UNL     1       2.426  51.637 -16.340  1.00  0.00     0.163 HD
BRANCH  32  34
HETATM   34  C15 UNL     1       0.353  51.464 -16.821  1.00  0.00     0.172 C 
HETATM   35  C16 UNL     1       0.217  49.956 -17.037  1.00  0.00     0.042 C 
BRANCH  34  36
HETATM   36  C17 UNL     1       0.541  52.183 -18.174  1.00  0.00     0.240 C 
HETATM   37  O4  UNL     1       1.594  52.725 -18.504  1.00  0.00    -0.271 OA
HETATM   38  N3  UNL     1      -0.566  52.143 -19.006  1.00  0.00    -0.345 N 
HETATM   39  H21 UNL     1      -1.262  51.437 -18.790  1.00  0.00     0.163 HD
BRANCH  38  40
HETATM   40  C18 UNL     1      -0.420  52.479 -20.424  1.00  0.00     0.183 C 
BRANCH  40  41
HETATM   41  C19 UNL     1      -0.137  51.230 -21.265  1.00  0.00     0.046 C 
BRANCH  41  42
HETATM   42  C20 UNL     1      -1.389  50.751 -21.992  1.00  0.00     0.076 C 
BRANCH  42  43
HETATM   43  S1  UNL     1      -1.161  50.751 -23.807  1.00  0.00    -0.173 SA
HETATM   44  C21 UNL     1      -0.852  52.513 -24.081  1.00  0.00     0.089 C 
ENDBRANCH  42  43
ENDBRANCH  41  42
ENDBRANCH  40  41
BRANCH  40  45
HETATM   45  C22 UNL     1       0.757  53.448 -20.555  1.00  0.00     0.163 C 
HETATM   46  O5  UNL     1       1.836  53.209 -21.076  1.00  0.00    -0.648 OA
BRANCH  45  47
HETATM   47  O6  UNL     1       0.490  54.669 -20.057  1.00  0.00    -0.775 OA
HETATM   48  H30 UNL     1       1.331  55.160 -20.164  1.00  0.00     0.167 HD
ENDBRANCH  45  47
ENDBRANCH  40  45
ENDBRANCH  38  40
ENDBRANCH  34  36
ENDBRANCH  32  34
ENDBRANCH  29  30
ENDBRANCH  28  29
ENDBRANCH  13  28
TORSDOF 13
ENDMDL
MODEL 5
REMARK minimizedAffinity -7.45049381
REMARK CNNscore 0.487600088
REMARK CNNaffinity 6.21042204
REMARK  13 active torsions:
REMARK  status: ('A' for Active; 'I' for Inactive)
REMARK    1  A    between atoms: C3_3  and  O1_4 
REMARK    2  A    between atoms: N1_14  and  O2_16 
REMARK    3  A    between atoms: O2_16  and  C13_17 
REMARK    4  A    between atoms: C13_17  and  C14_18 
REMARK       I    between atoms: C14_18  and  N2_20 
REMARK    5  A    between atoms: N2_20  and  C15_21 
REMARK    6  A    between atoms: C15_21  and  C17_23 
REMARK       I    between atoms: C17_23  and  N3_25 
REMARK    7  A    between atoms: N3_25  and  C18_26 
REMARK    8  A    between atoms: C18_26  and  C19_27 
REMARK    9  A    between atoms: C18_26  and  C22_31 
REMARK   10  A    between atoms: C19_27  and  C20_28 
REMARK   11  A    between atoms: C20_28  and  S1_29 
REMARK   12  A    between atoms: C22_31  and  O6_33 
REMARK   13  A    between atoms: C28_39  and  O7_40 
ROOT
HETATM    1  C1  UNL     1      -4.331  43.595 -32.679  1.00  0.00     0.015 C 
HETATM    2  C2  UNL     1      -4.877  44.655 -32.548  1.00  0.00    -0.078 C 
HETATM    3  C3  UNL     1      -5.544  45.957 -32.382  1.00  0.00     0.128 C 
HETATM    4  C4  UNL     1      -5.071  46.688 -31.116  1.00  0.00     0.052 C 
HETATM    5  C5  UNL     1      -6.254  47.557 -30.670  1.00  0.00     0.010 C 
HETATM    6  C6  UNL     1      -7.411  47.274 -31.650  1.00  0.00     0.002 C 
HETATM    7  C7  UNL     1      -8.861  47.481 -31.139  1.00  0.00    -0.002 C 
HETATM    8  C8  UNL     1      -8.988  48.747 -30.265  1.00  0.00     0.010 C 
HETATM    9  C9  UNL     1      -9.128  48.435 -28.782  1.00  0.00     0.035 C 
HETATM   10  C10 UNL     1     -10.344  47.592 -28.514  1.00  0.00    -0.069 C 
HETATM   11  C11 UNL     1     -11.035  47.762 -27.372  1.00  0.00     0.030 C 
HETATM   12  C12 UNL     1     -12.250  46.956 -27.076  1.00  0.00     0.032 C 
HETATM   13  N1  UNL     1     -13.046  47.389 -26.141  1.00  0.00    -0.271 N 
ATOM     14  H1  UNL     1     -12.890  48.240 -25.601  1.00  0.00     0.194 HD
HETATM   15  C23 UNL     1     -12.520  45.712 -27.903  1.00  0.00     0.060 C 
HETATM   16  C24 UNL     1     -11.341  45.354 -28.810  1.00  0.00     0.020 C 
HETATM   17  C25 UNL     1     -10.754  46.570 -29.574  1.00  0.00    -0.014 C 
HETATM   18  C26 UNL     1     -11.893  47.178 -30.448  1.00  0.00     0.020 C 
HETATM   19  C27 UNL     1      -9.555  46.199 -30.551  1.00  0.00     0.031 C 
HETATM   20  C28 UNL     1      -8.499  45.189 -30.056  1.00  0.00     0.124 C 
HETATM   21  C29 UNL     1      -7.497  44.779 -31.154  1.00  0.00     0.045 C 
HETATM   22  C30 UNL     1      -7.094  45.866 -32.189  1.00  0.00     0.005 C 
HETATM   23  C31 UNL     1      -7.819  45.604 -33.523  1.00  0.00     0.020 C 
ENDROOT
BRANCH   3  24
HETATM   24  O1  UNL     1      -5.217  46.749 -33.526  1.00  0.00    -0.377 OA
HETATM   25  H2  UNL     1      -5.262  47.689 -33.290  1.00  0.00     0.211 HD
ENDBRANCH   3  24
BRANCH  20  26
HETATM   26  O7  UNL     1      -9.108  43.970 -29.627  1.00  0.00    -0.395 OA
HETATM   27  H40 UNL     1      -8.400  43.383 -29.306  1.00  0.00     0.210 HD
ENDBRANCH  20  26
BRANCH  13  28
HETATM   28  O2  UNL     1     -14.150  46.536 -25.968  1.00  0.00    -0.271 OA
BRANCH  28  29
HETATM   29  C13 UNL     1     -14.091  45.957 -24.668  1.00  0.00     0.303 C 
BRANCH  29  30
HETATM   30  C14 UNL     1     -14.976  46.700 -23.677  1.00  0.00     0.244 C 
HETATM   31  O3  UNL     1     -15.061  47.928 -23.661  1.00  0.00    -0.271 OA
HETATM   32  N2  UNL     1     -15.603  45.901 -22.752  1.00  0.00    -0.346 N 
HETATM   33  H16 UNL     1     -15.511  44.886 -22.822  1.00  0.00     0.163 HD
BRANCH  32  34
HETATM   34  C15 UNL     1     -16.302  46.445 -21.595  1.00  0.00     0.172 C 
HETATM   35  C16 UNL     1     -15.839  45.743 -20.317  1.00  0.00     0.042 C 
BRANCH  34  36
HETATM   36  C17 UNL     1     -17.824  46.270 -21.778  1.00  0.00     0.240 C 
HETATM   37  O4  UNL     1     -18.653  46.759 -21.012  1.00  0.00    -0.271 OA
HETATM   38  N3  UNL     1     -18.189  45.541 -22.898  1.00  0.00    -0.345 N 
HETATM   39  H21 UNL     1     -17.479  45.440 -23.616  1.00  0.00     0.163 HD
BRANCH  38  40
HETATM   40  C18 UNL     1     -19.573  45.585 -23.374  1.00  0.00     0.183 C 
BRANCH  40  41
HETATM   41  C19 UNL     1     -20.170  44.177 -23.477  1.00  0.00     0.046 C 
BRANCH  41  42
HETATM   42  C20 UNL     1     -19.220  43.125 -22.915  1.00  0.00     0.076 C 
BRANCH  42  43
HETATM   43  S1  UNL     1     -19.139  41.644 -23.984  1.00  0.00    -0.173 SA
HETATM   44  C21 UNL     1     -19.895  42.305 -25.490  1.00  0.00     0.089 C 
ENDBRANCH  42  43
ENDBRANCH  41  42
ENDBRANCH  40  41
BRANCH  40  45
HETATM   45  C22 UNL     1     -19.569  46.229 -24.761  1.00  0.00     0.163 C 
HETATM   46  O5  UNL     1     -20.087  45.776 -25.771  1.00  0.00    -0.648 OA
BRANCH  45  47
HETATM   47  O6  UNL     1     -18.947  47.422 -24.784  1.00  0.00    -0.775 OA
HETATM   48  H30 UNL     1     -18.979  47.690 -25.727  1.00  0.00     0.167 HD
ENDBRANCH  45  47
ENDBRANCH  40  45
ENDBRANCH  38  40
ENDBRANCH  34  36
ENDBRANCH  32  34
ENDBRANCH  29  30
ENDBRANCH  28  29
ENDBRANCH  13  28
TORSDOF 13
ENDMDL
MODEL 6
REMARK minimizedAffinity -7.66073608
REMARK CNNscore 0.340743423
REMARK CNNaffinity 6.37218809
REMARK  13 active torsions:
REMARK  status: ('A' for Active; 'I' for Inactive)
REMARK    1  A    between atoms: C3_3  and  O1_4 
REMARK    2  A    between atoms: N1_14  and  O2_16 
REMARK    3  A    between atoms: O2_16  and  C13_17 
REMARK    4  A    between atoms: C13_17  and  C14_18 
REMARK       I    between atoms: C14_18  and  N2_20 
REMARK    5  A    between atoms: N2_20  and  C15_21 
REMARK    6  A    between atoms: C15_21  and  C17_23 
REMARK       I    between atoms: C17_23  and  N3_25 
REMARK    7  A    between atoms: N3_25  and  C18_26 
REMARK    8  A    between atoms: C18_26  and  C19_27 
REMARK    9  A    between atoms: C18_26  and  C22_31 
REMARK   10  A    between atoms: C19_27  and  C20_28 
REMARK   11  A    between atoms: C20_28  and  S1_29 
REMARK   12  A    between atoms: C22_31  and  O6_33 
REMARK   13  A    between atoms: C28_39  and  O7_40 
ROOT
HETATM    1  C1  UNL     1       0.137  55.443 -25.515  1.00  0.00     0.015 C 
HETATM    2  C2  UNL     1       0.139  54.253 -25.664  1.00  0.00    -0.078 C 
HETATM    3  C3  UNL     1       0.141  52.793 -25.854  1.00  0.00     0.128 C 
HETATM    4  C4  UNL     1      -0.374  52.394 -27.246  1.00  0.00     0.052 C 
HETATM    5  C5  UNL     1      -1.003  51.005 -27.075  1.00  0.00     0.010 C 
HETATM    6  C6  UNL     1      -0.895  50.647 -25.579  1.00  0.00     0.002 C 
HETATM    7  C7  UNL     1      -1.942  49.665 -24.991  1.00  0.00    -0.002 C 
HETATM    8  C8  UNL     1      -2.251  48.503 -25.961  1.00  0.00     0.010 C 
HETATM    9  C9  UNL     1      -3.609  48.636 -26.635  1.00  0.00     0.035 C 
HETATM   10  C10 UNL     1      -4.720  48.670 -25.622  1.00  0.00    -0.069 C 
HETATM   11  C11 UNL     1      -5.907  48.110 -25.916  1.00  0.00     0.030 C 
HETATM   12  C12 UNL     1      -7.027  48.112 -24.937  1.00  0.00     0.032 C 
HETATM   13  N1  UNL     1      -8.009  47.283 -25.142  1.00  0.00    -0.271 N 
ATOM     14  H1  UNL     1      -8.059  46.636 -25.930  1.00  0.00     0.194 HD
HETATM   15  C23 UNL     1      -6.943  49.037 -23.734  1.00  0.00     0.060 C 
HETATM   16  C24 UNL     1      -5.769  50.012 -23.836  1.00  0.00     0.020 C 
HETATM   17  C25 UNL     1      -4.442  49.340 -24.277  1.00  0.00    -0.014 C 
HETATM   18  C26 UNL     1      -4.092  48.240 -23.228  1.00  0.00     0.020 C 
HETATM   19  C27 UNL     1      -3.205  50.339 -24.343  1.00  0.00     0.031 C 
HETATM   20  C28 UNL     1      -3.437  51.743 -24.940  1.00  0.00     0.124 C 
HETATM   21  C29 UNL     1      -2.215  52.672 -24.784  1.00  0.00     0.045 C 
HETATM   22  C30 UNL     1      -0.809  52.017 -24.882  1.00  0.00     0.005 C 
HETATM   23  C31 UNL     1      -0.198  51.889 -23.473  1.00  0.00     0.020 C 
ENDROOT
BRANCH   3  24
HETATM   24  O1  UNL     1       1.492  52.349 -25.712  1.00  0.00    -0.377 OA
HETATM   25  H2  UNL     1       1.614  51.529 -26.215  1.00  0.00     0.211 HD
ENDBRANCH   3  24
BRANCH  20  26
HETATM   26  O7  UNL     1      -4.509  52.417 -24.280  1.00  0.00    -0.395 OA
HETATM   27  H40 UNL     1      -4.623  53.283 -24.710  1.00  0.00     0.210 HD
ENDBRANCH  20  26
BRANCH  13  28
HETATM   28  O2  UNL     1      -8.992  47.389 -24.145  1.00  0.00    -0.271 OA
BRANCH  28  29
HETATM   29  C13 UNL     1     -10.263  47.076 -24.708  1.00  0.00     0.303 C 
BRANCH  29  30
HETATM   30  C14 UNL     1     -10.150  46.043 -25.820  1.00  0.00     0.244 C 
HETATM   31  O3  UNL     1      -9.541  44.983 -25.674  1.00  0.00    -0.271 OA
HETATM   32  N2  UNL     1     -10.705  46.422 -27.018  1.00  0.00    -0.346 N 
HETATM   33  H16 UNL     1     -11.213  47.306 -27.078  1.00  0.00     0.163 HD
BRANCH  32  34
HETATM   34  C15 UNL     1     -10.497  45.669 -28.249  1.00  0.00     0.172 C 
HETATM   35  C16 UNL     1      -9.695  46.502 -29.251  1.00  0.00     0.042 C 
BRANCH  34  36
HETATM   36  C17 UNL     1     -11.861  45.275 -28.852  1.00  0.00     0.240 C 
HETATM   37  O4  UNL     1     -12.017  45.015 -30.044  1.00  0.00    -0.271 OA
HETATM   38  N3  UNL     1     -12.898  45.206 -27.937  1.00  0.00    -0.345 N 
HETATM   39  H21 UNL     1     -12.628  45.139 -26.960  1.00  0.00     0.163 HD
BRANCH  38  40
HETATM   40  C18 UNL     1     -14.144  44.529 -28.300  1.00  0.00     0.183 C 
BRANCH  40  41
HETATM   41  C19 UNL     1     -15.356  45.214 -27.660  1.00  0.00     0.046 C 
BRANCH  41  42
HETATM   42  C20 UNL     1     -16.657  44.509 -28.031  1.00  0.00     0.076 C 
BRANCH  42  43
HETATM   43  S1  UNL     1     -17.550  43.912 -26.551  1.00  0.00    -0.173 SA
HETATM   44  C21 UNL     1     -19.132  44.760 -26.779  1.00  0.00     0.089 C 
ENDBRANCH  42  43
ENDBRANCH  41  42
ENDBRANCH  40  41
BRANCH  40  45
HETATM   45  C22 UNL     1     -14.057  43.088 -27.791  1.00  0.00     0.163 C 
HETATM   46  O5  UNL     1     -14.098  42.076 -28.474  1.00  0.00    -0.648 OA
BRANCH  45  47
HETATM   47  O6  UNL     1     -13.887  43.012 -26.458  1.00  0.00    -0.775 OA
HETATM   48  H30 UNL     1     -13.896  42.050 -26.271  1.00  0.00     0.167 HD
ENDBRANCH  45  47
ENDBRANCH  40  45
ENDBRANCH  38  40
ENDBRANCH  34  36
ENDBRANCH  32  34
ENDBRANCH  29  30
ENDBRANCH  28  29
ENDBRANCH  13  28
TORSDOF 13
ENDMDL
MODEL 7
REMARK minimizedAffinity -7.20020533
REMARK CNNscore 0.332206815
REMARK CNNaffinity 6.16880178
REMARK  13 active torsions:
REMARK  status: ('A' for Active; 'I' for Inactive)
REMARK    1  A    between atoms: C3_3  and  O1_4 
REMARK    2  A    between atoms: N1_14  and  O2_16 
REMARK    3  A    between atoms: O2_16  and  C13_17 
REMARK    4  A    between atoms: C13_17  and  C14_18 
REMARK       I    between atoms: C14_18  and  N2_20 
REMARK    5  A    between atoms: N2_20  and  C15_21 
REMARK    6  A    between atoms: C15_21  and  C17_23 
REMARK       I    between atoms: C17_23  and  N3_25 
REMARK    7  A    between atoms: N3_25  and  C18_26 
REMARK    8  A    between atoms: C18_26  and  C19_27 
REMARK    9  A    between atoms: C18_26  and  C22_31 
REMARK   10  A    between atoms: C19_27  and  C20_28 
REMARK   11  A    between atoms: C20_28  and  S1_29 
REMARK   12  A    between atoms: C22_31  and  O6_33 
REMARK   13  A    between atoms: C28_39  and  O7_40 
ROOT
HETATM    1  C1  UNL     1       0.477  52.533 -21.340  1.00  0.00     0.015 C 
HETATM    2  C2  UNL     1      -0.083  51.607 -20.822  1.00  0.00    -0.078 C 
HETATM    3  C3  UNL     1      -0.767  50.467 -20.189  1.00  0.00     0.128 C 
HETATM    4  C4  UNL     1      -0.482  49.146 -20.922  1.00  0.00     0.052 C 
HETATM    5  C5  UNL     1      -1.717  48.267 -20.692  1.00  0.00     0.010 C 
HETATM    6  C6  UNL     1      -2.720  49.110 -19.879  1.00  0.00     0.002 C 
HETATM    7  C7  UNL     1      -4.229  48.778 -20.021  1.00  0.00    -0.002 C 
HETATM    8  C8  UNL     1      -4.482  47.255 -20.068  1.00  0.00     0.010 C 
HETATM    9  C9  UNL     1      -4.833  46.752 -21.460  1.00  0.00     0.035 C 
HETATM   10  C10 UNL     1      -6.075  47.420 -21.984  1.00  0.00    -0.069 C 
HETATM   11  C11 UNL     1      -6.923  46.730 -22.768  1.00  0.00     0.030 C 
HETATM   12  C12 UNL     1      -8.167  47.350 -23.296  1.00  0.00     0.032 C 
HETATM   13  N1  UNL     1      -9.090  46.555 -23.754  1.00  0.00    -0.271 N 
ATOM     14  H1  UNL     1      -9.013  45.538 -23.775  1.00  0.00     0.194 HD
HETATM   15  C23 UNL     1      -8.315  48.861 -23.228  1.00  0.00     0.060 C 
HETATM   16  C24 UNL     1      -7.017  49.549 -22.801  1.00  0.00     0.020 C 
HETATM   17  C25 UNL     1      -6.327  48.874 -21.587  1.00  0.00    -0.014 C 
HETATM   18  C26 UNL     1      -7.329  48.904 -20.392  1.00  0.00     0.020 C 
HETATM   19  C27 UNL     1      -5.000  49.609 -21.109  1.00  0.00     0.031 C 
HETATM   20  C28 UNL     1      -4.026  50.125 -22.189  1.00  0.00     0.124 C 
HETATM   21  C29 UNL     1      -2.875  50.972 -21.606  1.00  0.00     0.045 C 
HETATM   22  C30 UNL     1      -2.328  50.561 -20.211  1.00  0.00     0.005 C 
HETATM   23  C31 UNL     1      -2.853  51.539 -19.142  1.00  0.00     0.020 C 
ENDROOT
BRANCH   3  24
HETATM   24  O1  UNL     1      -0.279  50.371 -18.850  1.00  0.00    -0.377 OA
HETATM   25  H2  UNL     1      -0.358  49.453 -18.545  1.00  0.00     0.211 HD
ENDBRANCH   3  24
BRANCH  20  26
HETATM   26  O7  UNL     1      -4.690  50.980 -23.121  1.00  0.00    -0.395 OA
HETATM   27  H40 UNL     1      -4.035  51.256 -23.787  1.00  0.00     0.210 HD
ENDBRANCH  20  26
BRANCH  13  28
HETATM   28  O2  UNL     1     -10.206  47.271 -24.217  1.00  0.00    -0.271 OA
BRANCH  28  29
HETATM   29  C13 UNL     1     -11.318  46.386 -24.320  1.00  0.00     0.303 C 
BRANCH  29  30
HETATM   30  C14 UNL     1     -12.488  46.845 -23.461  1.00  0.00     0.244 C 
HETATM   31  O3  UNL     1     -13.530  47.284 -23.948  1.00  0.00    -0.271 OA
HETATM   32  N2  UNL     1     -12.258  46.810 -22.107  1.00  0.00    -0.346 N 
HETATM   33  H16 UNL     1     -11.381  46.421 -21.757  1.00  0.00     0.163 HD
BRANCH  32  34
HETATM   34  C15 UNL     1     -13.167  47.420 -21.144  1.00  0.00     0.172 C 
HETATM   35  C16 UNL     1     -12.425  47.745 -19.846  1.00  0.00     0.042 C 
BRANCH  34  36
HETATM   36  C17 UNL     1     -14.342  46.460 -20.861  1.00  0.00     0.240 C 
HETATM   37  O4  UNL     1     -14.198  45.367 -20.315  1.00  0.00    -0.271 OA
HETATM   38  N3  UNL     1     -15.583  46.941 -21.243  1.00  0.00    -0.345 N 
HETATM   39  H21 UNL     1     -15.646  47.942 -21.399  1.00  0.00     0.163 HD
BRANCH  38  40
HETATM   40  C18 UNL     1     -16.798  46.299 -20.737  1.00  0.00     0.183 C 
BRANCH  40  41
HETATM   41  C19 UNL     1     -17.932  46.368 -21.766  1.00  0.00     0.046 C 
BRANCH  41  42
HETATM   42  C20 UNL     1     -17.644  45.483 -22.974  1.00  0.00     0.076 C 
BRANCH  42  43
HETATM   43  S1  UNL     1     -17.536  46.458 -24.517  1.00  0.00    -0.173 SA
HETATM   44  C21 UNL     1     -18.871  45.687 -25.466  1.00  0.00     0.089 C 
ENDBRANCH  42  43
ENDBRANCH  41  42
ENDBRANCH  40  41
BRANCH  40  45
HETATM   45  C22 UNL     1     -17.226  47.044 -19.470  1.00  0.00     0.163 C 
HETATM   46  O5  UNL     1     -16.529  47.791 -18.800  1.00  0.00    -0.648 OA
BRANCH  45  47
HETATM   47  O6  UNL     1     -18.515  46.831 -19.147  1.00  0.00    -0.775 OA
HETATM   48  H30 UNL     1     -18.634  47.322 -18.307  1.00  0.00     0.167 HD
ENDBRANCH  45  47
ENDBRANCH  40  45
ENDBRANCH  38  40
ENDBRANCH  34  36
ENDBRANCH  32  34
ENDBRANCH  29  30
ENDBRANCH  28  29
ENDBRANCH  13  28
TORSDOF 13
ENDMDL
MODEL 8
REMARK minimizedAffinity -8.02698326
REMARK CNNscore 0.287393779
REMARK CNNaffinity 6.15481138
REMARK  13 active torsions:
REMARK  status: ('A' for Active; 'I' for Inactive)
REMARK    1  A    between atoms: C3_3  and  O1_4 
REMARK    2  A    between atoms: N1_14  and  O2_16 
REMARK    3  A    between atoms: O2_16  and  C13_17 
REMARK    4  A    between atoms: C13_17  and  C14_18 
REMARK       I    between atoms: C14_18  and  N2_20 
REMARK    5  A    between atoms: N2_20  and  C15_21 
REMARK    6  A    between atoms: C15_21  and  C17_23 
REMARK       I    between atoms: C17_23  and  N3_25 
REMARK    7  A    between atoms: N3_25  and  C18_26 
REMARK    8  A    between atoms: C18_26  and  C19_27 
REMARK    9  A    between atoms: C18_26  and  C22_31 
REMARK   10  A    between atoms: C19_27  and  C20_28 
REMARK   11  A    between atoms: C20_28  and  S1_29 
REMARK   12  A    between atoms: C22_31  and  O6_33 
REMARK   13  A    between atoms: C28_39  and  O7_40 
ROOT
HETATM    1  C1  UNL     1      -0.081  54.874 -27.242  1.00  0.00     0.015 C 
HETATM    2  C2  UNL     1      -0.500  53.754 -27.328  1.00  0.00    -0.078 C 
HETATM    3  C3  UNL     1      -1.019  52.380 -27.436  1.00  0.00     0.128 C 
HETATM    4  C4  UNL     1      -2.524  52.357 -27.748  1.00  0.00     0.052 C 
HETATM    5  C5  UNL     1      -3.058  51.059 -27.130  1.00  0.00     0.010 C 
HETATM    6  C6  UNL     1      -1.869  50.379 -26.422  1.00  0.00     0.002 C 
HETATM    7  C7  UNL     1      -2.177  49.440 -25.226  1.00  0.00    -0.002 C 
HETATM    8  C8  UNL     1      -3.421  48.562 -25.489  1.00  0.00     0.010 C 
HETATM    9  C9  UNL     1      -4.644  49.012 -24.703  1.00  0.00     0.035 C 
HETATM   10  C10 UNL     1      -4.385  48.974 -23.222  1.00  0.00    -0.069 C 
HETATM   11  C11 UNL     1      -5.382  48.651 -22.379  1.00  0.00     0.030 C 
HETATM   12  C12 UNL     1      -5.163  48.591 -20.909  1.00  0.00     0.032 C 
HETATM   13  N1  UNL     1      -6.049  47.961 -20.193  1.00  0.00    -0.271 N 
ATOM     14  H1  UNL     1      -6.879  47.509 -20.575  1.00  0.00     0.194 HD
HETATM   15  C23 UNL     1      -3.906  49.220 -20.332  1.00  0.00     0.060 C 
HETATM   16  C24 UNL     1      -3.135  50.031 -21.375  1.00  0.00     0.020 C 
HETATM   17  C25 UNL     1      -2.974  49.301 -22.734  1.00  0.00    -0.014 C 
HETATM   18  C26 UNL     1      -2.210  47.967 -22.471  1.00  0.00     0.020 C 
HETATM   19  C27 UNL     1      -2.136  50.120 -23.810  1.00  0.00     0.031 C 
HETATM   20  C28 UNL     1      -2.393  51.637 -23.929  1.00  0.00     0.124 C 
HETATM   21  C29 UNL     1      -1.398  52.343 -24.874  1.00  0.00     0.045 C 
HETATM   22  C30 UNL     1      -0.912  51.546 -26.116  1.00  0.00     0.005 C 
HETATM   23  C31 UNL     1       0.525  51.042 -25.877  1.00  0.00     0.020 C 
ENDROOT
BRANCH   3  24
HETATM   24  O1  UNL     1      -0.312  51.743 -28.502  1.00  0.00    -0.377 OA
HETATM   25  H2  UNL     1      -0.865  51.039 -28.878  1.00  0.00     0.211 HD
ENDBRANCH   3  24
BRANCH  20  26
HETATM   26  O7  UNL     1      -2.242  52.289 -22.667  1.00  0.00    -0.395 OA
HETATM   27  H40 UNL     1      -2.437  53.235 -22.799  1.00  0.00     0.210 HD
ENDBRANCH  20  26
BRANCH  13  28
HETATM   28  O2  UNL     1      -5.718  47.980 -18.828  1.00  0.00    -0.271 OA
BRANCH  28  29
HETATM   29  C13 UNL     1      -6.867  48.357 -18.075  1.00  0.00     0.303 C 
BRANCH  29  30
HETATM   30  C14 UNL     1      -7.488  47.168 -17.356  1.00  0.00     0.244 C 
HETATM   31  O3  UNL     1      -7.100  46.013 -17.536  1.00  0.00    -0.271 OA
HETATM   32  N2  UNL     1      -8.566  47.473 -16.561  1.00  0.00    -0.346 N 
HETATM   33  H16 UNL     1      -8.835  48.450 -16.435  1.00  0.00     0.163 HD
BRANCH  32  34
HETATM   34  C15 UNL     1      -9.423  46.448 -15.979  1.00  0.00     0.172 C 
HETATM   35  C16 UNL     1      -8.990  45.060 -16.456  1.00  0.00     0.042 C 
BRANCH  34  36
HETATM   36  C17 UNL     1     -10.891  46.714 -16.375  1.00  0.00     0.240 C 
HETATM   37  O4  UNL     1     -11.352  47.846 -16.515  1.00  0.00    -0.271 OA
HETATM   38  N3  UNL     1     -11.645  45.573 -16.592  1.00  0.00    -0.345 N 
HETATM   39  H21 UNL     1     -11.124  44.716 -16.749  1.00  0.00     0.163 HD
BRANCH  38  40
HETATM   40  C18 UNL     1     -12.929  45.673 -17.289  1.00  0.00     0.183 C 
BRANCH  40  41
HETATM   41  C19 UNL     1     -12.762  46.311 -18.672  1.00  0.00     0.046 C 
BRANCH  41  42
HETATM   42  C20 UNL     1     -13.259  45.385 -19.778  1.00  0.00     0.076 C 
BRANCH  42  43
HETATM   43  S1  UNL     1     -15.011  44.920 -19.535  1.00  0.00    -0.173 SA
HETATM   44  C21 UNL     1     -15.808  46.502 -19.911  1.00  0.00     0.089 C 
ENDBRANCH  42  43
ENDBRANCH  41  42
ENDBRANCH  40  41
BRANCH  40  45
HETATM   45  C22 UNL     1     -13.852  46.551 -16.441  1.00  0.00     0.163 C 
HETATM   46  O5  UNL     1     -14.282  46.286 -15.329  1.00  0.00    -0.648 OA
BRANCH  45  47
HETATM   47  O6  UNL     1     -14.147  47.725 -17.030  1.00  0.00    -0.775 OA
HETATM   48  H30 UNL     1     -14.770  48.154 -16.408  1.00  0.00     0.167 HD
ENDBRANCH  45  47
ENDBRANCH  40  45
ENDBRANCH  38  40
ENDBRANCH  34  36
ENDBRANCH  32  34
ENDBRANCH  29  30
ENDBRANCH  28  29
ENDBRANCH  13  28
TORSDOF 13
ENDMDL
MODEL 9
REMARK minimizedAffinity -8.74083233
REMARK CNNscore 0.244871631
REMARK CNNaffinity 6.26242018
REMARK  13 active torsions:
REMARK  status: ('A' for Active; 'I' for Inactive)
REMARK    1  A    between atoms: C3_3  and  O1_4 
REMARK    2  A    between atoms: N1_14  and  O2_16 
REMARK    3  A    between atoms: O2_16  and  C13_17 
REMARK    4  A    between atoms: C13_17  and  C14_18 
REMARK       I    between atoms: C14_18  and  N2_20 
REMARK    5  A    between atoms: N2_20  and  C15_21 
REMARK    6  A    between atoms: C15_21  and  C17_23 
REMARK       I    between atoms: C17_23  and  N3_25 
REMARK    7  A    between atoms: N3_25  and  C18_26 
REMARK    8  A    between atoms: C18_26  and  C19_27 
REMARK    9  A    between atoms: C18_26  and  C22_31 
REMARK   10  A    between atoms: C19_27  and  C20_28 
REMARK   11  A    between atoms: C20_28  and  S1_29 
REMARK   12  A    between atoms: C22_31  and  O6_33 
REMARK   13  A    between atoms: C28_39  and  O7_40 
ROOT
HETATM    1  C1  UNL     1       0.008  55.103 -25.466  1.00  0.00     0.015 C 
HETATM    2  C2  UNL     1      -0.047  53.916 -25.624  1.00  0.00    -0.078 C 
HETATM    3  C3  UNL     1      -0.115  52.459 -25.824  1.00  0.00     0.128 C 
HETATM    4  C4  UNL     1      -0.669  52.094 -27.211  1.00  0.00     0.052 C 
HETATM    5  C5  UNL     1      -1.358  50.735 -27.040  1.00  0.00     0.010 C 
HETATM    6  C6  UNL     1      -1.243  50.360 -25.549  1.00  0.00     0.002 C 
HETATM    7  C7  UNL     1      -2.325  49.422 -24.952  1.00  0.00    -0.002 C 
HETATM    8  C8  UNL     1      -2.702  48.283 -25.925  1.00  0.00     0.010 C 
HETATM    9  C9  UNL     1      -4.062  48.483 -26.576  1.00  0.00     0.035 C 
HETATM   10  C10 UNL     1      -5.155  48.559 -25.546  1.00  0.00    -0.069 C 
HETATM   11  C11 UNL     1      -6.371  48.057 -25.825  1.00  0.00     0.030 C 
HETATM   12  C12 UNL     1      -7.474  48.103 -24.829  1.00  0.00     0.032 C 
HETATM   13  N1  UNL     1      -8.497  47.321 -25.025  1.00  0.00    -0.271 N 
ATOM     14  H1  UNL     1      -8.588  46.683 -25.816  1.00  0.00     0.194 HD
HETATM   15  C23 UNL     1      -7.330  49.013 -23.621  1.00  0.00     0.060 C 
HETATM   16  C24 UNL     1      -6.114  49.934 -23.734  1.00  0.00     0.020 C 
HETATM   17  C25 UNL     1      -4.825  49.206 -24.201  1.00  0.00    -0.014 C 
HETATM   18  C26 UNL     1      -4.511  48.083 -23.165  1.00  0.00     0.020 C 
HETATM   19  C27 UNL     1      -3.546  50.147 -24.280  1.00  0.00     0.031 C 
HETATM   20  C28 UNL     1      -3.722  51.565 -24.862  1.00  0.00     0.124 C 
HETATM   21  C29 UNL     1      -2.457  52.436 -24.718  1.00  0.00     0.045 C 
HETATM   22  C30 UNL     1      -1.084  51.719 -24.844  1.00  0.00     0.005 C 
HETATM   23  C31 UNL     1      -0.458  51.552 -23.445  1.00  0.00     0.020 C 
ENDROOT
BRANCH   3  24
HETATM   24  O1  UNL     1       1.216  51.952 -25.707  1.00  0.00    -0.377 OA
HETATM   25  H2  UNL     1       1.294  51.131 -26.218  1.00  0.00     0.211 HD
ENDBRANCH   3  24
BRANCH  20  26
HETATM   26  O7  UNL     1      -4.752  52.282 -24.180  1.00  0.00    -0.395 OA
HETATM   27  H40 UNL     1      -4.833  53.157 -24.602  1.00  0.00     0.210 HD
ENDBRANCH  20  26
BRANCH  13  28
HETATM   28  O2  UNL     1      -9.458  47.464 -24.011  1.00  0.00    -0.271 OA
BRANCH  28  29
HETATM   29  C13 UNL     1     -10.484  46.494 -24.203  1.00  0.00     0.303 C 
BRANCH  29  30
HETATM   30  C14 UNL     1     -11.466  46.915 -25.287  1.00  0.00     0.244 C 
HETATM   31  O3  UNL     1     -11.594  48.088 -25.641  1.00  0.00    -0.271 OA
HETATM   32  N2  UNL     1     -12.253  45.902 -25.778  1.00  0.00    -0.346 N 
HETATM   33  H16 UNL     1     -12.093  44.944 -25.461  1.00  0.00     0.163 HD
BRANCH  32  34
HETATM   34  C15 UNL     1     -13.396  46.151 -26.647  1.00  0.00     0.172 C 
HETATM   35  C16 UNL     1     -13.115  47.341 -27.565  1.00  0.00     0.042 C 
BRANCH  34  36
HETATM   36  C17 UNL     1     -14.650  46.422 -25.790  1.00  0.00     0.240 C 
HETATM   37  O4  UNL     1     -14.746  47.383 -25.028  1.00  0.00    -0.271 OA
HETATM   38  N3  UNL     1     -15.678  45.511 -25.968  1.00  0.00    -0.345 N 
HETATM   39  H21 UNL     1     -15.634  44.947 -26.811  1.00  0.00     0.163 HD
BRANCH  38  40
HETATM   40  C18 UNL     1     -17.023  45.831 -25.487  1.00  0.00     0.183 C 
BRANCH  40  41
HETATM   41  C19 UNL     1     -17.340  45.086 -24.185  1.00  0.00     0.046 C 
BRANCH  41  42
HETATM   42  C20 UNL     1     -18.343  45.855 -23.332  1.00  0.00     0.076 C 
BRANCH  42  43
HETATM   43  S1  UNL     1     -19.539  44.736 -22.519  1.00  0.00    -0.173 SA
HETATM   44  C21 UNL     1     -19.123  45.041 -20.784  1.00  0.00     0.089 C 
ENDBRANCH  42  43
ENDBRANCH  41  42
ENDBRANCH  40  41
BRANCH  40  45
HETATM   45  C22 UNL     1     -18.020  45.399 -26.565  1.00  0.00     0.163 C 
HETATM   46  O5  UNL     1     -19.229  45.569 -26.541  1.00  0.00    -0.648 OA
BRANCH  45  47
HETATM   47  O6  UNL     1     -17.428  44.815 -27.623  1.00  0.00    -0.775 OA
HETATM   48  H30 UNL     1     -18.175  44.554 -28.200  1.00  0.00     0.167 HD
ENDBRANCH  45  47
ENDBRANCH  40  45
ENDBRANCH  38  40
ENDBRANCH  34  36
ENDBRANCH  32  34
ENDBRANCH  29  30
ENDBRANCH  28  29
ENDBRANCH  13  28
TORSDOF 13
ENDMDL
