MODEL 1
REMARK minimizedAffinity -9.3712244
REMARK CNNscore 0.689103723
REMARK CNNaffinity 7.47843027
REMARK  9 active torsions:
REMARK  status: ('A' for Active; 'I' for Inactive)
REMARK    1  A    between atoms: C3_3  and  C4_4 
REMARK    2  A    between atoms: C3_3  and  C27_30 
REMARK    3  A    between atoms: C4_4  and  C5_5 
REMARK    4  A    between atoms: C5_5  and  C6_6 
REMARK    5  A    between atoms: C6_6  and  C8_8 
REMARK    6  A    between atoms: C15_15  and  O1_16 
REMARK    7  A    between atoms: C18_19  and  C19_20 
REMARK    8  A    between atoms: C19_20  and  O2_21 
REMARK    9  A    between atoms: C22_24  and  O3_25 
ROOT
HETATM    1  C8  UNL     1      -1.494   5.665  12.603  1.00  0.00     0.001 C 
HETATM    2  C9  UNL     1      -1.920   4.386  11.843  1.00  0.00     0.006 C 
HETATM    3  C10 UNL     1      -3.450   4.282  11.986  1.00  0.00     0.010 C 
HETATM    4  C11 UNL     1      -3.867   5.600  12.642  1.00  0.00     0.026 C 
HETATM    5  C12 UNL     1      -5.221   5.759  13.298  1.00  0.00    -0.072 C 
HETATM    6  C13 UNL     1      -5.409   6.718  14.243  1.00  0.00    -0.064 C 
HETATM    7  C14 UNL     1      -4.239   7.590  14.722  1.00  0.00     0.068 C 
HETATM    8  C15 UNL     1      -2.879   7.387  14.009  1.00  0.00     0.131 C 
HETATM    9  C16 UNL     1      -2.678   5.918  13.588  1.00  0.00    -0.006 C 
HETATM   10  C17 UNL     1      -2.620   4.982  14.820  1.00  0.00     0.019 C 
HETATM   11  C18 UNL     1      -6.790   6.924  14.936  1.00  0.00     0.009 C 
HETATM   12  C20 UNL     1      -7.125   8.432  15.190  1.00  0.00     0.019 C 
HETATM   13  C21 UNL     1      -8.560   8.877  14.859  1.00  0.00     0.033 C 
HETATM   14  C22 UNL     1      -9.642   7.850  15.170  1.00  0.00     0.118 C 
HETATM   15  C23 UNL     1      -9.334   6.459  14.608  1.00  0.00     0.037 C 
HETATM   16  C24 UNL     1      -7.917   6.347  14.017  1.00  0.00     0.003 C 
HETATM   17  C25 UNL     1      -7.621   4.913  13.583  1.00  0.00     0.010 C 
HETATM   18  C26 UNL     1      -6.316   4.850  12.792  1.00  0.00     0.035 C 
ENDROOT
BRANCH   1  19
HETATM   19  C6  UNL     1      -0.036   5.688  13.152  1.00  0.00    -0.013 C 
HETATM   20  C7  UNL     1       0.050   6.726  14.287  1.00  0.00     0.010 C 
BRANCH  19  21
HETATM   21  C5  UNL     1       1.064   5.985  12.104  1.00  0.00     0.009 C 
BRANCH  21  22
HETATM   22  C4  UNL     1       0.631   5.912  10.627  1.00  0.00     0.034 C 
BRANCH  22  23
HETATM   23  C3  UNL     1       1.035   7.103   9.773  1.00  0.00    -0.081 C 
HETATM   24  C2  UNL     1       0.432   8.308   9.872  1.00  0.00    -0.028 C 
HETATM   25  C1  UNL     1      -0.719   8.687  10.751  1.00  0.00     0.036 C 
BRANCH  23  26
HETATM   26  C27 UNL     1       2.239   6.865   8.856  1.00  0.00     0.006 C 
HETATM   27  C28 UNL     1       1.988   7.151   7.369  1.00  0.00     0.014 C 
HETATM   28  C29 UNL     1       3.451   7.667   9.345  1.00  0.00     0.014 C 
ENDBRANCH  23  26
ENDBRANCH  22  23
ENDBRANCH  21  22
ENDBRANCH  19  21
ENDBRANCH   1  19
BRANCH   8  29
HETATM   29  O1  UNL     1      -1.824   7.869  14.840  1.00  0.00    -0.394 OA
HETATM   30  H22 UNL     1      -1.799   7.335  15.649  1.00  0.00     0.210 HD
ENDBRANCH   8  29
BRANCH  11  31
HETATM   31  C19 UNL     1      -6.657   6.175  16.306  1.00  0.00     0.178 C 
BRANCH  31  32
HETATM   32  O2  UNL     1      -7.171   6.904  17.413  1.00  0.00    -0.400 OA
HETATM   33  H28 UNL     1      -7.086   6.320  18.191  1.00  0.00     0.209 HD
ENDBRANCH  31  32
ENDBRANCH  11  31
BRANCH  14  34
HETATM   34  O3  UNL     1      -9.844   7.781  16.579  1.00  0.00    -0.396 OA
HETATM   35  H34 UNL     1      -9.066   7.309  16.946  1.00  0.00     0.210 HD
ENDBRANCH  14  34
TORSDOF 9
ENDMDL
MODEL 2
REMARK minimizedAffinity -7.57831144
REMARK CNNscore 0.602819145
REMARK CNNaffinity 6.53294182
REMARK  9 active torsions:
REMARK  status: ('A' for Active; 'I' for Inactive)
REMARK    1  A    between atoms: C3_3  and  C4_4 
REMARK    2  A    between atoms: C3_3  and  C27_30 
REMARK    3  A    between atoms: C4_4  and  C5_5 
REMARK    4  A    between atoms: C5_5  and  C6_6 
REMARK    5  A    between atoms: C6_6  and  C8_8 
REMARK    6  A    between atoms: C15_15  and  O1_16 
REMARK    7  A    between atoms: C18_19  and  C19_20 
REMARK    8  A    between atoms: C19_20  and  O2_21 
REMARK    9  A    between atoms: C22_24  and  O3_25 
ROOT
HETATM    1  C8  UNL     1      -0.758  11.084  18.803  1.00  0.00     0.001 C 
HETATM    2  C9  UNL     1      -2.302  11.173  18.892  1.00  0.00     0.006 C 
HETATM    3  C10 UNL     1      -2.855  10.257  17.784  1.00  0.00     0.010 C 
HETATM    4  C11 UNL     1      -1.628   9.524  17.239  1.00  0.00     0.026 C 
HETATM    5  C12 UNL     1      -1.664   8.815  15.903  1.00  0.00    -0.072 C 
HETATM    6  C13 UNL     1      -0.507   8.576  15.230  1.00  0.00    -0.064 C 
HETATM    7  C14 UNL     1       0.836   9.095  15.765  1.00  0.00     0.068 C 
HETATM    8  C15 UNL     1       0.811   9.808  17.139  1.00  0.00     0.131 C 
HETATM    9  C16 UNL     1      -0.502  10.588  17.346  1.00  0.00    -0.006 C 
HETATM   10  C17 UNL     1      -0.649  11.729  16.309  1.00  0.00     0.019 C 
HETATM   11  C18 UNL     1      -0.497   7.838  13.856  1.00  0.00     0.009 C 
HETATM   12  C20 UNL     1       0.721   6.867  13.695  1.00  0.00     0.019 C 
HETATM   13  C21 UNL     1       0.416   5.485  13.093  1.00  0.00     0.033 C 
HETATM   14  C22 UNL     1      -0.643   5.478  11.998  1.00  0.00     0.118 C 
HETATM   15  C23 UNL     1      -1.924   6.221  12.392  1.00  0.00     0.037 C 
HETATM   16  C24 UNL     1      -1.797   6.977  13.727  1.00  0.00     0.003 C 
HETATM   17  C25 UNL     1      -3.054   7.795  14.009  1.00  0.00     0.010 C 
HETATM   18  C26 UNL     1      -3.023   8.354  15.431  1.00  0.00     0.035 C 
ENDROOT
BRANCH   1  19
HETATM   19  C6  UNL     1       0.035  12.315  19.333  1.00  0.00    -0.013 C 
HETATM   20  C7  UNL     1       0.225  13.317  18.179  1.00  0.00     0.010 C 
BRANCH  19  21
HETATM   21  C5  UNL     1       1.412  11.998  19.965  1.00  0.00     0.009 C 
BRANCH  21  22
HETATM   22  C4  UNL     1       1.506  10.680  20.759  1.00  0.00     0.034 C 
BRANCH  22  23
HETATM   23  C3  UNL     1       2.550  10.661  21.864  1.00  0.00    -0.081 C 
HETATM   24  C2  UNL     1       2.793   9.566  22.617  1.00  0.00    -0.028 C 
HETATM   25  C1  UNL     1       2.096   8.242  22.561  1.00  0.00     0.036 C 
BRANCH  23  26
HETATM   26  C27 UNL     1       3.374  11.946  22.001  1.00  0.00     0.006 C 
HETATM   27  C28 UNL     1       2.951  12.867  23.153  1.00  0.00     0.014 C 
HETATM   28  C29 UNL     1       4.866  11.615  22.116  1.00  0.00     0.014 C 
ENDBRANCH  23  26
ENDBRANCH  22  23
ENDBRANCH  21  22
ENDBRANCH  19  21
ENDBRANCH   1  19
BRANCH   8  29
HETATM   29  O1  UNL     1       1.966  10.634  17.273  1.00  0.00    -0.394 OA
HETATM   30  H22 UNL     1       1.931  11.328  16.597  1.00  0.00     0.210 HD
ENDBRANCH   8  29
BRANCH  11  31
HETATM   31  C19 UNL     1      -0.401   8.986  12.795  1.00  0.00     0.178 C 
BRANCH  31  32
HETATM   32  O2  UNL     1      -1.037  10.195  13.196  1.00  0.00    -0.400 OA
HETATM   33  H28 UNL     1      -0.863  10.845  12.487  1.00  0.00     0.209 HD
ENDBRANCH  31  32
ENDBRANCH  11  31
BRANCH  14  34
HETATM   34  O3  UNL     1      -0.099   6.028  10.802  1.00  0.00    -0.396 OA
HETATM   35  H34 UNL     1      -0.031   6.996  10.951  1.00  0.00     0.210 HD
ENDBRANCH  14  34
TORSDOF 9
ENDMDL
MODEL 3
REMARK minimizedAffinity -6.78231764
REMARK CNNscore 0.544129133
REMARK CNNaffinity 5.79380465
REMARK  9 active torsions:
REMARK  status: ('A' for Active; 'I' for Inactive)
REMARK    1  A    between atoms: C3_3  and  C4_4 
REMARK    2  A    between atoms: C3_3  and  C27_30 
REMARK    3  A    between atoms: C4_4  and  C5_5 
REMARK    4  A    between atoms: C5_5  and  C6_6 
REMARK    5  A    between atoms: C6_6  and  C8_8 
REMARK    6  A    between atoms: C15_15  and  O1_16 
REMARK    7  A    between atoms: C18_19  and  C19_20 
REMARK    8  A    between atoms: C19_20  and  O2_21 
REMARK    9  A    between atoms: C22_24  and  O3_25 
ROOT
HETATM    1  C8  UNL     1      -4.428 -11.618   5.190  1.00  0.00     0.001 C 
HETATM    2  C9  UNL     1      -3.000 -11.586   5.788  1.00  0.00     0.006 C 
HETATM    3  C10 UNL     1      -3.157 -11.205   7.272  1.00  0.00     0.010 C 
HETATM    4  C11 UNL     1      -4.667 -11.233   7.521  1.00  0.00     0.026 C 
HETATM    5  C12 UNL     1      -5.277 -10.564   8.732  1.00  0.00    -0.072 C 
HETATM    6  C13 UNL     1      -6.586 -10.197   8.718  1.00  0.00    -0.064 C 
HETATM    7  C14 UNL     1      -7.437 -10.371   7.451  1.00  0.00     0.068 C 
HETATM    8  C15 UNL     1      -6.761 -11.068   6.245  1.00  0.00     0.131 C 
HETATM    9  C16 UNL     1      -5.257 -10.735   6.174  1.00  0.00    -0.006 C 
HETATM   10  C17 UNL     1      -5.025  -9.223   5.935  1.00  0.00     0.019 C 
HETATM   11  C18 UNL     1      -7.258  -9.515   9.948  1.00  0.00     0.009 C 
HETATM   12  C20 UNL     1      -8.732  -9.992  10.179  1.00  0.00     0.019 C 
HETATM   13  C21 UNL     1      -9.127 -10.302  11.633  1.00  0.00     0.033 C 
HETATM   14  C22 UNL     1      -8.509  -9.384  12.680  1.00  0.00     0.118 C 
HETATM   15  C23 UNL     1      -6.993  -9.225  12.525  1.00  0.00     0.037 C 
HETATM   16  C24 UNL     1      -6.447  -9.870  11.239  1.00  0.00     0.003 C 
HETATM   17  C25 UNL     1      -4.958  -9.578  11.074  1.00  0.00     0.010 C 
HETATM   18  C26 UNL     1      -4.371 -10.405   9.931  1.00  0.00     0.035 C 
ENDROOT
BRANCH   1  19
HETATM   19  C6  UNL     1      -4.540 -11.354   3.659  1.00  0.00    -0.013 C 
HETATM   20  C7  UNL     1      -3.364 -10.461   3.222  1.00  0.00     0.010 C 
BRANCH  19  21
HETATM   21  C5  UNL     1      -5.869 -10.715   3.190  1.00  0.00     0.009 C 
BRANCH  21  22
HETATM   22  C4  UNL     1      -5.755  -9.653   2.079  1.00  0.00     0.034 C 
BRANCH  22  23
HETATM   23  C3  UNL     1      -6.091 -10.140   0.678  1.00  0.00    -0.081 C 
HETATM   24  C2  UNL     1      -7.335 -10.055   0.156  1.00  0.00    -0.028 C 
HETATM   25  C1  UNL     1      -8.574  -9.543   0.822  1.00  0.00     0.036 C 
BRANCH  23  26
HETATM   26  C27 UNL     1      -4.897 -10.650  -0.135  1.00  0.00     0.006 C 
HETATM   27  C28 UNL     1      -4.651 -12.162  -0.048  1.00  0.00     0.014 C 
HETATM   28  C29 UNL     1      -5.029 -10.225  -1.602  1.00  0.00     0.014 C 
ENDBRANCH  23  26
ENDBRANCH  22  23
ENDBRANCH  21  22
ENDBRANCH  19  21
ENDBRANCH   1  19
BRANCH   8  29
HETATM   29  O1  UNL     1      -7.454 -10.732   5.045  1.00  0.00    -0.394 OA
HETATM   30  H22 UNL     1      -7.374  -9.777   4.898  1.00  0.00     0.210 HD
ENDBRANCH   8  29
BRANCH  11  31
HETATM   31  C19 UNL     1      -7.246  -7.986   9.605  1.00  0.00     0.178 C 
BRANCH  31  32
HETATM   32  O2  UNL     1      -7.132  -7.141  10.743  1.00  0.00    -0.400 OA
HETATM   33  H28 UNL     1      -7.078  -6.227  10.403  1.00  0.00     0.209 HD
ENDBRANCH  31  32
ENDBRANCH  11  31
BRANCH  14  34
HETATM   34  O3  UNL     1      -9.147  -8.110  12.635  1.00  0.00    -0.396 OA
HETATM   35  H34 UNL     1      -8.821  -7.668  11.823  1.00  0.00     0.210 HD
ENDBRANCH  14  34
TORSDOF 9
ENDMDL
MODEL 4
REMARK minimizedAffinity -6.59506512
REMARK CNNscore 0.531356096
REMARK CNNaffinity 5.8160491
REMARK  9 active torsions:
REMARK  status: ('A' for Active; 'I' for Inactive)
REMARK    1  A    between atoms: C3_3  and  C4_4 
REMARK    2  A    between atoms: C3_3  and  C27_30 
REMARK    3  A    between atoms: C4_4  and  C5_5 
REMARK    4  A    between atoms: C5_5  and  C6_6 
REMARK    5  A    between atoms: C6_6  and  C8_8 
REMARK    6  A    between atoms: C15_15  and  O1_16 
REMARK    7  A    between atoms: C18_19  and  C19_20 
REMARK    8  A    between atoms: C19_20  and  O2_21 
REMARK    9  A    between atoms: C22_24  and  O3_25 
ROOT
HETATM    1  C8  UNL     1      -7.946  -9.993   8.638  1.00  0.00     0.001 C 
HETATM    2  C9  UNL     1      -9.021  -9.430   7.677  1.00  0.00     0.006 C 
HETATM    3  C10 UNL     1      -8.428  -9.519   6.258  1.00  0.00     0.010 C 
HETATM    4  C11 UNL     1      -7.129 -10.310   6.431  1.00  0.00     0.026 C 
HETATM    5  C12 UNL     1      -6.056 -10.304   5.365  1.00  0.00    -0.072 C 
HETATM    6  C13 UNL     1      -4.772 -10.605   5.694  1.00  0.00    -0.064 C 
HETATM    7  C14 UNL     1      -4.373 -10.864   7.154  1.00  0.00     0.068 C 
HETATM    8  C15 UNL     1      -5.515 -10.864   8.200  1.00  0.00     0.131 C 
HETATM    9  C16 UNL     1      -6.621  -9.856   7.826  1.00  0.00    -0.006 C 
HETATM   10  C17 UNL     1      -6.083  -8.403   7.830  1.00  0.00     0.019 C 
HETATM   11  C18 UNL     1      -3.637 -10.622   4.625  1.00  0.00     0.009 C 
HETATM   12  C20 UNL     1      -2.602 -11.775   4.853  1.00  0.00     0.019 C 
HETATM   13  C21 UNL     1      -2.167 -12.557   3.602  1.00  0.00     0.033 C 
HETATM   14  C22 UNL     1      -2.028 -11.724   2.335  1.00  0.00     0.118 C 
HETATM   15  C23 UNL     1      -3.248 -10.840   2.056  1.00  0.00     0.037 C 
HETATM   16  C24 UNL     1      -4.268 -10.838   3.209  1.00  0.00     0.003 C 
HETATM   17  C25 UNL     1      -5.399  -9.850   2.932  1.00  0.00     0.010 C 
HETATM   18  C26 UNL     1      -6.520 -10.017   3.956  1.00  0.00     0.035 C 
ENDROOT
BRANCH   1  19
HETATM   19  C6  UNL     1      -7.991  -9.470  10.106  1.00  0.00    -0.013 C 
HETATM   20  C7  UNL     1      -7.290  -8.101  10.166  1.00  0.00     0.010 C 
BRANCH  19  21
HETATM   21  C5  UNL     1      -7.368 -10.410  11.166  1.00  0.00     0.009 C 
BRANCH  21  22
HETATM   22  C4  UNL     1      -8.054 -11.779  11.344  1.00  0.00     0.034 C 
BRANCH  22  23
HETATM   23  C3  UNL     1      -8.257 -12.220  12.785  1.00  0.00    -0.081 C 
HETATM   24  C2  UNL     1      -7.353 -12.973  13.450  1.00  0.00    -0.028 C 
HETATM   25  C1  UNL     1      -6.068 -13.537  12.928  1.00  0.00     0.036 C 
BRANCH  23  26
HETATM   26  C27 UNL     1      -9.518 -11.671  13.461  1.00  0.00     0.006 C 
HETATM   27  C28 UNL     1     -10.321 -12.701  14.267  1.00  0.00     0.014 C 
HETATM   28  C29 UNL     1      -9.171 -10.469  14.345  1.00  0.00     0.014 C 
ENDBRANCH  23  26
ENDBRANCH  22  23
ENDBRANCH  21  22
ENDBRANCH  19  21
ENDBRANCH   1  19
BRANCH   8  29
HETATM   29  O1  UNL     1      -4.976 -10.629   9.500  1.00  0.00    -0.394 OA
HETATM   30  H22 UNL     1      -4.580  -9.744   9.516  1.00  0.00     0.210 HD
ENDBRANCH   8  29
BRANCH  11  31
HETATM   31  C19 UNL     1      -2.925  -9.235   4.785  1.00  0.00     0.178 C 
BRANCH  31  32
HETATM   32  O2  UNL     1      -3.211  -8.581   6.016  1.00  0.00    -0.400 OA
HETATM   33  H28 UNL     1      -2.674  -7.765   6.025  1.00  0.00     0.209 HD
ENDBRANCH  31  32
ENDBRANCH  11  31
BRANCH  14  34
HETATM   34  O3  UNL     1      -0.848 -10.929   2.413  1.00  0.00    -0.396 OA
HETATM   35  H34 UNL     1      -1.042 -10.212   3.055  1.00  0.00     0.210 HD
ENDBRANCH  14  34
TORSDOF 9
ENDMDL
MODEL 5
REMARK minimizedAffinity -7.21449566
REMARK CNNscore 0.464163035
REMARK CNNaffinity 6.82206202
REMARK  9 active torsions:
REMARK  status: ('A' for Active; 'I' for Inactive)
REMARK    1  A    between atoms: C3_3  and  C4_4 
REMARK    2  A    between atoms: C3_3  and  C27_30 
REMARK    3  A    between atoms: C4_4  and  C5_5 
REMARK    4  A    between atoms: C5_5  and  C6_6 
REMARK    5  A    between atoms: C6_6  and  C8_8 
REMARK    6  A    between atoms: C15_15  and  O1_16 
REMARK    7  A    between atoms: C18_19  and  C19_20 
REMARK    8  A    between atoms: C19_20  and  O2_21 
REMARK    9  A    between atoms: C22_24  and  O3_25 
ROOT
HETATM    1  C8  UNL     1     -10.727   8.434  16.158  1.00  0.00     0.001 C 
HETATM    2  C9  UNL     1     -11.162   9.544  17.146  1.00  0.00     0.006 C 
HETATM    3  C10 UNL     1     -12.662   9.789  16.895  1.00  0.00     0.010 C 
HETATM    4  C11 UNL     1     -13.078   8.679  15.926  1.00  0.00     0.026 C 
HETATM    5  C12 UNL     1     -14.364   8.768  15.135  1.00  0.00    -0.072 C 
HETATM    6  C13 UNL     1     -14.503   8.054  13.986  1.00  0.00    -0.064 C 
HETATM    7  C14 UNL     1     -13.337   7.225  13.428  1.00  0.00     0.068 C 
HETATM    8  C15 UNL     1     -12.049   7.167  14.285  1.00  0.00     0.131 C 
HETATM    9  C16 UNL     1     -11.816   8.490  15.041  1.00  0.00    -0.006 C 
HETATM   10  C17 UNL     1     -11.584   9.666  14.061  1.00  0.00     0.019 C 
HETATM   11  C18 UNL     1     -15.816   8.107  13.145  1.00  0.00     0.009 C 
HETATM   12  C20 UNL     1     -16.200   6.719  12.530  1.00  0.00     0.019 C 
HETATM   13  C21 UNL     1     -17.683   6.320  12.625  1.00  0.00     0.033 C 
HETATM   14  C22 UNL     1     -18.672   7.466  12.458  1.00  0.00     0.118 C 
HETATM   15  C23 UNL     1     -18.352   8.674  13.343  1.00  0.00     0.037 C 
HETATM   16  C24 UNL     1     -16.999   8.550  14.067  1.00  0.00     0.003 C 
HETATM   17  C25 UNL     1     -16.675   9.829  14.836  1.00  0.00     0.010 C 
HETATM   18  C26 UNL     1     -15.456   9.622  15.733  1.00  0.00     0.035 C 
ENDROOT
BRANCH   1  19
HETATM   19  C6  UNL     1      -9.224   8.425  15.749  1.00  0.00    -0.013 C 
HETATM   20  C7  UNL     1      -8.852   9.813  15.196  1.00  0.00     0.010 C 
BRANCH  19  21
HETATM   21  C5  UNL     1      -8.821   7.341  14.720  1.00  0.00     0.009 C 
BRANCH  21  22
HETATM   22  C4  UNL     1      -7.692   6.384  15.150  1.00  0.00     0.034 C 
BRANCH  22  23
HETATM   23  C3  UNL     1      -6.746   5.956  14.040  1.00  0.00    -0.081 C 
HETATM   24  C2  UNL     1      -5.794   6.775  13.539  1.00  0.00    -0.028 C 
HETATM   25  C1  UNL     1      -5.521   8.199  13.913  1.00  0.00     0.036 C 
BRANCH  23  26
HETATM   26  C27 UNL     1      -6.887   4.498  13.592  1.00  0.00     0.006 C 
HETATM   27  C28 UNL     1      -8.209   4.161  12.890  1.00  0.00     0.014 C 
HETATM   28  C29 UNL     1      -5.705   4.094  12.703  1.00  0.00     0.014 C 
ENDBRANCH  23  26
ENDBRANCH  22  23
ENDBRANCH  21  22
ENDBRANCH  19  21
ENDBRANCH   1  19
BRANCH   8  29
HETATM   29  O1  UNL     1     -10.941   6.803  13.464  1.00  0.00    -0.394 OA
HETATM   30  H22 UNL     1     -10.806   7.497  12.800  1.00  0.00     0.210 HD
ENDBRANCH   8  29
BRANCH  11  31
HETATM   31  C19 UNL     1     -15.505   9.125  11.996  1.00  0.00     0.178 C 
BRANCH  31  32
HETATM   32  O2  UNL     1     -15.914   8.683  10.707  1.00  0.00    -0.400 OA
HETATM   33  H28 UNL     1     -15.723   9.416  10.091  1.00  0.00     0.209 HD
ENDBRANCH  31  32
ENDBRANCH  11  31
BRANCH  14  34
HETATM   34  O3  UNL     1     -18.726   7.856  11.088  1.00  0.00    -0.396 OA
HETATM   35  H34 UNL     1     -17.891   8.338  10.908  1.00  0.00     0.210 HD
ENDBRANCH  14  34
TORSDOF 9
ENDMDL
MODEL 6
REMARK minimizedAffinity -9.03989792
REMARK CNNscore 0.460304141
REMARK CNNaffinity 6.89763498
REMARK  9 active torsions:
REMARK  status: ('A' for Active; 'I' for Inactive)
REMARK    1  A    between atoms: C3_3  and  C4_4 
REMARK    2  A    between atoms: C3_3  and  C27_30 
REMARK    3  A    between atoms: C4_4  and  C5_5 
REMARK    4  A    between atoms: C5_5  and  C6_6 
REMARK    5  A    between atoms: C6_6  and  C8_8 
REMARK    6  A    between atoms: C15_15  and  O1_16 
REMARK    7  A    between atoms: C18_19  and  C19_20 
REMARK    8  A    between atoms: C19_20  and  O2_21 
REMARK    9  A    between atoms: C22_24  and  O3_25 
ROOT
HETATM    1  C8  UNL     1      -2.448   6.739  13.277  1.00  0.00     0.001 C 
HETATM    2  C9  UNL     1      -2.729   5.353  12.646  1.00  0.00     0.006 C 
HETATM    3  C10 UNL     1      -4.252   5.138  12.726  1.00  0.00     0.010 C 
HETATM    4  C11 UNL     1      -4.807   6.481  13.207  1.00  0.00     0.026 C 
HETATM    5  C12 UNL     1      -6.205   6.596  13.775  1.00  0.00    -0.072 C 
HETATM    6  C13 UNL     1      -6.520   7.633  14.595  1.00  0.00    -0.064 C 
HETATM    7  C14 UNL     1      -5.451   8.646  15.029  1.00  0.00     0.068 C 
HETATM    8  C15 UNL     1      -4.041   8.481  14.411  1.00  0.00     0.131 C 
HETATM    9  C16 UNL     1      -3.702   6.997  14.168  1.00  0.00    -0.006 C 
HETATM   10  C17 UNL     1      -3.643   6.208  15.500  1.00  0.00     0.019 C 
HETATM   11  C18 UNL     1      -7.951   7.797  15.193  1.00  0.00     0.009 C 
HETATM   12  C20 UNL     1      -8.416   9.290  15.259  1.00  0.00     0.019 C 
HETATM   13  C21 UNL     1      -9.860   9.575  14.811  1.00  0.00     0.033 C 
HETATM   14  C22 UNL     1     -10.875   8.502  15.183  1.00  0.00     0.118 C 
HETATM   15  C23 UNL     1     -10.428   7.088  14.797  1.00  0.00     0.037 C 
HETATM   16  C24 UNL     1      -8.975   7.031  14.291  1.00  0.00     0.003 C 
HETATM   17  C25 UNL     1      -8.545   5.588  14.037  1.00  0.00     0.010 C 
HETATM   18  C26 UNL     1      -7.195   5.549  13.322  1.00  0.00     0.035 C 
ENDROOT
BRANCH   1  19
HETATM   19  C6  UNL     1      -1.030   6.943  13.890  1.00  0.00    -0.013 C 
HETATM   20  C7  UNL     1      -1.173   7.677  15.236  1.00  0.00     0.010 C 
BRANCH  19  21
HETATM   21  C5  UNL     1      -0.023   7.706  12.996  1.00  0.00     0.009 C 
BRANCH  21  22
HETATM   22  C4  UNL     1      -0.237   7.582  11.475  1.00  0.00     0.034 C 
BRANCH  22  23
HETATM   23  C3  UNL     1       0.946   7.028  10.697  1.00  0.00    -0.081 C 
HETATM   24  C2  UNL     1       1.325   5.733  10.773  1.00  0.00    -0.028 C 
HETATM   25  C1  UNL     1       0.732   4.653  11.623  1.00  0.00     0.036 C 
BRANCH  23  26
HETATM   26  C27 UNL     1       1.621   8.023   9.746  1.00  0.00     0.006 C 
HETATM   27  C28 UNL     1       3.033   7.630   9.294  1.00  0.00     0.014 C 
HETATM   28  C29 UNL     1       0.733   8.281   8.524  1.00  0.00     0.014 C 
ENDBRANCH  23  26
ENDBRANCH  22  23
ENDBRANCH  21  22
ENDBRANCH  19  21
ENDBRANCH   1  19
BRANCH   8  29
HETATM   29  O1  UNL     1      -3.077   9.136  15.232  1.00  0.00    -0.394 OA
HETATM   30  H22 UNL     1      -3.056   8.698  16.097  1.00  0.00     0.210 HD
ENDBRANCH   8  29
BRANCH  11  31
HETATM   31  C19 UNL     1      -7.840   7.214  16.643  1.00  0.00     0.178 C 
BRANCH  31  32
HETATM   32  O2  UNL     1      -6.810   6.244  16.796  1.00  0.00    -0.400 OA
HETATM   33  H28 UNL     1      -6.800   6.000  17.742  1.00  0.00     0.209 HD
ENDBRANCH  31  32
ENDBRANCH  11  31
BRANCH  14  34
HETATM   34  O3  UNL     1     -11.152   8.569  16.579  1.00  0.00    -0.396 OA
HETATM   35  H34 UNL     1     -10.362   8.205  17.034  1.00  0.00     0.210 HD
ENDBRANCH  14  34
TORSDOF 9
ENDMDL
MODEL 7
REMARK minimizedAffinity -9.31771755
REMARK CNNscore 0.458714306
REMARK CNNaffinity 6.97633934
REMARK  9 active torsions:
REMARK  status: ('A' for Active; 'I' for Inactive)
REMARK    1  A    between atoms: C3_3  and  C4_4 
REMARK    2  A    between atoms: C3_3  and  C27_30 
REMARK    3  A    between atoms: C4_4  and  C5_5 
REMARK    4  A    between atoms: C5_5  and  C6_6 
REMARK    5  A    between atoms: C6_6  and  C8_8 
REMARK    6  A    between atoms: C15_15  and  O1_16 
REMARK    7  A    between atoms: C18_19  and  C19_20 
REMARK    8  A    between atoms: C19_20  and  O2_21 
REMARK    9  A    between atoms: C22_24  and  O3_25 
ROOT
HETATM    1  C8  UNL     1      -5.676   6.259  13.351  1.00  0.00     0.001 C 
HETATM    2  C9  UNL     1      -5.906   7.713  13.833  1.00  0.00     0.006 C 
HETATM    3  C10 UNL     1      -4.561   8.444  13.667  1.00  0.00     0.010 C 
HETATM    4  C11 UNL     1      -3.672   7.454  12.913  1.00  0.00     0.026 C 
HETATM    5  C12 UNL     1      -2.169   7.618  12.872  1.00  0.00    -0.072 C 
HETATM    6  C13 UNL     1      -1.375   6.544  12.617  1.00  0.00    -0.064 C 
HETATM    7  C14 UNL     1      -1.978   5.141  12.455  1.00  0.00     0.068 C 
HETATM    8  C15 UNL     1      -3.523   5.036  12.500  1.00  0.00     0.131 C 
HETATM    9  C16 UNL     1      -4.131   6.076  13.462  1.00  0.00    -0.006 C 
HETATM   10  C17 UNL     1      -3.678   5.826  14.921  1.00  0.00     0.019 C 
HETATM   11  C18 UNL     1       0.178   6.671  12.555  1.00  0.00     0.009 C 
HETATM   12  C20 UNL     1       0.817   5.779  11.438  1.00  0.00     0.019 C 
HETATM   13  C21 UNL     1       1.917   6.438  10.588  1.00  0.00     0.033 C 
HETATM   14  C22 UNL     1       2.835   7.390  11.344  1.00  0.00     0.118 C 
HETATM   15  C23 UNL     1       2.075   8.420  12.186  1.00  0.00     0.037 C 
HETATM   16  C24 UNL     1       0.560   8.155  12.240  1.00  0.00     0.003 C 
HETATM   17  C25 UNL     1      -0.129   9.135  13.187  1.00  0.00     0.010 C 
HETATM   18  C26 UNL     1      -1.648   9.023  13.064  1.00  0.00     0.035 C 
ENDROOT
BRANCH   1  19
HETATM   19  C6  UNL     1      -6.613   5.174  13.962  1.00  0.00    -0.013 C 
HETATM   20  C7  UNL     1      -6.965   4.150  12.867  1.00  0.00     0.010 C 
BRANCH  19  21
HETATM   21  C5  UNL     1      -7.917   5.705  14.603  1.00  0.00     0.009 C 
BRANCH  21  22
HETATM   22  C4  UNL     1      -8.991   6.222  13.626  1.00  0.00     0.034 C 
BRANCH  22  23
HETATM   23  C3  UNL     1     -10.141   6.983  14.268  1.00  0.00    -0.081 C 
HETATM   24  C2  UNL     1      -9.984   7.737  15.377  1.00  0.00    -0.028 C 
HETATM   25  C1  UNL     1      -8.739   7.931  16.186  1.00  0.00     0.036 C 
BRANCH  23  26
HETATM   26  C27 UNL     1     -11.471   6.907  13.511  1.00  0.00     0.006 C 
HETATM   27  C28 UNL     1     -12.665   6.426  14.347  1.00  0.00     0.014 C 
HETATM   28  C29 UNL     1     -11.796   8.258  12.864  1.00  0.00     0.014 C 
ENDBRANCH  23  26
ENDBRANCH  22  23
ENDBRANCH  21  22
ENDBRANCH  19  21
ENDBRANCH   1  19
BRANCH   8  29
HETATM   29  O1  UNL     1      -3.904   3.700  12.824  1.00  0.00    -0.394 OA
HETATM   30  H22 UNL     1      -3.584   3.494  13.716  1.00  0.00     0.210 HD
ENDBRANCH   8  29
BRANCH  11  31
HETATM   31  C19 UNL     1       0.667   6.186  13.962  1.00  0.00     0.178 C 
BRANCH  31  32
HETATM   32  O2  UNL     1       2.028   6.498  14.238  1.00  0.00    -0.400 OA
HETATM   33  H28 UNL     1       2.198   6.201  15.153  1.00  0.00     0.209 HD
ENDBRANCH  31  32
ENDBRANCH  11  31
BRANCH  14  34
HETATM   34  O3  UNL     1       3.729   6.642  12.164  1.00  0.00    -0.396 OA
HETATM   35  H34 UNL     1       3.195   6.305  12.915  1.00  0.00     0.210 HD
ENDBRANCH  14  34
TORSDOF 9
ENDMDL
MODEL 8
REMARK minimizedAffinity -6.01450872
REMARK CNNscore 0.446232766
REMARK CNNaffinity 5.79787493
REMARK  9 active torsions:
REMARK  status: ('A' for Active; 'I' for Inactive)
REMARK    1  A    between atoms: C3_3  and  C4_4 
REMARK    2  A    between atoms: C3_3  and  C27_30 
REMARK    3  A    between atoms: C4_4  and  C5_5 
REMARK    4  A    between atoms: C5_5  and  C6_6 
REMARK    5  A    between atoms: C6_6  and  C8_8 
REMARK    6  A    between atoms: C15_15  and  O1_16 
REMARK    7  A    between atoms: C18_19  and  C19_20 
REMARK    8  A    between atoms: C19_20  and  O2_21 
REMARK    9  A    between atoms: C22_24  and  O3_25 
ROOT
HETATM    1  C8  UNL     1      -5.128 -10.680   3.860  1.00  0.00     0.001 C 
HETATM    2  C9  UNL     1      -3.928 -11.483   3.301  1.00  0.00     0.006 C 
HETATM    3  C10 UNL     1      -3.994 -11.353   1.767  1.00  0.00     0.010 C 
HETATM    4  C11 UNL     1      -5.096 -10.323   1.513  1.00  0.00     0.026 C 
HETATM    5  C12 UNL     1      -5.739 -10.178   0.151  1.00  0.00    -0.072 C 
HETATM    6  C13 UNL     1      -6.975  -9.624   0.040  1.00  0.00    -0.064 C 
HETATM    7  C14 UNL     1      -7.773  -9.222   1.289  1.00  0.00     0.068 C 
HETATM    8  C15 UNL     1      -7.061  -9.387   2.655  1.00  0.00     0.131 C 
HETATM    9  C16 UNL     1      -6.113 -10.603   2.652  1.00  0.00    -0.006 C 
HETATM   10  C17 UNL     1      -6.894 -11.926   2.453  1.00  0.00     0.019 C 
HETATM   11  C18 UNL     1      -7.670  -9.445  -1.345  1.00  0.00     0.009 C 
HETATM   12  C20 UNL     1      -8.476  -8.107  -1.453  1.00  0.00     0.019 C 
HETATM   13  C21 UNL     1      -8.314  -7.319  -2.764  1.00  0.00     0.033 C 
HETATM   14  C22 UNL     1      -8.189  -8.172  -4.020  1.00  0.00     0.118 C 
HETATM   15  C23 UNL     1      -7.143  -9.284  -3.893  1.00  0.00     0.037 C 
HETATM   16  C24 UNL     1      -6.580  -9.422  -2.467  1.00  0.00     0.003 C 
HETATM   17  C25 UNL     1      -5.635 -10.619  -2.369  1.00  0.00     0.010 C 
HETATM   18  C26 UNL     1      -4.904 -10.617  -1.029  1.00  0.00     0.035 C 
ENDROOT
BRANCH   1  19
HETATM   19  C6  UNL     1      -5.670 -11.128   5.250  1.00  0.00    -0.013 C 
HETATM   20  C7  UNL     1      -6.658 -12.292   5.046  1.00  0.00     0.010 C 
BRANCH  19  21
HETATM   21  C5  UNL     1      -6.353 -10.020   6.087  1.00  0.00     0.009 C 
BRANCH  21  22
HETATM   22  C4  UNL     1      -6.798 -10.420   7.508  1.00  0.00     0.034 C 
BRANCH  22  23
HETATM   23  C3  UNL     1      -6.088  -9.693   8.639  1.00  0.00    -0.081 C 
HETATM   24  C2  UNL     1      -6.709  -8.786   9.424  1.00  0.00    -0.028 C 
HETATM   25  C1  UNL     1      -8.121  -8.298   9.322  1.00  0.00     0.036 C 
BRANCH  23  26
HETATM   26  C27 UNL     1      -4.640 -10.132   8.885  1.00  0.00     0.006 C 
HETATM   27  C28 UNL     1      -3.607  -9.519   7.931  1.00  0.00     0.014 C 
HETATM   28  C29 UNL     1      -4.238  -9.859  10.338  1.00  0.00     0.014 C 
ENDBRANCH  23  26
ENDBRANCH  22  23
ENDBRANCH  21  22
ENDBRANCH  19  21
ENDBRANCH   1  19
BRANCH   8  29
HETATM   29  O1  UNL     1      -8.032  -9.451   3.698  1.00  0.00    -0.394 OA
HETATM   30  H22 UNL     1      -8.576 -10.243   3.568  1.00  0.00     0.210 HD
ENDBRANCH   8  29
BRANCH  11  31
HETATM   31  C19 UNL     1      -8.650 -10.662  -1.452  1.00  0.00     0.178 C 
BRANCH  31  32
HETATM   32  O2  UNL     1      -9.989 -10.297  -1.765  1.00  0.00    -0.400 OA
HETATM   33  H28 UNL     1     -10.487 -11.132  -1.861  1.00  0.00     0.209 HD
ENDBRANCH  31  32
ENDBRANCH  11  31
BRANCH  14  34
HETATM   34  O3  UNL     1      -9.461  -8.725  -4.351  1.00  0.00    -0.396 OA
HETATM   35  H34 UNL     1      -9.632  -9.433  -3.694  1.00  0.00     0.210 HD
ENDBRANCH  14  34
TORSDOF 9
ENDMDL
MODEL 9
REMARK minimizedAffinity -6.74512863
REMARK CNNscore 0.439362526
REMARK CNNaffinity 5.7569766
REMARK  9 active torsions:
REMARK  status: ('A' for Active; 'I' for Inactive)
REMARK    1  A    between atoms: C3_3  and  C4_4 
REMARK    2  A    between atoms: C3_3  and  C27_30 
REMARK    3  A    between atoms: C4_4  and  C5_5 
REMARK    4  A    between atoms: C5_5  and  C6_6 
REMARK    5  A    between atoms: C6_6  and  C8_8 
REMARK    6  A    between atoms: C15_15  and  O1_16 
REMARK    7  A    between atoms: C18_19  and  C19_20 
REMARK    8  A    between atoms: C19_20  and  O2_21 
REMARK    9  A    between atoms: C22_24  and  O3_25 
ROOT
HETATM    1  C8  UNL     1      -6.765 -11.389   2.830  1.00  0.00     0.001 C 
HETATM    2  C9  UNL     1      -5.330 -11.066   2.346  1.00  0.00     0.006 C 
HETATM    3  C10 UNL     1      -4.511 -10.730   3.606  1.00  0.00     0.010 C 
HETATM    4  C11 UNL     1      -5.441 -11.068   4.774  1.00  0.00     0.026 C 
HETATM    5  C12 UNL     1      -5.177 -10.542   6.167  1.00  0.00    -0.072 C 
HETATM    6  C13 UNL     1      -6.196 -10.451   7.062  1.00  0.00    -0.064 C 
HETATM    7  C14 UNL     1      -7.636 -10.793   6.652  1.00  0.00     0.068 C 
HETATM    8  C15 UNL     1      -7.843 -11.332   5.216  1.00  0.00     0.131 C 
HETATM    9  C16 UNL     1      -6.846 -10.698   4.226  1.00  0.00    -0.006 C 
HETATM   10  C17 UNL     1      -7.065  -9.169   4.108  1.00  0.00     0.019 C 
HETATM   11  C18 UNL     1      -5.967  -9.925   8.513  1.00  0.00     0.009 C 
HETATM   12  C20 UNL     1      -6.814 -10.696   9.581  1.00  0.00     0.019 C 
HETATM   13  C21 UNL     1      -6.085 -11.084  10.878  1.00  0.00     0.033 C 
HETATM   14  C22 UNL     1      -5.074 -10.062  11.381  1.00  0.00     0.118 C 
HETATM   15  C23 UNL     1      -4.096  -9.595  10.297  1.00  0.00     0.037 C 
HETATM   16  C24 UNL     1      -4.461 -10.110   8.894  1.00  0.00     0.003 C 
HETATM   17  C25 UNL     1      -3.529  -9.518   7.839  1.00  0.00     0.010 C 
HETATM   18  C26 UNL     1      -3.740 -10.203   6.490  1.00  0.00     0.035 C 
ENDROOT
BRANCH   1  19
HETATM   19  C6  UNL     1      -7.910 -11.149   1.800  1.00  0.00    -0.013 C 
HETATM   20  C7  UNL     1      -8.213 -12.475   1.078  1.00  0.00     0.010 C 
BRANCH  19  21
HETATM   21  C5  UNL     1      -7.639 -10.046   0.749  1.00  0.00     0.009 C 
BRANCH  21  22
HETATM   22  C4  UNL     1      -7.909 -10.428  -0.719  1.00  0.00     0.034 C 
BRANCH  22  23
HETATM   23  C3  UNL     1      -7.216  -9.556  -1.755  1.00  0.00    -0.081 C 
HETATM   24  C2  UNL     1      -5.913  -9.706  -2.079  1.00  0.00    -0.028 C 
HETATM   25  C1  UNL     1      -4.927 -10.666  -1.490  1.00  0.00     0.036 C 
BRANCH  23  26
HETATM   26  C27 UNL     1      -8.127  -8.555  -2.473  1.00  0.00     0.006 C 
HETATM   27  C28 UNL     1      -8.567  -7.355  -1.624  1.00  0.00     0.014 C 
HETATM   28  C29 UNL     1      -7.468  -8.066  -3.768  1.00  0.00     0.014 C 
ENDBRANCH  23  26
ENDBRANCH  22  23
ENDBRANCH  21  22
ENDBRANCH  19  21
ENDBRANCH   1  19
BRANCH   8  29
HETATM   29  O1  UNL     1      -9.201 -11.143   4.822  1.00  0.00    -0.394 OA
HETATM   30  H22 UNL     1      -9.386 -10.191   4.793  1.00  0.00     0.210 HD
ENDBRANCH   8  29
BRANCH  11  31
HETATM   31  C19 UNL     1      -6.418  -8.426   8.462  1.00  0.00     0.178 C 
BRANCH  31  32
HETATM   32  O2  UNL     1      -6.281  -7.826   7.179  1.00  0.00    -0.400 OA
HETATM   33  H28 UNL     1      -6.642  -6.922   7.258  1.00  0.00     0.209 HD
ENDBRANCH  31  32
ENDBRANCH  11  31
BRANCH  14  34
HETATM   34  O3  UNL     1      -5.761  -8.946  11.942  1.00  0.00    -0.396 OA
HETATM   35  H34 UNL     1      -6.132  -8.444  11.185  1.00  0.00     0.210 HD
ENDBRANCH  14  34
TORSDOF 9
ENDMDL
