MODEL 1
REMARK minimizedAffinity -8.8796339
REMARK CNNscore 0.646503329
REMARK CNNaffinity 6.76122522
REMARK  9 active torsions:
REMARK  status: ('A' for Active; 'I' for Inactive)
REMARK    1  A    between atoms: C4_4  and  C5_5 
REMARK    2  A    between atoms: C5_5  and  C6_6 
REMARK    3  A    between atoms: C6_6  and  C7_7 
REMARK    4  A    between atoms: C7_7  and  C9_9 
REMARK    5  A    between atoms: C16_16  and  O1_17 
REMARK    6  A    between atoms: C25_27  and  C27_29 
REMARK    7  A    between atoms: C27_29  and  O4_31 
REMARK    8  A    between atoms: C28_32  and  O5_33 
REMARK    9  A    between atoms: C30_35  and  O6_36 
ROOT
HETATM    1  C9  UNL     1      -6.113   6.273  14.815  1.00  0.00    -0.002 C 
HETATM    2  C10 UNL     1      -6.276   5.104  13.818  1.00  0.00     0.007 C 
HETATM    3  C11 UNL     1      -4.913   4.937  13.107  1.00  0.00     0.015 C 
HETATM    4  C12 UNL     1      -3.909   5.755  13.953  1.00  0.00    -0.005 C 
HETATM    5  C13 UNL     1      -3.465   4.846  15.141  1.00  0.00     0.021 C 
HETATM    6  C14 UNL     1      -2.603   6.262  13.357  1.00  0.00     0.003 C 
HETATM    7  C15 UNL     1      -1.993   7.396  13.808  1.00  0.00    -0.030 C 
HETATM    8  C16 UNL     1      -2.711   8.284  14.857  1.00  0.00     0.149 C 
HETATM    9  C17 UNL     1      -4.088   7.811  15.374  1.00  0.00     0.047 C 
HETATM   10  C18 UNL     1      -4.825   6.986  14.321  1.00  0.00    -0.026 C 
HETATM   11  C19 UNL     1      -5.116   7.894  13.089  1.00  0.00     0.016 C 
HETATM   12  C20 UNL     1      -0.630   7.931  13.208  1.00  0.00     0.014 C 
HETATM   13  C21 UNL     1      -1.020   9.193  12.403  1.00  0.00     0.023 C 
HETATM   14  C22 UNL     1       0.031   6.831  12.307  1.00  0.00     0.029 C 
HETATM   15  C23 UNL     1      -0.986   6.173  11.376  1.00  0.00     0.090 C 
HETATM   16  C24 UNL     1      -2.008   5.477  12.231  1.00  0.00     0.157 C 
HETATM   17  O2  UNL     1      -2.356   4.326  11.990  1.00  0.00    -0.293 OA
HETATM   18  C25 UNL     1       1.413   7.196  11.639  1.00  0.00     0.072 C 
HETATM   19  C26 UNL     1       2.217   5.863  11.526  1.00  0.00     0.030 C 
HETATM   20  C28 UNL     1       2.239   8.171  12.523  1.00  0.00     0.139 C 
HETATM   21  C29 UNL     1       1.906   8.021  14.004  1.00  0.00     0.065 C 
HETATM   22  C30 UNL     1       0.416   8.226  14.351  1.00  0.00     0.133 C 
ENDROOT
BRANCH   1  23
HETATM   23  C7  UNL     1      -7.388   7.060  15.229  1.00  0.00    -0.014 C 
HETATM   24  C8  UNL     1      -7.535   7.033  16.760  1.00  0.00     0.010 C 
BRANCH  23  25
HETATM   25  C6  UNL     1      -8.750   6.820  14.537  1.00  0.00     0.008 C 
BRANCH  25  26
HETATM   26  C5  UNL     1      -9.992   7.635  14.931  1.00  0.00     0.028 C 
BRANCH  26  27
HETATM   27  C4  UNL     1     -11.287   7.097  14.390  1.00  0.00    -0.025 C 
HETATM   28  C2  UNL     1     -12.079   7.635  13.442  1.00  0.00    -0.091 C 
HETATM   29  C1  UNL     1     -11.834   8.939  12.735  1.00  0.00     0.042 C 
HETATM   30  C3  UNL     1     -13.340   6.929  13.011  1.00  0.00     0.042 C 
ENDBRANCH  26  27
ENDBRANCH  25  26
ENDBRANCH  23  25
ENDBRANCH   1  23
BRANCH   8  31
HETATM   31  O1  UNL     1      -1.904   8.463  16.012  1.00  0.00    -0.391 OA
HETATM   32  H25 UNL     1      -1.276   9.178  15.777  1.00  0.00     0.210 HD
ENDBRANCH   8  31
BRANCH  22  33
HETATM   33  O6  UNL     1       0.227   9.538  14.903  1.00  0.00    -0.394 OA
HETATM   34  H46 UNL     1       0.896   9.663  15.600  1.00  0.00     0.210 HD
ENDBRANCH  22  33
BRANCH  18  35
HETATM   35  C27 UNL     1       1.391   7.754  10.216  1.00  0.00     0.151 C 
HETATM   36  O3  UNL     1       0.724   8.709   9.841  1.00  0.00    -0.649 OA
BRANCH  35  37
HETATM   37  O4  UNL     1       2.170   7.120   9.329  1.00  0.00    -0.776 OA
HETATM   38  H40 UNL     1       1.966   7.568   8.480  1.00  0.00     0.167 HD
ENDBRANCH  35  37
ENDBRANCH  18  35
BRANCH  20  39
HETATM   39  O5  UNL     1       2.045   9.534  12.159  1.00  0.00    -0.394 OA
HETATM   40  H42 UNL     1       2.639  10.086  12.698  1.00  0.00     0.210 HD
ENDBRANCH  20  39
TORSDOF 9
ENDMDL
MODEL 2
REMARK minimizedAffinity -7.65230751
REMARK CNNscore 0.607670605
REMARK CNNaffinity 6.45743227
REMARK  9 active torsions:
REMARK  status: ('A' for Active; 'I' for Inactive)
REMARK    1  A    between atoms: C4_4  and  C5_5 
REMARK    2  A    between atoms: C5_5  and  C6_6 
REMARK    3  A    between atoms: C6_6  and  C7_7 
REMARK    4  A    between atoms: C7_7  and  C9_9 
REMARK    5  A    between atoms: C16_16  and  O1_17 
REMARK    6  A    between atoms: C25_27  and  C27_29 
REMARK    7  A    between atoms: C27_29  and  O4_31 
REMARK    8  A    between atoms: C28_32  and  O5_33 
REMARK    9  A    between atoms: C30_35  and  O6_36 
ROOT
HETATM    1  C9  UNL     1       2.640   7.488  11.252  1.00  0.00    -0.002 C 
HETATM    2  C10 UNL     1       3.124   8.050   9.896  1.00  0.00     0.007 C 
HETATM    3  C11 UNL     1       4.544   8.614  10.134  1.00  0.00     0.015 C 
HETATM    4  C12 UNL     1       4.983   8.048  11.504  1.00  0.00    -0.005 C 
HETATM    5  C13 UNL     1       5.535   6.611  11.250  1.00  0.00     0.021 C 
HETATM    6  C14 UNL     1       6.067   8.729  12.329  1.00  0.00     0.003 C 
HETATM    7  C15 UNL     1       6.095   8.654  13.691  1.00  0.00    -0.030 C 
HETATM    8  C16 UNL     1       4.917   7.984  14.444  1.00  0.00     0.149 C 
HETATM    9  C17 UNL     1       3.769   7.392  13.595  1.00  0.00     0.047 C 
HETATM   10  C18 UNL     1       3.609   8.141  12.274  1.00  0.00    -0.026 C 
HETATM   11  C19 UNL     1       3.204   9.614  12.581  1.00  0.00     0.016 C 
HETATM   12  C20 UNL     1       7.221   9.345  14.563  1.00  0.00     0.014 C 
HETATM   13  C21 UNL     1       6.513  10.535  15.253  1.00  0.00     0.023 C 
HETATM   14  C22 UNL     1       8.406   9.807  13.646  1.00  0.00     0.029 C 
HETATM   15  C23 UNL     1       7.907  10.506  12.383  1.00  0.00     0.090 C 
HETATM   16  C24 UNL     1       7.108   9.509  11.591  1.00  0.00     0.157 C 
HETATM   17  O2  UNL     1       7.288   9.370  10.385  1.00  0.00    -0.293 OA
HETATM   18  C25 UNL     1       9.627  10.505  14.361  1.00  0.00     0.072 C 
HETATM   19  C26 UNL     1      10.895  10.142  13.528  1.00  0.00     0.030 C 
HETATM   20  C28 UNL     1       9.837   9.962  15.802  1.00  0.00     0.139 C 
HETATM   21  C29 UNL     1       9.338   8.528  15.949  1.00  0.00     0.065 C 
HETATM   22  C30 UNL     1       7.852   8.324  15.587  1.00  0.00     0.133 C 
ENDROOT
BRANCH   1  23
HETATM   23  C7  UNL     1       1.108   7.406  11.500  1.00  0.00    -0.014 C 
HETATM   24  C8  UNL     1       0.478   6.416  10.505  1.00  0.00     0.010 C 
BRANCH  23  25
HETATM   25  C6  UNL     1       0.239   8.678  11.640  1.00  0.00     0.008 C 
BRANCH  25  26
HETATM   26  C5  UNL     1      -1.287   8.581  11.791  1.00  0.00     0.028 C 
BRANCH  26  27
HETATM   27  C4  UNL     1      -1.754   8.228  13.176  1.00  0.00    -0.025 C 
HETATM   28  C2  UNL     1      -2.225   7.045  13.618  1.00  0.00    -0.091 C 
HETATM   29  C1  UNL     1      -2.412   5.811  12.780  1.00  0.00     0.042 C 
HETATM   30  C3  UNL     1      -2.626   6.875  15.061  1.00  0.00     0.042 C 
ENDBRANCH  26  27
ENDBRANCH  25  26
ENDBRANCH  23  25
ENDBRANCH   1  23
BRANCH   8  31
HETATM   31  O1  UNL     1       5.375   6.923  15.269  1.00  0.00    -0.391 OA
HETATM   32  H25 UNL     1       5.703   7.357  16.085  1.00  0.00     0.210 HD
ENDBRANCH   8  31
BRANCH  22  33
HETATM   33  O6  UNL     1       7.071   8.243  16.790  1.00  0.00    -0.394 OA
HETATM   34  H46 UNL     1       7.505   7.602  17.380  1.00  0.00     0.210 HD
ENDBRANCH  22  33
BRANCH  18  35
HETATM   35  C27 UNL     1       9.634  12.033  14.428  1.00  0.00     0.151 C 
HETATM   36  O3  UNL     1      10.561  12.752  14.077  1.00  0.00    -0.649 OA
BRANCH  35  37
HETATM   37  O4  UNL     1       8.525  12.600  14.922  1.00  0.00    -0.776 OA
HETATM   38  H40 UNL     1       8.748  13.554  14.953  1.00  0.00     0.167 HD
ENDBRANCH  35  37
ENDBRANCH  18  35
BRANCH  20  39
HETATM   39  O5  UNL     1       9.191  10.762  16.785  1.00  0.00    -0.394 OA
HETATM   40  H42 UNL     1       9.416  10.414  17.666  1.00  0.00     0.210 HD
ENDBRANCH  20  39
TORSDOF 9
ENDMDL
MODEL 3
REMARK minimizedAffinity -8.52641201
REMARK CNNscore 0.602858484
REMARK CNNaffinity 6.78475761
REMARK  9 active torsions:
REMARK  status: ('A' for Active; 'I' for Inactive)
REMARK    1  A    between atoms: C4_4  and  C5_5 
REMARK    2  A    between atoms: C5_5  and  C6_6 
REMARK    3  A    between atoms: C6_6  and  C7_7 
REMARK    4  A    between atoms: C7_7  and  C9_9 
REMARK    5  A    between atoms: C16_16  and  O1_17 
REMARK    6  A    between atoms: C25_27  and  C27_29 
REMARK    7  A    between atoms: C27_29  and  O4_31 
REMARK    8  A    between atoms: C28_32  and  O5_33 
REMARK    9  A    between atoms: C30_35  and  O6_36 
ROOT
HETATM    1  C9  UNL     1      -8.100   6.316  14.401  1.00  0.00    -0.002 C 
HETATM    2  C10 UNL     1      -8.483   5.524  13.131  1.00  0.00     0.007 C 
HETATM    3  C11 UNL     1      -7.159   5.017  12.512  1.00  0.00     0.015 C 
HETATM    4  C12 UNL     1      -6.093   5.212  13.614  1.00  0.00    -0.005 C 
HETATM    5  C13 UNL     1      -6.186   3.979  14.565  1.00  0.00     0.021 C 
HETATM    6  C14 UNL     1      -4.613   5.314  13.271  1.00  0.00     0.003 C 
HETATM    7  C15 UNL     1      -3.737   6.023  14.041  1.00  0.00    -0.030 C 
HETATM    8  C16 UNL     1      -4.274   6.875  15.220  1.00  0.00     0.149 C 
HETATM    9  C17 UNL     1      -5.796   6.847  15.489  1.00  0.00     0.047 C 
HETATM   10  C18 UNL     1      -6.584   6.589  14.207  1.00  0.00    -0.026 C 
HETATM   11  C19 UNL     1      -6.342   7.775  13.225  1.00  0.00     0.016 C 
HETATM   12  C20 UNL     1      -2.195   6.129  13.705  1.00  0.00     0.014 C 
HETATM   13  C21 UNL     1      -1.994   7.583  13.218  1.00  0.00     0.023 C 
HETATM   14  C22 UNL     1      -1.807   5.074  12.611  1.00  0.00     0.029 C 
HETATM   15  C23 UNL     1      -2.818   5.046  11.466  1.00  0.00     0.090 C 
HETATM   16  C24 UNL     1      -4.141   4.616  12.034  1.00  0.00     0.157 C 
HETATM   17  O2  UNL     1      -4.815   3.751  11.483  1.00  0.00    -0.293 OA
HETATM   18  C25 UNL     1      -0.292   5.034  12.169  1.00  0.00     0.072 C 
HETATM   19  C26 UNL     1       0.018   3.553  11.787  1.00  0.00     0.030 C 
HETATM   20  C28 UNL     1       0.657   5.430  13.334  1.00  0.00     0.139 C 
HETATM   21  C29 UNL     1       0.053   5.110  14.697  1.00  0.00     0.065 C 
HETATM   22  C30 UNL     1      -1.314   5.774  14.966  1.00  0.00     0.133 C 
ENDROOT
BRANCH   1  23
HETATM   23  C7  UNL     1      -9.082   7.414  14.898  1.00  0.00    -0.014 C 
HETATM   24  C8  UNL     1      -8.890   7.630  16.409  1.00  0.00     0.010 C 
BRANCH  23  25
HETATM   25  C6  UNL     1     -10.584   7.387  14.529  1.00  0.00     0.008 C 
BRANCH  25  26
HETATM   26  C5  UNL     1     -11.037   7.197  13.073  1.00  0.00     0.028 C 
BRANCH  26  27
HETATM   27  C4  UNL     1     -12.459   7.605  12.806  1.00  0.00    -0.025 C 
HETATM   28  C2  UNL     1     -13.588   7.049  13.288  1.00  0.00    -0.091 C 
HETATM   29  C1  UNL     1     -13.653   5.851  14.194  1.00  0.00     0.042 C 
HETATM   30  C3  UNL     1     -14.935   7.617  12.921  1.00  0.00     0.042 C 
ENDBRANCH  26  27
ENDBRANCH  25  26
ENDBRANCH  23  25
ENDBRANCH   1  23
BRANCH   8  31
HETATM   31  O1  UNL     1      -3.657   6.500  16.443  1.00  0.00    -0.391 OA
HETATM   32  H25 UNL     1      -2.794   6.965  16.447  1.00  0.00     0.210 HD
ENDBRANCH   8  31
BRANCH  22  33
HETATM   33  O6  UNL     1      -1.135   6.918  15.815  1.00  0.00    -0.394 OA
HETATM   34  H46 UNL     1      -0.589   6.640  16.571  1.00  0.00     0.210 HD
ENDBRANCH  22  33
BRANCH  18  35
HETATM   35  C27 UNL     1       0.112   5.843  10.936  1.00  0.00     0.151 C 
HETATM   36  O3  UNL     1       0.855   5.452  10.045  1.00  0.00    -0.649 OA
BRANCH  35  37
HETATM   37  O4  UNL     1      -0.401   7.079  10.857  1.00  0.00    -0.776 OA
HETATM   38  H40 UNL     1       0.024   7.454  10.056  1.00  0.00     0.167 HD
ENDBRANCH  35  37
ENDBRANCH  18  35
BRANCH  20  39
HETATM   39  O5  UNL     1       1.000   6.811  13.311  1.00  0.00    -0.394 OA
HETATM   40  H42 UNL     1       1.648   6.981  14.018  1.00  0.00     0.210 HD
ENDBRANCH  20  39
TORSDOF 9
ENDMDL
MODEL 4
REMARK minimizedAffinity -9.54950237
REMARK CNNscore 0.588362098
REMARK CNNaffinity 6.76749849
REMARK  9 active torsions:
REMARK  status: ('A' for Active; 'I' for Inactive)
REMARK    1  A    between atoms: C4_4  and  C5_5 
REMARK    2  A    between atoms: C5_5  and  C6_6 
REMARK    3  A    between atoms: C6_6  and  C7_7 
REMARK    4  A    between atoms: C7_7  and  C9_9 
REMARK    5  A    between atoms: C16_16  and  O1_17 
REMARK    6  A    between atoms: C25_27  and  C27_29 
REMARK    7  A    between atoms: C27_29  and  O4_31 
REMARK    8  A    between atoms: C28_32  and  O5_33 
REMARK    9  A    between atoms: C30_35  and  O6_36 
ROOT
HETATM    1  C9  UNL     1      -2.075   6.073  13.387  1.00  0.00    -0.002 C 
HETATM    2  C10 UNL     1      -2.133   5.473  11.964  1.00  0.00     0.007 C 
HETATM    3  C11 UNL     1      -0.698   5.556  11.392  1.00  0.00     0.015 C 
HETATM    4  C12 UNL     1       0.208   5.857  12.607  1.00  0.00    -0.005 C 
HETATM    5  C13 UNL     1       0.504   4.494  13.307  1.00  0.00     0.021 C 
HETATM    6  C14 UNL     1       1.579   6.497  12.431  1.00  0.00     0.003 C 
HETATM    7  C15 UNL     1       2.143   7.279  13.396  1.00  0.00    -0.030 C 
HETATM    8  C16 UNL     1       1.317   7.655  14.653  1.00  0.00     0.149 C 
HETATM    9  C17 UNL     1      -0.114   7.086  14.767  1.00  0.00     0.047 C 
HETATM   10  C18 UNL     1      -0.733   6.853  13.390  1.00  0.00    -0.026 C 
HETATM   11  C19 UNL     1      -0.871   8.226  12.666  1.00  0.00     0.016 C 
HETATM   12  C20 UNL     1       3.571   7.941  13.234  1.00  0.00     0.014 C 
HETATM   13  C21 UNL     1       3.288   9.449  13.038  1.00  0.00     0.023 C 
HETATM   14  C22 UNL     1       4.322   7.312  12.008  1.00  0.00     0.029 C 
HETATM   15  C23 UNL     1       3.413   7.191  10.787  1.00  0.00     0.090 C 
HETATM   16  C24 UNL     1       2.293   6.253  11.139  1.00  0.00     0.157 C 
HETATM   17  O2  UNL     1       1.964   5.347  10.379  1.00  0.00    -0.293 OA
HETATM   18  C25 UNL     1       5.775   7.850  11.713  1.00  0.00     0.072 C 
HETATM   19  C26 UNL     1       6.574   6.658  11.101  1.00  0.00     0.030 C 
HETATM   20  C28 UNL     1       6.503   8.287  13.015  1.00  0.00     0.139 C 
HETATM   21  C29 UNL     1       5.999   7.521  14.234  1.00  0.00     0.065 C 
HETATM   22  C30 UNL     1       4.481   7.641  14.487  1.00  0.00     0.133 C 
ENDROOT
BRANCH   1  23
HETATM   23  C7  UNL     1      -3.382   6.672  13.978  1.00  0.00    -0.014 C 
HETATM   24  C8  UNL     1      -3.493   6.297  15.466  1.00  0.00     0.010 C 
BRANCH  23  25
HETATM   25  C6  UNL     1      -4.745   6.511  13.263  1.00  0.00     0.008 C 
BRANCH  25  26
HETATM   26  C5  UNL     1      -5.640   5.292  13.534  1.00  0.00     0.028 C 
BRANCH  26  27
HETATM   27  C4  UNL     1      -5.405   4.130  12.610  1.00  0.00    -0.025 C 
HETATM   28  C2  UNL     1      -6.244   3.118  12.317  1.00  0.00    -0.091 C 
HETATM   29  C1  UNL     1      -7.617   2.926  12.899  1.00  0.00     0.042 C 
HETATM   30  C3  UNL     1      -5.836   2.045  11.339  1.00  0.00     0.042 C 
ENDBRANCH  26  27
ENDBRANCH  25  26
ENDBRANCH  23  25
ENDBRANCH   1  23
BRANCH   8  31
HETATM   31  O1  UNL     1       1.988   7.261  15.841  1.00  0.00    -0.391 OA
HETATM   32  H25 UNL     1       2.645   7.967  16.011  1.00  0.00     0.210 HD
ENDBRANCH   8  31
BRANCH  22  33
HETATM   33  O6  UNL     1       4.242   8.585  15.542  1.00  0.00    -0.394 OA
HETATM   34  H46 UNL     1       4.828   8.351  16.284  1.00  0.00     0.210 HD
ENDBRANCH  22  33
BRANCH  18  35
HETATM   35  C27 UNL     1       5.922   8.978  10.690  1.00  0.00     0.151 C 
HETATM   36  O3  UNL     1       5.010   9.456  10.028  1.00  0.00    -0.649 OA
BRANCH  35  37
HETATM   37  O4  UNL     1       7.163   9.455  10.523  1.00  0.00    -0.776 OA
HETATM   38  H40 UNL     1       7.065  10.102   9.792  1.00  0.00     0.167 HD
ENDBRANCH  35  37
ENDBRANCH  18  35
BRANCH  20  39
HETATM   39  O5  UNL     1       6.364   9.680  13.275  1.00  0.00    -0.394 OA
HETATM   40  H42 UNL     1       6.897   9.903  14.059  1.00  0.00     0.210 HD
ENDBRANCH  20  39
TORSDOF 9
ENDMDL
MODEL 5
REMARK minimizedAffinity -8.98275948
REMARK CNNscore 0.563796103
REMARK CNNaffinity 7.08620405
REMARK  9 active torsions:
REMARK  status: ('A' for Active; 'I' for Inactive)
REMARK    1  A    between atoms: C4_4  and  C5_5 
REMARK    2  A    between atoms: C5_5  and  C6_6 
REMARK    3  A    between atoms: C6_6  and  C7_7 
REMARK    4  A    between atoms: C7_7  and  C9_9 
REMARK    5  A    between atoms: C16_16  and  O1_17 
REMARK    6  A    between atoms: C25_27  and  C27_29 
REMARK    7  A    between atoms: C27_29  and  O4_31 
REMARK    8  A    between atoms: C28_32  and  O5_33 
REMARK    9  A    between atoms: C30_35  and  O6_36 
ROOT
HETATM    1  C9  UNL     1      -3.848   7.199  14.567  1.00  0.00    -0.002 C 
HETATM    2  C10 UNL     1      -4.392   5.940  13.855  1.00  0.00     0.007 C 
HETATM    3  C11 UNL     1      -3.247   5.412  12.959  1.00  0.00     0.015 C 
HETATM    4  C12 UNL     1      -1.977   6.149  13.443  1.00  0.00    -0.005 C 
HETATM    5  C13 UNL     1      -1.441   5.371  14.684  1.00  0.00     0.021 C 
HETATM    6  C14 UNL     1      -0.761   6.304  12.539  1.00  0.00     0.003 C 
HETATM    7  C15 UNL     1       0.096   7.360  12.652  1.00  0.00    -0.030 C 
HETATM    8  C16 UNL     1      -0.245   8.520  13.624  1.00  0.00     0.149 C 
HETATM    9  C17 UNL     1      -1.541   8.399  14.456  1.00  0.00     0.047 C 
HETATM   10  C18 UNL     1      -2.597   7.572  13.727  1.00  0.00    -0.026 C 
HETATM   11  C19 UNL     1      -2.995   8.315  12.415  1.00  0.00     0.016 C 
HETATM   12  C20 UNL     1       1.370   7.530  11.730  1.00  0.00     0.014 C 
HETATM   13  C21 UNL     1       1.020   8.701  10.782  1.00  0.00     0.023 C 
HETATM   14  C22 UNL     1       1.654   6.198  10.951  1.00  0.00     0.029 C 
HETATM   15  C23 UNL     1       0.378   5.605  10.357  1.00  0.00     0.090 C 
HETATM   16  C24 UNL     1      -0.539   5.255  11.496  1.00  0.00     0.157 C 
HETATM   17  O2  UNL     1      -1.101   4.166  11.543  1.00  0.00    -0.293 OA
HETATM   18  C25 UNL     1       2.907   6.189   9.993  1.00  0.00     0.072 C 
HETATM   19  C26 UNL     1       3.456   4.728   9.995  1.00  0.00     0.030 C 
HETATM   20  C28 UNL     1       4.038   7.119  10.515  1.00  0.00     0.139 C 
HETATM   21  C29 UNL     1       3.999   7.267  12.033  1.00  0.00     0.065 C 
HETATM   22  C30 UNL     1       2.663   7.799  12.593  1.00  0.00     0.133 C 
ENDROOT
BRANCH   1  23
HETATM   23  C7  UNL     1      -4.874   8.266  15.042  1.00  0.00    -0.014 C 
HETATM   24  C8  UNL     1      -4.144   9.366  15.831  1.00  0.00     0.010 C 
BRANCH  23  25
HETATM   25  C6  UNL     1      -6.195   7.867  15.742  1.00  0.00     0.008 C 
BRANCH  25  26
HETATM   26  C5  UNL     1      -6.905   6.550  15.397  1.00  0.00     0.028 C 
BRANCH  26  27
HETATM   27  C4  UNL     1      -7.660   6.571  14.098  1.00  0.00    -0.025 C 
HETATM   28  C2  UNL     1      -7.976   5.530  13.303  1.00  0.00    -0.091 C 
HETATM   29  C1  UNL     1      -7.598   4.095  13.550  1.00  0.00     0.042 C 
HETATM   30  C3  UNL     1      -8.766   5.747  12.037  1.00  0.00     0.042 C 
ENDBRANCH  26  27
ENDBRANCH  25  26
ENDBRANCH  23  25
ENDBRANCH   1  23
BRANCH   8  31
HETATM   31  O1  UNL     1       0.801   8.723  14.562  1.00  0.00    -0.391 OA
HETATM   32  H25 UNL     1       1.469   9.262  14.088  1.00  0.00     0.210 HD
ENDBRANCH   8  31
BRANCH  22  33
HETATM   33  O6  UNL     1       2.796   9.193  12.910  1.00  0.00    -0.394 OA
HETATM   34  H46 UNL     1       3.606   9.298  13.441  1.00  0.00     0.210 HD
ENDBRANCH  22  33
BRANCH  18  35
HETATM   35  C27 UNL     1       2.677   6.512   8.516  1.00  0.00     0.151 C 
HETATM   36  O3  UNL     1       2.390   7.615   8.070  1.00  0.00    -0.649 OA
BRANCH  35  37
HETATM   37  O4  UNL     1       2.798   5.481   7.668  1.00  0.00    -0.776 OA
HETATM   38  H40 UNL     1       2.546   5.865   6.801  1.00  0.00     0.167 HD
ENDBRANCH  35  37
ENDBRANCH  18  35
BRANCH  20  39
HETATM   39  O5  UNL     1       3.984   8.419   9.939  1.00  0.00    -0.394 OA
HETATM   40  H42 UNL     1       4.753   8.928  10.249  1.00  0.00     0.210 HD
ENDBRANCH  20  39
TORSDOF 9
ENDMDL
MODEL 6
REMARK minimizedAffinity -7.92485952
REMARK CNNscore 0.563161314
REMARK CNNaffinity 6.58832788
REMARK  9 active torsions:
REMARK  status: ('A' for Active; 'I' for Inactive)
REMARK    1  A    between atoms: C4_4  and  C5_5 
REMARK    2  A    between atoms: C5_5  and  C6_6 
REMARK    3  A    between atoms: C6_6  and  C7_7 
REMARK    4  A    between atoms: C7_7  and  C9_9 
REMARK    5  A    between atoms: C16_16  and  O1_17 
REMARK    6  A    between atoms: C25_27  and  C27_29 
REMARK    7  A    between atoms: C27_29  and  O4_31 
REMARK    8  A    between atoms: C28_32  and  O5_33 
REMARK    9  A    between atoms: C30_35  and  O6_36 
ROOT
HETATM    1  C9  UNL     1      -7.429   6.641  15.037  1.00  0.00    -0.002 C 
HETATM    2  C10 UNL     1      -7.357   5.316  14.246  1.00  0.00     0.007 C 
HETATM    3  C11 UNL     1      -5.877   5.128  13.836  1.00  0.00     0.015 C 
HETATM    4  C12 UNL     1      -5.084   6.140  14.694  1.00  0.00    -0.005 C 
HETATM    5  C13 UNL     1      -4.843   5.472  16.083  1.00  0.00     0.021 C 
HETATM    6  C14 UNL     1      -3.708   6.630  14.267  1.00  0.00     0.003 C 
HETATM    7  C15 UNL     1      -3.236   7.862  14.617  1.00  0.00    -0.030 C 
HETATM    8  C16 UNL     1      -4.173   8.859  15.347  1.00  0.00     0.149 C 
HETATM    9  C17 UNL     1      -5.606   8.384  15.678  1.00  0.00     0.047 C 
HETATM   10  C18 UNL     1      -6.098   7.349  14.669  1.00  0.00    -0.026 C 
HETATM   11  C19 UNL     1      -6.180   8.021  13.265  1.00  0.00     0.016 C 
HETATM   12  C20 UNL     1      -1.804   8.382  14.192  1.00  0.00     0.014 C 
HETATM   13  C21 UNL     1      -2.078   9.466  13.122  1.00  0.00     0.023 C 
HETATM   14  C22 UNL     1      -0.943   7.196  13.632  1.00  0.00     0.029 C 
HETATM   15  C23 UNL     1      -1.739   6.327  12.661  1.00  0.00     0.090 C 
HETATM   16  C24 UNL     1      -2.880   5.713  13.423  1.00  0.00     0.157 C 
HETATM   17  O2  UNL     1      -3.134   4.517  13.328  1.00  0.00    -0.293 OA
HETATM   18  C25 UNL     1       0.527   7.540  13.175  1.00  0.00     0.072 C 
HETATM   19  C26 UNL     1       1.385   6.265  13.445  1.00  0.00     0.030 C 
HETATM   20  C28 UNL     1       1.133   8.702  14.011  1.00  0.00     0.139 C 
HETATM   21  C29 UNL     1       0.528   8.775  15.409  1.00  0.00     0.065 C 
HETATM   22  C30 UNL     1      -1.007   8.932  15.437  1.00  0.00     0.133 C 
ENDROOT
BRANCH   1  23
HETATM   23  C7  UNL     1      -8.788   7.397  15.067  1.00  0.00    -0.014 C 
HETATM   24  C8  UNL     1      -9.028   7.966  16.476  1.00  0.00     0.010 C 
BRANCH  23  25
HETATM   25  C6  UNL     1     -10.080   6.767  14.496  1.00  0.00     0.008 C 
BRANCH  25  26
HETATM   26  C5  UNL     1     -10.476   6.971  13.026  1.00  0.00     0.028 C 
BRANCH  26  27
HETATM   27  C4  UNL     1     -11.781   7.691  12.828  1.00  0.00    -0.025 C 
HETATM   28  C2  UNL     1     -12.999   7.347  13.289  1.00  0.00    -0.091 C 
HETATM   29  C1  UNL     1     -13.312   6.117  14.096  1.00  0.00     0.042 C 
HETATM   30  C3  UNL     1     -14.198   8.216  13.003  1.00  0.00     0.042 C 
ENDBRANCH  26  27
ENDBRANCH  25  26
ENDBRANCH  23  25
ENDBRANCH   1  23
BRANCH   8  31
HETATM   31  O1  UNL     1      -3.609   9.280  16.580  1.00  0.00    -0.391 OA
HETATM   32  H25 UNL     1      -2.974   9.988  16.342  1.00  0.00     0.210 HD
ENDBRANCH   8  31
BRANCH  22  33
HETATM   33  O6  UNL     1      -1.345  10.301  15.708  1.00  0.00    -0.394 OA
HETATM   34  H46 UNL     1      -0.827  10.585  16.483  1.00  0.00     0.210 HD
ENDBRANCH  22  33
BRANCH  18  35
HETATM   35  C27 UNL     1       0.758   7.854  11.696  1.00  0.00     0.151 C 
HETATM   36  O3  UNL     1       1.765   8.370  11.231  1.00  0.00    -0.649 OA
BRANCH  35  37
HETATM   37  O4  UNL     1      -0.247   7.533  10.869  1.00  0.00    -0.776 OA
HETATM   38  H40 UNL     1       0.053   7.872   9.999  1.00  0.00     0.167 HD
ENDBRANCH  35  37
ENDBRANCH  18  35
BRANCH  20  39
HETATM   39  O5  UNL     1       0.964   9.969  13.385  1.00  0.00    -0.394 OA
HETATM   40  H42 UNL     1       1.423  10.642  13.918  1.00  0.00     0.210 HD
ENDBRANCH  20  39
TORSDOF 9
ENDMDL
MODEL 7
REMARK minimizedAffinity -9.35541344
REMARK CNNscore 0.547238231
REMARK CNNaffinity 7.00775862
REMARK  9 active torsions:
REMARK  status: ('A' for Active; 'I' for Inactive)
REMARK    1  A    between atoms: C4_4  and  C5_5 
REMARK    2  A    between atoms: C5_5  and  C6_6 
REMARK    3  A    between atoms: C6_6  and  C7_7 
REMARK    4  A    between atoms: C7_7  and  C9_9 
REMARK    5  A    between atoms: C16_16  and  O1_17 
REMARK    6  A    between atoms: C25_27  and  C27_29 
REMARK    7  A    between atoms: C27_29  and  O4_31 
REMARK    8  A    between atoms: C28_32  and  O5_33 
REMARK    9  A    between atoms: C30_35  and  O6_36 
ROOT
HETATM    1  C9  UNL     1      -6.777   6.838  14.188  1.00  0.00    -0.002 C 
HETATM    2  C10 UNL     1      -7.038   8.174  14.920  1.00  0.00     0.007 C 
HETATM    3  C11 UNL     1      -5.659   8.847  15.112  1.00  0.00     0.015 C 
HETATM    4  C12 UNL     1      -4.695   8.075  14.182  1.00  0.00    -0.005 C 
HETATM    5  C13 UNL     1      -4.854   8.680  12.754  1.00  0.00     0.021 C 
HETATM    6  C14 UNL     1      -3.192   8.075  14.427  1.00  0.00     0.003 C 
HETATM    7  C15 UNL     1      -2.396   7.032  14.053  1.00  0.00    -0.030 C 
HETATM    8  C16 UNL     1      -3.045   5.739  13.493  1.00  0.00     0.149 C 
HETATM    9  C17 UNL     1      -4.584   5.714  13.351  1.00  0.00     0.047 C 
HETATM   10  C18 UNL     1      -5.254   6.613  14.387  1.00  0.00    -0.026 C 
HETATM   11  C19 UNL     1      -4.942   6.056  15.809  1.00  0.00     0.016 C 
HETATM   12  C20 UNL     1      -0.832   7.021  14.289  1.00  0.00     0.014 C 
HETATM   13  C21 UNL     1      -0.609   5.989  15.419  1.00  0.00     0.023 C 
HETATM   14  C22 UNL     1      -0.336   8.455  14.685  1.00  0.00     0.029 C 
HETATM   15  C23 UNL     1      -1.243   9.100  15.731  1.00  0.00     0.090 C 
HETATM   16  C24 UNL     1      -2.605   9.266  15.118  1.00  0.00     0.157 C 
HETATM   17  O2  UNL     1      -3.217  10.325  15.212  1.00  0.00    -0.293 OA
HETATM   18  C25 UNL     1       1.211   8.626  14.942  1.00  0.00     0.072 C 
HETATM   19  C26 UNL     1       1.573  10.083  14.516  1.00  0.00     0.030 C 
HETATM   20  C28 UNL     1       2.051   7.655  14.065  1.00  0.00     0.139 C 
HETATM   21  C29 UNL     1       1.334   7.293  12.769  1.00  0.00     0.065 C 
HETATM   22  C30 UNL     1      -0.060   6.659  12.961  1.00  0.00     0.133 C 
ENDROOT
BRANCH   1  23
HETATM   23  C7  UNL     1      -7.813   5.693  14.372  1.00  0.00    -0.014 C 
HETATM   24  C8  UNL     1      -7.415   4.828  15.580  1.00  0.00     0.010 C 
BRANCH  23  25
HETATM   25  C6  UNL     1      -8.267   4.811  13.185  1.00  0.00     0.008 C 
BRANCH  25  26
HETATM   26  C5  UNL     1      -7.552   3.490  12.863  1.00  0.00     0.028 C 
BRANCH  26  27
HETATM   27  C4  UNL     1      -6.313   3.642  12.025  1.00  0.00    -0.025 C 
HETATM   28  C2  UNL     1      -5.659   2.692  11.329  1.00  0.00    -0.091 C 
HETATM   29  C1  UNL     1      -6.033   1.236  11.274  1.00  0.00     0.042 C 
HETATM   30  C3  UNL     1      -4.435   3.043  10.522  1.00  0.00     0.042 C 
ENDBRANCH  26  27
ENDBRANCH  25  26
ENDBRANCH  23  25
ENDBRANCH   1  23
BRANCH   8  31
HETATM   31  O1  UNL     1      -2.532   5.427  12.206  1.00  0.00    -0.391 OA
HETATM   32  H25 UNL     1      -1.679   4.975  12.374  1.00  0.00     0.210 HD
ENDBRANCH   8  31
BRANCH  22  33
HETATM   33  O6  UNL     1       0.029   5.237  12.782  1.00  0.00    -0.394 OA
HETATM   34  H46 UNL     1       0.511   5.074  11.952  1.00  0.00     0.210 HD
ENDBRANCH  22  33
BRANCH  18  35
HETATM   35  C27 UNL     1       1.710   8.511  16.383  1.00  0.00     0.151 C 
HETATM   36  O3  UNL     1       1.708   9.415  17.207  1.00  0.00    -0.649 OA
BRANCH  35  37
HETATM   37  O4  UNL     1       2.190   7.311  16.739  1.00  0.00    -0.776 OA
HETATM   38  H40 UNL     1       2.522   7.456  17.651  1.00  0.00     0.167 HD
ENDBRANCH  35  37
ENDBRANCH  18  35
BRANCH  20  39
HETATM   39  O5  UNL     1       2.376   6.449  14.747  1.00  0.00    -0.394 OA
HETATM   40  H42 UNL     1       2.958   5.917  14.176  1.00  0.00     0.210 HD
ENDBRANCH  20  39
TORSDOF 9
ENDMDL
MODEL 8
REMARK minimizedAffinity -8.08367062
REMARK CNNscore 0.536704004
REMARK CNNaffinity 6.40758705
REMARK  9 active torsions:
REMARK  status: ('A' for Active; 'I' for Inactive)
REMARK    1  A    between atoms: C4_4  and  C5_5 
REMARK    2  A    between atoms: C5_5  and  C6_6 
REMARK    3  A    between atoms: C6_6  and  C7_7 
REMARK    4  A    between atoms: C7_7  and  C9_9 
REMARK    5  A    between atoms: C16_16  and  O1_17 
REMARK    6  A    between atoms: C25_27  and  C27_29 
REMARK    7  A    between atoms: C27_29  and  O4_31 
REMARK    8  A    between atoms: C28_32  and  O5_33 
REMARK    9  A    between atoms: C30_35  and  O6_36 
ROOT
HETATM    1  C9  UNL     1       2.507   7.444  11.306  1.00  0.00    -0.002 C 
HETATM    2  C10 UNL     1       2.978   7.961   9.928  1.00  0.00     0.007 C 
HETATM    3  C11 UNL     1       4.407   8.516  10.131  1.00  0.00     0.015 C 
HETATM    4  C12 UNL     1       4.859   7.985  11.511  1.00  0.00    -0.005 C 
HETATM    5  C13 UNL     1       5.392   6.535  11.291  1.00  0.00     0.021 C 
HETATM    6  C14 UNL     1       5.962   8.677  12.301  1.00  0.00     0.003 C 
HETATM    7  C15 UNL     1       6.008   8.641  13.664  1.00  0.00    -0.030 C 
HETATM    8  C16 UNL     1       4.833   8.006  14.452  1.00  0.00     0.149 C 
HETATM    9  C17 UNL     1       3.667   7.403  13.636  1.00  0.00     0.047 C 
HETATM   10  C18 UNL     1       3.497   8.115  12.296  1.00  0.00    -0.026 C 
HETATM   11  C19 UNL     1       3.111   9.601  12.566  1.00  0.00     0.016 C 
HETATM   12  C20 UNL     1       7.153   9.344  14.500  1.00  0.00     0.014 C 
HETATM   13  C21 UNL     1       6.467  10.561  15.165  1.00  0.00     0.023 C 
HETATM   14  C22 UNL     1       8.330   9.767  13.554  1.00  0.00     0.029 C 
HETATM   15  C23 UNL     1       7.821  10.435  12.278  1.00  0.00     0.090 C 
HETATM   16  C24 UNL     1       7.001   9.425  11.526  1.00  0.00     0.157 C 
HETATM   17  O2  UNL     1       7.162   9.249  10.323  1.00  0.00    -0.293 OA
HETATM   18  C25 UNL     1       9.568  10.472  14.232  1.00  0.00     0.072 C 
HETATM   19  C26 UNL     1      10.821  10.071  13.392  1.00  0.00     0.030 C 
HETATM   20  C28 UNL     1       9.792   9.968  15.685  1.00  0.00     0.139 C 
HETATM   21  C29 UNL     1       9.281   8.544  15.880  1.00  0.00     0.065 C 
HETATM   22  C30 UNL     1       7.787   8.347  15.545  1.00  0.00     0.133 C 
ENDROOT
BRANCH   1  23
HETATM   23  C7  UNL     1       0.977   7.386  11.578  1.00  0.00    -0.014 C 
HETATM   24  C8  UNL     1       0.725   7.373  13.095  1.00  0.00     0.010 C 
BRANCH  23  25
HETATM   25  C6  UNL     1       0.063   6.368  10.856  1.00  0.00     0.008 C 
BRANCH  25  26
HETATM   26  C5  UNL     1      -0.208   4.982  11.459  1.00  0.00     0.028 C 
BRANCH  26  27
HETATM   27  C4  UNL     1      -1.564   4.832  12.091  1.00  0.00    -0.025 C 
HETATM   28  C2  UNL     1      -2.653   4.220  11.585  1.00  0.00    -0.091 C 
HETATM   29  C1  UNL     1      -2.741   3.570  10.232  1.00  0.00     0.042 C 
HETATM   30  C3  UNL     1      -3.929   4.151  12.385  1.00  0.00     0.042 C 
ENDBRANCH  26  27
ENDBRANCH  25  26
ENDBRANCH  23  25
ENDBRANCH   1  23
BRANCH   8  31
HETATM   31  O1  UNL     1       5.292   6.964  15.301  1.00  0.00    -0.391 OA
HETATM   32  H25 UNL     1       5.635   7.418  16.099  1.00  0.00     0.210 HD
ENDBRANCH   8  31
BRANCH  22  33
HETATM   33  O6  UNL     1       7.022   8.309  16.759  1.00  0.00    -0.394 OA
HETATM   34  H46 UNL     1       7.458   7.680  17.362  1.00  0.00     0.210 HD
ENDBRANCH  22  33
BRANCH  18  35
HETATM   35  C27 UNL     1       9.593  12.001  14.255  1.00  0.00     0.151 C 
HETATM   36  O3  UNL     1      10.479  12.687  14.745  1.00  0.00    -0.649 OA
BRANCH  35  37
HETATM   37  O4  UNL     1       8.540  12.609  13.690  1.00  0.00    -0.776 OA
HETATM   38  H40 UNL     1       8.700  13.560  13.868  1.00  0.00     0.167 HD
ENDBRANCH  35  37
ENDBRANCH  18  35
BRANCH  20  39
HETATM   39  O5  UNL     1       9.168  10.803  16.654  1.00  0.00    -0.394 OA
HETATM   40  H42 UNL     1       9.403  10.478  17.541  1.00  0.00     0.210 HD
ENDBRANCH  20  39
TORSDOF 9
ENDMDL
MODEL 9
REMARK minimizedAffinity -7.08736229
REMARK CNNscore 0.531682312
REMARK CNNaffinity 6.00828409
REMARK  9 active torsions:
REMARK  status: ('A' for Active; 'I' for Inactive)
REMARK    1  A    between atoms: C4_4  and  C5_5 
REMARK    2  A    between atoms: C5_5  and  C6_6 
REMARK    3  A    between atoms: C6_6  and  C7_7 
REMARK    4  A    between atoms: C7_7  and  C9_9 
REMARK    5  A    between atoms: C16_16  and  O1_17 
REMARK    6  A    between atoms: C25_27  and  C27_29 
REMARK    7  A    between atoms: C27_29  and  O4_31 
REMARK    8  A    between atoms: C28_32  and  O5_33 
REMARK    9  A    between atoms: C30_35  and  O6_36 
ROOT
HETATM    1  C9  UNL     1       0.423  11.715  17.253  1.00  0.00    -0.002 C 
HETATM    2  C10 UNL     1       0.364  13.043  16.466  1.00  0.00     0.007 C 
HETATM    3  C11 UNL     1       1.448  12.951  15.365  1.00  0.00     0.015 C 
HETATM    4  C12 UNL     1       1.849  11.459  15.312  1.00  0.00    -0.005 C 
HETATM    5  C13 UNL     1       0.797  10.734  14.417  1.00  0.00     0.021 C 
HETATM    6  C14 UNL     1       3.193  11.022  14.745  1.00  0.00     0.003 C 
HETATM    7  C15 UNL     1       3.825   9.890  15.169  1.00  0.00    -0.030 C 
HETATM    8  C16 UNL     1       3.242   9.092  16.364  1.00  0.00     0.149 C 
HETATM    9  C17 UNL     1       1.932   9.610  17.001  1.00  0.00     0.047 C 
HETATM   10  C18 UNL     1       1.802  11.123  16.853  1.00  0.00    -0.026 C 
HETATM   11  C19 UNL     1       2.962  11.804  17.640  1.00  0.00     0.016 C 
HETATM   12  C20 UNL     1       5.215   9.415  14.582  1.00  0.00     0.014 C 
HETATM   13  C21 UNL     1       6.234   9.675  15.717  1.00  0.00     0.023 C 
HETATM   14  C22 UNL     1       5.555  10.222  13.280  1.00  0.00     0.029 C 
HETATM   15  C23 UNL     1       5.290  11.716  13.453  1.00  0.00     0.090 C 
HETATM   16  C24 UNL     1       3.819  11.895  13.704  1.00  0.00     0.157 C 
HETATM   17  O2  UNL     1       3.173  12.745  13.098  1.00  0.00    -0.293 OA
HETATM   18  C25 UNL     1       6.908   9.861  12.554  1.00  0.00     0.072 C 
HETATM   19  C26 UNL     1       6.672  10.106  11.031  1.00  0.00     0.030 C 
HETATM   20  C28 UNL     1       7.278   8.362  12.739  1.00  0.00     0.139 C 
HETATM   21  C29 UNL     1       6.044   7.491  12.944  1.00  0.00     0.065 C 
HETATM   22  C30 UNL     1       5.157   7.902  14.138  1.00  0.00     0.133 C 
ENDROOT
BRANCH   1  23
HETATM   23  C7  UNL     1      -0.080  11.719  18.725  1.00  0.00    -0.014 C 
HETATM   24  C8  UNL     1      -1.188  12.774  18.887  1.00  0.00     0.010 C 
BRANCH  23  25
HETATM   25  C6  UNL     1       0.903  11.760  19.918  1.00  0.00     0.008 C 
BRANCH  25  26
HETATM   26  C5  UNL     1       1.263  10.481  20.690  1.00  0.00     0.028 C 
BRANCH  26  27
HETATM   27  C4  UNL     1       2.469  10.610  21.578  1.00  0.00    -0.025 C 
HETATM   28  C2  UNL     1       2.958   9.707  22.452  1.00  0.00    -0.091 C 
HETATM   29  C1  UNL     1       2.357   8.360  22.744  1.00  0.00     0.042 C 
HETATM   30  C3  UNL     1       4.204  10.010  23.245  1.00  0.00     0.042 C 
ENDBRANCH  26  27
ENDBRANCH  25  26
ENDBRANCH  23  25
ENDBRANCH   1  23
BRANCH   8  31
HETATM   31  O1  UNL     1       2.990   7.742  16.002  1.00  0.00    -0.391 OA
HETATM   32  H25 UNL     1       3.858   7.292  16.073  1.00  0.00     0.210 HD
ENDBRANCH   8  31
BRANCH  22  33
HETATM   33  O6  UNL     1       5.408   7.025  15.247  1.00  0.00    -0.394 OA
HETATM   34  H46 UNL     1       5.358   6.110  14.916  1.00  0.00     0.210 HD
ENDBRANCH  22  33
BRANCH  18  35
HETATM   35  C27 UNL     1       8.143  10.696  12.892  1.00  0.00     0.151 C 
HETATM   36  O3  UNL     1       8.195  11.568  13.750  1.00  0.00    -0.649 OA
BRANCH  35  37
HETATM   37  O4  UNL     1       9.240  10.434  12.168  1.00  0.00    -0.776 OA
HETATM   38  H40 UNL     1       9.885  11.107  12.475  1.00  0.00     0.167 HD
ENDBRANCH  35  37
ENDBRANCH  18  35
BRANCH  20  39
HETATM   39  O5  UNL     1       8.160   8.151  13.836  1.00  0.00    -0.394 OA
HETATM   40  H42 UNL     1       8.410   7.210  13.857  1.00  0.00     0.210 HD
ENDBRANCH  20  39
TORSDOF 9
ENDMDL
