MODEL 1
REMARK minimizedAffinity -10.5544901
REMARK  8 active torsions:
REMARK  status: ('A' for Active; 'I' for Inactive)
REMARK    1  A    between atoms: C2_2  and  C3_3 
REMARK    2  A    between atoms: C2_2  and  C27_30 
REMARK    3  A    between atoms: C3_3  and  C4_4 
REMARK    4  A    between atoms: C4_4  and  C5_5 
REMARK    5  A    between atoms: C5_5  and  C7_7 
REMARK    6  A    between atoms: C26_28  and  O3_29 
REMARK    7  A    between atoms: C27_30  and  C29_32 
REMARK    8  A    between atoms: C29_32  and  O5_34 
ROOT
HETATM    1  C7  UNL     1      -0.738  51.192 -25.148  1.00  0.00    -0.002 C 
HETATM    2  C8  UNL     1       0.225  52.378 -25.420  1.00  0.00     0.006 C 
HETATM    3  C9  UNL     1       0.680  52.893 -24.050  1.00  0.00     0.010 C 
HETATM    4  C10 UNL     1       0.223  51.814 -23.064  1.00  0.00     0.027 C 
HETATM    5  C11 UNL     1       0.202  52.030 -21.561  1.00  0.00    -0.036 C 
HETATM    6  C12 UNL     1      -0.587  51.261 -20.767  1.00  0.00     0.002 C 
HETATM    7  C13 UNL     1      -1.566  50.299 -21.421  1.00  0.00     0.157 C 
HETATM    8  O1  UNL     1      -2.364  49.652 -20.743  1.00  0.00    -0.293 OA
HETATM    9  C14 UNL     1      -1.543  50.102 -22.927  1.00  0.00     0.093 C 
HETATM   10  C15 UNL     1      -1.146  51.383 -23.655  1.00  0.00    -0.026 C 
HETATM   11  C16 UNL     1      -2.239  52.457 -23.454  1.00  0.00     0.016 C 
HETATM   12  C17 UNL     1      -0.549  51.311 -19.222  1.00  0.00    -0.008 C 
HETATM   13  C18 UNL     1      -1.791  52.124 -18.774  1.00  0.00     0.021 C 
HETATM   14  C19 UNL     1      -0.610  49.884 -18.579  1.00  0.00     0.022 C 
HETATM   15  C20 UNL     1       0.161  49.699 -17.273  1.00  0.00     0.080 C 
HETATM   16  C21 UNL     1       0.248  50.975 -16.480  1.00  0.00     0.131 C 
HETATM   17  O2  UNL     1      -0.050  51.013 -15.287  1.00  0.00    -0.298 OA
HETATM   18  C22 UNL     1       0.806  52.193 -17.199  1.00  0.00     0.056 C 
HETATM   19  C23 UNL     1       2.209  52.470 -16.656  1.00  0.00     0.018 C 
HETATM   20  C24 UNL     1       0.789  51.971 -18.732  1.00  0.00     0.012 C 
HETATM   21  C25 UNL     1       1.068  53.269 -19.488  1.00  0.00     0.042 C 
HETATM   22  C26 UNL     1       1.179  53.033 -20.995  1.00  0.00     0.148 C 
ENDROOT
BRANCH   1  23
HETATM   23  C5  UNL     1      -1.762  50.965 -26.296  1.00  0.00    -0.014 C 
HETATM   24  C6  UNL     1      -3.055  51.790 -26.215  1.00  0.00     0.010 C 
BRANCH  23  25
HETATM   25  C4  UNL     1      -2.142  49.487 -26.536  1.00  0.00     0.009 C 
BRANCH  25  26
HETATM   26  C3  UNL     1      -2.983  48.794 -25.453  1.00  0.00     0.034 C 
BRANCH  26  27
HETATM   27  C2  UNL     1      -4.400  48.431 -25.867  1.00  0.00    -0.075 C 
HETATM   28  C1  UNL     1      -4.689  48.311 -27.177  1.00  0.00     0.015 C 
BRANCH  27  29
HETATM   29  C27 UNL     1      -5.432  48.259 -24.752  1.00  0.00     0.107 C 
HETATM   30  C28 UNL     1      -6.858  47.895 -25.183  1.00  0.00     0.026 C 
BRANCH  29  31
HETATM   31  C29 UNL     1      -5.460  49.491 -23.857  1.00  0.00     0.147 C 
HETATM   32  O4  UNL     1      -5.057  49.539 -22.702  1.00  0.00    -0.650 OA
BRANCH  31  33
HETATM   33  O5  UNL     1      -5.936  50.603 -24.452  1.00  0.00    -0.776 OA
HETATM   34  H42 UNL     1      -5.850  51.298 -23.766  1.00  0.00     0.167 HD
ENDBRANCH  31  33
ENDBRANCH  29  31
ENDBRANCH  27  29
ENDBRANCH  26  27
ENDBRANCH  25  26
ENDBRANCH  23  25
ENDBRANCH   1  23
BRANCH  22  35
HETATM   35  O3  UNL     1       0.972  54.300 -21.606  1.00  0.00    -0.391 OA
HETATM   36  H37 UNL     1       1.771  54.831 -21.442  1.00  0.00     0.210 HD
ENDBRANCH  22  35
TORSDOF 8
ENDMDL
MODEL 2
REMARK minimizedAffinity -10.4852142
REMARK  8 active torsions:
REMARK  status: ('A' for Active; 'I' for Inactive)
REMARK    1  A    between atoms: C2_2  and  C3_3 
REMARK    2  A    between atoms: C2_2  and  C27_30 
REMARK    3  A    between atoms: C3_3  and  C4_4 
REMARK    4  A    between atoms: C4_4  and  C5_5 
REMARK    5  A    between atoms: C5_5  and  C7_7 
REMARK    6  A    between atoms: C26_28  and  O3_29 
REMARK    7  A    between atoms: C27_30  and  C29_32 
REMARK    8  A    between atoms: C29_32  and  O5_34 
ROOT
HETATM    1  C7  UNL     1      -0.870  50.803 -25.150  1.00  0.00    -0.002 C 
HETATM    2  C8  UNL     1       0.084  51.979 -25.489  1.00  0.00     0.006 C 
HETATM    3  C9  UNL     1       0.549  52.563 -24.150  1.00  0.00     0.010 C 
HETATM    4  C10 UNL     1       0.109  51.529 -23.109  1.00  0.00     0.027 C 
HETATM    5  C11 UNL     1       0.102  51.817 -21.618  1.00  0.00    -0.036 C 
HETATM    6  C12 UNL     1      -0.675  51.083 -20.779  1.00  0.00     0.002 C 
HETATM    7  C13 UNL     1      -1.655  50.087 -21.376  1.00  0.00     0.157 C 
HETATM    8  O1  UNL     1      -2.443  49.469 -20.660  1.00  0.00    -0.293 OA
HETATM    9  C14 UNL     1      -1.647  49.817 -22.870  1.00  0.00     0.093 C 
HETATM   10  C15 UNL     1      -1.264  51.063 -23.663  1.00  0.00    -0.026 C 
HETATM   11  C16 UNL     1      -2.360  52.141 -23.503  1.00  0.00     0.016 C 
HETATM   12  C17 UNL     1      -0.620  51.207 -19.239  1.00  0.00    -0.008 C 
HETATM   13  C18 UNL     1      -1.863  52.035 -18.817  1.00  0.00     0.021 C 
HETATM   14  C19 UNL     1      -0.667  49.813 -18.527  1.00  0.00     0.022 C 
HETATM   15  C20 UNL     1       0.119  49.695 -17.222  1.00  0.00     0.080 C 
HETATM   16  C21 UNL     1       0.206  51.008 -16.493  1.00  0.00     0.131 C 
HETATM   17  O2  UNL     1      -0.080  51.102 -15.300  1.00  0.00    -0.298 OA
HETATM   18  C22 UNL     1       0.751  52.192 -17.275  1.00  0.00     0.056 C 
HETATM   19  C23 UNL     1       2.157  52.503 -16.760  1.00  0.00     0.018 C 
HETATM   20  C24 UNL     1       0.719  51.897 -18.795  1.00  0.00     0.012 C 
HETATM   21  C25 UNL     1       0.983  53.158 -19.616  1.00  0.00     0.042 C 
HETATM   22  C26 UNL     1       1.080  52.851 -21.110  1.00  0.00     0.148 C 
ENDROOT
BRANCH   1  23
HETATM   23  C5  UNL     1      -1.905  50.517 -26.275  1.00  0.00    -0.014 C 
HETATM   24  C6  UNL     1      -2.903  51.646 -26.573  1.00  0.00     0.010 C 
BRANCH  23  25
HETATM   25  C4  UNL     1      -2.696  49.202 -26.101  1.00  0.00     0.009 C 
BRANCH  25  26
HETATM   26  C3  UNL     1      -3.442  48.664 -27.332  1.00  0.00     0.034 C 
BRANCH  26  27
HETATM   27  C2  UNL     1      -4.900  48.299 -27.097  1.00  0.00    -0.075 C 
HETATM   28  C1  UNL     1      -5.334  48.118 -25.834  1.00  0.00     0.015 C 
BRANCH  27  29
HETATM   29  C27 UNL     1      -5.785  48.124 -28.331  1.00  0.00     0.107 C 
HETATM   30  C28 UNL     1      -6.632  46.848 -28.397  1.00  0.00     0.026 C 
BRANCH  29  31
HETATM   31  C29 UNL     1      -4.958  48.264 -29.603  1.00  0.00     0.147 C 
HETATM   32  O4  UNL     1      -4.572  47.338 -30.304  1.00  0.00    -0.650 OA
BRANCH  31  33
HETATM   33  O5  UNL     1      -4.698  49.536 -29.963  1.00  0.00    -0.776 OA
HETATM   34  H42 UNL     1      -4.202  49.452 -30.804  1.00  0.00     0.167 HD
ENDBRANCH  31  33
ENDBRANCH  29  31
ENDBRANCH  27  29
ENDBRANCH  26  27
ENDBRANCH  25  26
ENDBRANCH  23  25
ENDBRANCH   1  23
BRANCH  22  35
HETATM   35  O3  UNL     1       0.859  54.086 -21.779  1.00  0.00    -0.391 OA
HETATM   36  H37 UNL     1       1.657  54.629 -21.650  1.00  0.00     0.210 HD
ENDBRANCH  22  35
TORSDOF 8
ENDMDL
MODEL 3
REMARK minimizedAffinity -10.3174105
REMARK  8 active torsions:
REMARK  status: ('A' for Active; 'I' for Inactive)
REMARK    1  A    between atoms: C2_2  and  C3_3 
REMARK    2  A    between atoms: C2_2  and  C27_30 
REMARK    3  A    between atoms: C3_3  and  C4_4 
REMARK    4  A    between atoms: C4_4  and  C5_5 
REMARK    5  A    between atoms: C5_5  and  C7_7 
REMARK    6  A    between atoms: C26_28  and  O3_29 
REMARK    7  A    between atoms: C27_30  and  C29_32 
REMARK    8  A    between atoms: C29_32  and  O5_34 
ROOT
HETATM    1  C7  UNL     1      -1.493  50.272 -23.545  1.00  0.00    -0.002 C 
HETATM    2  C8  UNL     1      -0.770  51.599 -23.899  1.00  0.00     0.006 C 
HETATM    3  C9  UNL     1      -0.241  52.172 -22.579  1.00  0.00     0.010 C 
HETATM    4  C10 UNL     1      -0.399  51.027 -21.574  1.00  0.00     0.027 C 
HETATM    5  C11 UNL     1      -0.273  51.227 -20.074  1.00  0.00    -0.036 C 
HETATM    6  C12 UNL     1      -0.829  50.336 -19.212  1.00  0.00     0.002 C 
HETATM    7  C13 UNL     1      -1.714  49.234 -19.771  1.00  0.00     0.157 C 
HETATM    8  O1  UNL     1      -2.313  48.463 -19.021  1.00  0.00    -0.293 OA
HETATM    9  C14 UNL     1      -1.842  49.053 -21.273  1.00  0.00     0.093 C 
HETATM   10  C15 UNL     1      -1.743  50.386 -22.010  1.00  0.00    -0.026 C 
HETATM   11  C16 UNL     1      -2.960  51.270 -21.654  1.00  0.00     0.016 C 
HETATM   12  C17 UNL     1      -0.612  50.381 -17.682  1.00  0.00    -0.008 C 
HETATM   13  C18 UNL     1      -1.905  50.982 -17.070  1.00  0.00     0.021 C 
HETATM   14  C19 UNL     1      -0.369  48.959 -17.073  1.00  0.00     0.022 C 
HETATM   15  C20 UNL     1       0.573  48.891 -15.872  1.00  0.00     0.080 C 
HETATM   16  C21 UNL     1       0.551  50.159 -15.063  1.00  0.00     0.131 C 
HETATM   17  O2  UNL     1       0.397  50.142 -13.842  1.00  0.00    -0.298 OA
HETATM   18  C22 UNL     1       0.820  51.455 -15.811  1.00  0.00     0.056 C 
HETATM   19  C23 UNL     1       2.216  51.951 -15.429  1.00  0.00     0.018 C 
HETATM   20  C24 UNL     1       0.653  51.244 -17.336  1.00  0.00     0.012 C 
HETATM   21  C25 UNL     1       0.630  52.575 -18.087  1.00  0.00     0.042 C 
HETATM   22  C26 UNL     1       0.595  52.370 -19.601  1.00  0.00     0.148 C 
ENDROOT
BRANCH   1  23
HETATM   23  C5  UNL     1      -2.599  49.892 -24.570  1.00  0.00    -0.014 C 
HETATM   24  C6  UNL     1      -3.620  48.845 -24.099  1.00  0.00     0.010 C 
BRANCH  23  25
HETATM   25  C4  UNL     1      -2.070  49.466 -25.957  1.00  0.00     0.009 C 
BRANCH  25  26
HETATM   26  C3  UNL     1      -0.903  50.275 -26.542  1.00  0.00     0.034 C 
BRANCH  26  27
HETATM   27  C2  UNL     1      -1.305  51.482 -27.377  1.00  0.00    -0.075 C 
HETATM   28  C1  UNL     1      -2.612  51.712 -27.606  1.00  0.00     0.015 C 
BRANCH  27  29
HETATM   29  C27 UNL     1      -0.179  52.348 -27.942  1.00  0.00     0.107 C 
HETATM   30  C28 UNL     1       1.207  51.699 -28.041  1.00  0.00     0.026 C 
BRANCH  29  31
HETATM   31  C29 UNL     1      -0.082  53.661 -27.175  1.00  0.00     0.147 C 
HETATM   32  O4  UNL     1       0.594  53.851 -26.173  1.00  0.00    -0.650 OA
BRANCH  31  33
HETATM   33  O5  UNL     1      -0.785  54.676 -27.716  1.00  0.00    -0.776 OA
HETATM   34  H42 UNL     1      -0.588  55.442 -27.137  1.00  0.00     0.167 HD
ENDBRANCH  31  33
ENDBRANCH  29  31
ENDBRANCH  27  29
ENDBRANCH  26  27
ENDBRANCH  25  26
ENDBRANCH  23  25
ENDBRANCH   1  23
BRANCH  22  35
HETATM   35  O3  UNL     1       0.117  53.591 -20.150  1.00  0.00    -0.391 OA
HETATM   36  H37 UNL     1       0.836  54.242 -20.069  1.00  0.00     0.210 HD
ENDBRANCH  22  35
TORSDOF 8
ENDMDL
MODEL 4
REMARK minimizedAffinity -9.93796349
REMARK  8 active torsions:
REMARK  status: ('A' for Active; 'I' for Inactive)
REMARK    1  A    between atoms: C2_2  and  C3_3 
REMARK    2  A    between atoms: C2_2  and  C27_30 
REMARK    3  A    between atoms: C3_3  and  C4_4 
REMARK    4  A    between atoms: C4_4  and  C5_5 
REMARK    5  A    between atoms: C5_5  and  C7_7 
REMARK    6  A    between atoms: C26_28  and  O3_29 
REMARK    7  A    between atoms: C27_30  and  C29_32 
REMARK    8  A    between atoms: C29_32  and  O5_34 
ROOT
HETATM    1  C7  UNL     1      -0.019  50.394 -18.442  1.00  0.00    -0.002 C 
HETATM    2  C8  UNL     1      -0.879  49.162 -18.051  1.00  0.00     0.006 C 
HETATM    3  C9  UNL     1      -1.675  48.772 -19.301  1.00  0.00     0.010 C 
HETATM    4  C10 UNL     1      -1.028  49.575 -20.433  1.00  0.00     0.027 C 
HETATM    5  C11 UNL     1      -1.668  49.729 -21.802  1.00  0.00    -0.036 C 
HETATM    6  C12 UNL     1      -1.319  50.761 -22.612  1.00  0.00     0.002 C 
HETATM    7  C13 UNL     1      -0.406  51.845 -22.063  1.00  0.00     0.157 C 
HETATM    8  O1  UNL     1      -0.139  52.845 -22.730  1.00  0.00    -0.293 OA
HETATM    9  C14 UNL     1       0.218  51.686 -20.687  1.00  0.00     0.093 C 
HETATM   10  C15 UNL     1      -0.704  50.925 -19.739  1.00  0.00    -0.026 C 
HETATM   11  C16 UNL     1      -1.972  51.763 -19.458  1.00  0.00     0.016 C 
HETATM   12  C17 UNL     1      -1.803  50.899 -24.074  1.00  0.00    -0.008 C 
HETATM   13  C18 UNL     1      -2.925  51.971 -24.070  1.00  0.00     0.021 C 
HETATM   14  C19 UNL     1      -0.659  51.357 -25.040  1.00  0.00     0.022 C 
HETATM   15  C20 UNL     1      -0.719  50.811 -26.466  1.00  0.00     0.080 C 
HETATM   16  C21 UNL     1      -2.131  50.536 -26.907  1.00  0.00     0.131 C 
HETATM   17  O2  UNL     1      -2.565  50.959 -27.978  1.00  0.00    -0.298 OA
HETATM   18  C22 UNL     1      -2.966  49.634 -26.012  1.00  0.00     0.056 C 
HETATM   19  C23 UNL     1      -3.127  48.281 -26.707  1.00  0.00     0.018 C 
HETATM   20  C24 UNL     1      -2.320  49.516 -24.609  1.00  0.00     0.012 C 
HETATM   21  C25 UNL     1      -3.270  48.862 -23.608  1.00  0.00     0.042 C 
HETATM   22  C26 UNL     1      -2.595  48.626 -22.257  1.00  0.00     0.148 C 
ENDROOT
BRANCH   1  23
HETATM   23  C5  UNL     1       0.337  51.296 -17.226  1.00  0.00    -0.014 C 
HETATM   24  C6  UNL     1       1.177  52.544 -17.539  1.00  0.00     0.010 C 
BRANCH  23  25
HETATM   25  C4  UNL     1       0.995  50.551 -16.044  1.00  0.00     0.009 C 
BRANCH  25  26
HETATM   26  C3  UNL     1       1.278  51.365 -14.772  1.00  0.00     0.034 C 
BRANCH  26  27
HETATM   27  C2  UNL     1       2.726  51.360 -14.309  1.00  0.00    -0.075 C 
HETATM   28  C1  UNL     1       3.665  51.926 -15.091  1.00  0.00     0.015 C 
BRANCH  27  29
HETATM   29  C27 UNL     1       3.033  50.670 -12.980  1.00  0.00     0.107 C 
HETATM   30  C28 UNL     1       3.049  51.557 -11.730  1.00  0.00     0.026 C 
BRANCH  29  31
HETATM   31  C29 UNL     1       4.336  49.885 -13.076  1.00  0.00     0.147 C 
HETATM   32  O4  UNL     1       4.829  49.451 -14.108  1.00  0.00    -0.650 OA
BRANCH  31  33
HETATM   33  O5  UNL     1       4.979  49.726 -11.902  1.00  0.00    -0.776 OA
HETATM   34  H42 UNL     1       5.799  49.246 -12.140  1.00  0.00     0.167 HD
ENDBRANCH  31  33
ENDBRANCH  29  31
ENDBRANCH  27  29
ENDBRANCH  26  27
ENDBRANCH  25  26
ENDBRANCH  23  25
ENDBRANCH   1  23
BRANCH  22  35
HETATM   35  O3  UNL     1      -3.647  48.467 -21.315  1.00  0.00    -0.391 OA
HETATM   36  H37 UNL     1      -4.047  47.595 -21.477  1.00  0.00     0.210 HD
ENDBRANCH  22  35
TORSDOF 8
ENDMDL
MODEL 5
REMARK minimizedAffinity -9.73797226
REMARK  8 active torsions:
REMARK  status: ('A' for Active; 'I' for Inactive)
REMARK    1  A    between atoms: C2_2  and  C3_3 
REMARK    2  A    between atoms: C2_2  and  C27_30 
REMARK    3  A    between atoms: C3_3  and  C4_4 
REMARK    4  A    between atoms: C4_4  and  C5_5 
REMARK    5  A    between atoms: C5_5  and  C7_7 
REMARK    6  A    between atoms: C26_28  and  O3_29 
REMARK    7  A    between atoms: C27_30  and  C29_32 
REMARK    8  A    between atoms: C29_32  and  O5_34 
ROOT
HETATM    1  C7  UNL     1      -1.119  50.626 -22.150  1.00  0.00    -0.002 C 
HETATM    2  C8  UNL     1      -0.463  52.014 -22.379  1.00  0.00     0.006 C 
HETATM    3  C9  UNL     1       0.097  52.459 -21.023  1.00  0.00     0.010 C 
HETATM    4  C10 UNL     1       0.026  51.204 -20.149  1.00  0.00     0.027 C 
HETATM    5  C11 UNL     1       0.206  51.242 -18.641  1.00  0.00    -0.036 C 
HETATM    6  C12 UNL     1      -0.279  50.238 -17.865  1.00  0.00     0.002 C 
HETATM    7  C13 UNL     1      -1.142  49.167 -18.511  1.00  0.00     0.157 C 
HETATM    8  O1  UNL     1      -1.678  48.292 -17.831  1.00  0.00    -0.293 OA
HETATM    9  C14 UNL     1      -1.325  49.148 -20.019  1.00  0.00     0.093 C 
HETATM   10  C15 UNL     1      -1.310  50.557 -20.604  1.00  0.00    -0.026 C 
HETATM   11  C16 UNL     1      -2.544  51.342 -20.107  1.00  0.00     0.016 C 
HETATM   12  C17 UNL     1      -0.001  50.122 -16.349  1.00  0.00    -0.008 C 
HETATM   13  C18 UNL     1      -1.290  50.594 -15.625  1.00  0.00     0.021 C 
HETATM   14  C19 UNL     1       0.323  48.654 -15.912  1.00  0.00     0.022 C 
HETATM   15  C20 UNL     1       1.317  48.494 -14.763  1.00  0.00     0.080 C 
HETATM   16  C21 UNL     1       1.278  49.663 -13.815  1.00  0.00     0.131 C 
HETATM   17  O2  UNL     1       1.175  49.503 -12.600  1.00  0.00    -0.298 OA
HETATM   18  C22 UNL     1       1.464  51.044 -14.423  1.00  0.00     0.056 C 
HETATM   19  C23 UNL     1       2.854  51.555 -14.039  1.00  0.00     0.018 C 
HETATM   20  C24 UNL     1       1.243  50.996 -15.955  1.00  0.00     0.012 C 
HETATM   21  C25 UNL     1       1.137  52.399 -16.549  1.00  0.00     0.042 C 
HETATM   22  C26 UNL     1       1.047  52.362 -18.075  1.00  0.00     0.148 C 
ENDROOT
BRANCH   1  23
HETATM   23  C5  UNL     1      -2.250  50.313 -23.170  1.00  0.00    -0.014 C 
HETATM   24  C6  UNL     1      -2.706  48.848 -23.240  1.00  0.00     0.010 C 
BRANCH  23  25
HETATM   25  C4  UNL     1      -1.973  50.805 -24.608  1.00  0.00     0.009 C 
BRANCH  25  26
HETATM   26  C3  UNL     1      -0.535  51.234 -24.938  1.00  0.00     0.034 C 
BRANCH  26  27
HETATM   27  C2  UNL     1      -0.213  51.332 -26.421  1.00  0.00    -0.075 C 
HETATM   28  C1  UNL     1      -0.910  50.578 -27.293  1.00  0.00     0.015 C 
BRANCH  27  29
HETATM   29  C27 UNL     1       0.924  52.269 -26.829  1.00  0.00     0.107 C 
HETATM   30  C28 UNL     1       0.802  52.945 -28.200  1.00  0.00     0.026 C 
BRANCH  29  31
HETATM   31  C29 UNL     1       2.266  51.555 -26.721  1.00  0.00     0.147 C 
HETATM   32  O4  UNL     1       2.475  50.526 -26.093  1.00  0.00    -0.650 OA
BRANCH  31  33
HETATM   33  O5  UNL     1       3.259  52.124 -27.434  1.00  0.00    -0.776 OA
HETATM   34  H42 UNL     1       4.027  51.532 -27.291  1.00  0.00     0.167 HD
ENDBRANCH  31  33
ENDBRANCH  29  31
ENDBRANCH  27  29
ENDBRANCH  26  27
ENDBRANCH  25  26
ENDBRANCH  23  25
ENDBRANCH   1  23
BRANCH  22  35
HETATM   35  O3  UNL     1       0.499  53.615 -18.465  1.00  0.00    -0.391 OA
HETATM   36  H37 UNL     1       1.194  54.284 -18.338  1.00  0.00     0.210 HD
ENDBRANCH  22  35
TORSDOF 8
ENDMDL
MODEL 6
REMARK minimizedAffinity -9.66355801
REMARK  8 active torsions:
REMARK  status: ('A' for Active; 'I' for Inactive)
REMARK    1  A    between atoms: C2_2  and  C3_3 
REMARK    2  A    between atoms: C2_2  and  C27_30 
REMARK    3  A    between atoms: C3_3  and  C4_4 
REMARK    4  A    between atoms: C4_4  and  C5_5 
REMARK    5  A    between atoms: C5_5  and  C7_7 
REMARK    6  A    between atoms: C26_28  and  O3_29 
REMARK    7  A    between atoms: C27_30  and  C29_32 
REMARK    8  A    between atoms: C29_32  and  O5_34 
ROOT
HETATM    1  C7  UNL     1      -0.041  50.458 -17.964  1.00  0.00    -0.002 C 
HETATM    2  C8  UNL     1      -0.891  49.203 -17.631  1.00  0.00     0.006 C 
HETATM    3  C9  UNL     1      -1.630  48.823 -18.920  1.00  0.00     0.010 C 
HETATM    4  C10 UNL     1      -0.955  49.661 -20.009  1.00  0.00     0.027 C 
HETATM    5  C11 UNL     1      -1.543  49.829 -21.399  1.00  0.00    -0.036 C 
HETATM    6  C12 UNL     1      -1.182  50.884 -22.176  1.00  0.00     0.002 C 
HETATM    7  C13 UNL     1      -0.313  51.973 -21.570  1.00  0.00     0.157 C 
HETATM    8  O1  UNL     1      -0.040  52.991 -22.207  1.00  0.00    -0.293 OA
HETATM    9  C14 UNL     1       0.259  51.799 -20.174  1.00  0.00     0.093 C 
HETATM   10  C15 UNL     1      -0.684  51.003 -19.277  1.00  0.00    -0.026 C 
HETATM   11  C16 UNL     1      -1.978  51.811 -19.032  1.00  0.00     0.016 C 
HETATM   12  C17 UNL     1      -1.611  51.041 -23.653  1.00  0.00    -0.008 C 
HETATM   13  C18 UNL     1      -2.753  52.092 -23.673  1.00  0.00     0.021 C 
HETATM   14  C19 UNL     1      -0.439  51.540 -24.564  1.00  0.00     0.022 C 
HETATM   15  C20 UNL     1      -0.433  51.021 -26.001  1.00  0.00     0.080 C 
HETATM   16  C21 UNL     1      -1.821  50.728 -26.503  1.00  0.00     0.131 C 
HETATM   17  O2  UNL     1      -2.221  51.165 -27.582  1.00  0.00    -0.298 OA
HETATM   18  C22 UNL     1      -2.672  49.794 -25.658  1.00  0.00     0.056 C 
HETATM   19  C23 UNL     1      -2.779  48.452 -26.385  1.00  0.00     0.018 C 
HETATM   20  C24 UNL     1      -2.079  49.660 -24.234  1.00  0.00     0.012 C 
HETATM   21  C25 UNL     1      -3.056  48.969 -23.284  1.00  0.00     0.042 C 
HETATM   22  C26 UNL     1      -2.430  48.719 -21.912  1.00  0.00     0.148 C 
ENDROOT
BRANCH   1  23
HETATM   23  C5  UNL     1       0.249  51.343 -16.719  1.00  0.00    -0.014 C 
HETATM   24  C6  UNL     1       1.674  51.906 -16.612  1.00  0.00     0.010 C 
BRANCH  23  25
HETATM   25  C4  UNL     1      -0.118  50.691 -15.368  1.00  0.00     0.009 C 
BRANCH  25  26
HETATM   26  C3  UNL     1      -0.383  51.632 -14.183  1.00  0.00     0.034 C 
BRANCH  26  27
HETATM   27  C2  UNL     1      -1.825  51.677 -13.702  1.00  0.00    -0.075 C 
HETATM   28  C1  UNL     1      -2.767  51.004 -14.392  1.00  0.00     0.015 C 
BRANCH  27  29
HETATM   29  C27 UNL     1      -2.124  52.527 -12.466  1.00  0.00     0.107 C 
HETATM   30  C28 UNL     1      -1.513  52.056 -11.142  1.00  0.00     0.026 C 
BRANCH  29  31
HETATM   31  C29 UNL     1      -3.627  52.720 -12.304  1.00  0.00     0.147 C 
HETATM   32  O4  UNL     1      -4.335  52.134 -11.496  1.00  0.00    -0.650 OA
BRANCH  31  33
HETATM   33  O5  UNL     1      -4.159  53.658 -13.111  1.00  0.00    -0.776 OA
HETATM   34  H42 UNL     1      -5.105  53.685 -12.857  1.00  0.00     0.167 HD
ENDBRANCH  31  33
ENDBRANCH  29  31
ENDBRANCH  27  29
ENDBRANCH  26  27
ENDBRANCH  25  26
ENDBRANCH  23  25
ENDBRANCH   1  23
BRANCH  22  35
HETATM   35  O3  UNL     1      -3.515  48.522 -21.016  1.00  0.00    -0.391 OA
HETATM   36  H37 UNL     1      -3.892  47.645 -21.210  1.00  0.00     0.210 HD
ENDBRANCH  22  35
TORSDOF 8
ENDMDL
MODEL 7
REMARK minimizedAffinity -9.57024384
REMARK  8 active torsions:
REMARK  status: ('A' for Active; 'I' for Inactive)
REMARK    1  A    between atoms: C2_2  and  C3_3 
REMARK    2  A    between atoms: C2_2  and  C27_30 
REMARK    3  A    between atoms: C3_3  and  C4_4 
REMARK    4  A    between atoms: C4_4  and  C5_5 
REMARK    5  A    between atoms: C5_5  and  C7_7 
REMARK    6  A    between atoms: C26_28  and  O3_29 
REMARK    7  A    between atoms: C27_30  and  C29_32 
REMARK    8  A    between atoms: C29_32  and  O5_34 
ROOT
HETATM    1  C7  UNL     1      -0.917  50.081 -22.029  1.00  0.00    -0.002 C 
HETATM    2  C8  UNL     1      -0.487  49.169 -20.849  1.00  0.00     0.006 C 
HETATM    3  C9  UNL     1      -1.656  48.211 -20.590  1.00  0.00     0.010 C 
HETATM    4  C10 UNL     1      -2.572  48.389 -21.805  1.00  0.00     0.027 C 
HETATM    5  C11 UNL     1      -3.993  47.856 -21.846  1.00  0.00    -0.036 C 
HETATM    6  C12 UNL     1      -4.900  48.382 -22.710  1.00  0.00     0.002 C 
HETATM    7  C13 UNL     1      -4.517  49.615 -23.511  1.00  0.00     0.157 C 
HETATM    8  O1  UNL     1      -5.337  50.179 -24.234  1.00  0.00    -0.293 OA
HETATM    9  C14 UNL     1      -3.095  50.147 -23.450  1.00  0.00     0.093 C 
HETATM   10  C15 UNL     1      -2.467  49.913 -22.080  1.00  0.00    -0.026 C 
HETATM   11  C16 UNL     1      -3.206  50.756 -21.016  1.00  0.00     0.016 C 
HETATM   12  C17 UNL     1      -6.314  47.793 -22.925  1.00  0.00    -0.008 C 
HETATM   13  C18 UNL     1      -7.298  48.713 -22.155  1.00  0.00     0.021 C 
HETATM   14  C19 UNL     1      -6.721  47.758 -24.437  1.00  0.00     0.022 C 
HETATM   15  C20 UNL     1      -7.613  46.595 -24.869  1.00  0.00     0.080 C 
HETATM   16  C21 UNL     1      -8.495  46.113 -23.750  1.00  0.00     0.131 C 
HETATM   17  O2  UNL     1      -9.707  45.963 -23.905  1.00  0.00    -0.298 OA
HETATM   18  C22 UNL     1      -7.807  45.732 -22.449  1.00  0.00     0.056 C 
HETATM   19  C23 UNL     1      -7.835  44.208 -22.319  1.00  0.00     0.018 C 
HETATM   20  C24 UNL     1      -6.372  46.312 -22.407  1.00  0.00     0.012 C 
HETATM   21  C25 UNL     1      -5.763  46.197 -21.010  1.00  0.00     0.042 C 
HETATM   22  C26 UNL     1      -4.303  46.650 -20.990  1.00  0.00     0.148 C 
ENDROOT
BRANCH   1  23
HETATM   23  C5  UNL     1      -0.202  51.462 -22.019  1.00  0.00    -0.014 C 
HETATM   24  C6  UNL     1      -0.405  52.315 -20.758  1.00  0.00     0.010 C 
BRANCH  23  25
HETATM   25  C4  UNL     1      -0.492  52.344 -23.254  1.00  0.00     0.009 C 
BRANCH  25  26
HETATM   26  C3  UNL     1       0.628  52.483 -24.296  1.00  0.00     0.034 C 
BRANCH  26  27
HETATM   27  C2  UNL     1       0.354  51.815 -25.634  1.00  0.00    -0.075 C 
HETATM   28  C1  UNL     1      -0.584  50.850 -25.704  1.00  0.00     0.015 C 
BRANCH  27  29
HETATM   29  C27 UNL     1       1.199  52.263 -26.826  1.00  0.00     0.107 C 
HETATM   30  C28 UNL     1       0.603  52.035 -28.220  1.00  0.00     0.026 C 
BRANCH  29  31
HETATM   31  C29 UNL     1       2.592  51.650 -26.752  1.00  0.00     0.147 C 
HETATM   32  O4  UNL     1       2.896  50.652 -26.111  1.00  0.00    -0.650 OA
BRANCH  31  33
HETATM   33  O5  UNL     1       3.517  52.272 -27.510  1.00  0.00    -0.776 OA
HETATM   34  H42 UNL     1       4.330  51.740 -27.383  1.00  0.00     0.167 HD
ENDBRANCH  31  33
ENDBRANCH  29  31
ENDBRANCH  27  29
ENDBRANCH  26  27
ENDBRANCH  25  26
ENDBRANCH  23  25
ENDBRANCH   1  23
BRANCH  22  35
HETATM   35  O3  UNL     1      -4.001  46.939 -19.631  1.00  0.00    -0.391 OA
HETATM   36  H37 UNL     1      -3.936  46.087 -19.165  1.00  0.00     0.210 HD
ENDBRANCH  22  35
TORSDOF 8
ENDMDL
MODEL 8
REMARK minimizedAffinity -9.47914028
REMARK  8 active torsions:
REMARK  status: ('A' for Active; 'I' for Inactive)
REMARK    1  A    between atoms: C2_2  and  C3_3 
REMARK    2  A    between atoms: C2_2  and  C27_30 
REMARK    3  A    between atoms: C3_3  and  C4_4 
REMARK    4  A    between atoms: C4_4  and  C5_5 
REMARK    5  A    between atoms: C5_5  and  C7_7 
REMARK    6  A    between atoms: C26_28  and  O3_29 
REMARK    7  A    between atoms: C27_30  and  C29_32 
REMARK    8  A    between atoms: C29_32  and  O5_34 
ROOT
HETATM    1  C7  UNL     1      -0.565  51.565 -20.814  1.00  0.00    -0.002 C 
HETATM    2  C8  UNL     1       0.216  52.901 -20.700  1.00  0.00     0.006 C 
HETATM    3  C9  UNL     1       0.790  52.950 -19.279  1.00  0.00     0.010 C 
HETATM    4  C10 UNL     1       0.592  51.531 -18.737  1.00  0.00     0.027 C 
HETATM    5  C11 UNL     1       0.748  51.184 -17.267  1.00  0.00    -0.036 C 
HETATM    6  C12 UNL     1       0.162  50.070 -16.757  1.00  0.00     0.002 C 
HETATM    7  C13 UNL     1      -0.783  49.272 -17.640  1.00  0.00     0.157 C 
HETATM    8  O1  UNL     1      -1.408  48.311 -17.192  1.00  0.00    -0.293 OA
HETATM    9  C14 UNL     1      -0.941  49.638 -19.106  1.00  0.00     0.093 C 
HETATM   10  C15 UNL     1      -0.788  51.139 -19.330  1.00  0.00    -0.026 C 
HETATM   11  C16 UNL     1      -1.956  51.890 -18.650  1.00  0.00     0.016 C 
HETATM   12  C17 UNL     1       0.402  49.564 -15.316  1.00  0.00    -0.008 C 
HETATM   13  C18 UNL     1      -0.852  49.962 -14.493  1.00  0.00     0.021 C 
HETATM   14  C19 UNL     1       0.584  48.010 -15.253  1.00  0.00     0.022 C 
HETATM   15  C20 UNL     1       1.539  47.485 -14.182  1.00  0.00     0.080 C 
HETATM   16  C21 UNL     1       1.590  48.386 -12.978  1.00  0.00     0.131 C 
HETATM   17  O2  UNL     1       1.452  47.945 -11.838  1.00  0.00    -0.298 OA
HETATM   18  C22 UNL     1       1.910  49.851 -13.231  1.00  0.00     0.056 C 
HETATM   19  C23 UNL     1       3.333  50.123 -12.741  1.00  0.00     0.018 C 
HETATM   20  C24 UNL     1       1.712  50.198 -14.727  1.00  0.00     0.012 C 
HETATM   21  C25 UNL     1       1.743  51.707 -14.961  1.00  0.00     0.042 C 
HETATM   22  C26 UNL     1       1.676  52.051 -16.448  1.00  0.00     0.148 C 
ENDROOT
BRANCH   1  23
HETATM   23  C5  UNL     1      -1.702  51.616 -21.873  1.00  0.00    -0.014 C 
HETATM   24  C6  UNL     1      -2.479  50.307 -22.088  1.00  0.00     0.010 C 
BRANCH  23  25
HETATM   25  C4  UNL     1      -1.271  52.157 -23.254  1.00  0.00     0.009 C 
BRANCH  25  26
HETATM   26  C3  UNL     1      -0.774  51.133 -24.285  1.00  0.00     0.034 C 
BRANCH  26  27
HETATM   27  C2  UNL     1      -0.253  51.724 -25.586  1.00  0.00    -0.075 C 
HETATM   28  C1  UNL     1       1.013  51.460 -25.963  1.00  0.00     0.015 C 
BRANCH  27  29
HETATM   29  C27 UNL     1      -1.204  52.623 -26.376  1.00  0.00     0.107 C 
HETATM   30  C28 UNL     1      -2.231  51.921 -27.273  1.00  0.00     0.026 C 
BRANCH  29  31
HETATM   31  C29 UNL     1      -0.418  53.644 -27.190  1.00  0.00     0.147 C 
HETATM   32  O4  UNL     1       0.163  54.620 -26.734  1.00  0.00    -0.650 OA
BRANCH  31  33
HETATM   33  O5  UNL     1      -0.353  53.375 -28.509  1.00  0.00    -0.776 OA
HETATM   34  H42 UNL     1       0.210  54.091 -28.873  1.00  0.00     0.167 HD
ENDBRANCH  31  33
ENDBRANCH  29  31
ENDBRANCH  27  29
ENDBRANCH  26  27
ENDBRANCH  25  26
ENDBRANCH  23  25
ENDBRANCH   1  23
BRANCH  22  35
HETATM   35  O3  UNL     1       1.251  53.406 -16.519  1.00  0.00    -0.391 OA
HETATM   36  H37 UNL     1       2.001  53.957 -16.235  1.00  0.00     0.210 HD
ENDBRANCH  22  35
TORSDOF 8
ENDMDL
MODEL 9
REMARK minimizedAffinity -9.47029018
REMARK  8 active torsions:
REMARK  status: ('A' for Active; 'I' for Inactive)
REMARK    1  A    between atoms: C2_2  and  C3_3 
REMARK    2  A    between atoms: C2_2  and  C27_30 
REMARK    3  A    between atoms: C3_3  and  C4_4 
REMARK    4  A    between atoms: C4_4  and  C5_5 
REMARK    5  A    between atoms: C5_5  and  C7_7 
REMARK    6  A    between atoms: C26_28  and  O3_29 
REMARK    7  A    between atoms: C27_30  and  C29_32 
REMARK    8  A    between atoms: C29_32  and  O5_34 
ROOT
HETATM    1  C7  UNL     1      -0.556  51.063 -23.810  1.00  0.00    -0.002 C 
HETATM    2  C8  UNL     1       0.175  52.429 -23.905  1.00  0.00     0.006 C 
HETATM    3  C9  UNL     1       0.479  52.861 -22.466  1.00  0.00     0.010 C 
HETATM    4  C10 UNL     1       0.203  51.612 -21.625  1.00  0.00     0.027 C 
HETATM    5  C11 UNL     1       0.092  51.649 -20.111  1.00  0.00    -0.036 C 
HETATM    6  C12 UNL     1      -0.563  50.663 -19.444  1.00  0.00     0.002 C 
HETATM    7  C13 UNL     1      -1.320  49.618 -20.246  1.00  0.00     0.157 C 
HETATM    8  O1  UNL     1      -2.004  48.763 -19.684  1.00  0.00    -0.293 OA
HETATM    9  C14 UNL     1      -1.212  49.600 -21.761  1.00  0.00     0.093 C 
HETATM   10  C15 UNL     1      -1.041  51.005 -22.329  1.00  0.00    -0.026 C 
HETATM   11  C16 UNL     1      -2.323  51.831 -22.075  1.00  0.00     0.016 C 
HETATM   12  C17 UNL     1      -0.584  50.545 -17.903  1.00  0.00    -0.008 C 
HETATM   13  C18 UNL     1      -1.972  51.059 -17.438  1.00  0.00     0.021 C 
HETATM   14  C19 UNL     1      -0.396  49.068 -17.416  1.00  0.00     0.022 C 
HETATM   15  C20 UNL     1       0.354  48.882 -16.098  1.00  0.00     0.080 C 
HETATM   16  C21 UNL     1       0.172  50.054 -15.173  1.00  0.00     0.131 C 
HETATM   17  O2  UNL     1      -0.167  49.902 -14.000  1.00  0.00    -0.298 OA
HETATM   18  C22 UNL     1       0.513  51.427 -15.730  1.00  0.00     0.056 C 
HETATM   19  C23 UNL     1       1.820  51.895 -15.086  1.00  0.00     0.018 C 
HETATM   20  C24 UNL     1       0.588  51.380 -17.276  1.00  0.00     0.012 C 
HETATM   21  C25 UNL     1       0.642  52.784 -17.876  1.00  0.00     0.042 C 
HETATM   22  C26 UNL     1       0.844  52.745 -19.391  1.00  0.00     0.148 C 
ENDROOT
BRANCH   1  23
HETATM   23  C5  UNL     1      -1.481  50.782 -25.028  1.00  0.00    -0.014 C 
HETATM   24  C6  UNL     1      -0.801  50.802 -26.406  1.00  0.00     0.010 C 
BRANCH  23  25
HETATM   25  C4  UNL     1      -2.742  51.672 -25.096  1.00  0.00     0.009 C 
BRANCH  25  26
HETATM   26  C3  UNL     1      -4.092  50.996 -24.814  1.00  0.00     0.034 C 
BRANCH  26  27
HETATM   27  C2  UNL     1      -4.150  49.508 -25.126  1.00  0.00    -0.075 C 
HETATM   28  C1  UNL     1      -3.616  48.635 -24.249  1.00  0.00     0.015 C 
BRANCH  27  29
HETATM   29  C27 UNL     1      -4.789  49.095 -26.452  1.00  0.00     0.107 C 
HETATM   30  C28 UNL     1      -5.697  47.861 -26.424  1.00  0.00     0.026 C 
BRANCH  29  31
HETATM   31  C29 UNL     1      -3.723  48.930 -27.528  1.00  0.00     0.147 C 
HETATM   32  O4  UNL     1      -2.847  48.075 -27.535  1.00  0.00    -0.650 OA
BRANCH  31  33
HETATM   33  O5  UNL     1      -3.828  49.796 -28.555  1.00  0.00    -0.776 OA
HETATM   34  H42 UNL     1      -3.107  49.534 -29.165  1.00  0.00     0.167 HD
ENDBRANCH  31  33
ENDBRANCH  29  31
ENDBRANCH  27  29
ENDBRANCH  26  27
ENDBRANCH  25  26
ENDBRANCH  23  25
ENDBRANCH   1  23
BRANCH  22  35
HETATM   35  O3  UNL     1       0.420  54.012 -19.876  1.00  0.00    -0.391 OA
HETATM   36  H37 UNL     1       1.099  54.660 -19.616  1.00  0.00     0.210 HD
ENDBRANCH  22  35
TORSDOF 8
ENDMDL
