MODEL 1
REMARK minimizedAffinity -6.63670444
REMARK CNNscore 0.675170124
REMARK CNNaffinity 6.5474968
REMARK  15 active torsions:
REMARK  status: ('A' for Active; 'I' for Inactive)
REMARK    1  A    between atoms: C19_20  and  O2_21 
REMARK    2  A    between atoms: C19_20  and  C20_22 
REMARK    3  A    between atoms: C20_22  and  C21_24 
REMARK    4  A    between atoms: C21_24  and  O4_25 
REMARK    5  A    between atoms: O4_25  and  C22_26 
REMARK    6  A    between atoms: C22_26  and  C23_28 
REMARK    7  A    between atoms: C23_28  and  C24_29 
REMARK    8  A    between atoms: C24_29  and  C25_30 
REMARK       I    between atoms: C25_30  and  N1_32 
REMARK    9  A    between atoms: N1_32  and  C26_33 
REMARK   10  A    between atoms: C26_33  and  C27_34 
REMARK   11  A    between atoms: C27_34  and  C28_35 
REMARK   12  A    between atoms: C28_35  and  C29_36 
REMARK   13  A    between atoms: C29_36  and  C30_37 
REMARK   14  A    between atoms: C30_37  and  C31_38 
REMARK   15  A    between atoms: C31_38  and  O8_40 
ROOT
HETATM    1  C1  UNL     1      -5.622  49.200 -24.195  1.00  0.00     0.020 C 
HETATM    2  C2  UNL     1      -4.704  50.059 -23.263  1.00  0.00    -0.016 C 
HETATM    3  C3  UNL     1      -5.161  51.516 -23.568  1.00  0.00     0.022 C 
HETATM    4  C4  UNL     1      -4.145  52.606 -23.263  1.00  0.00     0.084 C 
HETATM    5  C5  UNL     1      -2.803  52.279 -23.859  1.00  0.00     0.149 C 
HETATM    6  O1  UNL     1      -2.008  53.153 -24.196  1.00  0.00    -0.293 OA
HETATM    7  C6  UNL     1      -2.407  50.858 -23.965  1.00  0.00     0.053 C 
HETATM    8  C7  UNL     1      -3.252  49.854 -23.673  1.00  0.00    -0.068 C 
HETATM    9  C8  UNL     1      -2.743  48.431 -23.645  1.00  0.00     0.035 C 
HETATM   10  C9  UNL     1      -3.350  47.608 -22.504  1.00  0.00     0.010 C 
HETATM   11  C10 UNL     1      -3.845  48.456 -21.321  1.00  0.00    -0.004 C 
HETATM   12  C11 UNL     1      -4.898  49.547 -21.767  1.00  0.00     0.002 C 
HETATM   13  C12 UNL     1      -5.140  50.612 -20.662  1.00  0.00     0.007 C 
HETATM   14  C13 UNL     1      -3.917  51.074 -19.859  1.00  0.00     0.013 C 
HETATM   15  C14 UNL     1      -3.103  49.895 -19.302  1.00  0.00    -0.002 C 
HETATM   16  C15 UNL     1      -3.947  49.084 -18.286  1.00  0.00     0.019 C 
HETATM   17  C16 UNL     1      -2.670  49.073 -20.538  1.00  0.00     0.002 C 
HETATM   18  C17 UNL     1      -1.619  48.120 -19.981  1.00  0.00     0.009 C 
HETATM   19  C18 UNL     1      -0.885  48.938 -18.907  1.00  0.00     0.047 C 
HETATM   20  C19 UNL     1      -1.708  50.241 -18.691  1.00  0.00     0.128 C 
ENDROOT
BRANCH  20  21
HETATM   21  O2  UNL     1      -1.089  51.279 -19.455  1.00  0.00    -0.381 OA
HETATM   22  H27 UNL     1      -0.149  51.335 -19.189  1.00  0.00     0.211 HD
ENDBRANCH  20  21
BRANCH  20  23
HETATM   23  C20 UNL     1      -1.737  50.678 -17.207  1.00  0.00     0.185 C 
HETATM   24  O3  UNL     1      -2.623  51.408 -16.755  1.00  0.00    -0.292 OA
BRANCH  23  25
HETATM   25  C21 UNL     1      -0.604  50.166 -16.316  1.00  0.00     0.260 C 
BRANCH  25  26
HETATM   26  O4  UNL     1      -0.059  51.191 -15.483  1.00  0.00    -0.314 OA
BRANCH  26  27
HETATM   27  C22 UNL     1       1.211  51.556 -15.813  1.00  0.00     0.259 C 
HETATM   28  O5  UNL     1       1.596  51.808 -16.947  1.00  0.00    -0.265 OA
BRANCH  27  29
HETATM   29  C23 UNL     1       2.090  51.563 -14.596  1.00  0.00     0.120 C 
BRANCH  29  30
HETATM   30  C24 UNL     1       1.241  51.760 -13.349  1.00  0.00     0.112 C 
BRANCH  30  31
HETATM   31  C25 UNL     1       2.085  52.196 -12.172  1.00  0.00     0.217 C 
HETATM   32  O6  UNL     1       3.072  51.581 -11.784  1.00  0.00    -0.274 OA
HETATM   33  N1  UNL     1       1.626  53.355 -11.577  1.00  0.00    -0.361 N 
HETATM   34  H34 UNL     1       0.979  53.925 -12.107  1.00  0.00     0.162 HD
BRANCH  33  35
HETATM   35  C26 UNL     1       2.391  53.990 -10.521  1.00  0.00     0.122 C 
BRANCH  35  36
HETATM   36  C27 UNL     1       3.614  54.712 -11.078  1.00  0.00     0.020 C 
BRANCH  36  37
HETATM   37  C28 UNL     1       4.029  55.930 -10.248  1.00  0.00     0.002 C 
BRANCH  37  38
HETATM   38  C29 UNL     1       4.954  55.641  -9.062  1.00  0.00     0.010 C 
BRANCH  38  39
HETATM   39  C30 UNL     1       4.267  55.785  -7.706  1.00  0.00     0.110 C 
BRANCH  39  40
HETATM   40  C31 UNL     1       3.125  56.763  -7.764  1.00  0.00     0.139 C 
HETATM   41  O7  UNL     1       1.935  56.512  -7.843  1.00  0.00    -0.650 OA
BRANCH  40  42
HETATM   42  O8  UNL     1       3.554  58.039  -7.710  1.00  0.00    -0.776 OA
HETATM   43  H45 UNL     1       2.731  58.568  -7.754  1.00  0.00     0.167 HD
ENDBRANCH  40  42
ENDBRANCH  39  40
ENDBRANCH  38  39
ENDBRANCH  37  38
ENDBRANCH  36  37
ENDBRANCH  35  36
ENDBRANCH  33  35
ENDBRANCH  30  31
ENDBRANCH  29  30
ENDBRANCH  27  29
ENDBRANCH  26  27
ENDBRANCH  25  26
ENDBRANCH  23  25
ENDBRANCH  20  23
TORSDOF 15
ENDMDL
MODEL 2
REMARK minimizedAffinity -7.11714935
REMARK CNNscore 0.460393608
REMARK CNNaffinity 6.0119462
REMARK  15 active torsions:
REMARK  status: ('A' for Active; 'I' for Inactive)
REMARK    1  A    between atoms: C19_20  and  O2_21 
REMARK    2  A    between atoms: C19_20  and  C20_22 
REMARK    3  A    between atoms: C20_22  and  C21_24 
REMARK    4  A    between atoms: C21_24  and  O4_25 
REMARK    5  A    between atoms: O4_25  and  C22_26 
REMARK    6  A    between atoms: C22_26  and  C23_28 
REMARK    7  A    between atoms: C23_28  and  C24_29 
REMARK    8  A    between atoms: C24_29  and  C25_30 
REMARK       I    between atoms: C25_30  and  N1_32 
REMARK    9  A    between atoms: N1_32  and  C26_33 
REMARK   10  A    between atoms: C26_33  and  C27_34 
REMARK   11  A    between atoms: C27_34  and  C28_35 
REMARK   12  A    between atoms: C28_35  and  C29_36 
REMARK   13  A    between atoms: C29_36  and  C30_37 
REMARK   14  A    between atoms: C30_37  and  C31_38 
REMARK   15  A    between atoms: C31_38  and  O8_40 
ROOT
HETATM    1  C1  UNL     1      -0.999  49.985 -20.273  1.00  0.00     0.020 C 
HETATM    2  C2  UNL     1      -1.944  50.086 -21.516  1.00  0.00    -0.016 C 
HETATM    3  C3  UNL     1      -0.947  50.208 -22.706  1.00  0.00     0.022 C 
HETATM    4  C4  UNL     1      -1.497  50.855 -23.967  1.00  0.00     0.084 C 
HETATM    5  C5  UNL     1      -2.191  52.152 -23.653  1.00  0.00     0.149 C 
HETATM    6  O1  UNL     1      -2.259  53.071 -24.467  1.00  0.00    -0.293 OA
HETATM    7  C6  UNL     1      -2.879  52.285 -22.350  1.00  0.00     0.053 C 
HETATM    8  C7  UNL     1      -2.792  51.345 -21.393  1.00  0.00    -0.068 C 
HETATM    9  C8  UNL     1      -3.643  51.460 -20.150  1.00  0.00     0.035 C 
HETATM   10  C9  UNL     1      -4.191  50.109 -19.681  1.00  0.00     0.010 C 
HETATM   11  C10 UNL     1      -4.290  49.056 -20.798  1.00  0.00    -0.004 C 
HETATM   12  C11 UNL     1      -2.902  48.814 -21.514  1.00  0.00     0.002 C 
HETATM   13  C12 UNL     1      -3.061  48.023 -22.842  1.00  0.00     0.007 C 
HETATM   14  C13 UNL     1      -4.276  48.365 -23.716  1.00  0.00     0.013 C 
HETATM   15  C14 UNL     1      -5.591  48.352 -22.921  1.00  0.00    -0.002 C 
HETATM   16  C15 UNL     1      -5.888  46.927 -22.387  1.00  0.00     0.019 C 
HETATM   17  C16 UNL     1      -5.406  49.402 -21.801  1.00  0.00     0.002 C 
HETATM   18  C17 UNL     1      -6.815  49.586 -21.250  1.00  0.00     0.009 C 
HETATM   19  C18 UNL     1      -7.732  49.452 -22.477  1.00  0.00     0.047 C 
HETATM   20  C19 UNL     1      -6.848  48.930 -23.646  1.00  0.00     0.128 C 
ENDROOT
BRANCH  20  21
HETATM   21  O2  UNL     1      -6.470  50.055 -24.444  1.00  0.00    -0.381 OA
HETATM   22  H27 UNL     1      -7.285  50.521 -24.718  1.00  0.00     0.211 HD
ENDBRANCH  20  21
BRANCH  20  23
HETATM   23  C20 UNL     1      -7.601  47.923 -24.547  1.00  0.00     0.185 C 
HETATM   24  O3  UNL     1      -7.009  47.144 -25.299  1.00  0.00    -0.292 OA
BRANCH  23  25
HETATM   25  C21 UNL     1      -9.129  47.938 -24.469  1.00  0.00     0.260 C 
BRANCH  25  26
HETATM   26  O4  UNL     1      -9.738  47.254 -25.567  1.00  0.00    -0.314 OA
BRANCH  26  27
HETATM   27  C22 UNL     1     -11.098  47.332 -25.581  1.00  0.00     0.259 C 
HETATM   28  O5  UNL     1     -11.818  47.203 -24.599  1.00  0.00    -0.265 OA
BRANCH  27  29
HETATM   29  C23 UNL     1     -11.597  47.556 -26.978  1.00  0.00     0.120 C 
BRANCH  29  30
HETATM   30  C24 UNL     1     -13.118  47.532 -26.992  1.00  0.00     0.112 C 
BRANCH  30  31
HETATM   31  C25 UNL     1     -13.643  46.417 -27.868  1.00  0.00     0.217 C 
HETATM   32  O6  UNL     1     -13.378  46.314 -29.061  1.00  0.00    -0.274 OA
HETATM   33  N1  UNL     1     -14.455  45.531 -27.188  1.00  0.00    -0.361 N 
HETATM   34  H34 UNL     1     -14.410  45.541 -26.178  1.00  0.00     0.162 HD
BRANCH  33  35
HETATM   35  C26 UNL     1     -14.935  44.327 -27.839  1.00  0.00     0.122 C 
BRANCH  35  36
HETATM   36  C27 UNL     1     -16.330  44.530 -28.424  1.00  0.00     0.020 C 
BRANCH  36  37
HETATM   37  C28 UNL     1     -17.426  44.625 -27.358  1.00  0.00     0.002 C 
BRANCH  37  38
HETATM   38  C29 UNL     1     -16.942  44.910 -25.933  1.00  0.00     0.010 C 
BRANCH  38  39
HETATM   39  C30 UNL     1     -17.680  46.067 -25.261  1.00  0.00     0.110 C 
BRANCH  39  40
HETATM   40  C31 UNL     1     -19.092  45.690 -24.902  1.00  0.00     0.139 C 
HETATM   41  O7  UNL     1     -19.473  44.666 -24.362  1.00  0.00    -0.650 OA
BRANCH  40  42
HETATM   42  O8  UNL     1     -19.970  46.653 -25.244  1.00  0.00    -0.776 OA
HETATM   43  H45 UNL     1     -20.837  46.294 -24.962  1.00  0.00     0.167 HD
ENDBRANCH  40  42
ENDBRANCH  39  40
ENDBRANCH  38  39
ENDBRANCH  37  38
ENDBRANCH  36  37
ENDBRANCH  35  36
ENDBRANCH  33  35
ENDBRANCH  30  31
ENDBRANCH  29  30
ENDBRANCH  27  29
ENDBRANCH  26  27
ENDBRANCH  25  26
ENDBRANCH  23  25
ENDBRANCH  20  23
TORSDOF 15
ENDMDL
MODEL 3
REMARK minimizedAffinity -7.12644291
REMARK CNNscore 0.42984128
REMARK CNNaffinity 5.60109186
REMARK  15 active torsions:
REMARK  status: ('A' for Active; 'I' for Inactive)
REMARK    1  A    between atoms: C19_20  and  O2_21 
REMARK    2  A    between atoms: C19_20  and  C20_22 
REMARK    3  A    between atoms: C20_22  and  C21_24 
REMARK    4  A    between atoms: C21_24  and  O4_25 
REMARK    5  A    between atoms: O4_25  and  C22_26 
REMARK    6  A    between atoms: C22_26  and  C23_28 
REMARK    7  A    between atoms: C23_28  and  C24_29 
REMARK    8  A    between atoms: C24_29  and  C25_30 
REMARK       I    between atoms: C25_30  and  N1_32 
REMARK    9  A    between atoms: N1_32  and  C26_33 
REMARK   10  A    between atoms: C26_33  and  C27_34 
REMARK   11  A    between atoms: C27_34  and  C28_35 
REMARK   12  A    between atoms: C28_35  and  C29_36 
REMARK   13  A    between atoms: C29_36  and  C30_37 
REMARK   14  A    between atoms: C30_37  and  C31_38 
REMARK   15  A    between atoms: C31_38  and  O8_40 
ROOT
HETATM    1  C1  UNL     1      -0.857  50.731 -21.610  1.00  0.00     0.020 C 
HETATM    2  C2  UNL     1      -2.020  50.551 -22.640  1.00  0.00    -0.016 C 
HETATM    3  C3  UNL     1      -1.278  50.552 -24.010  1.00  0.00     0.022 C 
HETATM    4  C4  UNL     1      -2.118  50.937 -25.217  1.00  0.00     0.084 C 
HETATM    5  C5  UNL     1      -2.879  52.210 -24.966  1.00  0.00     0.149 C 
HETATM    6  O1  UNL     1      -3.195  52.974 -25.876  1.00  0.00    -0.293 OA
HETATM    7  C6  UNL     1      -3.326  52.502 -23.586  1.00  0.00     0.053 C 
HETATM    8  C7  UNL     1      -2.963  51.742 -22.538  1.00  0.00    -0.068 C 
HETATM    9  C8  UNL     1      -3.578  51.994 -21.181  1.00  0.00     0.035 C 
HETATM   10  C9  UNL     1      -3.880  50.700 -20.419  1.00  0.00     0.010 C 
HETATM   11  C10 UNL     1      -4.067  49.473 -21.327  1.00  0.00    -0.004 C 
HETATM   12  C11 UNL     1      -2.817  49.225 -22.262  1.00  0.00     0.002 C 
HETATM   13  C12 UNL     1      -3.131  48.216 -23.401  1.00  0.00     0.007 C 
HETATM   14  C13 UNL     1      -4.516  48.313 -24.055  1.00  0.00     0.013 C 
HETATM   15  C14 UNL     1      -5.652  48.328 -23.022  1.00  0.00    -0.002 C 
HETATM   16  C15 UNL     1      -5.690  46.992 -22.236  1.00  0.00     0.019 C 
HETATM   17  C16 UNL     1      -5.380  49.560 -22.128  1.00  0.00     0.002 C 
HETATM   18  C17 UNL     1      -6.675  49.721 -21.341  1.00  0.00     0.009 C 
HETATM   19  C18 UNL     1      -7.782  49.316 -22.328  1.00  0.00     0.047 C 
HETATM   20  C19 UNL     1      -7.076  48.678 -23.559  1.00  0.00     0.128 C 
ENDROOT
BRANCH  20  21
HETATM   21  O2  UNL     1      -6.977  49.682 -24.573  1.00  0.00    -0.381 OA
HETATM   22  H27 UNL     1      -7.874  50.031 -24.745  1.00  0.00     0.211 HD
ENDBRANCH  20  21
BRANCH  20  23
HETATM   23  C20 UNL     1      -7.869  47.480 -24.135  1.00  0.00     0.185 C 
HETATM   24  O3  UNL     1      -7.695  46.326 -23.735  1.00  0.00    -0.292 OA
BRANCH  23  25
HETATM   25  C21 UNL     1      -8.883  47.791 -25.236  1.00  0.00     0.260 C 
BRANCH  25  26
HETATM   26  O4  UNL     1     -10.218  47.893 -24.735  1.00  0.00    -0.314 OA
BRANCH  26  27
HETATM   27  C22 UNL     1     -11.001  46.817 -25.025  1.00  0.00     0.259 C 
HETATM   28  O5  UNL     1     -10.951  46.172 -26.065  1.00  0.00    -0.265 OA
BRANCH  27  29
HETATM   29  C23 UNL     1     -11.970  46.555 -23.909  1.00  0.00     0.120 C 
BRANCH  29  30
HETATM   30  C24 UNL     1     -13.358  46.305 -24.479  1.00  0.00     0.112 C 
BRANCH  30  31
HETATM   31  C25 UNL     1     -14.426  46.965 -23.636  1.00  0.00     0.217 C 
HETATM   32  O6  UNL     1     -15.170  47.844 -24.057  1.00  0.00    -0.274 OA
HETATM   33  N1  UNL     1     -14.474  46.479 -22.344  1.00  0.00    -0.361 N 
HETATM   34  H34 UNL     1     -14.015  45.597 -22.162  1.00  0.00     0.162 HD
BRANCH  33  35
HETATM   35  C26 UNL     1     -15.526  46.902 -21.440  1.00  0.00     0.122 C 
BRANCH  35  36
HETATM   36  C27 UNL     1     -15.782  45.857 -20.358  1.00  0.00     0.020 C 
BRANCH  36  37
HETATM   37  C28 UNL     1     -17.227  45.351 -20.335  1.00  0.00     0.002 C 
BRANCH  37  38
HETATM   38  C29 UNL     1     -17.946  45.459 -18.987  1.00  0.00     0.010 C 
BRANCH  38  39
HETATM   39  C30 UNL     1     -19.469  45.424 -19.107  1.00  0.00     0.110 C 
BRANCH  39  40
HETATM   40  C31 UNL     1     -20.096  44.647 -17.981  1.00  0.00     0.139 C 
HETATM   41  O7  UNL     1     -19.641  43.674 -17.405  1.00  0.00    -0.650 OA
BRANCH  40  42
HETATM   42  O8  UNL     1     -21.291  45.158 -17.625  1.00  0.00    -0.776 OA
HETATM   43  H45 UNL     1     -21.590  44.576 -16.895  1.00  0.00     0.167 HD
ENDBRANCH  40  42
ENDBRANCH  39  40
ENDBRANCH  38  39
ENDBRANCH  37  38
ENDBRANCH  36  37
ENDBRANCH  35  36
ENDBRANCH  33  35
ENDBRANCH  30  31
ENDBRANCH  29  30
ENDBRANCH  27  29
ENDBRANCH  26  27
ENDBRANCH  25  26
ENDBRANCH  23  25
ENDBRANCH  20  23
TORSDOF 15
ENDMDL
MODEL 4
REMARK minimizedAffinity -7.63312674
REMARK CNNscore 0.424809068
REMARK CNNaffinity 6.61380196
REMARK  15 active torsions:
REMARK  status: ('A' for Active; 'I' for Inactive)
REMARK    1  A    between atoms: C19_20  and  O2_21 
REMARK    2  A    between atoms: C19_20  and  C20_22 
REMARK    3  A    between atoms: C20_22  and  C21_24 
REMARK    4  A    between atoms: C21_24  and  O4_25 
REMARK    5  A    between atoms: O4_25  and  C22_26 
REMARK    6  A    between atoms: C22_26  and  C23_28 
REMARK    7  A    between atoms: C23_28  and  C24_29 
REMARK    8  A    between atoms: C24_29  and  C25_30 
REMARK       I    between atoms: C25_30  and  N1_32 
REMARK    9  A    between atoms: N1_32  and  C26_33 
REMARK   10  A    between atoms: C26_33  and  C27_34 
REMARK   11  A    between atoms: C27_34  and  C28_35 
REMARK   12  A    between atoms: C28_35  and  C29_36 
REMARK   13  A    between atoms: C29_36  and  C30_37 
REMARK   14  A    between atoms: C30_37  and  C31_38 
REMARK   15  A    between atoms: C31_38  and  O8_40 
ROOT
HETATM    1  C1  UNL     1      -3.430  49.237 -25.994  1.00  0.00     0.020 C 
HETATM    2  C2  UNL     1      -3.781  49.332 -24.472  1.00  0.00    -0.016 C 
HETATM    3  C3  UNL     1      -4.969  48.336 -24.324  1.00  0.00     0.022 C 
HETATM    4  C4  UNL     1      -5.888  48.575 -23.137  1.00  0.00     0.084 C 
HETATM    5  C5  UNL     1      -6.322  50.014 -23.066  1.00  0.00     0.149 C 
HETATM    6  O1  UNL     1      -7.394  50.350 -22.568  1.00  0.00    -0.293 OA
HETATM    7  C6  UNL     1      -5.386  51.055 -23.543  1.00  0.00     0.053 C 
HETATM    8  C7  UNL     1      -4.227  50.753 -24.154  1.00  0.00    -0.068 C 
HETATM    9  C8  UNL     1      -3.240  51.852 -24.474  1.00  0.00     0.035 C 
HETATM   10  C9  UNL     1      -1.787  51.427 -24.244  1.00  0.00     0.010 C 
HETATM   11  C10 UNL     1      -1.627  50.280 -23.231  1.00  0.00    -0.004 C 
HETATM   12  C11 UNL     1      -2.465  49.004 -23.638  1.00  0.00     0.002 C 
HETATM   13  C12 UNL     1      -2.581  47.986 -22.470  1.00  0.00     0.007 C 
HETATM   14  C13 UNL     1      -2.778  48.562 -21.060  1.00  0.00     0.013 C 
HETATM   15  C14 UNL     1      -1.748  49.651 -20.725  1.00  0.00    -0.002 C 
HETATM   16  C15 UNL     1      -0.316  49.057 -20.702  1.00  0.00     0.019 C 
HETATM   17  C16 UNL     1      -1.942  50.747 -21.798  1.00  0.00     0.002 C 
HETATM   18  C17 UNL     1      -1.147  51.926 -21.250  1.00  0.00     0.009 C 
HETATM   19  C18 UNL     1      -1.337  51.848 -19.727  1.00  0.00     0.047 C 
HETATM   20  C19 UNL     1      -2.010  50.478 -19.426  1.00  0.00     0.128 C 
ENDROOT
BRANCH  20  21
HETATM   21  O2  UNL     1      -3.413  50.707 -19.273  1.00  0.00    -0.381 OA
HETATM   22  H27 UNL     1      -3.538  51.389 -18.583  1.00  0.00     0.211 HD
ENDBRANCH  20  21
BRANCH  20  23
HETATM   23  C20 UNL     1      -1.474  49.835 -18.124  1.00  0.00     0.185 C 
HETATM   24  O3  UNL     1      -2.128  49.006 -17.485  1.00  0.00    -0.292 OA
BRANCH  23  25
HETATM   25  C21 UNL     1      -0.088  50.281 -17.655  1.00  0.00     0.260 C 
BRANCH  25  26
HETATM   26  O4  UNL     1      -0.130  50.963 -16.400  1.00  0.00    -0.314 OA
BRANCH  26  27
HETATM   27  C22 UNL     1       0.894  51.841 -16.214  1.00  0.00     0.259 C 
HETATM   28  O5  UNL     1       1.524  52.385 -17.111  1.00  0.00    -0.265 OA
BRANCH  27  29
HETATM   29  C23 UNL     1       1.176  52.017 -14.750  1.00  0.00     0.120 C 
BRANCH  29  30
HETATM   30  C24 UNL     1      -0.132  52.114 -13.981  1.00  0.00     0.112 C 
BRANCH  30  31
HETATM   31  C25 UNL     1       0.095  52.599 -12.566  1.00  0.00     0.217 C 
HETATM   32  O6  UNL     1      -0.806  52.991 -11.834  1.00  0.00    -0.274 OA
HETATM   33  N1  UNL     1       1.422  52.558 -12.187  1.00  0.00    -0.361 N 
HETATM   34  H34 UNL     1       2.048  51.990 -12.743  1.00  0.00     0.162 HD
BRANCH  33  35
HETATM   35  C26 UNL     1       1.804  52.857 -10.820  1.00  0.00     0.122 C 
BRANCH  35  36
HETATM   36  C27 UNL     1       3.092  53.673 -10.769  1.00  0.00     0.020 C 
BRANCH  36  37
HETATM   37  C28 UNL     1       2.864  55.146 -10.416  1.00  0.00     0.002 C 
BRANCH  37  38
HETATM   38  C29 UNL     1       4.130  55.979 -10.196  1.00  0.00     0.010 C 
BRANCH  38  39
HETATM   39  C30 UNL     1       5.407  55.143 -10.151  1.00  0.00     0.110 C 
BRANCH  39  40
HETATM   40  C31 UNL     1       5.909  54.973  -8.742  1.00  0.00     0.139 C 
HETATM   41  O7  UNL     1       5.370  54.372  -7.829  1.00  0.00    -0.650 OA
BRANCH  40  42
HETATM   42  O8  UNL     1       7.099  55.579  -8.557  1.00  0.00    -0.776 OA
HETATM   43  H45 UNL     1       7.313  55.397  -7.618  1.00  0.00     0.167 HD
ENDBRANCH  40  42
ENDBRANCH  39  40
ENDBRANCH  38  39
ENDBRANCH  37  38
ENDBRANCH  36  37
ENDBRANCH  35  36
ENDBRANCH  33  35
ENDBRANCH  30  31
ENDBRANCH  29  30
ENDBRANCH  27  29
ENDBRANCH  26  27
ENDBRANCH  25  26
ENDBRANCH  23  25
ENDBRANCH  20  23
TORSDOF 15
ENDMDL
MODEL 5
REMARK minimizedAffinity -8.2465868
REMARK CNNscore 0.386062771
REMARK CNNaffinity 7.20502472
REMARK  15 active torsions:
REMARK  status: ('A' for Active; 'I' for Inactive)
REMARK    1  A    between atoms: C19_20  and  O2_21 
REMARK    2  A    between atoms: C19_20  and  C20_22 
REMARK    3  A    between atoms: C20_22  and  C21_24 
REMARK    4  A    between atoms: C21_24  and  O4_25 
REMARK    5  A    between atoms: O4_25  and  C22_26 
REMARK    6  A    between atoms: C22_26  and  C23_28 
REMARK    7  A    between atoms: C23_28  and  C24_29 
REMARK    8  A    between atoms: C24_29  and  C25_30 
REMARK       I    between atoms: C25_30  and  N1_32 
REMARK    9  A    between atoms: N1_32  and  C26_33 
REMARK   10  A    between atoms: C26_33  and  C27_34 
REMARK   11  A    between atoms: C27_34  and  C28_35 
REMARK   12  A    between atoms: C28_35  and  C29_36 
REMARK   13  A    between atoms: C29_36  and  C30_37 
REMARK   14  A    between atoms: C30_37  and  C31_38 
REMARK   15  A    between atoms: C31_38  and  O8_40 
ROOT
HETATM    1  C1  UNL     1      -4.945  48.806 -25.115  1.00  0.00     0.020 C 
HETATM    2  C2  UNL     1      -4.967  48.696 -23.555  1.00  0.00    -0.016 C 
HETATM    3  C3  UNL     1      -5.685  47.336 -23.310  1.00  0.00     0.022 C 
HETATM    4  C4  UNL     1      -6.350  47.173 -21.952  1.00  0.00     0.084 C 
HETATM    5  C5  UNL     1      -7.219  48.358 -21.627  1.00  0.00     0.149 C 
HETATM    6  O1  UNL     1      -8.205  48.265 -20.900  1.00  0.00    -0.293 OA
HETATM    7  C6  UNL     1      -6.818  49.686 -22.139  1.00  0.00     0.053 C 
HETATM    8  C7  UNL     1      -5.788  49.847 -22.988  1.00  0.00    -0.068 C 
HETATM    9  C8  UNL     1      -5.326  51.240 -23.350  1.00  0.00     0.035 C 
HETATM   10  C9  UNL     1      -3.801  51.350 -23.449  1.00  0.00     0.010 C 
HETATM   11  C10 UNL     1      -3.046  50.289 -22.632  1.00  0.00    -0.004 C 
HETATM   12  C11 UNL     1      -3.470  48.818 -23.027  1.00  0.00     0.002 C 
HETATM   13  C12 UNL     1      -2.977  47.770 -21.991  1.00  0.00     0.007 C 
HETATM   14  C13 UNL     1      -3.046  48.169 -20.510  1.00  0.00     0.013 C 
HETATM   15  C14 UNL     1      -2.399  49.537 -20.242  1.00  0.00    -0.002 C 
HETATM   16  C15 UNL     1      -0.882  49.492 -20.559  1.00  0.00     0.019 C 
HETATM   17  C16 UNL     1      -3.181  50.542 -21.118  1.00  0.00     0.002 C 
HETATM   18  C17 UNL     1      -2.732  51.899 -20.589  1.00  0.00     0.009 C 
HETATM   19  C18 UNL     1      -2.549  51.685 -19.079  1.00  0.00     0.047 C 
HETATM   20  C19 UNL     1      -2.635  50.152 -18.826  1.00  0.00     0.128 C 
ENDROOT
BRANCH  20  21
HETATM   21  O2  UNL     1      -3.964  49.857 -18.387  1.00  0.00    -0.381 OA
HETATM   22  H27 UNL     1      -4.159  50.416 -17.608  1.00  0.00     0.211 HD
ENDBRANCH  20  21
BRANCH  20  23
HETATM   23  C20 UNL     1      -1.645  49.680 -17.735  1.00  0.00     0.185 C 
HETATM   24  O3  UNL     1      -1.510  48.489 -17.443  1.00  0.00    -0.292 OA
BRANCH  23  25
HETATM   25  C21 UNL     1      -0.835  50.765 -17.024  1.00  0.00     0.260 C 
BRANCH  25  26
HETATM   26  O4  UNL     1       0.412  51.028 -17.672  1.00  0.00    -0.314 OA
BRANCH  26  27
HETATM   27  C22 UNL     1       0.970  52.224 -17.332  1.00  0.00     0.259 C 
HETATM   28  O5  UNL     1       1.095  52.639 -16.188  1.00  0.00    -0.265 OA
BRANCH  27  29
HETATM   29  C23 UNL     1       1.373  52.984 -18.562  1.00  0.00     0.120 C 
BRANCH  29  30
HETATM   30  C24 UNL     1       0.491  52.577 -19.732  1.00  0.00     0.112 C 
BRANCH  30  31
HETATM   31  C25 UNL     1       0.960  53.211 -21.022  1.00  0.00     0.217 C 
HETATM   32  O6  UNL     1       1.835  54.069 -21.074  1.00  0.00    -0.274 OA
HETATM   33  N1  UNL     1       0.299  52.728 -22.134  1.00  0.00    -0.361 N 
HETATM   34  H34 UNL     1      -0.207  51.859 -22.033  1.00  0.00     0.162 HD
BRANCH  33  35
HETATM   35  C26 UNL     1       0.716  53.126 -23.465  1.00  0.00     0.122 C 
BRANCH  35  36
HETATM   36  C27 UNL     1       0.193  52.159 -24.523  1.00  0.00     0.020 C 
BRANCH  36  37
HETATM   37  C28 UNL     1       1.037  52.144 -25.801  1.00  0.00     0.002 C 
BRANCH  37  38
HETATM   38  C29 UNL     1       0.317  51.670 -27.067  1.00  0.00     0.010 C 
BRANCH  38  39
HETATM   39  C30 UNL     1       0.296  52.715 -28.181  1.00  0.00     0.110 C 
BRANCH  39  40
HETATM   40  C31 UNL     1      -0.550  53.903 -27.811  1.00  0.00     0.139 C 
HETATM   41  O7  UNL     1      -0.199  54.913 -27.227  1.00  0.00    -0.650 OA
BRANCH  40  42
HETATM   42  O8  UNL     1      -1.827  53.754 -28.217  1.00  0.00    -0.776 OA
HETATM   43  H45 UNL     1      -2.267  54.579 -27.923  1.00  0.00     0.167 HD
ENDBRANCH  40  42
ENDBRANCH  39  40
ENDBRANCH  38  39
ENDBRANCH  37  38
ENDBRANCH  36  37
ENDBRANCH  35  36
ENDBRANCH  33  35
ENDBRANCH  30  31
ENDBRANCH  29  30
ENDBRANCH  27  29
ENDBRANCH  26  27
ENDBRANCH  25  26
ENDBRANCH  23  25
ENDBRANCH  20  23
TORSDOF 15
ENDMDL
MODEL 6
REMARK minimizedAffinity -7.11285782
REMARK CNNscore 0.379342169
REMARK CNNaffinity 5.84551096
REMARK  15 active torsions:
REMARK  status: ('A' for Active; 'I' for Inactive)
REMARK    1  A    between atoms: C19_20  and  O2_21 
REMARK    2  A    between atoms: C19_20  and  C20_22 
REMARK    3  A    between atoms: C20_22  and  C21_24 
REMARK    4  A    between atoms: C21_24  and  O4_25 
REMARK    5  A    between atoms: O4_25  and  C22_26 
REMARK    6  A    between atoms: C22_26  and  C23_28 
REMARK    7  A    between atoms: C23_28  and  C24_29 
REMARK    8  A    between atoms: C24_29  and  C25_30 
REMARK       I    between atoms: C25_30  and  N1_32 
REMARK    9  A    between atoms: N1_32  and  C26_33 
REMARK   10  A    between atoms: C26_33  and  C27_34 
REMARK   11  A    between atoms: C27_34  and  C28_35 
REMARK   12  A    between atoms: C28_35  and  C29_36 
REMARK   13  A    between atoms: C29_36  and  C30_37 
REMARK   14  A    between atoms: C30_37  and  C31_38 
REMARK   15  A    between atoms: C31_38  and  O8_40 
ROOT
HETATM    1  C1  UNL     1      -0.579  50.803 -21.878  1.00  0.00     0.020 C 
HETATM    2  C2  UNL     1      -1.781  50.605 -22.859  1.00  0.00    -0.016 C 
HETATM    3  C3  UNL     1      -1.089  50.553 -24.254  1.00  0.00     0.022 C 
HETATM    4  C4  UNL     1      -1.968  50.911 -25.442  1.00  0.00     0.084 C 
HETATM    5  C5  UNL     1      -2.704  52.201 -25.205  1.00  0.00     0.149 C 
HETATM    6  O1  UNL     1      -3.043  52.940 -26.127  1.00  0.00    -0.293 OA
HETATM    7  C6  UNL     1      -3.097  52.543 -23.820  1.00  0.00     0.053 C 
HETATM    8  C7  UNL     1      -2.705  51.812 -22.762  1.00  0.00    -0.068 C 
HETATM    9  C8  UNL     1      -3.267  52.115 -21.392  1.00  0.00     0.035 C 
HETATM   10  C9  UNL     1      -3.557  50.850 -20.578  1.00  0.00     0.010 C 
HETATM   11  C10 UNL     1      -3.792  49.597 -21.439  1.00  0.00    -0.004 C 
HETATM   12  C11 UNL     1      -2.580  49.303 -22.409  1.00  0.00     0.002 C 
HETATM   13  C12 UNL     1      -2.947  48.263 -23.503  1.00  0.00     0.007 C 
HETATM   14  C13 UNL     1      -4.354  48.357 -24.111  1.00  0.00     0.013 C 
HETATM   15  C14 UNL     1      -5.451  48.421 -23.038  1.00  0.00    -0.002 C 
HETATM   16  C15 UNL     1      -5.477  47.111 -22.208  1.00  0.00     0.019 C 
HETATM   17  C16 UNL     1      -5.132  49.676 -22.194  1.00  0.00     0.002 C 
HETATM   18  C17 UNL     1      -6.395  49.880 -21.367  1.00  0.00     0.009 C 
HETATM   19  C18 UNL     1      -7.542  49.458 -22.300  1.00  0.00     0.047 C 
HETATM   20  C19 UNL     1      -6.890  48.772 -23.535  1.00  0.00     0.128 C 
ENDROOT
BRANCH  20  21
HETATM   21  O2  UNL     1      -6.815  49.742 -24.583  1.00  0.00    -0.381 OA
HETATM   22  H27 UNL     1      -7.714  50.098 -24.734  1.00  0.00     0.211 HD
ENDBRANCH  20  21
BRANCH  20  23
HETATM   23  C20 UNL     1      -7.717  47.567 -24.042  1.00  0.00     0.185 C 
HETATM   24  O3  UNL     1      -8.576  47.021 -23.345  1.00  0.00    -0.292 OA
BRANCH  23  25
HETATM   25  C21 UNL     1      -7.418  47.074 -25.458  1.00  0.00     0.260 C 
BRANCH  25  26
HETATM   26  O4  UNL     1      -8.003  45.798 -25.726  1.00  0.00    -0.314 OA
BRANCH  26  27
HETATM   27  C22 UNL     1      -8.756  45.762 -26.861  1.00  0.00     0.259 C 
HETATM   28  O5  UNL     1      -8.818  46.659 -27.690  1.00  0.00    -0.265 OA
BRANCH  27  29
HETATM   29  C23 UNL     1      -9.539  44.483 -26.932  1.00  0.00     0.120 C 
BRANCH  29  30
HETATM   30  C24 UNL     1     -10.750  44.669 -27.832  1.00  0.00     0.112 C 
BRANCH  30  31
HETATM   31  C25 UNL     1     -11.917  45.257 -27.070  1.00  0.00     0.217 C 
HETATM   32  O6  UNL     1     -12.317  44.813 -25.999  1.00  0.00    -0.274 OA
HETATM   33  N1  UNL     1     -12.489  46.340 -27.707  1.00  0.00    -0.361 N 
HETATM   34  H34 UNL     1     -11.949  46.790 -28.434  1.00  0.00     0.162 HD
BRANCH  33  35
HETATM   35  C26 UNL     1     -13.531  47.109 -27.054  1.00  0.00     0.122 C 
BRANCH  35  36
HETATM   36  C27 UNL     1     -14.691  46.218 -26.620  1.00  0.00     0.020 C 
BRANCH  36  37
HETATM   37  C28 UNL     1     -15.136  46.464 -25.176  1.00  0.00     0.002 C 
BRANCH  37  38
HETATM   38  C29 UNL     1     -16.503  45.887 -24.796  1.00  0.00     0.010 C 
BRANCH  38  39
HETATM   39  C30 UNL     1     -17.580  46.953 -24.603  1.00  0.00     0.110 C 
BRANCH  39  40
HETATM   40  C31 UNL     1     -18.963  46.374 -24.729  1.00  0.00     0.139 C 
HETATM   41  O7  UNL     1     -19.969  46.931 -25.133  1.00  0.00    -0.650 OA
BRANCH  40  42
HETATM   42  O8  UNL     1     -19.004  45.085 -24.337  1.00  0.00    -0.776 OA
HETATM   43  H45 UNL     1     -19.941  44.828 -24.465  1.00  0.00     0.167 HD
ENDBRANCH  40  42
ENDBRANCH  39  40
ENDBRANCH  38  39
ENDBRANCH  37  38
ENDBRANCH  36  37
ENDBRANCH  35  36
ENDBRANCH  33  35
ENDBRANCH  30  31
ENDBRANCH  29  30
ENDBRANCH  27  29
ENDBRANCH  26  27
ENDBRANCH  25  26
ENDBRANCH  23  25
ENDBRANCH  20  23
TORSDOF 15
ENDMDL
MODEL 7
REMARK minimizedAffinity -6.66089964
REMARK CNNscore 0.361701608
REMARK CNNaffinity 5.78264189
REMARK  15 active torsions:
REMARK  status: ('A' for Active; 'I' for Inactive)
REMARK    1  A    between atoms: C19_20  and  O2_21 
REMARK    2  A    between atoms: C19_20  and  C20_22 
REMARK    3  A    between atoms: C20_22  and  C21_24 
REMARK    4  A    between atoms: C21_24  and  O4_25 
REMARK    5  A    between atoms: O4_25  and  C22_26 
REMARK    6  A    between atoms: C22_26  and  C23_28 
REMARK    7  A    between atoms: C23_28  and  C24_29 
REMARK    8  A    between atoms: C24_29  and  C25_30 
REMARK       I    between atoms: C25_30  and  N1_32 
REMARK    9  A    between atoms: N1_32  and  C26_33 
REMARK   10  A    between atoms: C26_33  and  C27_34 
REMARK   11  A    between atoms: C27_34  and  C28_35 
REMARK   12  A    between atoms: C28_35  and  C29_36 
REMARK   13  A    between atoms: C29_36  and  C30_37 
REMARK   14  A    between atoms: C30_37  and  C31_38 
REMARK   15  A    between atoms: C31_38  and  O8_40 
ROOT
HETATM    1  C1  UNL     1      -0.638  50.845 -21.756  1.00  0.00     0.020 C 
HETATM    2  C2  UNL     1      -1.828  50.644 -22.752  1.00  0.00    -0.016 C 
HETATM    3  C3  UNL     1      -1.123  50.623 -24.141  1.00  0.00     0.022 C 
HETATM    4  C4  UNL     1      -1.996  50.985 -25.332  1.00  0.00     0.084 C 
HETATM    5  C5  UNL     1      -2.754  52.261 -25.082  1.00  0.00     0.149 C 
HETATM    6  O1  UNL     1      -3.097  53.007 -25.996  1.00  0.00    -0.293 OA
HETATM    7  C6  UNL     1      -3.165  52.576 -23.696  1.00  0.00     0.053 C 
HETATM    8  C7  UNL     1      -2.771  51.835 -22.645  1.00  0.00    -0.068 C 
HETATM    9  C8  UNL     1      -3.350  52.109 -21.276  1.00  0.00     0.035 C 
HETATM   10  C9  UNL     1      -3.628  50.828 -20.484  1.00  0.00     0.010 C 
HETATM   11  C10 UNL     1      -3.836  49.585 -21.365  1.00  0.00    -0.004 C 
HETATM   12  C11 UNL     1      -2.611  49.324 -22.328  1.00  0.00     0.002 C 
HETATM   13  C12 UNL     1      -2.953  48.294 -23.441  1.00  0.00     0.007 C 
HETATM   14  C13 UNL     1      -4.355  48.376 -24.059  1.00  0.00     0.013 C 
HETATM   15  C14 UNL     1      -5.463  48.407 -22.996  1.00  0.00    -0.002 C 
HETATM   16  C15 UNL     1      -5.476  47.085 -22.186  1.00  0.00     0.019 C 
HETATM   17  C16 UNL     1      -5.171  49.655 -22.131  1.00  0.00     0.002 C 
HETATM   18  C17 UNL     1      -6.444  49.827 -21.313  1.00  0.00     0.009 C 
HETATM   19  C18 UNL     1      -7.576  49.402 -22.262  1.00  0.00     0.047 C 
HETATM   20  C19 UNL     1      -6.902  48.744 -23.501  1.00  0.00     0.128 C 
ENDROOT
BRANCH  20  21
HETATM   21  O2  UNL     1      -6.833  49.731 -24.534  1.00  0.00    -0.381 OA
HETATM   22  H27 UNL     1      -7.736  50.075 -24.688  1.00  0.00     0.211 HD
ENDBRANCH  20  21
BRANCH  20  23
HETATM   23  C20 UNL     1      -7.707  47.535 -24.033  1.00  0.00     0.185 C 
HETATM   24  O3  UNL     1      -7.300  46.835 -24.966  1.00  0.00    -0.292 OA
BRANCH  23  25
HETATM   25  C21 UNL     1      -9.044  47.243 -23.352  1.00  0.00     0.260 C 
BRANCH  25  26
HETATM   26  O4  UNL     1      -9.694  46.092 -23.895  1.00  0.00    -0.314 OA
BRANCH  26  27
HETATM   27  C22 UNL     1     -10.594  46.377 -24.877  1.00  0.00     0.259 C 
HETATM   28  O5  UNL     1     -11.470  47.229 -24.800  1.00  0.00    -0.265 OA
BRANCH  27  29
HETATM   29  C23 UNL     1     -10.393  45.469 -26.055  1.00  0.00     0.120 C 
BRANCH  29  30
HETATM   30  C24 UNL     1     -10.665  46.229 -27.344  1.00  0.00     0.112 C 
BRANCH  30  31
HETATM   31  C25 UNL     1     -11.632  45.478 -28.232  1.00  0.00     0.217 C 
HETATM   32  O6  UNL     1     -11.373  45.146 -29.384  1.00  0.00    -0.274 OA
HETATM   33  N1  UNL     1     -12.837  45.209 -27.615  1.00  0.00    -0.361 N 
HETATM   34  H34 UNL     1     -12.870  45.284 -26.606  1.00  0.00     0.162 HD
BRANCH  33  35
HETATM   35  C26 UNL     1     -13.829  44.379 -28.271  1.00  0.00     0.122 C 
BRANCH  35  36
HETATM   36  C27 UNL     1     -15.098  45.169 -28.580  1.00  0.00     0.020 C 
BRANCH  36  37
HETATM   37  C28 UNL     1     -16.178  45.024 -27.505  1.00  0.00     0.002 C 
BRANCH  37  38
HETATM   38  C29 UNL     1     -17.204  43.911 -27.741  1.00  0.00     0.010 C 
BRANCH  38  39
HETATM   39  C30 UNL     1     -18.535  44.152 -27.031  1.00  0.00     0.110 C 
BRANCH  39  40
HETATM   40  C31 UNL     1     -19.551  43.100 -27.386  1.00  0.00     0.139 C 
HETATM   41  O7  UNL     1     -20.379  43.137 -28.280  1.00  0.00    -0.650 OA
BRANCH  40  42
HETATM   42  O8  UNL     1     -19.461  42.024 -26.579  1.00  0.00    -0.776 OA
HETATM   43  H45 UNL     1     -20.161  41.422 -26.908  1.00  0.00     0.167 HD
ENDBRANCH  40  42
ENDBRANCH  39  40
ENDBRANCH  38  39
ENDBRANCH  37  38
ENDBRANCH  36  37
ENDBRANCH  35  36
ENDBRANCH  33  35
ENDBRANCH  30  31
ENDBRANCH  29  30
ENDBRANCH  27  29
ENDBRANCH  26  27
ENDBRANCH  25  26
ENDBRANCH  23  25
ENDBRANCH  20  23
TORSDOF 15
ENDMDL
MODEL 8
REMARK minimizedAffinity -7.1548357
REMARK CNNscore 0.345591068
REMARK CNNaffinity 6.35377741
REMARK  15 active torsions:
REMARK  status: ('A' for Active; 'I' for Inactive)
REMARK    1  A    between atoms: C19_20  and  O2_21 
REMARK    2  A    between atoms: C19_20  and  C20_22 
REMARK    3  A    between atoms: C20_22  and  C21_24 
REMARK    4  A    between atoms: C21_24  and  O4_25 
REMARK    5  A    between atoms: O4_25  and  C22_26 
REMARK    6  A    between atoms: C22_26  and  C23_28 
REMARK    7  A    between atoms: C23_28  and  C24_29 
REMARK    8  A    between atoms: C24_29  and  C25_30 
REMARK       I    between atoms: C25_30  and  N1_32 
REMARK    9  A    between atoms: N1_32  and  C26_33 
REMARK   10  A    between atoms: C26_33  and  C27_34 
REMARK   11  A    between atoms: C27_34  and  C28_35 
REMARK   12  A    between atoms: C28_35  and  C29_36 
REMARK   13  A    between atoms: C29_36  and  C30_37 
REMARK   14  A    between atoms: C30_37  and  C31_38 
REMARK   15  A    between atoms: C31_38  and  O8_40 
ROOT
HETATM    1  C1  UNL     1       2.362  51.880 -26.276  1.00  0.00     0.020 C 
HETATM    2  C2  UNL     1       0.807  51.949 -26.432  1.00  0.00    -0.016 C 
HETATM    3  C3  UNL     1       0.608  51.897 -27.975  1.00  0.00     0.022 C 
HETATM    4  C4  UNL     1      -0.699  52.478 -28.494  1.00  0.00     0.084 C 
HETATM    5  C5  UNL     1      -0.951  53.845 -27.919  1.00  0.00     0.149 C 
HETATM    6  O1  UNL     1      -1.604  54.696 -28.520  1.00  0.00    -0.293 OA
HETATM    7  C6  UNL     1      -0.461  54.136 -26.554  1.00  0.00     0.053 C 
HETATM    8  C7  UNL     1       0.310  53.274 -25.869  1.00  0.00    -0.068 C 
HETATM    9  C8  UNL     1       0.646  53.555 -24.423  1.00  0.00     0.035 C 
HETATM   10  C9  UNL     1       0.632  52.292 -23.556  1.00  0.00     0.010 C 
HETATM   11  C10 UNL     1      -0.245  51.161 -24.119  1.00  0.00    -0.004 C 
HETATM   12  C11 UNL     1       0.171  50.757 -25.589  1.00  0.00     0.002 C 
HETATM   13  C12 UNL     1      -0.905  49.874 -26.278  1.00  0.00     0.007 C 
HETATM   14  C13 UNL     1      -2.374  50.233 -26.016  1.00  0.00     0.013 C 
HETATM   15  C14 UNL     1      -2.681  50.384 -24.518  1.00  0.00    -0.002 C 
HETATM   16  C15 UNL     1      -2.477  49.035 -23.783  1.00  0.00     0.019 C 
HETATM   17  C16 UNL     1      -1.743  51.506 -24.016  1.00  0.00     0.002 C 
HETATM   18  C17 UNL     1      -2.296  51.841 -22.636  1.00  0.00     0.009 C 
HETATM   19  C18 UNL     1      -3.817  51.676 -22.776  1.00  0.00     0.047 C 
HETATM   20  C19 UNL     1      -4.072  50.993 -24.151  1.00  0.00     0.128 C 
ENDROOT
BRANCH  20  21
HETATM   21  O2  UNL     1      -4.413  52.018 -25.089  1.00  0.00    -0.381 OA
HETATM   22  H27 UNL     1      -5.172  52.520 -24.730  1.00  0.00     0.211 HD
ENDBRANCH  20  21
BRANCH  20  23
HETATM   23  C20 UNL     1      -5.235  49.975 -24.095  1.00  0.00     0.185 C 
HETATM   24  O3  UNL     1      -5.497  49.224 -25.038  1.00  0.00    -0.292 OA
BRANCH  23  25
HETATM   25  C21 UNL     1      -6.060  49.943 -22.807  1.00  0.00     0.260 C 
BRANCH  25  26
HETATM   26  O4  UNL     1      -7.466  50.010 -23.058  1.00  0.00    -0.314 OA
BRANCH  26  27
HETATM   27  C22 UNL     1      -8.008  48.836 -23.484  1.00  0.00     0.259 C 
HETATM   28  O5  UNL     1      -7.859  47.753 -22.933  1.00  0.00    -0.265 OA
BRANCH  27  29
HETATM   29  C23 UNL     1      -8.781  49.044 -24.754  1.00  0.00     0.120 C 
BRANCH  29  30
HETATM   30  C24 UNL     1      -9.366  47.721 -25.224  1.00  0.00     0.112 C 
BRANCH  30  31
HETATM   31  C25 UNL     1     -10.450  47.934 -26.257  1.00  0.00     0.217 C 
HETATM   32  O6  UNL     1     -11.229  48.881 -26.233  1.00  0.00    -0.274 OA
HETATM   33  N1  UNL     1     -10.476  46.951 -27.226  1.00  0.00    -0.361 N 
HETATM   34  H34 UNL     1      -9.655  46.367 -27.318  1.00  0.00     0.162 HD
BRANCH  33  35
HETATM   35  C26 UNL     1     -11.361  47.069 -28.368  1.00  0.00     0.122 C 
BRANCH  35  36
HETATM   36  C27 UNL     1     -12.078  45.753 -28.655  1.00  0.00     0.020 C 
BRANCH  36  37
HETATM   37  C28 UNL     1     -13.591  45.913 -28.832  1.00  0.00     0.002 C 
BRANCH  37  38
HETATM   38  C29 UNL     1     -14.387  46.158 -27.548  1.00  0.00     0.010 C 
BRANCH  38  39
HETATM   39  C30 UNL     1     -14.683  44.880 -26.764  1.00  0.00     0.110 C 
BRANCH  39  40
HETATM   40  C31 UNL     1     -15.975  44.246 -27.203  1.00  0.00     0.139 C 
HETATM   41  O7  UNL     1     -16.296  43.074 -27.114  1.00  0.00    -0.650 OA
BRANCH  40  42
HETATM   42  O8  UNL     1     -16.821  45.150 -27.737  1.00  0.00    -0.776 OA
HETATM   43  H45 UNL     1     -17.611  44.622 -27.977  1.00  0.00     0.167 HD
ENDBRANCH  40  42
ENDBRANCH  39  40
ENDBRANCH  38  39
ENDBRANCH  37  38
ENDBRANCH  36  37
ENDBRANCH  35  36
ENDBRANCH  33  35
ENDBRANCH  30  31
ENDBRANCH  29  30
ENDBRANCH  27  29
ENDBRANCH  26  27
ENDBRANCH  25  26
ENDBRANCH  23  25
ENDBRANCH  20  23
TORSDOF 15
ENDMDL
MODEL 9
REMARK minimizedAffinity -6.84293985
REMARK CNNscore 0.284054637
REMARK CNNaffinity 6.56435728
REMARK  15 active torsions:
REMARK  status: ('A' for Active; 'I' for Inactive)
REMARK    1  A    between atoms: C19_20  and  O2_21 
REMARK    2  A    between atoms: C19_20  and  C20_22 
REMARK    3  A    between atoms: C20_22  and  C21_24 
REMARK    4  A    between atoms: C21_24  and  O4_25 
REMARK    5  A    between atoms: O4_25  and  C22_26 
REMARK    6  A    between atoms: C22_26  and  C23_28 
REMARK    7  A    between atoms: C23_28  and  C24_29 
REMARK    8  A    between atoms: C24_29  and  C25_30 
REMARK       I    between atoms: C25_30  and  N1_32 
REMARK    9  A    between atoms: N1_32  and  C26_33 
REMARK   10  A    between atoms: C26_33  and  C27_34 
REMARK   11  A    between atoms: C27_34  and  C28_35 
REMARK   12  A    between atoms: C28_35  and  C29_36 
REMARK   13  A    between atoms: C29_36  and  C30_37 
REMARK   14  A    between atoms: C30_37  and  C31_38 
REMARK   15  A    between atoms: C31_38  and  O8_40 
ROOT
HETATM    1  C1  UNL     1      -5.924  49.491 -24.149  1.00  0.00     0.020 C 
HETATM    2  C2  UNL     1      -4.713  50.309 -23.590  1.00  0.00    -0.016 C 
HETATM    3  C3  UNL     1      -5.031  51.763 -24.050  1.00  0.00     0.022 C 
HETATM    4  C4  UNL     1      -3.837  52.699 -24.156  1.00  0.00     0.084 C 
HETATM    5  C5  UNL     1      -2.721  52.069 -24.944  1.00  0.00     0.149 C 
HETATM    6  O1  UNL     1      -1.914  52.739 -25.584  1.00  0.00    -0.293 OA
HETATM    7  C6  UNL     1      -2.550  50.601 -24.873  1.00  0.00     0.053 C 
HETATM    8  C7  UNL     1      -3.432  49.806 -24.242  1.00  0.00    -0.068 C 
HETATM    9  C8  UNL     1      -3.123  48.338 -24.064  1.00  0.00     0.035 C 
HETATM   10  C9  UNL     1      -3.558  47.802 -22.697  1.00  0.00     0.010 C 
HETATM   11  C10 UNL     1      -3.656  48.884 -21.608  1.00  0.00    -0.004 C 
HETATM   12  C11 UNL     1      -4.628  50.059 -22.019  1.00  0.00     0.002 C 
HETATM   13  C12 UNL     1      -4.471  51.298 -21.095  1.00  0.00     0.007 C 
HETATM   14  C13 UNL     1      -3.046  51.660 -20.651  1.00  0.00     0.013 C 
HETATM   15  C14 UNL     1      -2.291  50.455 -20.070  1.00  0.00    -0.002 C 
HETATM   16  C15 UNL     1      -2.982  49.953 -18.776  1.00  0.00     0.019 C 
HETATM   17  C16 UNL     1      -2.263  49.401 -21.201  1.00  0.00     0.002 C 
HETATM   18  C17 UNL     1      -1.248  48.377 -20.708  1.00  0.00     0.009 C 
HETATM   19  C18 UNL     1      -0.188  49.207 -19.967  1.00  0.00     0.047 C 
HETATM   20  C19 UNL     1      -0.760  50.647 -19.824  1.00  0.00     0.128 C 
ENDROOT
BRANCH  20  21
HETATM   21  O2  UNL     1      -0.199  51.445 -20.871  1.00  0.00    -0.381 OA
HETATM   22  H27 UNL     1       0.775  51.380 -20.814  1.00  0.00     0.211 HD
ENDBRANCH  20  21
BRANCH  20  23
HETATM   23  C20 UNL     1      -0.393  51.293 -18.467  1.00  0.00     0.185 C 
HETATM   24  O3  UNL     1      -0.150  52.498 -18.359  1.00  0.00    -0.292 OA
BRANCH  23  25
HETATM   25  C21 UNL     1      -0.340  50.363 -17.254  1.00  0.00     0.260 C 
BRANCH  25  26
HETATM   26  O4  UNL     1       0.939  50.373 -16.616  1.00  0.00    -0.314 OA
BRANCH  26  27
HETATM   27  C22 UNL     1       0.881  50.520 -15.263  1.00  0.00     0.259 C 
HETATM   28  O5  UNL     1       0.308  49.755 -14.498  1.00  0.00    -0.265 OA
BRANCH  27  29
HETATM   29  C23 UNL     1       1.580  51.779 -14.841  1.00  0.00     0.120 C 
BRANCH  29  30
HETATM   30  C24 UNL     1       2.950  51.442 -14.273  1.00  0.00     0.112 C 
BRANCH  30  31
HETATM   31  C25 UNL     1       2.972  51.582 -12.767  1.00  0.00     0.217 C 
HETATM   32  O6  UNL     1       3.581  50.818 -12.027  1.00  0.00    -0.274 OA
HETATM   33  N1  UNL     1       2.232  52.656 -12.313  1.00  0.00    -0.361 N 
HETATM   34  H34 UNL     1       1.985  53.369 -12.986  1.00  0.00     0.162 HD
BRANCH  33  35
HETATM   35  C26 UNL     1       2.254  53.020 -10.909  1.00  0.00     0.122 C 
BRANCH  35  36
HETATM   36  C27 UNL     1       0.882  53.491 -10.436  1.00  0.00     0.020 C 
BRANCH  36  37
HETATM   37  C28 UNL     1      -0.169  53.510 -11.549  1.00  0.00     0.002 C 
BRANCH  37  38
HETATM   38  C29 UNL     1      -1.452  52.723 -11.264  1.00  0.00     0.010 C 
BRANCH  38  39
HETATM   39  C30 UNL     1      -2.624  53.606 -10.840  1.00  0.00     0.110 C 
BRANCH  39  40
HETATM   40  C31 UNL     1      -3.897  53.212 -11.540  1.00  0.00     0.139 C 
HETATM   41  O7  UNL     1      -4.284  53.573 -12.638  1.00  0.00    -0.650 OA
BRANCH  40  42
HETATM   42  O8  UNL     1      -4.630  52.354 -10.802  1.00  0.00    -0.776 OA
HETATM   43  H45 UNL     1      -5.417  52.177 -11.358  1.00  0.00     0.167 HD
ENDBRANCH  40  42
ENDBRANCH  39  40
ENDBRANCH  38  39
ENDBRANCH  37  38
ENDBRANCH  36  37
ENDBRANCH  35  36
ENDBRANCH  33  35
ENDBRANCH  30  31
ENDBRANCH  29  30
ENDBRANCH  27  29
ENDBRANCH  26  27
ENDBRANCH  25  26
ENDBRANCH  23  25
ENDBRANCH  20  23
TORSDOF 15
ENDMDL
