MODEL 1
REMARK minimizedAffinity -9.13093662
REMARK CNNscore 0.540872693
REMARK CNNaffinity 7.1058898
REMARK  12 active torsions:
REMARK  status: ('A' for Active; 'I' for Inactive)
REMARK    1  A    between atoms: C2_2  and  C3_3 
REMARK    2  A    between atoms: C4_4  and  C18_19 
REMARK    3  A    between atoms: C19_20  and  O1_21 
REMARK    4  A    between atoms: N2_22  and  C20_23 
REMARK    5  A    between atoms: C20_23  and  C21_24 
REMARK    6  A    between atoms: C21_24  and  O3_26 
REMARK    7  A    between atoms: O3_26  and  C22_27 
REMARK    8  A    between atoms: C25_30  and  C26_31 
REMARK    9  A    between atoms: C32_38  and  C33_39 
REMARK   10  A    between atoms: C39_47  and  O7_48 
REMARK   11  A    between atoms: C43_52  and  O8_53 
REMARK   12  A    between atoms: C45_55  and  O9_56 
ROOT
HETATM    1  C22 UNL     1     -13.391   9.817  22.692  1.00  0.00     0.135 C 
HETATM    2  C23 UNL     1     -12.363   9.293  21.693  1.00  0.00     0.034 C 
HETATM    3  C24 UNL     1     -11.450  10.375  21.106  1.00  0.00     0.022 C 
HETATM    4  C25 UNL     1     -11.190  11.589  22.044  1.00  0.00     0.048 C 
HETATM    5  C27 UNL     1      -9.735  12.161  21.818  1.00  0.00     0.011 C 
HETATM    6  C28 UNL     1      -9.395  12.510  20.351  1.00  0.00     0.007 C 
HETATM    7  C29 UNL     1      -8.891  13.935  20.141  1.00  0.00     0.013 C 
HETATM    8  C30 UNL     1      -7.733  14.362  21.076  1.00  0.00    -0.005 C 
HETATM    9  C31 UNL     1      -7.588  15.895  20.932  1.00  0.00     0.019 C 
HETATM   10  C32 UNL     1      -6.397  13.619  20.705  1.00  0.00     0.028 C 
HETATM   11  C37 UNL     1      -5.698  13.427  22.050  1.00  0.00     0.013 C 
HETATM   12  C38 UNL     1      -6.845  12.982  22.943  1.00  0.00     0.040 C 
HETATM   13  C39 UNL     1      -8.005  13.928  22.569  1.00  0.00     0.070 C 
HETATM   14  C40 UNL     1      -9.414  13.318  22.799  1.00  0.00     0.026 C 
HETATM   15  C41 UNL     1      -9.609  12.871  24.261  1.00  0.00     0.011 C 
HETATM   16  C42 UNL     1     -11.001  12.296  24.513  1.00  0.00     0.039 C 
HETATM   17  C43 UNL     1     -11.347  11.158  23.534  1.00  0.00     0.074 C 
HETATM   18  C44 UNL     1     -12.727  10.553  23.869  1.00  0.00     0.071 C 
ENDROOT
BRANCH   1  19
HETATM   19  O3  UNL     1     -14.122   8.663  23.174  1.00  0.00    -0.315 OA
BRANCH  19  20
HETATM   20  C21 UNL     1     -13.419   7.743  23.897  1.00  0.00     0.285 C 
HETATM   21  O2  UNL     1     -12.232   7.491  23.757  1.00  0.00    -0.263 OA
BRANCH  20  22
HETATM   22  C20 UNL     1     -14.375   6.995  24.830  1.00  0.00     0.352 C 
BRANCH  22  23
HETATM   23  N2  UNL     1     -15.253   5.828  24.246  1.00  0.00    -0.021 N 
HETATM   24  C6  UNL     1     -16.131   5.180  25.379  1.00  0.00     0.214 C 
HETATM   25  C5  UNL     1     -17.262   4.401  24.678  1.00  0.00     0.041 C 
HETATM   26  C7  UNL     1     -15.307   4.204  26.277  1.00  0.00     0.109 C 
HETATM   27  C4  UNL     1     -16.792   3.985  23.275  1.00  0.00     0.004 C 
HETATM   28  C3  UNL     1     -16.911   5.272  22.419  1.00  0.00     0.047 C 
HETATM   29  C45 UNL     1     -16.130   6.415  23.134  1.00  0.00     0.329 C 
HETATM   30  N1  UNL     1     -14.494   4.846  27.349  1.00  0.00    -0.279 NA
HETATM   31  C15 UNL     1     -14.282   3.345  25.477  1.00  0.00     0.035 C 
HETATM   32  C8  UNL     1     -15.214   5.373  28.513  1.00  0.00     0.117 C 
HETATM   33  C9  UNL     1     -13.593   3.769  27.670  1.00  0.00     0.018 A 
HETATM   34  C10 UNL     1     -12.856   3.601  28.829  1.00  0.00     0.024 A 
HETATM   35  C14 UNL     1     -13.477   2.836  26.617  1.00  0.00    -0.024 A 
HETATM   36  C11 UNL     1     -12.028   2.479  28.937  1.00  0.00     0.002 A 
HETATM   37  C12 UNL     1     -11.934   1.547  27.888  1.00  0.00     0.001 A 
HETATM   38  C13 UNL     1     -12.659   1.724  26.710  1.00  0.00     0.010 A 
HETATM   39  C16 UNL     1     -13.375   4.187  24.578  1.00  0.00     0.053 C 
HETATM   40  C19 UNL     1     -14.949   2.466  24.420  1.00  0.00     0.139 C 
HETATM   41  C17 UNL     1     -14.387   4.723  23.598  1.00  0.00     0.203 C 
HETATM   42  C18 UNL     1     -15.320   3.505  23.311  1.00  0.00     0.051 C 
BRANCH  28  43
HETATM   43  C2  UNL     1     -16.465   5.051  20.962  1.00  0.00     0.005 C 
HETATM   44  C1  UNL     1     -17.514   5.505  19.955  1.00  0.00     0.005 C 
ENDBRANCH  28  43
BRANCH  29  45
HETATM   45  O9  UNL     1     -17.026   7.379  23.627  1.00  0.00    -0.369 OA
HETATM   46  H59 UNL     1     -17.596   7.675  22.893  1.00  0.00     0.212 HD
ENDBRANCH  29  45
BRANCH  40  47
HETATM   47  O1  UNL     1     -16.068   1.749  24.887  1.00  0.00    -0.394 OA
HETATM   48  H24 UNL     1     -15.751   1.039  25.481  1.00  0.00     0.210 HD
ENDBRANCH  40  47
ENDBRANCH  22  23
ENDBRANCH  20  22
ENDBRANCH  19  20
ENDBRANCH   1  19
BRANCH  17  49
HETATM   49  O8  UNL     1     -10.395  10.094  23.763  1.00  0.00    -0.389 OA
HETATM   50  H55 UNL     1     -10.248  10.004  24.719  1.00  0.00     0.210 HD
ENDBRANCH  17  49
BRANCH   4  51
HETATM   51  C26 UNL     1     -12.200  12.679  21.654  1.00  0.00     0.244 C 
HETATM   52  O4  UNL     1     -12.877  13.325  22.447  1.00  0.00    -0.306 OA
ENDBRANCH   4  51
BRANCH  13  53
HETATM   53  O7  UNL     1      -7.864  15.052  23.450  1.00  0.00    -0.389 OA
HETATM   54  H49 UNL     1      -8.635  15.635  23.342  1.00  0.00     0.210 HD
ENDBRANCH  13  53
BRANCH  10  55
HETATM   55  C33 UNL     1      -5.524  14.207  19.635  1.00  0.00    -0.045 A 
HETATM   56  C34 UNL     1      -5.715  14.104  18.319  1.00  0.00     0.087 A 
HETATM   57  C35 UNL     1      -4.611  14.803  17.664  1.00  0.00     0.283 A 
HETATM   58  O5  UNL     1      -4.478  14.918  16.459  1.00  0.00    -0.260 OA
HETATM   59  O6  UNL     1      -3.772  15.298  18.612  1.00  0.00    -0.314 OA
HETATM   60  C36 UNL     1      -4.268  14.948  19.904  1.00  0.00     0.213 A 
ENDBRANCH  10  55
TORSDOF 12
ENDMDL
MODEL 2
REMARK minimizedAffinity -10.354641
REMARK CNNscore 0.484837502
REMARK CNNaffinity 7.27207375
REMARK  12 active torsions:
REMARK  status: ('A' for Active; 'I' for Inactive)
REMARK    1  A    between atoms: C2_2  and  C3_3 
REMARK    2  A    between atoms: C4_4  and  C18_19 
REMARK    3  A    between atoms: C19_20  and  O1_21 
REMARK    4  A    between atoms: N2_22  and  C20_23 
REMARK    5  A    between atoms: C20_23  and  C21_24 
REMARK    6  A    between atoms: C21_24  and  O3_26 
REMARK    7  A    between atoms: O3_26  and  C22_27 
REMARK    8  A    between atoms: C25_30  and  C26_31 
REMARK    9  A    between atoms: C32_38  and  C33_39 
REMARK   10  A    between atoms: C39_47  and  O7_48 
REMARK   11  A    between atoms: C43_52  and  O8_53 
REMARK   12  A    between atoms: C45_55  and  O9_56 
ROOT
HETATM    1  C22 UNL     1      -1.437  12.117  15.918  1.00  0.00     0.135 C 
HETATM    2  C23 UNL     1      -2.067  11.067  16.828  1.00  0.00     0.034 C 
HETATM    3  C24 UNL     1      -2.899  11.648  17.976  1.00  0.00     0.022 C 
HETATM    4  C25 UNL     1      -3.562  13.023  17.671  1.00  0.00     0.048 C 
HETATM    5  C27 UNL     1      -4.950  13.145  18.413  1.00  0.00     0.011 C 
HETATM    6  C28 UNL     1      -4.898  12.880  19.935  1.00  0.00     0.007 C 
HETATM    7  C29 UNL     1      -5.491  13.996  20.791  1.00  0.00     0.013 C 
HETATM    8  C30 UNL     1      -6.911  14.453  20.375  1.00  0.00    -0.005 C 
HETATM    9  C31 UNL     1      -7.194  15.770  21.136  1.00  0.00     0.019 C 
HETATM   10  C32 UNL     1      -7.985  13.353  20.705  1.00  0.00     0.028 C 
HETATM   11  C37 UNL     1      -9.009  13.490  19.580  1.00  0.00     0.013 C 
HETATM   12  C38 UNL     1      -8.119  13.646  18.358  1.00  0.00     0.040 C 
HETATM   13  C39 UNL     1      -7.025  14.635  18.811  1.00  0.00     0.070 C 
HETATM   14  C40 UNL     1      -5.676  14.469  18.060  1.00  0.00     0.026 C 
HETATM   15  C41 UNL     1      -5.852  14.611  16.535  1.00  0.00     0.011 C 
HETATM   16  C42 UNL     1      -4.530  14.481  15.782  1.00  0.00     0.039 C 
HETATM   17  C43 UNL     1      -3.784  13.181  16.135  1.00  0.00     0.074 C 
HETATM   18  C44 UNL     1      -2.493  13.049  15.299  1.00  0.00     0.071 C 
ENDROOT
BRANCH   1  19
HETATM   19  O3  UNL     1      -0.738  11.393  14.875  1.00  0.00    -0.315 OA
BRANCH  19  20
HETATM   20  C21 UNL     1      -1.355  10.283  14.374  1.00  0.00     0.285 C 
HETATM   21  O2  UNL     1      -2.549  10.181  14.143  1.00  0.00    -0.263 OA
BRANCH  20  22
HETATM   22  C20 UNL     1      -0.334   9.148  14.256  1.00  0.00     0.352 C 
BRANCH  22  23
HETATM   23  N2  UNL     1      -0.836   7.705  13.884  1.00  0.00    -0.021 N 
HETATM   24  C6  UNL     1       0.348   6.672  13.966  1.00  0.00     0.214 C 
HETATM   25  C5  UNL     1      -0.288   5.270  14.052  1.00  0.00     0.041 C 
HETATM   26  C7  UNL     1       1.279   6.745  12.715  1.00  0.00     0.109 C 
HETATM   27  C4  UNL     1      -1.676   5.304  13.393  1.00  0.00     0.004 C 
HETATM   28  C3  UNL     1      -2.597   5.977  14.444  1.00  0.00     0.047 C 
HETATM   29  C45 UNL     1      -1.960   7.336  14.860  1.00  0.00     0.329 C 
HETATM   30  N1  UNL     1       2.298   7.832  12.733  1.00  0.00    -0.279 NA
HETATM   31  C15 UNL     1       0.505   6.963  11.380  1.00  0.00     0.035 C 
HETATM   32  C8  UNL     1       3.447   7.661  13.628  1.00  0.00     0.117 C 
HETATM   33  C9  UNL     1       2.658   7.873  11.339  1.00  0.00     0.018 A 
HETATM   34  C10 UNL     1       3.808   8.398  10.777  1.00  0.00     0.024 A 
HETATM   35  C14 UNL     1       1.654   7.326  10.511  1.00  0.00    -0.024 A 
HETATM   36  C11 UNL     1       3.959   8.343   9.388  1.00  0.00     0.002 A 
HETATM   37  C12 UNL     1       2.960   7.780   8.575  1.00  0.00     0.001 A 
HETATM   38  C13 UNL     1       1.789   7.268   9.135  1.00  0.00     0.010 A 
HETATM   39  C16 UNL     1      -0.456   8.152  11.438  1.00  0.00     0.053 C 
HETATM   40  C19 UNL     1      -0.490   5.841  11.086  1.00  0.00     0.139 C 
HETATM   41  C17 UNL     1      -1.443   7.653  12.463  1.00  0.00     0.203 C 
HETATM   42  C18 UNL     1      -1.644   6.150  12.095  1.00  0.00     0.051 C 
BRANCH  28  43
HETATM   43  C2  UNL     1      -4.049   6.113  13.949  1.00  0.00     0.005 C 
HETATM   44  C1  UNL     1      -4.576   4.826  13.328  1.00  0.00     0.005 C 
ENDBRANCH  28  43
BRANCH  29  45
HETATM   45  O9  UNL     1      -1.501   7.269  16.187  1.00  0.00    -0.369 OA
HETATM   46  H59 UNL     1      -2.237   6.975  16.755  1.00  0.00     0.212 HD
ENDBRANCH  29  45
BRANCH  40  47
HETATM   47  O1  UNL     1       0.038   4.545  11.246  1.00  0.00    -0.394 OA
HETATM   48  H24 UNL     1       0.662   4.375  10.512  1.00  0.00     0.210 HD
ENDBRANCH  40  47
ENDBRANCH  22  23
ENDBRANCH  20  22
ENDBRANCH  19  20
ENDBRANCH   1  19
BRANCH  17  49
HETATM   49  O8  UNL     1      -4.624  12.080  15.721  1.00  0.00    -0.389 OA
HETATM   50  H55 UNL     1      -5.025  12.297  14.862  1.00  0.00     0.210 HD
ENDBRANCH  17  49
BRANCH   4  51
HETATM   51  C26 UNL     1      -2.623  14.104  18.227  1.00  0.00     0.244 C 
HETATM   52  O4  UNL     1      -1.686  13.895  18.992  1.00  0.00    -0.306 OA
ENDBRANCH   4  51
BRANCH  13  53
HETATM   53  O7  UNL     1      -7.546  15.934  18.495  1.00  0.00    -0.389 OA
HETATM   54  H49 UNL     1      -6.854  16.599  18.652  1.00  0.00     0.210 HD
ENDBRANCH  13  53
BRANCH  10  55
HETATM   55  C33 UNL     1      -8.581  13.326  22.082  1.00  0.00    -0.045 A 
HETATM   56  C34 UNL     1      -9.240  12.307  22.635  1.00  0.00     0.087 A 
HETATM   57  C35 UNL     1      -9.662  12.733  23.967  1.00  0.00     0.283 A 
HETATM   58  O5  UNL     1     -10.277  12.040  24.757  1.00  0.00    -0.260 OA
HETATM   59  O6  UNL     1      -9.256  14.013  24.175  1.00  0.00    -0.314 OA
HETATM   60  C36 UNL     1      -8.572  14.482  23.012  1.00  0.00     0.213 A 
ENDBRANCH  10  55
TORSDOF 12
ENDMDL
MODEL 3
REMARK minimizedAffinity -8.37711334
REMARK CNNscore 0.466127813
REMARK CNNaffinity 7.63975
REMARK  12 active torsions:
REMARK  status: ('A' for Active; 'I' for Inactive)
REMARK    1  A    between atoms: C2_2  and  C3_3 
REMARK    2  A    between atoms: C4_4  and  C18_19 
REMARK    3  A    between atoms: C19_20  and  O1_21 
REMARK    4  A    between atoms: N2_22  and  C20_23 
REMARK    5  A    between atoms: C20_23  and  C21_24 
REMARK    6  A    between atoms: C21_24  and  O3_26 
REMARK    7  A    between atoms: O3_26  and  C22_27 
REMARK    8  A    between atoms: C25_30  and  C26_31 
REMARK    9  A    between atoms: C32_38  and  C33_39 
REMARK   10  A    between atoms: C39_47  and  O7_48 
REMARK   11  A    between atoms: C43_52  and  O8_53 
REMARK   12  A    between atoms: C45_55  and  O9_56 
ROOT
HETATM    1  C22 UNL     1      -3.404  13.068  16.998  1.00  0.00     0.135 C 
HETATM    2  C23 UNL     1      -3.471  13.026  15.473  1.00  0.00     0.034 C 
HETATM    3  C24 UNL     1      -2.419  12.121  14.824  1.00  0.00     0.022 C 
HETATM    4  C25 UNL     1      -1.972  10.910  15.694  1.00  0.00     0.048 C 
HETATM    5  C27 UNL     1      -1.628   9.669  14.780  1.00  0.00     0.011 C 
HETATM    6  C28 UNL     1      -0.605   9.953  13.657  1.00  0.00     0.007 C 
HETATM    7  C29 UNL     1       0.595   9.010  13.643  1.00  0.00     0.013 C 
HETATM    8  C30 UNL     1       0.242   7.503  13.677  1.00  0.00    -0.005 C 
HETATM    9  C31 UNL     1       1.557   6.746  13.976  1.00  0.00     0.019 C 
HETATM   10  C32 UNL     1      -0.398   7.035  12.319  1.00  0.00     0.028 C 
HETATM   11  C37 UNL     1      -1.404   5.964  12.736  1.00  0.00     0.013 C 
HETATM   12  C38 UNL     1      -2.057   6.599  13.953  1.00  0.00     0.040 C 
HETATM   13  C39 UNL     1      -0.877   7.196  14.747  1.00  0.00     0.070 C 
HETATM   14  C40 UNL     1      -1.262   8.420  15.622  1.00  0.00     0.026 C 
HETATM   15  C41 UNL     1      -2.389   8.076  16.617  1.00  0.00     0.011 C 
HETATM   16  C42 UNL     1      -2.760   9.260  17.507  1.00  0.00     0.039 C 
HETATM   17  C43 UNL     1      -3.106  10.518  16.689  1.00  0.00     0.074 C 
HETATM   18  C44 UNL     1      -3.550  11.668  17.619  1.00  0.00     0.071 C 
ENDROOT
BRANCH   1  19
HETATM   19  O3  UNL     1      -4.490  13.922  17.434  1.00  0.00    -0.315 OA
BRANCH  19  20
HETATM   20  C21 UNL     1      -5.275  14.471  16.461  1.00  0.00     0.285 C 
HETATM   21  O2  UNL     1      -4.958  15.406  15.742  1.00  0.00    -0.263 OA
BRANCH  20  22
HETATM   22  C20 UNL     1      -6.654  13.808  16.491  1.00  0.00     0.352 C 
BRANCH  22  23
HETATM   23  N2  UNL     1      -7.931  14.711  16.657  1.00  0.00    -0.021 N 
HETATM   24  C6  UNL     1      -7.650  15.883  17.669  1.00  0.00     0.214 C 
HETATM   25  C5  UNL     1      -8.736  16.951  17.428  1.00  0.00     0.041 C 
HETATM   26  C7  UNL     1      -7.711  15.404  19.153  1.00  0.00     0.109 C 
HETATM   27  C4  UNL     1      -9.987  16.276  16.845  1.00  0.00     0.004 C 
HETATM   28  C3  UNL     1      -9.647  16.033  15.352  1.00  0.00     0.047 C 
HETATM   29  C45 UNL     1      -8.301  15.254  15.271  1.00  0.00     0.329 C 
HETATM   30  N1  UNL     1      -6.480  14.739  19.667  1.00  0.00    -0.279 NA
HETATM   31  C15 UNL     1      -8.849  14.376  19.425  1.00  0.00     0.035 C 
HETATM   32  C8  UNL     1      -5.321  15.593  19.947  1.00  0.00     0.117 C 
HETATM   33  C9  UNL     1      -7.009  14.085  20.836  1.00  0.00     0.018 A 
HETATM   34  C10 UNL     1      -6.308  13.627  21.938  1.00  0.00     0.024 A 
HETATM   35  C14 UNL     1      -8.406  13.897  20.760  1.00  0.00    -0.024 A 
HETATM   36  C11 UNL     1      -7.018  13.009  22.972  1.00  0.00     0.002 A 
HETATM   37  C12 UNL     1      -8.411  12.842  22.892  1.00  0.00     0.001 A 
HETATM   38  C13 UNL     1      -9.120  13.284  21.774  1.00  0.00     0.010 A 
HETATM   39  C16 UNL     1      -8.828  13.195  18.453  1.00  0.00     0.053 C 
HETATM   40  C19 UNL     1     -10.236  14.938  19.118  1.00  0.00     0.139 C 
HETATM   41  C17 UNL     1      -9.148  13.902  17.161  1.00  0.00     0.203 C 
HETATM   42  C18 UNL     1     -10.260  14.926  17.554  1.00  0.00     0.051 C 
BRANCH  28  43
HETATM   43  C2  UNL     1     -10.796  15.341  14.594  1.00  0.00     0.005 C 
HETATM   44  C1  UNL     1     -10.476  15.125  13.121  1.00  0.00     0.005 C 
ENDBRANCH  28  43
BRANCH  29  45
HETATM   45  O9  UNL     1      -7.294  16.081  14.745  1.00  0.00    -0.369 OA
HETATM   46  H59 UNL     1      -7.604  16.444  13.895  1.00  0.00     0.212 HD
ENDBRANCH  29  45
BRANCH  40  47
HETATM   47  O1  UNL     1     -10.472  16.219  19.653  1.00  0.00    -0.394 OA
HETATM   48  H24 UNL     1     -10.567  16.134  20.623  1.00  0.00     0.210 HD
ENDBRANCH  40  47
ENDBRANCH  22  23
ENDBRANCH  20  22
ENDBRANCH  19  20
ENDBRANCH   1  19
BRANCH  17  49
HETATM   49  O8  UNL     1      -4.269  10.200  15.890  1.00  0.00    -0.389 OA
HETATM   50  H55 UNL     1      -4.887   9.677  16.428  1.00  0.00     0.210 HD
ENDBRANCH  17  49
BRANCH   4  51
HETATM   51  C26 UNL     1      -0.691  11.336  16.427  1.00  0.00     0.244 C 
HETATM   52  O4  UNL     1      -0.040  12.346  16.175  1.00  0.00    -0.306 OA
ENDBRANCH   4  51
BRANCH  13  53
HETATM   53  O7  UNL     1      -0.454   6.144  15.627  1.00  0.00    -0.389 OA
HETATM   54  H49 UNL     1       0.217   6.494  16.238  1.00  0.00     0.210 HD
ENDBRANCH  13  53
BRANCH  10  55
HETATM   55  C33 UNL     1       0.516   6.622  11.203  1.00  0.00    -0.045 A 
HETATM   56  C34 UNL     1       0.931   7.395  10.198  1.00  0.00     0.087 A 
HETATM   57  C35 UNL     1       1.780   6.572   9.339  1.00  0.00     0.283 A 
HETATM   58  O5  UNL     1       2.340   6.966   8.331  1.00  0.00    -0.260 OA
HETATM   59  O6  UNL     1       1.840   5.312   9.845  1.00  0.00    -0.314 OA
HETATM   60  C36 UNL     1       1.044   5.246  11.029  1.00  0.00     0.213 A 
ENDBRANCH  10  55
TORSDOF 12
ENDMDL
MODEL 4
REMARK minimizedAffinity -8.91991997
REMARK CNNscore 0.418684781
REMARK CNNaffinity 7.35505104
REMARK  12 active torsions:
REMARK  status: ('A' for Active; 'I' for Inactive)
REMARK    1  A    between atoms: C2_2  and  C3_3 
REMARK    2  A    between atoms: C4_4  and  C18_19 
REMARK    3  A    between atoms: C19_20  and  O1_21 
REMARK    4  A    between atoms: N2_22  and  C20_23 
REMARK    5  A    between atoms: C20_23  and  C21_24 
REMARK    6  A    between atoms: C21_24  and  O3_26 
REMARK    7  A    between atoms: O3_26  and  C22_27 
REMARK    8  A    between atoms: C25_30  and  C26_31 
REMARK    9  A    between atoms: C32_38  and  C33_39 
REMARK   10  A    between atoms: C39_47  and  O7_48 
REMARK   11  A    between atoms: C43_52  and  O8_53 
REMARK   12  A    between atoms: C45_55  and  O9_56 
ROOT
HETATM    1  C22 UNL     1     -14.087   7.581  24.603  1.00  0.00     0.135 C 
HETATM    2  C23 UNL     1     -12.633   7.223  24.310  1.00  0.00     0.034 C 
HETATM    3  C24 UNL     1     -11.902   8.238  23.425  1.00  0.00     0.022 C 
HETATM    4  C25 UNL     1     -12.412   9.703  23.554  1.00  0.00     0.048 C 
HETATM    5  C27 UNL     1     -11.222  10.723  23.358  1.00  0.00     0.011 C 
HETATM    6  C28 UNL     1     -10.410  10.531  22.057  1.00  0.00     0.007 C 
HETATM    7  C29 UNL     1     -10.287  11.787  21.198  1.00  0.00     0.013 C 
HETATM    8  C30 UNL     1      -9.800  13.048  21.953  1.00  0.00    -0.005 C 
HETATM    9  C31 UNL     1     -10.045  14.250  21.012  1.00  0.00     0.019 C 
HETATM   10  C32 UNL     1      -8.283  12.925  22.349  1.00  0.00     0.028 C 
HETATM   11  C37 UNL     1      -8.190  13.666  23.683  1.00  0.00     0.013 C 
HETATM   12  C38 UNL     1      -9.431  13.169  24.408  1.00  0.00     0.040 C 
HETATM   13  C39 UNL     1     -10.540  13.216  23.337  1.00  0.00     0.070 C 
HETATM   14  C40 UNL     1     -11.681  12.189  23.567  1.00  0.00     0.026 C 
HETATM   15  C41 UNL     1     -12.339  12.369  24.950  1.00  0.00     0.011 C 
HETATM   16  C42 UNL     1     -13.484  11.386  25.182  1.00  0.00     0.039 C 
HETATM   17  C43 UNL     1     -13.053   9.925  24.958  1.00  0.00     0.074 C 
HETATM   18  C44 UNL     1     -14.215   8.959  25.277  1.00  0.00     0.071 C 
ENDROOT
BRANCH   1  19
HETATM   19  O3  UNL     1     -14.596   6.548  25.482  1.00  0.00    -0.315 OA
BRANCH  19  20
HETATM   20  C21 UNL     1     -15.486   5.662  24.945  1.00  0.00     0.285 C 
HETATM   21  O2  UNL     1     -15.915   5.697  23.802  1.00  0.00    -0.263 OA
BRANCH  20  22
HETATM   22  C20 UNL     1     -15.948   4.689  26.032  1.00  0.00     0.352 C 
BRANCH  22  23
HETATM   23  N2  UNL     1     -14.972   3.548  26.499  1.00  0.00    -0.021 N 
HETATM   24  C6  UNL     1     -15.690   2.593  27.524  1.00  0.00     0.214 C 
HETATM   25  C5  UNL     1     -14.870   1.288  27.569  1.00  0.00     0.041 C 
HETATM   26  C7  UNL     1     -15.762   3.213  28.954  1.00  0.00     0.109 C 
HETATM   27  C4  UNL     1     -13.415   1.594  27.184  1.00  0.00     0.004 C 
HETATM   28  C3  UNL     1     -13.434   1.733  25.639  1.00  0.00     0.047 C 
HETATM   29  C45 UNL     1     -14.521   2.780  25.251  1.00  0.00     0.329 C 
HETATM   30  N1  UNL     1     -16.862   4.193  29.178  1.00  0.00    -0.279 NA
HETATM   31  C15 UNL     1     -14.469   3.985  29.359  1.00  0.00     0.035 C 
HETATM   32  C8  UNL     1     -18.223   3.659  29.298  1.00  0.00     0.117 C 
HETATM   33  C9  UNL     1     -16.392   4.841  30.375  1.00  0.00     0.018 A 
HETATM   34  C10 UNL     1     -17.134   5.569  31.290  1.00  0.00     0.024 A 
HETATM   35  C14 UNL     1     -14.998   4.701  30.549  1.00  0.00    -0.024 A 
HETATM   36  C11 UNL     1     -16.476   6.126  32.391  1.00  0.00     0.002 A 
HETATM   37  C12 UNL     1     -15.090   5.966  32.561  1.00  0.00     0.001 A 
HETATM   38  C13 UNL     1     -14.335   5.250  31.631  1.00  0.00     0.010 A 
HETATM   39  C16 UNL     1     -14.045   5.020  28.317  1.00  0.00     0.053 C 
HETATM   40  C19 UNL     1     -13.228   3.094  29.359  1.00  0.00     0.139 C 
HETATM   41  C17 UNL     1     -13.696   4.115  27.162  1.00  0.00     0.203 C 
HETATM   42  C18 UNL     1     -12.945   2.921  27.830  1.00  0.00     0.051 C 
BRANCH  28  43
HETATM   43  C2  UNL     1     -12.044   2.058  25.062  1.00  0.00     0.005 C 
HETATM   44  C1  UNL     1     -11.224   0.805  24.776  1.00  0.00     0.005 C 
ENDBRANCH  28  43
BRANCH  29  45
HETATM   45  O9  UNL     1     -15.597   2.145  24.608  1.00  0.00    -0.369 OA
HETATM   46  H59 UNL     1     -15.248   1.626  23.860  1.00  0.00     0.212 HD
ENDBRANCH  29  45
BRANCH  40  47
HETATM   47  O1  UNL     1     -13.401   1.863  30.021  1.00  0.00    -0.394 OA
HETATM   48  H24 UNL     1     -13.449   2.036  30.983  1.00  0.00     0.210 HD
ENDBRANCH  40  47
ENDBRANCH  22  23
ENDBRANCH  20  22
ENDBRANCH  19  20
ENDBRANCH   1  19
BRANCH  17  49
HETATM   49  O8  UNL     1     -12.028   9.628  25.935  1.00  0.00    -0.389 OA
HETATM   50  H55 UNL     1     -12.278  10.030  26.784  1.00  0.00     0.210 HD
ENDBRANCH  17  49
BRANCH   4  51
HETATM   51  C26 UNL     1     -13.426   9.924  22.422  1.00  0.00     0.244 C 
HETATM   52  O4  UNL     1     -13.821  11.021  22.037  1.00  0.00    -0.306 OA
ENDBRANCH   4  51
BRANCH  13  53
HETATM   53  O7  UNL     1     -11.104  14.531  23.447  1.00  0.00    -0.389 OA
HETATM   54  H49 UNL     1     -11.888  14.586  22.873  1.00  0.00     0.210 HD
ENDBRANCH  13  53
BRANCH  10  55
HETATM   55  C33 UNL     1      -7.246  13.333  21.345  1.00  0.00    -0.045 A 
HETATM   56  C34 UNL     1      -5.950  13.535  21.588  1.00  0.00     0.087 A 
HETATM   57  C35 UNL     1      -5.330  13.943  20.330  1.00  0.00     0.283 A 
HETATM   58  O5  UNL     1      -4.146  14.195  20.187  1.00  0.00    -0.260 OA
HETATM   59  O6  UNL     1      -6.279  13.990  19.359  1.00  0.00    -0.314 OA
HETATM   60  C36 UNL     1      -7.542  13.633  19.922  1.00  0.00     0.213 A 
ENDBRANCH  10  55
TORSDOF 12
ENDMDL
MODEL 5
REMARK minimizedAffinity -11.8452139
REMARK CNNscore 0.26474157
REMARK CNNaffinity 6.62698507
REMARK  12 active torsions:
REMARK  status: ('A' for Active; 'I' for Inactive)
REMARK    1  A    between atoms: C2_2  and  C3_3 
REMARK    2  A    between atoms: C4_4  and  C18_19 
REMARK    3  A    between atoms: C19_20  and  O1_21 
REMARK    4  A    between atoms: N2_22  and  C20_23 
REMARK    5  A    between atoms: C20_23  and  C21_24 
REMARK    6  A    between atoms: C21_24  and  O3_26 
REMARK    7  A    between atoms: O3_26  and  C22_27 
REMARK    8  A    between atoms: C25_30  and  C26_31 
REMARK    9  A    between atoms: C32_38  and  C33_39 
REMARK   10  A    between atoms: C39_47  and  O7_48 
REMARK   11  A    between atoms: C43_52  and  O8_53 
REMARK   12  A    between atoms: C45_55  and  O9_56 
ROOT
HETATM    1  C22 UNL     1       1.203  11.189  15.701  1.00  0.00     0.135 C 
HETATM    2  C23 UNL     1       2.717  10.998  15.722  1.00  0.00     0.034 C 
HETATM    3  C24 UNL     1       3.429  11.751  16.851  1.00  0.00     0.022 C 
HETATM    4  C25 UNL     1       2.576  11.960  18.136  1.00  0.00     0.048 C 
HETATM    5  C27 UNL     1       3.493  11.926  19.421  1.00  0.00     0.011 C 
HETATM    6  C28 UNL     1       4.693  12.900  19.387  1.00  0.00     0.007 C 
HETATM    7  C29 UNL     1       4.782  13.836  20.590  1.00  0.00     0.013 C 
HETATM    8  C30 UNL     1       4.698  13.135  21.969  1.00  0.00    -0.005 C 
HETATM    9  C31 UNL     1       4.485  14.249  23.020  1.00  0.00     0.019 C 
HETATM   10  C32 UNL     1       5.998  12.301  22.266  1.00  0.00     0.028 C 
HETATM   11  C37 UNL     1       5.492  11.102  23.066  1.00  0.00     0.013 C 
HETATM   12  C38 UNL     1       4.239  10.714  22.296  1.00  0.00     0.040 C 
HETATM   13  C39 UNL     1       3.543  12.059  22.002  1.00  0.00     0.070 C 
HETATM   14  C40 UNL     1       2.662  12.045  20.724  1.00  0.00     0.026 C 
HETATM   15  C41 UNL     1       1.581  10.948  20.790  1.00  0.00     0.011 C 
HETATM   16  C42 UNL     1       0.684  10.939  19.554  1.00  0.00     0.039 C 
HETATM   17  C43 UNL     1       1.494  10.843  18.247  1.00  0.00     0.074 C 
HETATM   18  C44 UNL     1       0.551  10.759  17.028  1.00  0.00     0.071 C 
ENDROOT
BRANCH   1  19
HETATM   19  O3  UNL     1       0.700  10.375  14.613  1.00  0.00    -0.315 OA
BRANCH  19  20
HETATM   20  C21 UNL     1       0.131   9.179  14.946  1.00  0.00     0.285 C 
HETATM   21  O2  UNL     1       0.444   8.490  15.904  1.00  0.00    -0.263 OA
BRANCH  20  22
HETATM   22  C20 UNL     1      -0.878   8.782  13.866  1.00  0.00     0.352 C 
BRANCH  22  23
HETATM   23  N2  UNL     1      -1.124   7.256  13.575  1.00  0.00    -0.021 N 
HETATM   24  C6  UNL     1       0.184   6.425  13.847  1.00  0.00     0.214 C 
HETATM   25  C5  UNL     1      -0.245   4.952  13.997  1.00  0.00     0.041 C 
HETATM   26  C7  UNL     1       1.214   6.551  12.681  1.00  0.00     0.109 C 
HETATM   27  C4  UNL     1      -1.551   4.726  13.219  1.00  0.00     0.004 C 
HETATM   28  C3  UNL     1      -2.660   5.322  14.124  1.00  0.00     0.047 C 
HETATM   29  C45 UNL     1      -2.273   6.789  14.478  1.00  0.00     0.329 C 
HETATM   30  N1  UNL     1       2.056   7.780  12.695  1.00  0.00    -0.279 NA
HETATM   31  C15 UNL     1       0.552   6.553  11.270  1.00  0.00     0.035 C 
HETATM   32  C8  UNL     1       3.124   7.852  13.698  1.00  0.00     0.117 C 
HETATM   33  C9  UNL     1       2.542   7.777  11.339  1.00  0.00     0.018 A 
HETATM   34  C10 UNL     1       3.654   8.431  10.837  1.00  0.00     0.024 A 
HETATM   35  C14 UNL     1       1.716   7.025  10.476  1.00  0.00    -0.024 A 
HETATM   36  C11 UNL     1       3.947   8.301   9.476  1.00  0.00     0.002 A 
HETATM   37  C12 UNL     1       3.127   7.536   8.630  1.00  0.00     0.001 A 
HETATM   38  C13 UNL     1       1.994   6.892   9.127  1.00  0.00     0.010 A 
HETATM   39  C16 UNL     1      -0.573   7.581  11.142  1.00  0.00     0.053 C 
HETATM   40  C19 UNL     1      -0.234   5.274  10.987  1.00  0.00     0.139 C 
HETATM   41  C17 UNL     1      -1.573   7.011  12.117  1.00  0.00     0.203 C 
HETATM   42  C18 UNL     1      -1.515   5.472  11.862  1.00  0.00     0.051 C 
BRANCH  28  43
HETATM   43  C2  UNL     1      -4.060   5.199  13.495  1.00  0.00     0.005 C 
HETATM   44  C1  UNL     1      -4.290   3.839  12.848  1.00  0.00     0.005 C 
ENDBRANCH  28  43
BRANCH  29  45
HETATM   45  O9  UNL     1      -1.943   6.888  15.841  1.00  0.00    -0.369 OA
HETATM   46  H59 UNL     1      -2.681   6.525  16.365  1.00  0.00     0.212 HD
ENDBRANCH  29  45
BRANCH  40  47
HETATM   47  O1  UNL     1       0.459   4.088  11.302  1.00  0.00    -0.394 OA
HETATM   48  H24 UNL     1       1.171   3.965  10.642  1.00  0.00     0.210 HD
ENDBRANCH  40  47
ENDBRANCH  22  23
ENDBRANCH  20  22
ENDBRANCH  19  20
ENDBRANCH   1  19
BRANCH  17  49
HETATM   49  O8  UNL     1       2.199   9.581  18.275  1.00  0.00    -0.389 OA
HETATM   50  H55 UNL     1       1.609   8.899  18.637  1.00  0.00     0.210 HD
ENDBRANCH  17  49
BRANCH   4  51
HETATM   51  C26 UNL     1       1.946  13.357  18.031  1.00  0.00     0.244 C 
HETATM   52  O4  UNL     1       0.741  13.582  17.962  1.00  0.00    -0.306 OA
ENDBRANCH   4  51
BRANCH  13  53
HETATM   53  O7  UNL     1       2.682  12.284  23.127  1.00  0.00    -0.389 OA
HETATM   54  H49 UNL     1       2.128  13.063  22.949  1.00  0.00     0.210 HD
ENDBRANCH  13  53
BRANCH  10  55
HETATM   55  C33 UNL     1       7.172  13.003  22.883  1.00  0.00    -0.045 A 
HETATM   56  C34 UNL     1       7.265  14.309  23.135  1.00  0.00     0.087 A 
HETATM   57  C35 UNL     1       8.587  14.548  23.710  1.00  0.00     0.283 A 
HETATM   58  O5  UNL     1       9.003  15.634  24.072  1.00  0.00    -0.260 OA
HETATM   59  O6  UNL     1       9.265  13.372  23.774  1.00  0.00    -0.314 OA
HETATM   60  C36 UNL     1       8.443  12.329  23.247  1.00  0.00     0.213 A 
ENDBRANCH  10  55
TORSDOF 12
ENDMDL
MODEL 6
REMARK minimizedAffinity -8.52496243
REMARK CNNscore 0.256321907
REMARK CNNaffinity 6.59569168
REMARK  12 active torsions:
REMARK  status: ('A' for Active; 'I' for Inactive)
REMARK    1  A    between atoms: C2_2  and  C3_3 
REMARK    2  A    between atoms: C4_4  and  C18_19 
REMARK    3  A    between atoms: C19_20  and  O1_21 
REMARK    4  A    between atoms: N2_22  and  C20_23 
REMARK    5  A    between atoms: C20_23  and  C21_24 
REMARK    6  A    between atoms: C21_24  and  O3_26 
REMARK    7  A    between atoms: O3_26  and  C22_27 
REMARK    8  A    between atoms: C25_30  and  C26_31 
REMARK    9  A    between atoms: C32_38  and  C33_39 
REMARK   10  A    between atoms: C39_47  and  O7_48 
REMARK   11  A    between atoms: C43_52  and  O8_53 
REMARK   12  A    between atoms: C45_55  and  O9_56 
ROOT
HETATM    1  C22 UNL     1       0.763  12.309  18.707  1.00  0.00     0.135 C 
HETATM    2  C23 UNL     1      -0.095  11.265  19.416  1.00  0.00     0.034 C 
HETATM    3  C24 UNL     1      -1.252  10.723  18.569  1.00  0.00     0.022 C 
HETATM    4  C25 UNL     1      -0.990  10.716  17.035  1.00  0.00     0.048 C 
HETATM    5  C27 UNL     1      -1.714   9.489  16.355  1.00  0.00     0.011 C 
HETATM    6  C28 UNL     1      -3.225   9.376  16.661  1.00  0.00     0.007 C 
HETATM    7  C29 UNL     1      -4.115   9.286  15.424  1.00  0.00     0.013 C 
HETATM    8  C30 UNL     1      -3.694   8.208  14.394  1.00  0.00    -0.005 C 
HETATM    9  C31 UNL     1      -4.502   8.487  13.105  1.00  0.00     0.019 C 
HETATM   10  C32 UNL     1      -3.964   6.759  14.943  1.00  0.00     0.028 C 
HETATM   11  C37 UNL     1      -2.829   5.925  14.351  1.00  0.00     0.013 C 
HETATM   12  C38 UNL     1      -1.628   6.835  14.553  1.00  0.00     0.040 C 
HETATM   13  C39 UNL     1      -2.137   8.231  14.137  1.00  0.00     0.070 C 
HETATM   14  C40 UNL     1      -1.402   9.405  14.839  1.00  0.00     0.026 C 
HETATM   15  C41 UNL     1       0.119   9.353  14.592  1.00  0.00     0.011 C 
HETATM   16  C42 UNL     1       0.855  10.517  15.250  1.00  0.00     0.039 C 
HETATM   17  C43 UNL     1       0.541  10.630  16.753  1.00  0.00     0.074 C 
HETATM   18  C44 UNL     1       1.362  11.768  17.397  1.00  0.00     0.071 C 
ENDROOT
BRANCH   1  19
HETATM   19  O3  UNL     1       1.822  12.666  19.629  1.00  0.00    -0.315 OA
BRANCH  19  20
HETATM   20  C21 UNL     1       2.772  13.536  19.174  1.00  0.00     0.285 C 
HETATM   21  O2  UNL     1       2.604  14.372  18.301  1.00  0.00    -0.263 OA
BRANCH  20  22
HETATM   22  C20 UNL     1       4.109  13.220  19.848  1.00  0.00     0.352 C 
BRANCH  22  23
HETATM   23  N2  UNL     1       5.317  12.744  18.960  1.00  0.00    -0.021 N 
HETATM   24  C6  UNL     1       6.348  11.926  19.824  1.00  0.00     0.214 C 
HETATM   25  C5  UNL     1       7.219  11.123  18.838  1.00  0.00     0.041 C 
HETATM   26  C7  UNL     1       7.259  12.855  20.687  1.00  0.00     0.109 C 
HETATM   27  C4  UNL     1       7.249  11.850  17.484  1.00  0.00     0.004 C 
HETATM   28  C3  UNL     1       5.887  11.514  16.824  1.00  0.00     0.047 C 
HETATM   29  C45 UNL     1       4.750  11.888  17.821  1.00  0.00     0.329 C 
HETATM   30  N1  UNL     1       6.659  13.343  21.961  1.00  0.00    -0.279 NA
HETATM   31  C15 UNL     1       7.697  14.153  19.944  1.00  0.00     0.035 C 
HETATM   32  C8  UNL     1       6.536  12.377  23.058  1.00  0.00     0.117 C 
HETATM   33  C9  UNL     1       7.542  14.441  22.259  1.00  0.00     0.018 A 
HETATM   34  C10 UNL     1       7.750  15.050  23.484  1.00  0.00     0.024 A 
HETATM   35  C14 UNL     1       8.212  14.917  21.111  1.00  0.00    -0.024 A 
HETATM   36  C11 UNL     1       8.654  16.115  23.555  1.00  0.00     0.002 A 
HETATM   37  C12 UNL     1       9.327  16.569  22.408  1.00  0.00     0.001 A 
HETATM   38  C13 UNL     1       9.106  15.971  21.167  1.00  0.00     0.010 A 
HETATM   39  C16 UNL     1       6.519  14.921  19.343  1.00  0.00     0.053 C 
HETATM   40  C19 UNL     1       8.493  13.864  18.673  1.00  0.00     0.139 C 
HETATM   41  C17 UNL     1       6.054  13.933  18.303  1.00  0.00     0.203 C 
HETATM   42  C18 UNL     1       7.379  13.380  17.688  1.00  0.00     0.051 C 
BRANCH  28  43
HETATM   43  C2  UNL     1       5.726  12.176  15.443  1.00  0.00     0.005 C 
HETATM   44  C1  UNL     1       4.319  12.715  15.216  1.00  0.00     0.005 C 
ENDBRANCH  28  43
BRANCH  29  45
HETATM   45  O9  UNL     1       4.124  10.725  18.300  1.00  0.00    -0.369 OA
HETATM   46  H59 UNL     1       3.835  10.192  17.536  1.00  0.00     0.212 HD
ENDBRANCH  29  45
BRANCH  40  47
HETATM   47  O1  UNL     1       9.520  12.914  18.838  1.00  0.00    -0.394 OA
HETATM   48  H24 UNL     1      10.237  13.326  19.361  1.00  0.00     0.210 HD
ENDBRANCH  40  47
ENDBRANCH  22  23
ENDBRANCH  20  22
ENDBRANCH  19  20
ENDBRANCH   1  19
BRANCH  17  49
HETATM   49  O8  UNL     1       1.012   9.415  17.380  1.00  0.00    -0.389 OA
HETATM   50  H55 UNL     1       1.868   9.171  16.989  1.00  0.00     0.210 HD
ENDBRANCH  17  49
BRANCH   4  51
HETATM   51  C26 UNL     1      -1.603  12.008  16.472  1.00  0.00     0.244 C 
HETATM   52  O4  UNL     1      -2.365  12.749  17.085  1.00  0.00    -0.306 OA
ENDBRANCH   4  51
BRANCH  13  53
HETATM   53  O7  UNL     1      -1.864   8.320  12.731  1.00  0.00    -0.389 OA
HETATM   54  H49 UNL     1      -2.058   9.224  12.429  1.00  0.00     0.210 HD
ENDBRANCH  13  53
BRANCH  10  55
HETATM   55  C33 UNL     1      -5.329   6.165  14.753  1.00  0.00    -0.045 A 
HETATM   56  C34 UNL     1      -5.698   5.335  13.776  1.00  0.00     0.087 A 
HETATM   57  C35 UNL     1      -7.115   5.037  13.971  1.00  0.00     0.283 A 
HETATM   58  O5  UNL     1      -7.774   4.297  13.263  1.00  0.00    -0.260 OA
HETATM   59  O6  UNL     1      -7.568   5.714  15.059  1.00  0.00    -0.314 OA
HETATM   60  C36 UNL     1      -6.497   6.479  15.613  1.00  0.00     0.213 A 
ENDBRANCH  10  55
TORSDOF 12
ENDMDL
MODEL 7
REMARK minimizedAffinity -9.47723389
REMARK CNNscore 0.256162643
REMARK CNNaffinity 7.01656199
REMARK  12 active torsions:
REMARK  status: ('A' for Active; 'I' for Inactive)
REMARK    1  A    between atoms: C2_2  and  C3_3 
REMARK    2  A    between atoms: C4_4  and  C18_19 
REMARK    3  A    between atoms: C19_20  and  O1_21 
REMARK    4  A    between atoms: N2_22  and  C20_23 
REMARK    5  A    between atoms: C20_23  and  C21_24 
REMARK    6  A    between atoms: C21_24  and  O3_26 
REMARK    7  A    between atoms: O3_26  and  C22_27 
REMARK    8  A    between atoms: C25_30  and  C26_31 
REMARK    9  A    between atoms: C32_38  and  C33_39 
REMARK   10  A    between atoms: C39_47  and  O7_48 
REMARK   11  A    between atoms: C43_52  and  O8_53 
REMARK   12  A    between atoms: C45_55  and  O9_56 
ROOT
HETATM    1  C22 UNL     1      -0.051  10.636  16.079  1.00  0.00     0.135 C 
HETATM    2  C23 UNL     1       0.067  12.057  15.534  1.00  0.00     0.034 C 
HETATM    3  C24 UNL     1      -1.279  12.749  15.289  1.00  0.00     0.022 C 
HETATM    4  C25 UNL     1      -2.431  12.285  16.227  1.00  0.00     0.048 C 
HETATM    5  C27 UNL     1      -3.415  13.483  16.528  1.00  0.00     0.011 C 
HETATM    6  C28 UNL     1      -3.972  14.197  15.276  1.00  0.00     0.007 C 
HETATM    7  C29 UNL     1      -5.495  14.290  15.226  1.00  0.00     0.013 C 
HETATM    8  C30 UNL     1      -6.155  14.860  16.506  1.00  0.00    -0.005 C 
HETATM    9  C31 UNL     1      -7.671  14.579  16.385  1.00  0.00     0.019 C 
HETATM   10  C32 UNL     1      -5.864  16.397  16.663  1.00  0.00     0.028 C 
HETATM   11  C37 UNL     1      -5.766  16.600  18.174  1.00  0.00     0.013 C 
HETATM   12  C38 UNL     1      -4.935  15.402  18.603  1.00  0.00     0.040 C 
HETATM   13  C39 UNL     1      -5.535  14.222  17.810  1.00  0.00     0.070 C 
HETATM   14  C40 UNL     1      -4.527  13.075  17.529  1.00  0.00     0.026 C 
HETATM   15  C41 UNL     1      -3.919  12.520  18.833  1.00  0.00     0.011 C 
HETATM   16  C42 UNL     1      -2.948  11.370  18.578  1.00  0.00     0.039 C 
HETATM   17  C43 UNL     1      -1.847  11.749  17.570  1.00  0.00     0.074 C 
HETATM   18  C44 UNL     1      -0.843  10.589  17.397  1.00  0.00     0.071 C 
ENDROOT
BRANCH   1  19
HETATM   19  O3  UNL     1       1.302  10.164  16.293  1.00  0.00    -0.315 OA
BRANCH  19  20
HETATM   20  C21 UNL     1       1.677   9.034  15.623  1.00  0.00     0.285 C 
HETATM   21  O2  UNL     1       2.565   8.270  15.967  1.00  0.00    -0.263 OA
BRANCH  20  22
HETATM   22  C20 UNL     1       0.888   8.939  14.315  1.00  0.00     0.352 C 
BRANCH  22  23
HETATM   23  N2  UNL     1       0.157   7.592  13.961  1.00  0.00    -0.021 N 
HETATM   24  C6  UNL     1       1.201   6.492  13.542  1.00  0.00     0.214 C 
HETATM   25  C5  UNL     1       0.489   5.130  13.666  1.00  0.00     0.041 C 
HETATM   26  C7  UNL     1       1.703   6.685  12.076  1.00  0.00     0.109 C 
HETATM   27  C4  UNL     1      -1.024   5.334  13.493  1.00  0.00     0.004 C 
HETATM   28  C3  UNL     1      -1.504   5.906  14.852  1.00  0.00     0.047 C 
HETATM   29  C45 UNL     1      -0.640   7.156  15.196  1.00  0.00     0.329 C 
HETATM   30  N1  UNL     1       2.779   7.699  11.892  1.00  0.00    -0.279 NA
HETATM   31  C15 UNL     1       0.579   7.130  11.092  1.00  0.00     0.035 C 
HETATM   32  C8  UNL     1       4.126   7.341  12.348  1.00  0.00     0.117 C 
HETATM   33  C9  UNL     1       2.692   7.913  10.470  1.00  0.00     0.018 A 
HETATM   34  C10 UNL     1       3.659   8.444   9.634  1.00  0.00     0.024 A 
HETATM   35  C14 UNL     1       1.433   7.544   9.949  1.00  0.00    -0.024 A 
HETATM   36  C11 UNL     1       3.366   8.574   8.273  1.00  0.00     0.002 A 
HETATM   37  C12 UNL     1       2.115   8.187   7.763  1.00  0.00     0.001 A 
HETATM   38  C13 UNL     1       1.130   7.670   8.605  1.00  0.00     0.010 A 
HETATM   39  C16 UNL     1      -0.195   8.351  11.588  1.00  0.00     0.053 C 
HETATM   40  C19 UNL     1      -0.562   6.118  11.005  1.00  0.00     0.139 C 
HETATM   41  C17 UNL     1      -0.861   7.772  12.811  1.00  0.00     0.203 C 
HETATM   42  C18 UNL     1      -1.312   6.348  12.358  1.00  0.00     0.051 C 
BRANCH  28  43
HETATM   43  C2  UNL     1      -3.018   6.191  14.866  1.00  0.00     0.005 C 
HETATM   44  C1  UNL     1      -3.369   7.435  15.673  1.00  0.00     0.005 C 
ENDBRANCH  28  43
BRANCH  29  45
HETATM   45  O9  UNL     1       0.197   6.879  16.290  1.00  0.00    -0.369 OA
HETATM   46  H59 UNL     1      -0.353   6.552  17.026  1.00  0.00     0.212 HD
ENDBRANCH  29  45
BRANCH  40  47
HETATM   47  O1  UNL     1      -0.140   4.784  10.840  1.00  0.00    -0.394 OA
HETATM   48  H24 UNL     1       0.207   4.682   9.931  1.00  0.00     0.210 HD
ENDBRANCH  40  47
ENDBRANCH  22  23
ENDBRANCH  20  22
ENDBRANCH  19  20
ENDBRANCH   1  19
BRANCH  17  49
HETATM   49  O8  UNL     1      -1.087  12.831  18.154  1.00  0.00    -0.389 OA
HETATM   50  H55 UNL     1      -0.961  12.651  19.101  1.00  0.00     0.210 HD
ENDBRANCH  17  49
BRANCH   4  51
HETATM   51  C26 UNL     1      -3.213  11.200  15.470  1.00  0.00     0.244 C 
HETATM   52  O4  UNL     1      -4.324  10.785  15.786  1.00  0.00    -0.306 OA
ENDBRANCH   4  51
BRANCH  13  53
HETATM   53  O7  UNL     1      -6.571  13.699  18.653  1.00  0.00    -0.389 OA
HETATM   54  H49 UNL     1      -6.915  12.879  18.259  1.00  0.00     0.210 HD
ENDBRANCH  13  53
BRANCH  10  55
HETATM   55  C33 UNL     1      -6.768  17.371  15.967  1.00  0.00    -0.045 A 
HETATM   56  C34 UNL     1      -6.715  17.713  14.679  1.00  0.00     0.087 A 
HETATM   57  C35 UNL     1      -7.762  18.706  14.449  1.00  0.00     0.283 A 
HETATM   58  O5  UNL     1      -8.005  19.224  13.374  1.00  0.00    -0.260 OA
HETATM   59  O6  UNL     1      -8.411  18.948  15.618  1.00  0.00    -0.314 OA
HETATM   60  C36 UNL     1      -7.829  18.152  16.650  1.00  0.00     0.213 A 
ENDBRANCH  10  55
TORSDOF 12
ENDMDL
MODEL 8
REMARK minimizedAffinity -8.98471928
REMARK CNNscore 0.246883482
REMARK CNNaffinity 6.65658522
REMARK  12 active torsions:
REMARK  status: ('A' for Active; 'I' for Inactive)
REMARK    1  A    between atoms: C2_2  and  C3_3 
REMARK    2  A    between atoms: C4_4  and  C18_19 
REMARK    3  A    between atoms: C19_20  and  O1_21 
REMARK    4  A    between atoms: N2_22  and  C20_23 
REMARK    5  A    between atoms: C20_23  and  C21_24 
REMARK    6  A    between atoms: C21_24  and  O3_26 
REMARK    7  A    between atoms: O3_26  and  C22_27 
REMARK    8  A    between atoms: C25_30  and  C26_31 
REMARK    9  A    between atoms: C32_38  and  C33_39 
REMARK   10  A    between atoms: C39_47  and  O7_48 
REMARK   11  A    between atoms: C43_52  and  O8_53 
REMARK   12  A    between atoms: C45_55  and  O9_56 
ROOT
HETATM    1  C22 UNL     1       3.059  10.342  15.180  1.00  0.00     0.135 C 
HETATM    2  C23 UNL     1       2.747   9.634  13.864  1.00  0.00     0.034 C 
HETATM    3  C24 UNL     1       1.615   8.605  13.959  1.00  0.00     0.022 C 
HETATM    4  C25 UNL     1       0.539   8.915  15.040  1.00  0.00     0.048 C 
HETATM    5  C27 UNL     1      -0.881   8.413  14.566  1.00  0.00     0.011 C 
HETATM    6  C28 UNL     1      -0.937   6.929  14.138  1.00  0.00     0.007 C 
HETATM    7  C29 UNL     1      -2.006   6.106  14.850  1.00  0.00     0.013 C 
HETATM    8  C30 UNL     1      -3.427   6.723  14.829  1.00  0.00    -0.005 C 
HETATM    9  C31 UNL     1      -4.272   5.925  15.848  1.00  0.00     0.019 C 
HETATM   10  C32 UNL     1      -4.053   6.664  13.387  1.00  0.00     0.028 C 
HETATM   11  C37 UNL     1      -4.898   7.935  13.301  1.00  0.00     0.013 C 
HETATM   12  C38 UNL     1      -3.975   8.971  13.921  1.00  0.00     0.040 C 
HETATM   13  C39 UNL     1      -3.392   8.265  15.163  1.00  0.00     0.070 C 
HETATM   14  C40 UNL     1      -1.991   8.785  15.583  1.00  0.00     0.026 C 
HETATM   15  C41 UNL     1      -2.004  10.303  15.854  1.00  0.00     0.011 C 
HETATM   16  C42 UNL     1      -0.641  10.827  16.298  1.00  0.00     0.039 C 
HETATM   17  C43 UNL     1       0.479  10.449  15.311  1.00  0.00     0.074 C 
HETATM   18  C44 UNL     1       1.825  11.061  15.753  1.00  0.00     0.071 C 
ENDROOT
BRANCH   1  19
HETATM   19  O3  UNL     1       4.106  11.302  14.892  1.00  0.00    -0.315 OA
BRANCH  19  20
HETATM   20  C21 UNL     1       5.045  11.502  15.863  1.00  0.00     0.285 C 
HETATM   21  O2  UNL     1       4.826  11.530  17.064  1.00  0.00    -0.263 OA
BRANCH  20  22
HETATM   22  C20 UNL     1       6.395  11.802  15.206  1.00  0.00     0.352 C 
BRANCH  22  23
HETATM   23  N2  UNL     1       7.620  10.866  15.518  1.00  0.00    -0.021 N 
HETATM   24  C6  UNL     1       7.967  10.905  17.052  1.00  0.00     0.214 C 
HETATM   25  C5  UNL     1       8.827   9.660  17.347  1.00  0.00     0.041 C 
HETATM   26  C7  UNL     1       8.762  12.191  17.441  1.00  0.00     0.109 C 
HETATM   27  C4  UNL     1       9.557   9.236  16.064  1.00  0.00     0.004 C 
HETATM   28  C3  UNL     1       8.481   8.506  15.219  1.00  0.00     0.047 C 
HETATM   29  C45 UNL     1       7.248   9.447  15.072  1.00  0.00     0.329 C 
HETATM   30  N1  UNL     1       7.941  13.418  17.651  1.00  0.00    -0.279 NA
HETATM   31  C15 UNL     1       9.819  12.611  16.376  1.00  0.00     0.035 C 
HETATM   32  C8  UNL     1       7.143  13.490  18.879  1.00  0.00     0.117 C 
HETATM   33  C9  UNL     1       8.963  14.430  17.569  1.00  0.00     0.018 A 
HETATM   34  C10 UNL     1       8.910  15.725  18.052  1.00  0.00     0.024 A 
HETATM   35  C14 UNL     1      10.106  13.982  16.872  1.00  0.00    -0.024 A 
HETATM   36  C11 UNL     1      10.019  16.556  17.860  1.00  0.00     0.002 A 
HETATM   37  C12 UNL     1      11.158  16.093  17.178  1.00  0.00     0.001 A 
HETATM   38  C13 UNL     1      11.208  14.795  16.672  1.00  0.00     0.010 A 
HETATM   39  C16 UNL     1       9.234  12.716  14.967  1.00  0.00     0.053 C 
HETATM   40  C19 UNL     1      10.875  11.533  16.138  1.00  0.00     0.139 C 
HETATM   41  C17 UNL     1       8.876  11.273  14.714  1.00  0.00     0.203 C 
HETATM   42  C18 UNL     1      10.084  10.475  15.299  1.00  0.00     0.051 C 
BRANCH  28  43
HETATM   43  C2  UNL     1       9.032   8.012  13.868  1.00  0.00     0.005 C 
HETATM   44  C1  UNL     1      10.515   7.669  13.934  1.00  0.00     0.005 C 
ENDBRANCH  28  43
BRANCH  29  45
HETATM   45  O9  UNL     1       6.160   8.936  15.801  1.00  0.00    -0.369 OA
HETATM   46  H59 UNL     1       6.004   8.015  15.520  1.00  0.00     0.212 HD
ENDBRANCH  29  45
BRANCH  40  47
HETATM   47  O1  UNL     1      11.422  10.989  17.317  1.00  0.00    -0.394 OA
HETATM   48  H24 UNL     1      12.001  11.664  17.725  1.00  0.00     0.210 HD
ENDBRANCH  40  47
ENDBRANCH  22  23
ENDBRANCH  20  22
ENDBRANCH  19  20
ENDBRANCH   1  19
BRANCH  17  49
HETATM   49  O8  UNL     1       0.166  11.083  14.049  1.00  0.00    -0.389 OA
HETATM   50  H55 UNL     1      -0.170  11.978  14.222  1.00  0.00     0.210 HD
ENDBRANCH  17  49
BRANCH   4  51
HETATM   51  C26 UNL     1       0.931   8.127  16.299  1.00  0.00     0.244 C 
HETATM   52  O4  UNL     1       1.887   7.362  16.379  1.00  0.00    -0.306 OA
ENDBRANCH   4  51
BRANCH  13  53
HETATM   53  O7  UNL     1      -4.309   8.568  16.225  1.00  0.00    -0.389 OA
HETATM   54  H49 UNL     1      -3.937   8.245  17.064  1.00  0.00     0.210 HD
ENDBRANCH  13  53
BRANCH  10  55
HETATM   55  C33 UNL     1      -4.773   5.416  12.971  1.00  0.00    -0.045 A 
HETATM   56  C34 UNL     1      -6.075   5.170  13.123  1.00  0.00     0.087 A 
HETATM   57  C35 UNL     1      -6.328   3.828  12.601  1.00  0.00     0.283 A 
HETATM   58  O5  UNL     1      -7.420   3.288  12.571  1.00  0.00    -0.260 OA
HETATM   59  O6  UNL     1      -5.160   3.294  12.160  1.00  0.00    -0.314 OA
HETATM   60  C36 UNL     1      -4.105   4.232  12.375  1.00  0.00     0.213 A 
ENDBRANCH  10  55
TORSDOF 12
ENDMDL
MODEL 9
REMARK minimizedAffinity -9.74209404
REMARK CNNscore 0.236375302
REMARK CNNaffinity 6.82986832
REMARK  12 active torsions:
REMARK  status: ('A' for Active; 'I' for Inactive)
REMARK    1  A    between atoms: C2_2  and  C3_3 
REMARK    2  A    between atoms: C4_4  and  C18_19 
REMARK    3  A    between atoms: C19_20  and  O1_21 
REMARK    4  A    between atoms: N2_22  and  C20_23 
REMARK    5  A    between atoms: C20_23  and  C21_24 
REMARK    6  A    between atoms: C21_24  and  O3_26 
REMARK    7  A    between atoms: O3_26  and  C22_27 
REMARK    8  A    between atoms: C25_30  and  C26_31 
REMARK    9  A    between atoms: C32_38  and  C33_39 
REMARK   10  A    between atoms: C39_47  and  O7_48 
REMARK   11  A    between atoms: C43_52  and  O8_53 
REMARK   12  A    between atoms: C45_55  and  O9_56 
ROOT
HETATM    1  C22 UNL     1       2.934  10.139  15.999  1.00  0.00     0.135 C 
HETATM    2  C23 UNL     1       1.987   9.902  17.173  1.00  0.00     0.034 C 
HETATM    3  C24 UNL     1       0.513   9.778  16.776  1.00  0.00     0.022 C 
HETATM    4  C25 UNL     1       0.267   9.203  15.350  1.00  0.00     0.048 C 
HETATM    5  C27 UNL     1      -1.062   8.350  15.319  1.00  0.00     0.011 C 
HETATM    6  C28 UNL     1      -2.317   9.084  15.846  1.00  0.00     0.007 C 
HETATM    7  C29 UNL     1      -3.498   9.089  14.879  1.00  0.00     0.013 C 
HETATM    8  C30 UNL     1      -3.886   7.700  14.315  1.00  0.00    -0.005 C 
HETATM    9  C31 UNL     1      -4.863   7.954  13.144  1.00  0.00     0.019 C 
HETATM   10  C32 UNL     1      -4.538   6.796  15.425  1.00  0.00     0.028 C 
HETATM   11  C37 UNL     1      -4.078   5.384  15.066  1.00  0.00     0.013 C 
HETATM   12  C38 UNL     1      -2.613   5.605  14.725  1.00  0.00     0.040 C 
HETATM   13  C39 UNL     1      -2.613   6.883  13.862  1.00  0.00     0.070 C 
HETATM   14  C40 UNL     1      -1.290   7.693  13.934  1.00  0.00     0.026 C 
HETATM   15  C41 UNL     1      -0.076   6.835  13.524  1.00  0.00     0.011 C 
HETATM   16  C42 UNL     1       1.231   7.623  13.560  1.00  0.00     0.039 C 
HETATM   17  C43 UNL     1       1.466   8.303  14.922  1.00  0.00     0.074 C 
HETATM   18  C44 UNL     1       2.830   9.024  14.944  1.00  0.00     0.071 C 
ENDROOT
BRANCH   1  19
HETATM   19  O3  UNL     1       4.273  10.180  16.551  1.00  0.00    -0.315 OA
BRANCH  19  20
HETATM   20  C21 UNL     1       5.199  10.919  15.872  1.00  0.00     0.285 C 
HETATM   21  O2  UNL     1       4.960  11.664  14.935  1.00  0.00    -0.263 OA
BRANCH  20  22
HETATM   22  C20 UNL     1       6.597  10.578  16.394  1.00  0.00     0.352 C 
BRANCH  22  23
HETATM   23  N2  UNL     1       7.511   9.612  15.555  1.00  0.00    -0.021 N 
HETATM   24  C6  UNL     1       8.719   9.102  16.425  1.00  0.00     0.214 C 
HETATM   25  C5  UNL     1       9.276   7.847  15.724  1.00  0.00     0.041 C 
HETATM   26  C7  UNL     1       9.847  10.173  16.549  1.00  0.00     0.109 C 
HETATM   27  C4  UNL     1       8.955   7.924  14.223  1.00  0.00     0.004 C 
HETATM   28  C3  UNL     1       7.458   7.532  14.117  1.00  0.00     0.047 C 
HETATM   29  C45 UNL     1       6.640   8.443  15.079  1.00  0.00     0.329 C 
HETATM   30  N1  UNL     1       9.624  11.229  17.577  1.00  0.00    -0.279 NA
HETATM   31  C15 UNL     1      10.096  10.964  15.230  1.00  0.00     0.035 C 
HETATM   32  C8  UNL     1       9.781  10.842  18.983  1.00  0.00     0.117 C 
HETATM   33  C9  UNL     1      10.577  12.218  17.144  1.00  0.00     0.018 A 
HETATM   34  C10 UNL     1      11.120  13.251  17.886  1.00  0.00     0.024 A 
HETATM   35  C14 UNL     1      10.922  12.069  15.783  1.00  0.00    -0.024 A 
HETATM   36  C11 UNL     1      12.031  14.112  17.267  1.00  0.00     0.002 A 
HETATM   37  C12 UNL     1      12.380  13.943  15.916  1.00  0.00     0.001 A 
HETATM   38  C13 UNL     1      11.820  12.915  15.157  1.00  0.00     0.010 A 
HETATM   39  C16 UNL     1       8.816  11.560  14.644  1.00  0.00     0.053 C 
HETATM   40  C19 UNL     1      10.514  10.060  14.072  1.00  0.00     0.139 C 
HETATM   41  C17 UNL     1       8.068  10.300  14.288  1.00  0.00     0.203 C 
HETATM   42  C18 UNL     1       9.166   9.364  13.692  1.00  0.00     0.051 C 
BRANCH  28  43
HETATM   43  C2  UNL     1       6.945   7.566  12.665  1.00  0.00     0.005 C 
HETATM   44  C1  UNL     1       5.450   7.845  12.582  1.00  0.00     0.005 C 
ENDBRANCH  28  43
BRANCH  29  45
HETATM   45  O9  UNL     1       6.142   7.687  16.155  1.00  0.00    -0.369 OA
HETATM   46  H59 UNL     1       5.647   6.928  15.796  1.00  0.00     0.212 HD
ENDBRANCH  29  45
BRANCH  40  47
HETATM   47  O1  UNL     1      11.528   9.137  14.396  1.00  0.00    -0.394 OA
HETATM   48  H24 UNL     1      12.368   9.628  14.500  1.00  0.00     0.210 HD
ENDBRANCH  40  47
ENDBRANCH  22  23
ENDBRANCH  20  22
ENDBRANCH  19  20
ENDBRANCH   1  19
BRANCH  17  49
HETATM   49  O8  UNL     1       1.571   7.252  15.910  1.00  0.00    -0.389 OA
HETATM   50  H55 UNL     1       2.090   6.520  15.536  1.00  0.00     0.210 HD
ENDBRANCH  17  49
BRANCH   4  51
HETATM   51  C26 UNL     1       0.090  10.404  14.410  1.00  0.00     0.244 C 
HETATM   52  O4  UNL     1      -0.329  11.507  14.749  1.00  0.00    -0.306 OA
ENDBRANCH   4  51
BRANCH  13  53
HETATM   53  O7  UNL     1      -2.771   6.419  12.514  1.00  0.00    -0.389 OA
HETATM   54  H49 UNL     1      -2.665   7.172  11.906  1.00  0.00     0.210 HD
ENDBRANCH  13  53
BRANCH  10  55
HETATM   55  C33 UNL     1      -6.012   6.919  15.673  1.00  0.00    -0.045 A 
HETATM   56  C34 UNL     1      -6.735   8.037  15.586  1.00  0.00     0.087 A 
HETATM   57  C35 UNL     1      -8.111   7.694  15.937  1.00  0.00     0.283 A 
HETATM   58  O5  UNL     1      -9.042   8.479  15.947  1.00  0.00    -0.260 OA
HETATM   59  O6  UNL     1      -8.177   6.372  16.243  1.00  0.00    -0.314 OA
HETATM   60  C36 UNL     1      -6.875   5.798  16.120  1.00  0.00     0.213 A 
ENDBRANCH  10  55
TORSDOF 12
ENDMDL
