MODEL 1
REMARK minimizedAffinity -8.39979362
REMARK  7 active torsions:
REMARK  status: ('A' for Active; 'I' for Inactive)
REMARK    1  A    between atoms: C3_3  and  C5_5 
REMARK    2  A    between atoms: C6_6  and  C7_7 
REMARK    3  A    between atoms: C8_8  and  C9_9 
REMARK    4  A    between atoms: C10_10  and  C12_12 
REMARK    5  A    between atoms: C12_12  and  C13_14 
REMARK    6  A    between atoms: C13_14  and  C15_16 
REMARK    7  A    between atoms: C15_16  and  O2_17 
ROOT
HETATM    1  C5  UNL     1      -0.682   7.514  13.119  1.00  0.00     0.058 C 
HETATM    2  C6  UNL     1      -0.393   6.208  12.294  1.00  0.00     0.024 C 
HETATM    3  C16 UNL     1       0.156   6.507  10.847  1.00  0.00     0.003 C 
HETATM    4  C17 UNL     1       1.569   5.921  10.664  1.00  0.00     0.041 C 
HETATM    5  C18 UNL     1       2.128   6.219   9.306  1.00  0.00     0.157 A 
HETATM    6  O3  UNL     1       2.787   7.494   9.218  1.00  0.00    -0.370 OA
HETATM    7  C19 UNL     1       1.585   7.349   8.453  1.00  0.00     0.084 A 
HETATM    8  C20 UNL     1       1.819   7.330   6.976  1.00  0.00     0.049 C 
HETATM    9  C21 UNL     1       0.420   8.161   8.951  1.00  0.00     0.048 C 
HETATM   10  C22 UNL     1       0.176   8.007  10.461  1.00  0.00     0.025 C 
HETATM   11  C23 UNL     1      -1.099   8.684  10.887  1.00  0.00     0.162 A 
HETATM   12  O4  UNL     1      -0.917   9.678  11.899  1.00  0.00    -0.368 OA
HETATM   13  C24 UNL     1      -1.566   8.456  12.308  1.00  0.00     0.092 A 
HETATM   14  C25 UNL     1      -3.003   8.662  12.659  1.00  0.00     0.049 C 
ENDROOT
BRANCH   2  15
HETATM   15  C7  UNL     1      -1.527   5.191  12.240  1.00  0.00    -0.021 C 
HETATM   16  C8  UNL     1      -2.758   5.338  12.760  1.00  0.00    -0.003 C 
BRANCH  16  17
HETATM   17  C9  UNL     1      -3.807   4.356  12.587  1.00  0.00     0.010 C 
HETATM   18  C10 UNL     1      -5.118   4.550  12.818  1.00  0.00    -0.016 C 
HETATM   19  C11 UNL     1      -5.797   5.805  13.268  1.00  0.00     0.052 C 
BRANCH  18  20
HETATM   20  C12 UNL     1      -5.994   3.382  12.477  1.00  0.00     0.161 C 
HETATM   21  O1  UNL     1      -6.807   2.987  13.315  1.00  0.00    -0.292 OA
BRANCH  20  22
HETATM   22  C13 UNL     1      -5.874   2.695  11.118  1.00  0.00     0.080 C 
HETATM   23  C14 UNL     1      -5.609   1.203  11.291  1.00  0.00     0.020 C 
BRANCH  22  24
HETATM   24  C15 UNL     1      -4.846   3.355  10.198  1.00  0.00     0.176 C 
BRANCH  24  25
HETATM   25  O2  UNL     1      -5.282   3.329   8.841  1.00  0.00    -0.400 OA
HETATM   26  H22 UNL     1      -6.122   3.815   8.769  1.00  0.00     0.209 HD
ENDBRANCH  24  25
ENDBRANCH  22  24
ENDBRANCH  20  22
ENDBRANCH  18  20
ENDBRANCH  16  17
ENDBRANCH   2  15
BRANCH   1  27
HETATM   27  C3  UNL     1      -1.014   7.361  14.614  1.00  0.00    -0.080 C 
HETATM   28  C2  UNL     1      -2.240   7.721  15.052  1.00  0.00    -0.028 C 
HETATM   29  C1  UNL     1      -2.767   7.686  16.452  1.00  0.00     0.036 C 
HETATM   30  C4  UNL     1       0.025   6.787  15.538  1.00  0.00     0.043 C 
ENDBRANCH   1  27
TORSDOF 7
ENDMDL
MODEL 2
REMARK minimizedAffinity -8.06414509
REMARK  7 active torsions:
REMARK  status: ('A' for Active; 'I' for Inactive)
REMARK    1  A    between atoms: C3_3  and  C5_5 
REMARK    2  A    between atoms: C6_6  and  C7_7 
REMARK    3  A    between atoms: C8_8  and  C9_9 
REMARK    4  A    between atoms: C10_10  and  C12_12 
REMARK    5  A    between atoms: C12_12  and  C13_14 
REMARK    6  A    between atoms: C13_14  and  C15_16 
REMARK    7  A    between atoms: C15_16  and  O2_17 
ROOT
HETATM    1  C5  UNL     1      -0.054   7.480  13.074  1.00  0.00     0.058 C 
HETATM    2  C6  UNL     1       0.048   6.030  12.475  1.00  0.00     0.024 C 
HETATM    3  C16 UNL     1       0.715   6.005  11.047  1.00  0.00     0.003 C 
HETATM    4  C17 UNL     1       2.014   5.176  11.063  1.00  0.00     0.041 C 
HETATM    5  C18 UNL     1       2.687   5.160   9.724  1.00  0.00     0.157 A 
HETATM    6  O3  UNL     1       3.559   6.282   9.502  1.00  0.00    -0.370 OA
HETATM    7  C19 UNL     1       2.392   6.215   8.675  1.00  0.00     0.084 A 
HETATM    8  C20 UNL     1       2.696   5.925   7.240  1.00  0.00     0.049 C 
HETATM    9  C21 UNL     1       1.359   7.273   8.955  1.00  0.00     0.048 C 
HETATM   10  C22 UNL     1       1.014   7.401  10.448  1.00  0.00     0.025 C 
HETATM   11  C23 UNL     1      -0.146   8.335  10.668  1.00  0.00     0.162 A 
HETATM   12  O4  UNL     1       0.151   9.433  11.535  1.00  0.00    -0.368 OA
HETATM   13  C24 UNL     1      -0.719   8.413  12.067  1.00  0.00     0.092 A 
HETATM   14  C25 UNL     1      -2.116   8.902  12.270  1.00  0.00     0.049 C 
ENDROOT
BRANCH   2  15
HETATM   15  C7  UNL     1      -1.240   5.215  12.483  1.00  0.00    -0.021 C 
HETATM   16  C8  UNL     1      -2.301   5.406  13.285  1.00  0.00    -0.003 C 
BRANCH  16  17
HETATM   17  C9  UNL     1      -3.524   4.639  13.166  1.00  0.00     0.010 C 
HETATM   18  C10 UNL     1      -4.774   5.135  13.203  1.00  0.00    -0.016 C 
HETATM   19  C11 UNL     1      -5.194   6.564  13.342  1.00  0.00     0.052 C 
BRANCH  18  20
HETATM   20  C12 UNL     1      -5.856   4.123  12.973  1.00  0.00     0.161 C 
HETATM   21  O1  UNL     1      -5.606   3.137  12.277  1.00  0.00    -0.292 OA
BRANCH  20  22
HETATM   22  C13 UNL     1      -7.242   4.317  13.586  1.00  0.00     0.080 C 
HETATM   23  C14 UNL     1      -8.157   5.064  12.621  1.00  0.00     0.020 C 
BRANCH  22  24
HETATM   24  C15 UNL     1      -7.203   4.978  14.964  1.00  0.00     0.176 C 
BRANCH  24  25
HETATM   25  O2  UNL     1      -7.899   4.191  15.929  1.00  0.00    -0.400 OA
HETATM   26  H22 UNL     1      -7.474   3.318  15.990  1.00  0.00     0.209 HD
ENDBRANCH  24  25
ENDBRANCH  22  24
ENDBRANCH  20  22
ENDBRANCH  18  20
ENDBRANCH  16  17
ENDBRANCH   2  15
BRANCH   1  27
HETATM   27  C3  UNL     1      -0.486   7.620  14.545  1.00  0.00    -0.080 C 
HETATM   28  C2  UNL     1      -1.718   8.099  14.822  1.00  0.00    -0.028 C 
HETATM   29  C1  UNL     1      -2.333   8.345  16.164  1.00  0.00     0.036 C 
HETATM   30  C4  UNL     1       0.465   7.193  15.629  1.00  0.00     0.043 C 
ENDBRANCH   1  27
TORSDOF 7
ENDMDL
MODEL 3
REMARK minimizedAffinity -8.04440022
REMARK  7 active torsions:
REMARK  status: ('A' for Active; 'I' for Inactive)
REMARK    1  A    between atoms: C3_3  and  C5_5 
REMARK    2  A    between atoms: C6_6  and  C7_7 
REMARK    3  A    between atoms: C8_8  and  C9_9 
REMARK    4  A    between atoms: C10_10  and  C12_12 
REMARK    5  A    between atoms: C12_12  and  C13_14 
REMARK    6  A    between atoms: C13_14  and  C15_16 
REMARK    7  A    between atoms: C15_16  and  O2_17 
ROOT
HETATM    1  C5  UNL     1      -3.643   3.177  12.173  1.00  0.00     0.058 C 
HETATM    2  C6  UNL     1      -2.824   4.437  12.633  1.00  0.00     0.024 C 
HETATM    3  C16 UNL     1      -3.722   5.527  13.334  1.00  0.00     0.003 C 
HETATM    4  C17 UNL     1      -3.273   5.754  14.791  1.00  0.00     0.041 C 
HETATM    5  C18 UNL     1      -4.130   6.763  15.492  1.00  0.00     0.157 A 
HETATM    6  O3  UNL     1      -5.316   6.204  16.082  1.00  0.00    -0.370 OA
HETATM    7  C19 UNL     1      -5.519   7.110  14.992  1.00  0.00     0.084 A 
HETATM    8  C20 UNL     1      -6.143   8.405  15.403  1.00  0.00     0.049 C 
HETATM    9  C21 UNL     1      -6.035   6.472  13.730  1.00  0.00     0.048 C 
HETATM   10  C22 UNL     1      -5.241   5.223  13.315  1.00  0.00     0.025 C 
HETATM   11  C23 UNL     1      -5.667   4.721  11.961  1.00  0.00     0.162 A 
HETATM   12  O4  UNL     1      -6.122   3.366  11.963  1.00  0.00    -0.368 OA
HETATM   13  C24 UNL     1      -4.844   3.613  11.341  1.00  0.00     0.092 A 
HETATM   14  C25 UNL     1      -4.879   3.403   9.862  1.00  0.00     0.049 C 
ENDROOT
BRANCH   2  15
HETATM   15  C7  UNL     1      -1.933   5.075  11.574  1.00  0.00    -0.021 C 
HETATM   16  C8  UNL     1      -0.741   5.661  11.780  1.00  0.00    -0.003 C 
BRANCH  16  17
HETATM   17  C9  UNL     1       0.084   6.164  10.702  1.00  0.00     0.010 C 
HETATM   18  C10 UNL     1       0.158   7.445  10.295  1.00  0.00    -0.016 C 
HETATM   19  C11 UNL     1      -0.550   8.633  10.864  1.00  0.00     0.052 C 
BRANCH  18  20
HETATM   20  C12 UNL     1       1.156   7.699   9.206  1.00  0.00     0.161 C 
HETATM   21  O1  UNL     1       1.140   8.789   8.630  1.00  0.00    -0.292 OA
BRANCH  20  22
HETATM   22  C13 UNL     1       2.168   6.623   8.816  1.00  0.00     0.080 C 
HETATM   23  C14 UNL     1       3.488   6.835   9.550  1.00  0.00     0.020 C 
BRANCH  22  24
HETATM   24  C15 UNL     1       2.367   6.503   7.304  1.00  0.00     0.176 C 
BRANCH  24  25
HETATM   25  O2  UNL     1       1.301   7.132   6.597  1.00  0.00    -0.400 OA
HETATM   26  H22 UNL     1       1.277   8.076   6.834  1.00  0.00     0.209 HD
ENDBRANCH  24  25
ENDBRANCH  22  24
ENDBRANCH  20  22
ENDBRANCH  18  20
ENDBRANCH  16  17
ENDBRANCH   2  15
BRANCH   1  27
HETATM   27  C3  UNL     1      -2.855   1.953  11.672  1.00  0.00    -0.080 C 
HETATM   28  C2  UNL     1      -1.597   2.128  11.213  1.00  0.00    -0.028 C 
HETATM   29  C1  UNL     1      -0.666   1.098  10.656  1.00  0.00     0.036 C 
HETATM   30  C4  UNL     1      -3.499   0.595  11.734  1.00  0.00     0.043 C 
ENDBRANCH   1  27
TORSDOF 7
ENDMDL
MODEL 4
REMARK minimizedAffinity -8.00450516
REMARK  7 active torsions:
REMARK  status: ('A' for Active; 'I' for Inactive)
REMARK    1  A    between atoms: C3_3  and  C5_5 
REMARK    2  A    between atoms: C6_6  and  C7_7 
REMARK    3  A    between atoms: C8_8  and  C9_9 
REMARK    4  A    between atoms: C10_10  and  C12_12 
REMARK    5  A    between atoms: C12_12  and  C13_14 
REMARK    6  A    between atoms: C13_14  and  C15_16 
REMARK    7  A    between atoms: C15_16  and  O2_17 
ROOT
HETATM    1  C5  UNL     1       2.611   7.789   9.880  1.00  0.00     0.058 C 
HETATM    2  C6  UNL     1       1.917   8.229  11.220  1.00  0.00     0.024 C 
HETATM    3  C16 UNL     1       2.939   8.416  12.405  1.00  0.00     0.003 C 
HETATM    4  C17 UNL     1       2.932   9.872  12.912  1.00  0.00     0.041 C 
HETATM    5  C18 UNL     1       3.919  10.086  14.019  1.00  0.00     0.157 A 
HETATM    6  O3  UNL     1       5.246  10.389  13.559  1.00  0.00    -0.370 OA
HETATM    7  C19 UNL     1       5.083   9.140  14.239  1.00  0.00     0.084 A 
HETATM    8  C20 UNL     1       5.750   9.099  15.577  1.00  0.00     0.049 C 
HETATM    9  C21 UNL     1       5.228   7.923  13.365  1.00  0.00     0.048 C 
HETATM   10  C22 UNL     1       4.395   8.003  12.075  1.00  0.00     0.025 C 
HETATM   11  C23 UNL     1       4.421   6.701  11.319  1.00  0.00     0.162 A 
HETATM   12  O4  UNL     1       4.908   6.819   9.980  1.00  0.00    -0.368 OA
HETATM   13  C24 UNL     1       3.495   6.571  10.129  1.00  0.00     0.092 A 
HETATM   14  C25 UNL     1       3.099   5.214   9.643  1.00  0.00     0.049 C 
ENDROOT
BRANCH   2  15
HETATM   15  C7  UNL     1       0.728   7.384  11.662  1.00  0.00    -0.021 C 
HETATM   16  C8  UNL     1       0.432   6.141  11.246  1.00  0.00    -0.003 C 
BRANCH  16  17
HETATM   17  C9  UNL     1      -0.670   5.373  11.785  1.00  0.00     0.010 C 
HETATM   18  C10 UNL     1      -1.711   5.866  12.482  1.00  0.00    -0.016 C 
HETATM   19  C11 UNL     1      -1.990   7.294  12.831  1.00  0.00     0.052 C 
BRANCH  18  20
HETATM   20  C12 UNL     1      -2.753   4.855  12.851  1.00  0.00     0.161 C 
HETATM   21  O1  UNL     1      -3.127   4.790  14.024  1.00  0.00    -0.292 OA
BRANCH  20  22
HETATM   22  C13 UNL     1      -3.334   3.919  11.792  1.00  0.00     0.080 C 
HETATM   23  C14 UNL     1      -4.832   3.728  12.007  1.00  0.00     0.020 C 
BRANCH  22  24
HETATM   24  C15 UNL     1      -2.595   2.584  11.697  1.00  0.00     0.176 C 
BRANCH  24  25
HETATM   25  O2  UNL     1      -3.486   1.530  11.340  1.00  0.00    -0.400 OA
HETATM   26  H22 UNL     1      -3.882   1.729  10.473  1.00  0.00     0.209 HD
ENDBRANCH  24  25
ENDBRANCH  22  24
ENDBRANCH  20  22
ENDBRANCH  18  20
ENDBRANCH  16  17
ENDBRANCH   2  15
BRANCH   1  27
HETATM   27  C3  UNL     1       1.759   7.781   8.599  1.00  0.00    -0.080 C 
HETATM   28  C2  UNL     1       2.267   7.224   7.478  1.00  0.00    -0.028 C 
HETATM   29  C1  UNL     1       1.635   7.132   6.125  1.00  0.00     0.036 C 
HETATM   30  C4  UNL     1       0.373   8.367   8.640  1.00  0.00     0.043 C 
ENDBRANCH   1  27
TORSDOF 7
ENDMDL
MODEL 5
REMARK minimizedAffinity -7.93528986
REMARK  7 active torsions:
REMARK  status: ('A' for Active; 'I' for Inactive)
REMARK    1  A    between atoms: C3_3  and  C5_5 
REMARK    2  A    between atoms: C6_6  and  C7_7 
REMARK    3  A    between atoms: C8_8  and  C9_9 
REMARK    4  A    between atoms: C10_10  and  C12_12 
REMARK    5  A    between atoms: C12_12  and  C13_14 
REMARK    6  A    between atoms: C13_14  and  C15_16 
REMARK    7  A    between atoms: C15_16  and  O2_17 
ROOT
HETATM    1  C5  UNL     1       2.691   7.871  10.090  1.00  0.00     0.058 C 
HETATM    2  C6  UNL     1       2.025   8.346  11.433  1.00  0.00     0.024 C 
HETATM    3  C16 UNL     1       3.076   8.597  12.580  1.00  0.00     0.003 C 
HETATM    4  C17 UNL     1       3.052  10.069  13.034  1.00  0.00     0.041 C 
HETATM    5  C18 UNL     1       4.064  10.344  14.104  1.00  0.00     0.157 A 
HETATM    6  O3  UNL     1       5.372  10.658  13.596  1.00  0.00    -0.370 OA
HETATM    7  C19 UNL     1       5.255   9.431  14.324  1.00  0.00     0.084 A 
HETATM    8  C20 UNL     1       5.960   9.453  15.642  1.00  0.00     0.049 C 
HETATM    9  C21 UNL     1       5.401   8.187  13.490  1.00  0.00     0.048 C 
HETATM   10  C22 UNL     1       4.531   8.203  12.223  1.00  0.00     0.025 C 
HETATM   11  C23 UNL     1       4.564   6.875  11.514  1.00  0.00     0.162 A 
HETATM   12  O4  UNL     1       5.010   6.954  10.157  1.00  0.00    -0.368 OA
HETATM   13  C24 UNL     1       3.608   6.682  10.357  1.00  0.00     0.092 A 
HETATM   14  C25 UNL     1       3.228   5.301   9.931  1.00  0.00     0.049 C 
ENDROOT
BRANCH   2  15
HETATM   15  C7  UNL     1       0.868   7.493  11.939  1.00  0.00    -0.021 C 
HETATM   16  C8  UNL     1      -0.391   7.906  12.162  1.00  0.00    -0.003 C 
BRANCH  16  17
HETATM   17  C9  UNL     1      -1.454   7.007  12.561  1.00  0.00     0.010 C 
HETATM   18  C10 UNL     1      -1.578   5.718  12.193  1.00  0.00    -0.016 C 
HETATM   19  C11 UNL     1      -0.656   4.914  11.333  1.00  0.00     0.052 C 
BRANCH  18  20
HETATM   20  C12 UNL     1      -2.734   4.997  12.819  1.00  0.00     0.161 C 
HETATM   21  O1  UNL     1      -3.011   3.864  12.421  1.00  0.00    -0.292 OA
BRANCH  20  22
HETATM   22  C13 UNL     1      -3.553   5.660  13.926  1.00  0.00     0.080 C 
HETATM   23  C14 UNL     1      -4.447   6.754  13.352  1.00  0.00     0.020 C 
BRANCH  22  24
HETATM   24  C15 UNL     1      -2.696   6.172  15.084  1.00  0.00     0.176 C 
BRANCH  24  25
HETATM   25  O2  UNL     1      -3.415   6.123  16.314  1.00  0.00    -0.400 OA
HETATM   26  H22 UNL     1      -3.667   5.200  16.497  1.00  0.00     0.209 HD
ENDBRANCH  24  25
ENDBRANCH  22  24
ENDBRANCH  20  22
ENDBRANCH  18  20
ENDBRANCH  16  17
ENDBRANCH   2  15
BRANCH   1  27
HETATM   27  C3  UNL     1       1.803   7.799   8.835  1.00  0.00    -0.080 C 
HETATM   28  C2  UNL     1       2.322   7.295   7.694  1.00  0.00    -0.028 C 
HETATM   29  C1  UNL     1       1.658   7.158   6.360  1.00  0.00     0.036 C 
HETATM   30  C4  UNL     1       0.375   8.265   8.923  1.00  0.00     0.043 C 
ENDBRANCH   1  27
TORSDOF 7
ENDMDL
MODEL 6
REMARK minimizedAffinity -7.91882992
REMARK  7 active torsions:
REMARK  status: ('A' for Active; 'I' for Inactive)
REMARK    1  A    between atoms: C3_3  and  C5_5 
REMARK    2  A    between atoms: C6_6  and  C7_7 
REMARK    3  A    between atoms: C8_8  and  C9_9 
REMARK    4  A    between atoms: C10_10  and  C12_12 
REMARK    5  A    between atoms: C12_12  and  C13_14 
REMARK    6  A    between atoms: C13_14  and  C15_16 
REMARK    7  A    between atoms: C15_16  and  O2_17 
ROOT
HETATM    1  C5  UNL     1      -0.715   7.860  12.739  1.00  0.00     0.058 C 
HETATM    2  C6  UNL     1      -2.253   7.971  13.044  1.00  0.00     0.024 C 
HETATM    3  C16 UNL     1      -2.550   8.581  14.467  1.00  0.00     0.003 C 
HETATM    4  C17 UNL     1      -3.340   9.899  14.345  1.00  0.00     0.041 C 
HETATM    5  C18 UNL     1      -3.610  10.517  15.683  1.00  0.00     0.157 A 
HETATM    6  O3  UNL     1      -2.541  11.352  16.160  1.00  0.00    -0.370 OA
HETATM    7  C19 UNL     1      -2.788  10.155  16.905  1.00  0.00     0.084 A 
HETATM    8  C20 UNL     1      -3.352  10.408  18.267  1.00  0.00     0.049 C 
HETATM    9  C21 UNL     1      -1.711   9.110  16.794  1.00  0.00     0.048 C 
HETATM   10  C22 UNL     1      -1.295   8.822  15.342  1.00  0.00     0.025 C 
HETATM   11  C23 UNL     1      -0.354   7.650  15.259  1.00  0.00     0.162 A 
HETATM   12  O4  UNL     1       0.898   7.956  14.640  1.00  0.00    -0.368 OA
HETATM   13  C24 UNL     1      -0.010   7.133  13.879  1.00  0.00     0.092 A 
HETATM   14  C25 UNL     1       0.489   5.734  13.715  1.00  0.00     0.049 C 
ENDROOT
BRANCH   2  15
HETATM   15  C7  UNL     1      -3.069   6.704  12.819  1.00  0.00    -0.021 C 
HETATM   16  C8  UNL     1      -3.536   5.875  13.769  1.00  0.00    -0.003 C 
BRANCH  16  17
HETATM   17  C9  UNL     1      -4.381   4.738  13.473  1.00  0.00     0.010 C 
HETATM   18  C10 UNL     1      -5.710   4.774  13.263  1.00  0.00    -0.016 C 
HETATM   19  C11 UNL     1      -6.607   5.971  13.253  1.00  0.00     0.052 C 
BRANCH  18  20
HETATM   20  C12 UNL     1      -6.322   3.456  12.895  1.00  0.00     0.161 C 
HETATM   21  O1  UNL     1      -7.164   2.963  13.648  1.00  0.00    -0.292 OA
BRANCH  20  22
HETATM   22  C13 UNL     1      -5.902   2.738  11.613  1.00  0.00     0.080 C 
HETATM   23  C14 UNL     1      -6.479   1.327  11.574  1.00  0.00     0.020 C 
BRANCH  22  24
HETATM   24  C15 UNL     1      -4.390   2.744  11.387  1.00  0.00     0.176 C 
BRANCH  24  25
HETATM   25  O2  UNL     1      -3.862   1.420  11.425  1.00  0.00    -0.400 OA
HETATM   26  H22 UNL     1      -4.280   0.892  10.722  1.00  0.00     0.209 HD
ENDBRANCH  24  25
ENDBRANCH  22  24
ENDBRANCH  20  22
ENDBRANCH  18  20
ENDBRANCH  16  17
ENDBRANCH   2  15
BRANCH   1  27
HETATM   27  C3  UNL     1      -0.293   7.484  11.307  1.00  0.00    -0.080 C 
HETATM   28  C2  UNL     1       0.006   8.470  10.433  1.00  0.00    -0.028 C 
HETATM   29  C1  UNL     1       0.407   8.340   8.997  1.00  0.00     0.036 C 
HETATM   30  C4  UNL     1      -0.198   6.030  10.931  1.00  0.00     0.043 C 
ENDBRANCH   1  27
TORSDOF 7
ENDMDL
MODEL 7
REMARK minimizedAffinity -7.73175478
REMARK  7 active torsions:
REMARK  status: ('A' for Active; 'I' for Inactive)
REMARK    1  A    between atoms: C3_3  and  C5_5 
REMARK    2  A    between atoms: C6_6  and  C7_7 
REMARK    3  A    between atoms: C8_8  and  C9_9 
REMARK    4  A    between atoms: C10_10  and  C12_12 
REMARK    5  A    between atoms: C12_12  and  C13_14 
REMARK    6  A    between atoms: C13_14  and  C15_16 
REMARK    7  A    between atoms: C15_16  and  O2_17 
ROOT
HETATM    1  C5  UNL     1      -0.936   7.835  13.112  1.00  0.00     0.058 C 
HETATM    2  C6  UNL     1      -2.430   8.288  13.297  1.00  0.00     0.024 C 
HETATM    3  C16 UNL     1      -2.718   8.873  14.733  1.00  0.00     0.003 C 
HETATM    4  C17 UNL     1      -3.170  10.343  14.645  1.00  0.00     0.041 C 
HETATM    5  C18 UNL     1      -3.420  10.936  15.999  1.00  0.00     0.157 A 
HETATM    6  O3  UNL     1      -2.240  11.471  16.622  1.00  0.00    -0.370 OA
HETATM    7  C19 UNL     1      -2.825  10.328  17.254  1.00  0.00     0.084 A 
HETATM    8  C20 UNL     1      -3.445  10.633  18.580  1.00  0.00     0.049 C 
HETATM    9  C21 UNL     1      -2.009   9.067  17.154  1.00  0.00     0.048 C 
HETATM   10  C22 UNL     1      -1.531   8.767  15.723  1.00  0.00     0.025 C 
HETATM   11  C23 UNL     1      -0.879   7.414  15.631  1.00  0.00     0.162 A 
HETATM   12  O4  UNL     1       0.464   7.450  15.140  1.00  0.00    -0.368 OA
HETATM   13  C24 UNL     1      -0.530   6.904  14.249  1.00  0.00     0.092 A 
HETATM   14  C25 UNL     1      -0.350   5.438  14.023  1.00  0.00     0.049 C 
ENDROOT
BRANCH   2  15
HETATM   15  C7  UNL     1      -3.489   7.261  12.913  1.00  0.00    -0.021 C 
HETATM   16  C8  UNL     1      -4.178   6.470  13.754  1.00  0.00    -0.003 C 
BRANCH  16  17
HETATM   17  C9  UNL     1      -5.232   5.582  13.311  1.00  0.00     0.010 C 
HETATM   18  C10 UNL     1      -5.070   4.320  12.872  1.00  0.00    -0.016 C 
HETATM   19  C11 UNL     1      -3.799   3.538  12.768  1.00  0.00     0.052 C 
BRANCH  18  20
HETATM   20  C12 UNL     1      -6.346   3.600  12.553  1.00  0.00     0.161 C 
HETATM   21  O1  UNL     1      -6.340   2.756  11.654  1.00  0.00    -0.292 OA
BRANCH  20  22
HETATM   22  C13 UNL     1      -7.627   3.914  13.324  1.00  0.00     0.080 C 
HETATM   23  C14 UNL     1      -8.292   5.171  12.772  1.00  0.00     0.020 C 
BRANCH  22  24
HETATM   24  C15 UNL     1      -7.414   3.997  14.836  1.00  0.00     0.176 C 
BRANCH  24  25
HETATM   25  O2  UNL     1      -8.169   5.066  15.401  1.00  0.00    -0.400 OA
HETATM   26  H22 UNL     1      -9.114   4.913  15.228  1.00  0.00     0.209 HD
ENDBRANCH  24  25
ENDBRANCH  22  24
ENDBRANCH  20  22
ENDBRANCH  18  20
ENDBRANCH  16  17
ENDBRANCH   2  15
BRANCH   1  27
HETATM   27  C3  UNL     1      -0.475   7.448  11.695  1.00  0.00    -0.080 C 
HETATM   28  C2  UNL     1       0.091   8.391  10.911  1.00  0.00    -0.028 C 
HETATM   29  C1  UNL     1       0.582   8.249   9.504  1.00  0.00     0.036 C 
HETATM   30  C4  UNL     1      -0.641   6.025  11.237  1.00  0.00     0.043 C 
ENDBRANCH   1  27
TORSDOF 7
ENDMDL
MODEL 8
REMARK minimizedAffinity -7.59314919
REMARK  7 active torsions:
REMARK  status: ('A' for Active; 'I' for Inactive)
REMARK    1  A    between atoms: C3_3  and  C5_5 
REMARK    2  A    between atoms: C6_6  and  C7_7 
REMARK    3  A    between atoms: C8_8  and  C9_9 
REMARK    4  A    between atoms: C10_10  and  C12_12 
REMARK    5  A    between atoms: C12_12  and  C13_14 
REMARK    6  A    between atoms: C13_14  and  C15_16 
REMARK    7  A    between atoms: C15_16  and  O2_17 
ROOT
HETATM    1  C5  UNL     1       2.144   6.089   9.369  1.00  0.00     0.058 C 
HETATM    2  C6  UNL     1       2.434   6.121  10.914  1.00  0.00     0.024 C 
HETATM    3  C16 UNL     1       1.357   6.942  11.721  1.00  0.00     0.003 C 
HETATM    4  C17 UNL     1       0.626   6.041  12.734  1.00  0.00     0.041 C 
HETATM    5  C18 UNL     1      -0.426   6.789  13.494  1.00  0.00     0.157 A 
HETATM    6  O3  UNL     1      -1.696   6.843  12.823  1.00  0.00    -0.370 OA
HETATM    7  C19 UNL     1      -1.008   8.089  12.974  1.00  0.00     0.084 A 
HETATM    8  C20 UNL     1      -1.677   9.025  13.929  1.00  0.00     0.049 C 
HETATM    9  C21 UNL     1      -0.483   8.679  11.693  1.00  0.00     0.048 C 
HETATM   10  C22 UNL     1       0.309   7.671  10.844  1.00  0.00     0.025 C 
HETATM   11  C23 UNL     1       0.970   8.339   9.667  1.00  0.00     0.162 A 
HETATM   12  O4  UNL     1       0.593   7.788   8.402  1.00  0.00    -0.368 OA
HETATM   13  C24 UNL     1       1.936   7.509   8.850  1.00  0.00     0.092 A 
HETATM   14  C25 UNL     1       2.970   8.186   8.011  1.00  0.00     0.049 C 
ENDROOT
BRANCH   2  15
HETATM   15  C7  UNL     1       3.843   6.539  11.317  1.00  0.00    -0.021 C 
HETATM   16  C8  UNL     1       4.176   7.587  12.090  1.00  0.00    -0.003 C 
BRANCH  16  17
HETATM   17  C9  UNL     1       5.537   7.861  12.498  1.00  0.00     0.010 C 
HETATM   18  C10 UNL     1       5.970   8.001  13.765  1.00  0.00    -0.016 C 
HETATM   19  C11 UNL     1       5.176   7.878  15.027  1.00  0.00     0.052 C 
BRANCH  18  20
HETATM   20  C12 UNL     1       7.449   8.201  13.903  1.00  0.00     0.161 C 
HETATM   21  O1  UNL     1       8.175   7.931  12.944  1.00  0.00    -0.292 OA
BRANCH  20  22
HETATM   22  C13 UNL     1       8.041   8.723  15.211  1.00  0.00     0.080 C 
HETATM   23  C14 UNL     1       8.399  10.201  15.087  1.00  0.00     0.020 C 
BRANCH  22  24
HETATM   24  C15 UNL     1       9.220   7.890  15.713  1.00  0.00     0.176 C 
BRANCH  24  25
HETATM   25  O2  UNL     1       8.968   7.383  17.022  1.00  0.00    -0.400 OA
HETATM   26  H22 UNL     1       8.176   6.817  16.996  1.00  0.00     0.209 HD
ENDBRANCH  24  25
ENDBRANCH  22  24
ENDBRANCH  20  22
ENDBRANCH  18  20
ENDBRANCH  16  17
ENDBRANCH   2  15
BRANCH   1  27
HETATM   27  C3  UNL     1       2.994   5.147   8.498  1.00  0.00    -0.080 C 
HETATM   28  C2  UNL     1       2.845   5.184   7.156  1.00  0.00    -0.028 C 
HETATM   29  C1  UNL     1       3.538   4.347   6.127  1.00  0.00     0.036 C 
HETATM   30  C4  UNL     1       3.986   4.233   9.165  1.00  0.00     0.043 C 
ENDBRANCH   1  27
TORSDOF 7
ENDMDL
MODEL 9
REMARK minimizedAffinity -7.57788515
REMARK  7 active torsions:
REMARK  status: ('A' for Active; 'I' for Inactive)
REMARK    1  A    between atoms: C3_3  and  C5_5 
REMARK    2  A    between atoms: C6_6  and  C7_7 
REMARK    3  A    between atoms: C8_8  and  C9_9 
REMARK    4  A    between atoms: C10_10  and  C12_12 
REMARK    5  A    between atoms: C12_12  and  C13_14 
REMARK    6  A    between atoms: C13_14  and  C15_16 
REMARK    7  A    between atoms: C15_16  and  O2_17 
ROOT
HETATM    1  C5  UNL     1      -1.881   7.437  14.835  1.00  0.00     0.058 C 
HETATM    2  C6  UNL     1      -2.799   8.187  13.803  1.00  0.00     0.024 C 
HETATM    3  C16 UNL     1      -4.220   7.522  13.653  1.00  0.00     0.003 C 
HETATM    4  C17 UNL     1      -5.332   8.503  14.072  1.00  0.00     0.041 C 
HETATM    5  C18 UNL     1      -6.693   7.885  13.969  1.00  0.00     0.157 A 
HETATM    6  O3  UNL     1      -7.083   7.147  15.139  1.00  0.00    -0.370 OA
HETATM    7  C19 UNL     1      -6.883   6.381  13.947  1.00  0.00     0.084 A 
HETATM    8  C20 UNL     1      -8.148   5.811  13.387  1.00  0.00     0.049 C 
HETATM    9  C21 UNL     1      -5.679   5.479  13.971  1.00  0.00     0.048 C 
HETATM   10  C22 UNL     1      -4.398   6.194  14.431  1.00  0.00     0.025 C 
HETATM   11  C23 UNL     1      -3.186   5.315  14.269  1.00  0.00     0.162 A 
HETATM   12  O4  UNL     1      -2.461   5.098  15.482  1.00  0.00    -0.368 OA
HETATM   13  C24 UNL     1      -1.832   5.949  14.502  1.00  0.00     0.092 A 
HETATM   14  C25 UNL     1      -0.610   5.329  13.908  1.00  0.00     0.049 C 
ENDROOT
BRANCH   2  15
HETATM   15  C7  UNL     1      -2.182   8.454  12.435  1.00  0.00    -0.021 C 
HETATM   16  C8  UNL     1      -0.872   8.436  12.132  1.00  0.00    -0.003 C 
BRANCH  16  17
HETATM   17  C9  UNL     1      -0.376   8.613  10.784  1.00  0.00     0.010 C 
HETATM   18  C10 UNL     1       0.227   7.673  10.033  1.00  0.00    -0.016 C 
HETATM   19  C11 UNL     1       0.494   6.245  10.387  1.00  0.00     0.052 C 
BRANCH  18  20
HETATM   20  C12 UNL     1       0.568   8.109   8.639  1.00  0.00     0.161 C 
HETATM   21  O1  UNL     1      -0.334   8.534   7.914  1.00  0.00    -0.292 OA
BRANCH  20  22
HETATM   22  C13 UNL     1       2.006   8.020   8.130  1.00  0.00     0.080 C 
HETATM   23  C14 UNL     1       2.101   7.054   6.953  1.00  0.00     0.020 C 
BRANCH  22  24
HETATM   24  C15 UNL     1       3.014   7.682   9.229  1.00  0.00     0.176 C 
BRANCH  24  25
HETATM   25  O2  UNL     1       4.048   8.662   9.294  1.00  0.00    -0.400 OA
HETATM   26  H22 UNL     1       3.651   9.528   9.491  1.00  0.00     0.209 HD
ENDBRANCH  24  25
ENDBRANCH  22  24
ENDBRANCH  20  22
ENDBRANCH  18  20
ENDBRANCH  16  17
ENDBRANCH   2  15
BRANCH   1  27
HETATM   27  C3  UNL     1      -0.553   8.106  15.233  1.00  0.00    -0.080 C 
HETATM   28  C2  UNL     1       0.545   7.335  15.397  1.00  0.00    -0.028 C 
HETATM   29  C1  UNL     1       1.919   7.762  15.806  1.00  0.00     0.036 C 
HETATM   30  C4  UNL     1      -0.509   9.601  15.400  1.00  0.00     0.043 C 
ENDBRANCH   1  27
TORSDOF 7
ENDMDL
