MODEL 1
REMARK minimizedAffinity -9.69169998
REMARK CNNscore 0.594405532
REMARK CNNaffinity 7.20407104
REMARK  8 active torsions:
REMARK  status: ('A' for Active; 'I' for Inactive)
REMARK    1  A    between atoms: C2_2  and  C33_38 
REMARK    2  A    between atoms: C3_3  and  C4_4 
REMARK    3  A    between atoms: C4_4  and  O1_5 
REMARK    4  A    between atoms: C4_4  and  C5_6 
REMARK    5  A    between atoms: C5_6  and  C6_7 
REMARK    6  A    between atoms: C15_17  and  O3_18 
REMARK    7  A    between atoms: C28_32  and  O5_33 
REMARK    8  A    between atoms: C33_38  and  O7_40 
ROOT
HETATM    1  C6  UNL     1      -5.243   4.992  12.669  1.00  0.00    -0.007 C 
HETATM    2  C7  UNL     1      -6.691   5.530  12.751  1.00  0.00     0.005 C 
HETATM    3  C8  UNL     1      -7.453   5.295  14.060  1.00  0.00     0.000 C 
HETATM    4  C9  UNL     1      -7.585   6.521  14.965  1.00  0.00     0.001 C 
HETATM    5  C10 UNL     1      -6.297   6.927  15.687  1.00  0.00     0.013 C 
HETATM    6  C11 UNL     1      -5.291   7.670  14.785  1.00  0.00     0.070 C 
HETATM    7  C12 UNL     1      -4.812   8.957  15.478  1.00  0.00     0.161 C 
HETATM    8  O2  UNL     1      -5.662   9.782  15.821  1.00  0.00    -0.292 OA
HETATM    9  C13 UNL     1      -3.332   9.236  15.694  1.00  0.00     0.003 C 
HETATM   10  C14 UNL     1      -2.446   8.206  15.574  1.00  0.00    -0.029 C 
HETATM   11  C15 UNL     1      -0.971   8.490  15.747  1.00  0.00     0.149 C 
HETATM   12  C16 UNL     1      -0.729   9.484  16.872  1.00  0.00     0.043 C 
HETATM   13  C17 UNL     1      -1.554  10.784  16.826  1.00  0.00     0.016 C 
HETATM   14  C18 UNL     1      -1.777  11.353  18.279  1.00  0.00     0.018 C 
HETATM   15  C19 UNL     1      -2.606  10.428  19.192  1.00  0.00     0.023 C 
HETATM   16  C20 UNL     1      -0.413  11.606  18.966  1.00  0.00     0.023 C 
HETATM   17  C21 UNL     1      -2.489  12.712  18.202  1.00  0.00     0.135 C 
HETATM   18  O4  UNL     1      -2.365  13.571  19.076  1.00  0.00    -0.297 OA
HETATM   19  C22 UNL     1      -3.343  12.989  16.993  1.00  0.00     0.080 C 
HETATM   20  C23 UNL     1      -3.925  11.691  16.458  1.00  0.00     0.022 C 
HETATM   21  C24 UNL     1      -2.851  10.696  15.918  1.00  0.00    -0.008 C 
HETATM   22  C25 UNL     1      -2.480  11.209  14.490  1.00  0.00     0.021 C 
HETATM   23  C26 UNL     1      -2.925   6.782  15.254  1.00  0.00     0.017 C 
HETATM   24  C27 UNL     1      -3.281   6.168  16.639  1.00  0.00     0.023 C 
HETATM   25  C28 UNL     1      -1.980   5.793  14.495  1.00  0.00     0.132 C 
HETATM   26  C29 UNL     1      -2.902   4.807  13.758  1.00  0.00     0.038 C 
HETATM   27  C30 UNL     1      -4.348   5.352  13.882  1.00  0.00     0.002 C 
HETATM   28  C31 UNL     1      -4.110   6.863  14.210  1.00  0.00    -0.016 C 
HETATM   29  C32 UNL     1      -3.676   7.603  12.887  1.00  0.00     0.018 C 
ENDROOT
BRANCH   1  30
HETATM   30  C5  UNL     1      -5.211   3.485  12.254  1.00  0.00     0.040 C 
BRANCH  30  31
HETATM   31  C4  UNL     1      -4.748   3.124  10.836  1.00  0.00     0.142 C 
BRANCH  31  32
HETATM   32  C3  UNL     1      -3.471   2.323  10.864  1.00  0.00     0.018 C 
HETATM   33  C2  UNL     1      -2.191   2.756  10.856  1.00  0.00     0.010 C 
HETATM   34  C1  UNL     1      -1.752   4.186  10.727  1.00  0.00     0.055 C 
BRANCH  33  35
HETATM   35  C33 UNL     1      -1.066   1.787  10.946  1.00  0.00     0.171 C 
HETATM   36  O6  UNL     1       0.086   2.066  11.230  1.00  0.00    -0.646 OA
BRANCH  35  37
HETATM   37  O7  UNL     1      -1.417   0.515  10.693  1.00  0.00    -0.773 OA
HETATM   38  H48 UNL     1      -0.576   0.024  10.798  1.00  0.00     0.167 HD
ENDBRANCH  35  37
ENDBRANCH  33  35
ENDBRANCH  31  32
BRANCH  31  39
HETATM   39  O1  UNL     1      -5.753   2.423  10.128  1.00  0.00    -0.392 OA
HETATM   40  H6  UNL     1      -5.369   2.144   9.280  1.00  0.00     0.210 HD
ENDBRANCH  31  39
ENDBRANCH  30  31
ENDBRANCH   1  30
BRANCH  25  41
HETATM   41  O5  UNL     1      -1.106   5.049  15.332  1.00  0.00    -0.394 OA
HETATM   42  H41 UNL     1      -0.632   5.725  15.863  1.00  0.00     0.210 HD
ENDBRANCH  25  41
BRANCH  11  43
HETATM   43  O3  UNL     1      -0.247   7.317  16.107  1.00  0.00    -0.391 OA
HETATM   44  H20 UNL     1       0.692   7.572  16.172  1.00  0.00     0.210 HD
ENDBRANCH  11  43
TORSDOF 8
ENDMDL
MODEL 2
REMARK minimizedAffinity -8.14189434
REMARK CNNscore 0.560188949
REMARK CNNaffinity 7.02993631
REMARK  8 active torsions:
REMARK  status: ('A' for Active; 'I' for Inactive)
REMARK    1  A    between atoms: C2_2  and  C33_38 
REMARK    2  A    between atoms: C3_3  and  C4_4 
REMARK    3  A    between atoms: C4_4  and  O1_5 
REMARK    4  A    between atoms: C4_4  and  C5_6 
REMARK    5  A    between atoms: C5_6  and  C6_7 
REMARK    6  A    between atoms: C15_17  and  O3_18 
REMARK    7  A    between atoms: C28_32  and  O5_33 
REMARK    8  A    between atoms: C33_38  and  O7_40 
ROOT
HETATM    1  C6  UNL     1       1.176   6.416  11.933  1.00  0.00    -0.007 C 
HETATM    2  C7  UNL     1       0.788   5.348  10.884  1.00  0.00     0.005 C 
HETATM    3  C8  UNL     1       0.597   3.911  11.382  1.00  0.00     0.000 C 
HETATM    4  C9  UNL     1      -0.858   3.453  11.505  1.00  0.00     0.001 C 
HETATM    5  C10 UNL     1      -1.623   4.057  12.686  1.00  0.00     0.013 C 
HETATM    6  C11 UNL     1      -2.075   5.512  12.449  1.00  0.00     0.070 C 
HETATM    7  C12 UNL     1      -3.567   5.664  12.793  1.00  0.00     0.161 C 
HETATM    8  O2  UNL     1      -4.374   4.938  12.208  1.00  0.00    -0.292 OA
HETATM    9  C13 UNL     1      -4.047   6.707  13.790  1.00  0.00     0.003 C 
HETATM   10  C14 UNL     1      -3.137   7.287  14.623  1.00  0.00    -0.029 C 
HETATM   11  C15 UNL     1      -3.605   8.355  15.586  1.00  0.00     0.149 C 
HETATM   12  C16 UNL     1      -4.962   8.006  16.178  1.00  0.00     0.043 C 
HETATM   13  C17 UNL     1      -6.068   7.622  15.176  1.00  0.00     0.016 C 
HETATM   14  C18 UNL     1      -7.108   6.643  15.844  1.00  0.00     0.018 C 
HETATM   15  C19 UNL     1      -6.508   5.286  16.262  1.00  0.00     0.023 C 
HETATM   16  C20 UNL     1      -7.726   7.301  17.101  1.00  0.00     0.023 C 
HETATM   17  C21 UNL     1      -8.267   6.374  14.872  1.00  0.00     0.135 C 
HETATM   18  O4  UNL     1      -9.395   6.069  15.262  1.00  0.00    -0.297 OA
HETATM   19  C22 UNL     1      -7.995   6.519  13.399  1.00  0.00     0.080 C 
HETATM   20  C23 UNL     1      -6.541   6.190  13.101  1.00  0.00     0.022 C 
HETATM   21  C24 UNL     1      -5.527   7.180  13.752  1.00  0.00    -0.008 C 
HETATM   22  C25 UNL     1      -5.512   8.439  12.827  1.00  0.00     0.021 C 
HETATM   23  C26 UNL     1      -1.656   6.880  14.584  1.00  0.00     0.017 C 
HETATM   24  C27 UNL     1      -1.563   5.644  15.524  1.00  0.00     0.023 C 
HETATM   25  C28 UNL     1      -0.554   7.910  15.000  1.00  0.00     0.132 C 
HETATM   26  C29 UNL     1       0.719   7.498  14.239  1.00  0.00     0.038 C 
HETATM   27  C30 UNL     1       0.309   6.406  13.218  1.00  0.00     0.002 C 
HETATM   28  C31 UNL     1      -1.232   6.637  13.080  1.00  0.00    -0.016 C 
HETATM   29  C32 UNL     1      -1.471   7.917  12.190  1.00  0.00     0.018 C 
ENDROOT
BRANCH   1  30
HETATM   30  C5  UNL     1       2.718   6.446  12.181  1.00  0.00     0.040 C 
BRANCH  30  31
HETATM   31  C4  UNL     1       3.649   6.713  10.990  1.00  0.00     0.142 C 
BRANCH  31  32
HETATM   32  C3  UNL     1       4.820   7.573  11.390  1.00  0.00     0.018 C 
HETATM   33  C2  UNL     1       6.126   7.243  11.495  1.00  0.00     0.010 C 
HETATM   34  C1  UNL     1       6.698   5.867  11.309  1.00  0.00     0.055 C 
BRANCH  33  35
HETATM   35  C33 UNL     1       7.138   8.271  11.855  1.00  0.00     0.171 C 
HETATM   36  O6  UNL     1       8.018   8.135  12.687  1.00  0.00    -0.646 OA
BRANCH  35  37
HETATM   37  O7  UNL     1       7.025   9.417  11.163  1.00  0.00    -0.773 OA
HETATM   38  H48 UNL     1       7.755   9.966  11.516  1.00  0.00     0.167 HD
ENDBRANCH  35  37
ENDBRANCH  33  35
ENDBRANCH  31  32
BRANCH  31  39
HETATM   39  O1  UNL     1       4.102   5.504  10.410  1.00  0.00    -0.392 OA
HETATM   40  H6  UNL     1       4.753   5.737   9.727  1.00  0.00     0.210 HD
ENDBRANCH  31  39
ENDBRANCH  30  31
ENDBRANCH   1  30
BRANCH  25  41
HETATM   41  O5  UNL     1      -0.258   7.933  16.389  1.00  0.00    -0.394 OA
HETATM   42  H41 UNL     1      -1.124   8.078  16.826  1.00  0.00     0.210 HD
ENDBRANCH  25  41
BRANCH  11  43
HETATM   43  O3  UNL     1      -2.724   8.488  16.697  1.00  0.00    -0.391 OA
HETATM   44  H20 UNL     1      -3.074   9.208  17.253  1.00  0.00     0.210 HD
ENDBRANCH  11  43
TORSDOF 8
ENDMDL
MODEL 3
REMARK minimizedAffinity -7.78684473
REMARK CNNscore 0.507225156
REMARK CNNaffinity 6.93056154
REMARK  8 active torsions:
REMARK  status: ('A' for Active; 'I' for Inactive)
REMARK    1  A    between atoms: C2_2  and  C33_38 
REMARK    2  A    between atoms: C3_3  and  C4_4 
REMARK    3  A    between atoms: C4_4  and  O1_5 
REMARK    4  A    between atoms: C4_4  and  C5_6 
REMARK    5  A    between atoms: C5_6  and  C6_7 
REMARK    6  A    between atoms: C15_17  and  O3_18 
REMARK    7  A    between atoms: C28_32  and  O5_33 
REMARK    8  A    between atoms: C33_38  and  O7_40 
ROOT
HETATM    1  C6  UNL     1      -9.323   6.069  13.557  1.00  0.00    -0.007 C 
HETATM    2  C7  UNL     1      -8.445   5.848  14.811  1.00  0.00     0.005 C 
HETATM    3  C8  UNL     1      -7.419   6.935  15.150  1.00  0.00     0.000 C 
HETATM    4  C9  UNL     1      -7.801   7.849  16.315  1.00  0.00     0.001 C 
HETATM    5  C10 UNL     1      -8.902   8.866  16.000  1.00  0.00     0.013 C 
HETATM    6  C11 UNL     1     -10.318   8.256  15.982  1.00  0.00     0.070 C 
HETATM    7  C12 UNL     1     -11.270   9.106  16.842  1.00  0.00     0.161 C 
HETATM    8  O2  UNL     1     -10.974   9.290  18.024  1.00  0.00    -0.292 OA
HETATM    9  C13 UNL     1     -12.563   9.667  16.271  1.00  0.00     0.003 C 
HETATM   10  C14 UNL     1     -12.725   9.698  14.918  1.00  0.00    -0.029 C 
HETATM   11  C15 UNL     1     -14.028  10.216  14.351  1.00  0.00     0.149 C 
HETATM   12  C16 UNL     1     -14.530  11.418  15.136  1.00  0.00     0.043 C 
HETATM   13  C17 UNL     1     -14.605  11.254  16.666  1.00  0.00     0.016 C 
HETATM   14  C18 UNL     1     -14.428  12.645  17.384  1.00  0.00     0.018 C 
HETATM   15  C19 UNL     1     -13.050  13.296  17.154  1.00  0.00     0.023 C 
HETATM   16  C20 UNL     1     -15.512  13.637  16.897  1.00  0.00     0.023 C 
HETATM   17  C21 UNL     1     -14.632  12.479  18.898  1.00  0.00     0.135 C 
HETATM   18  O4  UNL     1     -15.020  13.403  19.615  1.00  0.00    -0.297 OA
HETATM   19  C22 UNL     1     -14.365  11.124  19.497  1.00  0.00     0.080 C 
HETATM   20  C23 UNL     1     -13.291  10.403  18.699  1.00  0.00     0.022 C 
HETATM   21  C24 UNL     1     -13.714  10.071  17.234  1.00  0.00    -0.008 C 
HETATM   22  C25 UNL     1     -14.608   8.794  17.332  1.00  0.00     0.021 C 
HETATM   23  C26 UNL     1     -11.616   9.204  13.976  1.00  0.00     0.017 C 
HETATM   24  C27 UNL     1     -10.688  10.437  13.781  1.00  0.00     0.023 C 
HETATM   25  C28 UNL     1     -11.988   8.629  12.569  1.00  0.00     0.132 C 
HETATM   26  C29 UNL     1     -10.859   7.650  12.201  1.00  0.00     0.038 C 
HETATM   27  C30 UNL     1      -9.978   7.472  13.463  1.00  0.00     0.002 C 
HETATM   28  C31 UNL     1     -10.939   7.923  14.611  1.00  0.00    -0.016 C 
HETATM   29  C32 UNL     1     -11.987   6.774  14.871  1.00  0.00     0.018 C 
ENDROOT
BRANCH   1  30
HETATM   30  C5  UNL     1      -8.599   5.594  12.256  1.00  0.00     0.040 C 
BRANCH  30  31
HETATM   31  C4  UNL     1      -8.125   4.137  12.170  1.00  0.00     0.142 C 
BRANCH  31  32
HETATM   32  C3  UNL     1      -6.621   4.050  12.122  1.00  0.00     0.018 C 
HETATM   33  C2  UNL     1      -5.835   3.004  11.783  1.00  0.00     0.010 C 
HETATM   34  C1  UNL     1      -6.316   1.622  11.450  1.00  0.00     0.055 C 
BRANCH  33  35
HETATM   35  C33 UNL     1      -4.356   3.151  11.748  1.00  0.00     0.171 C 
HETATM   36  O6  UNL     1      -3.624   3.159  12.722  1.00  0.00    -0.646 OA
BRANCH  35  37
HETATM   37  O7  UNL     1      -3.846   3.269  10.511  1.00  0.00    -0.773 OA
HETATM   38  H48 UNL     1      -2.884   3.349  10.670  1.00  0.00     0.167 HD
ENDBRANCH  35  37
ENDBRANCH  33  35
ENDBRANCH  31  32
BRANCH  31  39
HETATM   39  O1  UNL     1      -8.628   3.367  13.246  1.00  0.00    -0.392 OA
HETATM   40  H6  UNL     1      -8.222   2.486  13.185  1.00  0.00     0.210 HD
ENDBRANCH  31  39
ENDBRANCH  30  31
ENDBRANCH   1  30
BRANCH  25  41
HETATM   41  O5  UNL     1     -12.091   9.602  11.540  1.00  0.00    -0.394 OA
HETATM   42  H41 UNL     1     -12.732  10.262  11.883  1.00  0.00     0.210 HD
ENDBRANCH  25  41
BRANCH  11  43
HETATM   43  O3  UNL     1     -13.875  10.670  13.009  1.00  0.00    -0.391 OA
HETATM   44  H20 UNL     1     -14.755  10.960  12.705  1.00  0.00     0.210 HD
ENDBRANCH  11  43
TORSDOF 8
ENDMDL
MODEL 4
REMARK minimizedAffinity -10.1048183
REMARK CNNscore 0.505625367
REMARK CNNaffinity 6.93287659
REMARK  8 active torsions:
REMARK  status: ('A' for Active; 'I' for Inactive)
REMARK    1  A    between atoms: C2_2  and  C33_38 
REMARK    2  A    between atoms: C3_3  and  C4_4 
REMARK    3  A    between atoms: C4_4  and  O1_5 
REMARK    4  A    between atoms: C4_4  and  C5_6 
REMARK    5  A    between atoms: C5_6  and  C6_7 
REMARK    6  A    between atoms: C15_17  and  O3_18 
REMARK    7  A    between atoms: C28_32  and  O5_33 
REMARK    8  A    between atoms: C33_38  and  O7_40 
ROOT
HETATM    1  C6  UNL     1      -6.792   6.364  16.032  1.00  0.00    -0.007 C 
HETATM    2  C7  UNL     1      -7.149   4.953  15.510  1.00  0.00     0.005 C 
HETATM    3  C8  UNL     1      -7.694   4.850  14.081  1.00  0.00     0.000 C 
HETATM    4  C9  UNL     1      -6.701   4.328  13.041  1.00  0.00     0.001 C 
HETATM    5  C10 UNL     1      -5.606   5.323  12.644  1.00  0.00     0.013 C 
HETATM    6  C11 UNL     1      -4.481   5.452  13.691  1.00  0.00     0.070 C 
HETATM    7  C12 UNL     1      -3.108   5.318  13.009  1.00  0.00     0.161 C 
HETATM    8  O2  UNL     1      -2.880   4.293  12.362  1.00  0.00    -0.292 OA
HETATM    9  C13 UNL     1      -2.041   6.390  13.162  1.00  0.00     0.003 C 
HETATM   10  C14 UNL     1      -2.406   7.619  13.627  1.00  0.00    -0.029 C 
HETATM   11  C15 UNL     1      -1.339   8.673  13.819  1.00  0.00     0.149 C 
HETATM   12  C16 UNL     1      -0.317   8.635  12.693  1.00  0.00     0.043 C 
HETATM   13  C17 UNL     1       0.297   7.259  12.372  1.00  0.00     0.016 C 
HETATM   14  C18 UNL     1       0.726   7.180  10.858  1.00  0.00     0.018 C 
HETATM   15  C19 UNL     1      -0.450   7.293   9.869  1.00  0.00     0.023 C 
HETATM   16  C20 UNL     1       1.735   8.308  10.532  1.00  0.00     0.023 C 
HETATM   17  C21 UNL     1       1.450   5.852  10.591  1.00  0.00     0.135 C 
HETATM   18  O4  UNL     1       2.281   5.725   9.689  1.00  0.00    -0.297 OA
HETATM   19  C22 UNL     1       1.135   4.688  11.491  1.00  0.00     0.080 C 
HETATM   20  C23 UNL     1      -0.295   4.791  11.996  1.00  0.00     0.022 C 
HETATM   21  C24 UNL     1      -0.550   6.030  12.909  1.00  0.00    -0.008 C 
HETATM   22  C25 UNL     1       0.002   5.639  14.317  1.00  0.00     0.021 C 
HETATM   23  C26 UNL     1      -3.871   7.934  13.966  1.00  0.00     0.017 C 
HETATM   24  C27 UNL     1      -4.500   8.382  12.615  1.00  0.00     0.023 C 
HETATM   25  C28 UNL     1      -4.205   9.007  15.055  1.00  0.00     0.132 C 
HETATM   26  C29 UNL     1      -5.578   8.614  15.628  1.00  0.00     0.038 C 
HETATM   27  C30 UNL     1      -5.925   7.213  15.065  1.00  0.00     0.002 C 
HETATM   28  C31 UNL     1      -4.523   6.663  14.644  1.00  0.00    -0.016 C 
HETATM   29  C32 UNL     1      -3.743   6.226  15.943  1.00  0.00     0.018 C 
ENDROOT
BRANCH   1  30
HETATM   30  C5  UNL     1      -8.045   7.099  16.608  1.00  0.00     0.040 C 
BRANCH  30  31
HETATM   31  C4  UNL     1      -9.089   7.649  15.627  1.00  0.00     0.142 C 
BRANCH  31  32
HETATM   32  C3  UNL     1      -9.002   9.150  15.516  1.00  0.00     0.018 C 
HETATM   33  C2  UNL     1      -9.952  10.036  15.145  1.00  0.00     0.010 C 
HETATM   34  C1  UNL     1     -11.331   9.688  14.662  1.00  0.00     0.055 C 
BRANCH  33  35
HETATM   35  C33 UNL     1      -9.670  11.496  15.158  1.00  0.00     0.171 C 
HETATM   36  O6  UNL     1      -8.954  12.070  15.960  1.00  0.00    -0.646 OA
BRANCH  35  37
HETATM   37  O7  UNL     1     -10.276  12.180  14.173  1.00  0.00    -0.773 OA
HETATM   38  H48 UNL     1      -9.984  13.101  14.326  1.00  0.00     0.167 HD
ENDBRANCH  35  37
ENDBRANCH  33  35
ENDBRANCH  31  32
BRANCH  31  39
HETATM   39  O1  UNL     1      -8.960   7.053  14.349  1.00  0.00    -0.392 OA
HETATM   40  H6  UNL     1      -9.582   7.505  13.755  1.00  0.00     0.210 HD
ENDBRANCH  31  39
ENDBRANCH  30  31
ENDBRANCH   1  30
BRANCH  25  41
HETATM   41  O5  UNL     1      -4.287  10.339  14.568  1.00  0.00    -0.394 OA
HETATM   42  H41 UNL     1      -3.433  10.490  14.109  1.00  0.00     0.210 HD
ENDBRANCH  25  41
BRANCH  11  43
HETATM   43  O3  UNL     1      -1.886   9.988  13.797  1.00  0.00    -0.391 OA
HETATM   44  H20 UNL     1      -1.148  10.606  13.955  1.00  0.00     0.210 HD
ENDBRANCH  11  43
TORSDOF 8
ENDMDL
MODEL 5
REMARK minimizedAffinity -8.00370121
REMARK CNNscore 0.403242588
REMARK CNNaffinity 6.29466105
REMARK  8 active torsions:
REMARK  status: ('A' for Active; 'I' for Inactive)
REMARK    1  A    between atoms: C2_2  and  C33_38 
REMARK    2  A    between atoms: C3_3  and  C4_4 
REMARK    3  A    between atoms: C4_4  and  O1_5 
REMARK    4  A    between atoms: C4_4  and  C5_6 
REMARK    5  A    between atoms: C5_6  and  C6_7 
REMARK    6  A    between atoms: C15_17  and  O3_18 
REMARK    7  A    between atoms: C28_32  and  O5_33 
REMARK    8  A    between atoms: C33_38  and  O7_40 
ROOT
HETATM    1  C6  UNL     1      10.900  12.715  16.868  1.00  0.00    -0.007 C 
HETATM    2  C7  UNL     1      11.973  12.728  15.755  1.00  0.00     0.005 C 
HETATM    3  C8  UNL     1      12.697  11.409  15.462  1.00  0.00     0.000 C 
HETATM    4  C9  UNL     1      12.248  10.691  14.188  1.00  0.00     0.001 C 
HETATM    5  C10 UNL     1      10.876  10.017  14.282  1.00  0.00     0.013 C 
HETATM    6  C11 UNL     1       9.696  11.003  14.171  1.00  0.00     0.070 C 
HETATM    7  C12 UNL     1       8.679  10.495  13.134  1.00  0.00     0.161 C 
HETATM    8  O2  UNL     1       9.078  10.283  11.987  1.00  0.00    -0.292 OA
HETATM    9  C13 UNL     1       7.214  10.301  13.492  1.00  0.00     0.003 C 
HETATM   10  C14 UNL     1       6.859  10.262  14.807  1.00  0.00    -0.029 C 
HETATM   11  C15 UNL     1       5.396  10.112  15.164  1.00  0.00     0.149 C 
HETATM   12  C16 UNL     1       4.699   9.136  14.229  1.00  0.00     0.043 C 
HETATM   13  C17 UNL     1       4.891   9.378  12.720  1.00  0.00     0.016 C 
HETATM   14  C18 UNL     1       4.777   8.024  11.921  1.00  0.00     0.018 C 
HETATM   15  C19 UNL     1       5.875   7.000  12.269  1.00  0.00     0.023 C 
HETATM   16  C20 UNL     1       3.404   7.363  12.188  1.00  0.00     0.023 C 
HETATM   17  C21 UNL     1       4.845   8.304  10.412  1.00  0.00     0.135 C 
HETATM   18  O4  UNL     1       4.323   7.559   9.580  1.00  0.00    -0.297 OA
HETATM   19  C22 UNL     1       5.558   9.550   9.960  1.00  0.00     0.080 C 
HETATM   20  C23 UNL     1       6.664   9.903  10.942  1.00  0.00     0.022 C 
HETATM   21  C24 UNL     1       6.145  10.281  12.363  1.00  0.00    -0.008 C 
HETATM   22  C25 UNL     1       5.661  11.762  12.256  1.00  0.00     0.021 C 
HETATM   23  C26 UNL     1       7.914  10.381  15.917  1.00  0.00     0.017 C 
HETATM   24  C27 UNL     1       8.429   8.928  16.127  1.00  0.00     0.023 C 
HETATM   25  C28 UNL     1       7.520  10.979  17.308  1.00  0.00     0.132 C 
HETATM   26  C29 UNL     1       8.810  11.581  17.891  1.00  0.00     0.038 C 
HETATM   27  C30 UNL     1       9.877  11.553  16.767  1.00  0.00     0.002 C 
HETATM   28  C31 UNL     1       9.002  11.441  15.476  1.00  0.00    -0.016 C 
HETATM   29  C32 UNL     1       8.360  12.851  15.179  1.00  0.00     0.018 C 
ENDROOT
BRANCH   1  30
HETATM   30  C5  UNL     1      11.534  12.911  18.283  1.00  0.00     0.040 C 
BRANCH  30  31
HETATM   31  C4  UNL     1      10.883  13.911  19.247  1.00  0.00     0.142 C 
BRANCH  31  32
HETATM   32  C3  UNL     1      10.429  13.234  20.516  1.00  0.00     0.018 C 
HETATM   33  C2  UNL     1       9.531  13.654  21.434  1.00  0.00     0.010 C 
HETATM   34  C1  UNL     1       8.829  14.981  21.427  1.00  0.00     0.055 C 
BRANCH  33  35
HETATM   35  C33 UNL     1       9.184  12.797  22.598  1.00  0.00     0.171 C 
HETATM   36  O6  UNL     1       9.044  11.587  22.567  1.00  0.00    -0.646 OA
BRANCH  35  37
HETATM   37  O7  UNL     1       9.037  13.471  23.751  1.00  0.00    -0.773 OA
HETATM   38  H48 UNL     1       8.820  12.768  24.397  1.00  0.00     0.167 HD
ENDBRANCH  35  37
ENDBRANCH  33  35
ENDBRANCH  31  32
BRANCH  31  39
HETATM   39  O1  UNL     1      11.759  14.982  19.547  1.00  0.00    -0.392 OA
HETATM   40  H6  UNL     1      11.327  15.526  20.227  1.00  0.00     0.210 HD
ENDBRANCH  31  39
ENDBRANCH  30  31
ENDBRANCH   1  30
BRANCH  25  41
HETATM   41  O5  UNL     1       7.006  10.034  18.235  1.00  0.00    -0.394 OA
HETATM   42  H41 UNL     1       6.264   9.599  17.763  1.00  0.00     0.210 HD
ENDBRANCH  25  41
BRANCH  11  43
HETATM   43  O3  UNL     1       5.225   9.579  16.474  1.00  0.00    -0.391 OA
HETATM   44  H20 UNL     1       4.265   9.539  16.641  1.00  0.00     0.210 HD
ENDBRANCH  11  43
TORSDOF 8
ENDMDL
MODEL 6
REMARK minimizedAffinity -9.55456448
REMARK CNNscore 0.392647862
REMARK CNNaffinity 6.50602341
REMARK  8 active torsions:
REMARK  status: ('A' for Active; 'I' for Inactive)
REMARK    1  A    between atoms: C2_2  and  C33_38 
REMARK    2  A    between atoms: C3_3  and  C4_4 
REMARK    3  A    between atoms: C4_4  and  O1_5 
REMARK    4  A    between atoms: C4_4  and  C5_6 
REMARK    5  A    between atoms: C5_6  and  C6_7 
REMARK    6  A    between atoms: C15_17  and  O3_18 
REMARK    7  A    between atoms: C28_32  and  O5_33 
REMARK    8  A    between atoms: C33_38  and  O7_40 
ROOT
HETATM    1  C6  UNL     1      -3.764   6.532  13.311  1.00  0.00    -0.007 C 
HETATM    2  C7  UNL     1      -5.177   7.137  13.136  1.00  0.00     0.005 C 
HETATM    3  C8  UNL     1      -6.083   7.173  14.372  1.00  0.00     0.000 C 
HETATM    4  C9  UNL     1      -6.232   8.546  15.030  1.00  0.00     0.001 C 
HETATM    5  C10 UNL     1      -5.002   9.020  15.811  1.00  0.00     0.013 C 
HETATM    6  C11 UNL     1      -3.865   9.546  14.912  1.00  0.00     0.070 C 
HETATM    7  C12 UNL     1      -3.382  10.915  15.421  1.00  0.00     0.161 C 
HETATM    8  O2  UNL     1      -4.210  11.822  15.519  1.00  0.00    -0.292 OA
HETATM    9  C13 UNL     1      -1.918  11.164  15.750  1.00  0.00     0.003 C 
HETATM   10  C14 UNL     1      -1.090  10.094  15.911  1.00  0.00    -0.029 C 
HETATM   11  C15 UNL     1       0.375  10.341  16.197  1.00  0.00     0.149 C 
HETATM   12  C16 UNL     1       0.560  11.509  17.153  1.00  0.00     0.043 C 
HETATM   13  C17 UNL     1      -0.174  12.814  16.790  1.00  0.00     0.016 C 
HETATM   14  C18 UNL     1      -0.510  13.643  18.088  1.00  0.00     0.018 C 
HETATM   15  C19 UNL     1      -1.484  12.932  19.048  1.00  0.00     0.023 C 
HETATM   16  C20 UNL     1       0.788  13.957  18.869  1.00  0.00     0.023 C 
HETATM   17  C21 UNL     1      -1.126  14.995  17.697  1.00  0.00     0.135 C 
HETATM   18  O4  UNL     1      -1.040  15.990  18.417  1.00  0.00    -0.297 OA
HETATM   19  C22 UNL     1      -1.832  15.087  16.370  1.00  0.00     0.080 C 
HETATM   20  C23 UNL     1      -2.435  13.739  16.006  1.00  0.00     0.022 C 
HETATM   21  C24 UNL     1      -1.374  12.620  15.771  1.00  0.00    -0.008 C 
HETATM   22  C25 UNL     1      -0.826  12.853  14.327  1.00  0.00     0.021 C 
HETATM   23  C26 UNL     1      -1.619   8.656  15.791  1.00  0.00     0.017 C 
HETATM   24  C27 UNL     1      -2.153   8.316  17.213  1.00  0.00     0.023 C 
HETATM   25  C28 UNL     1      -0.663   7.509  15.326  1.00  0.00     0.132 C 
HETATM   26  C29 UNL     1      -1.564   6.447  14.672  1.00  0.00     0.038 C 
HETATM   27  C30 UNL     1      -2.978   7.066  14.537  1.00  0.00     0.002 C 
HETATM   28  C31 UNL     1      -2.683   8.600  14.622  1.00  0.00    -0.016 C 
HETATM   29  C32 UNL     1      -2.070   9.072  13.248  1.00  0.00     0.018 C 
ENDROOT
BRANCH   1  30
HETATM   30  C5  UNL     1      -3.782   4.976  13.170  1.00  0.00     0.040 C 
BRANCH  30  31
HETATM   31  C4  UNL     1      -3.902   4.368  11.766  1.00  0.00     0.142 C 
BRANCH  31  32
HETATM   32  C3  UNL     1      -2.632   3.660  11.365  1.00  0.00     0.018 C 
HETATM   33  C2  UNL     1      -2.378   2.335  11.298  1.00  0.00     0.010 C 
HETATM   34  C1  UNL     1      -3.321   1.241  11.709  1.00  0.00     0.055 C 
BRANCH  33  35
HETATM   35  C33 UNL     1      -1.059   1.843  10.817  1.00  0.00     0.171 C 
HETATM   36  O6  UNL     1       0.022   2.141  11.293  1.00  0.00    -0.646 OA
BRANCH  35  37
HETATM   37  O7  UNL     1      -1.137   0.994   9.778  1.00  0.00    -0.773 OA
HETATM   38  H48 UNL     1      -0.201   0.771   9.599  1.00  0.00     0.167 HD
ENDBRANCH  35  37
ENDBRANCH  33  35
ENDBRANCH  31  32
BRANCH  31  39
HETATM   39  O1  UNL     1      -5.005   3.486  11.679  1.00  0.00    -0.392 OA
HETATM   40  H6  UNL     1      -4.972   3.067  10.802  1.00  0.00     0.210 HD
ENDBRANCH  31  39
ENDBRANCH  30  31
ENDBRANCH   1  30
BRANCH  25  41
HETATM   41  O5  UNL     1       0.072   6.890  16.372  1.00  0.00    -0.394 OA
HETATM   42  H41 UNL     1       0.530   7.630  16.827  1.00  0.00     0.210 HD
ENDBRANCH  25  41
BRANCH  11  43
HETATM   43  O3  UNL     1       0.984   9.222  16.834  1.00  0.00    -0.391 OA
HETATM   44  H20 UNL     1       1.926   9.444  16.958  1.00  0.00     0.210 HD
ENDBRANCH  11  43
TORSDOF 8
ENDMDL
MODEL 7
REMARK minimizedAffinity -8.04781055
REMARK CNNscore 0.38747406
REMARK CNNaffinity 6.09841728
REMARK  8 active torsions:
REMARK  status: ('A' for Active; 'I' for Inactive)
REMARK    1  A    between atoms: C2_2  and  C33_38 
REMARK    2  A    between atoms: C3_3  and  C4_4 
REMARK    3  A    between atoms: C4_4  and  O1_5 
REMARK    4  A    between atoms: C4_4  and  C5_6 
REMARK    5  A    between atoms: C5_6  and  C6_7 
REMARK    6  A    between atoms: C15_17  and  O3_18 
REMARK    7  A    between atoms: C28_32  and  O5_33 
REMARK    8  A    between atoms: C33_38  and  O7_40 
ROOT
HETATM    1  C6  UNL     1      -1.582   8.762  13.585  1.00  0.00    -0.007 C 
HETATM    2  C7  UNL     1      -2.977   8.639  12.929  1.00  0.00     0.005 C 
HETATM    3  C8  UNL     1      -4.051   7.865  13.702  1.00  0.00     0.000 C 
HETATM    4  C9  UNL     1      -5.111   8.731  14.385  1.00  0.00     0.001 C 
HETATM    5  C10 UNL     1      -4.626   9.475  15.632  1.00  0.00     0.013 C 
HETATM    6  C11 UNL     1      -3.777  10.723  15.315  1.00  0.00     0.070 C 
HETATM    7  C12 UNL     1      -4.298  11.932  16.110  1.00  0.00     0.161 C 
HETATM    8  O2  UNL     1      -5.478  12.256  15.965  1.00  0.00    -0.292 OA
HETATM    9  C13 UNL     1      -3.379  12.739  17.015  1.00  0.00     0.003 C 
HETATM   10  C14 UNL     1      -2.180  12.203  17.379  1.00  0.00    -0.029 C 
HETATM   11  C15 UNL     1      -1.247  13.021  18.245  1.00  0.00     0.149 C 
HETATM   12  C16 UNL     1      -2.016  13.787  19.310  1.00  0.00     0.043 C 
HETATM   13  C17 UNL     1      -3.215  14.623  18.822  1.00  0.00     0.016 C 
HETATM   14  C18 UNL     1      -4.298  14.758  19.959  1.00  0.00     0.018 C 
HETATM   15  C19 UNL     1      -4.934  13.418  20.378  1.00  0.00     0.023 C 
HETATM   16  C20 UNL     1      -3.670  15.404  21.218  1.00  0.00     0.023 C 
HETATM   17  C21 UNL     1      -5.422  15.698  19.497  1.00  0.00     0.135 C 
HETATM   18  O4  UNL     1      -6.107  16.345  20.291  1.00  0.00    -0.297 OA
HETATM   19  C22 UNL     1      -5.659  15.833  18.017  1.00  0.00     0.080 C 
HETATM   20  C23 UNL     1      -5.284  14.542  17.308  1.00  0.00     0.022 C 
HETATM   21  C24 UNL     1      -3.765  14.195  17.398  1.00  0.00    -0.008 C 
HETATM   22  C25 UNL     1      -3.064  15.082  16.320  1.00  0.00     0.021 C 
HETATM   23  C26 UNL     1      -1.766  10.798  16.914  1.00  0.00     0.017 C 
HETATM   24  C27 UNL     1      -2.389   9.836  17.966  1.00  0.00     0.023 C 
HETATM   25  C28 UNL     1      -0.250  10.447  16.750  1.00  0.00     0.132 C 
HETATM   26  C29 UNL     1      -0.186   9.336  15.687  1.00  0.00     0.038 C 
HETATM   27  C30 UNL     1      -1.601   9.211  15.069  1.00  0.00     0.002 C 
HETATM   28  C31 UNL     1      -2.244  10.593  15.421  1.00  0.00    -0.016 C 
HETATM   29  C32 UNL     1      -1.644  11.687  14.457  1.00  0.00     0.018 C 
ENDROOT
BRANCH   1  30
HETATM   30  C5  UNL     1      -0.694   7.511  13.289  1.00  0.00     0.040 C 
BRANCH  30  31
HETATM   31  C4  UNL     1      -1.224   6.125  13.680  1.00  0.00     0.142 C 
BRANCH  31  32
HETATM   32  C3  UNL     1      -1.409   5.246  12.469  1.00  0.00     0.018 C 
HETATM   33  C2  UNL     1      -2.452   4.452  12.142  1.00  0.00     0.010 C 
HETATM   34  C1  UNL     1      -3.661   4.200  12.996  1.00  0.00     0.055 C 
BRANCH  33  35
HETATM   35  C33 UNL     1      -2.457   3.703  10.857  1.00  0.00     0.171 C 
HETATM   36  O6  UNL     1      -3.362   3.706  10.041  1.00  0.00    -0.646 OA
BRANCH  35  37
HETATM   37  O7  UNL     1      -1.338   2.994  10.632  1.00  0.00    -0.773 OA
HETATM   38  H48 UNL     1      -1.506   2.578   9.762  1.00  0.00     0.167 HD
ENDBRANCH  35  37
ENDBRANCH  33  35
ENDBRANCH  31  32
BRANCH  31  39
HETATM   39  O1  UNL     1      -0.373   5.494  14.620  1.00  0.00    -0.392 OA
HETATM   40  H6  UNL     1      -0.710   4.593  14.756  1.00  0.00     0.210 HD
ENDBRANCH  31  39
ENDBRANCH  30  31
ENDBRANCH   1  30
BRANCH  25  41
HETATM   41  O5  UNL     1       0.380   9.975  17.932  1.00  0.00    -0.394 OA
HETATM   42  H41 UNL     1       0.202  10.667  18.604  1.00  0.00     0.210 HD
ENDBRANCH  25  41
BRANCH  11  43
HETATM   43  O3  UNL     1      -0.326  12.197  18.953  1.00  0.00    -0.391 OA
HETATM   44  H20 UNL     1       0.255  12.793  19.461  1.00  0.00     0.210 HD
ENDBRANCH  11  43
TORSDOF 8
ENDMDL
MODEL 8
REMARK minimizedAffinity -7.37385654
REMARK CNNscore 0.360550761
REMARK CNNaffinity 6.03436613
REMARK  8 active torsions:
REMARK  status: ('A' for Active; 'I' for Inactive)
REMARK    1  A    between atoms: C2_2  and  C33_38 
REMARK    2  A    between atoms: C3_3  and  C4_4 
REMARK    3  A    between atoms: C4_4  and  O1_5 
REMARK    4  A    between atoms: C4_4  and  C5_6 
REMARK    5  A    between atoms: C5_6  and  C6_7 
REMARK    6  A    between atoms: C15_17  and  O3_18 
REMARK    7  A    between atoms: C28_32  and  O5_33 
REMARK    8  A    between atoms: C33_38  and  O7_40 
ROOT
HETATM    1  C6  UNL     1     -13.966  -6.813  12.316  1.00  0.00    -0.007 C 
HETATM    2  C7  UNL     1     -13.241  -7.060  13.660  1.00  0.00     0.005 C 
HETATM    3  C8  UNL     1     -11.942  -6.284  13.910  1.00  0.00     0.000 C 
HETATM    4  C9  UNL     1     -12.064  -5.108  14.879  1.00  0.00     0.001 C 
HETATM    5  C10 UNL     1     -12.788  -3.882  14.314  1.00  0.00     0.013 C 
HETATM    6  C11 UNL     1     -14.322  -4.038  14.271  1.00  0.00     0.070 C 
HETATM    7  C12 UNL     1     -14.995  -2.806  14.902  1.00  0.00     0.161 C 
HETATM    8  O2  UNL     1     -14.696  -2.512  16.061  1.00  0.00    -0.292 OA
HETATM    9  C13 UNL     1     -16.033  -1.996  14.141  1.00  0.00     0.003 C 
HETATM   10  C14 UNL     1     -16.132  -2.158  12.791  1.00  0.00    -0.029 C 
HETATM   11  C15 UNL     1     -17.193  -1.384  12.040  1.00  0.00     0.149 C 
HETATM   12  C16 UNL     1     -17.328   0.031  12.579  1.00  0.00     0.043 C 
HETATM   13  C17 UNL     1     -17.501   0.169  14.104  1.00  0.00     0.016 C 
HETATM   14  C18 UNL     1     -16.929   1.549  14.606  1.00  0.00     0.018 C 
HETATM   15  C19 UNL     1     -15.411   1.710  14.396  1.00  0.00     0.023 C 
HETATM   16  C20 UNL     1     -17.640   2.716  13.878  1.00  0.00     0.023 C 
HETATM   17  C21 UNL     1     -17.225   1.721  16.104  1.00  0.00     0.135 C 
HETATM   18  O4  UNL     1     -17.335   2.829  16.630  1.00  0.00    -0.297 OA
HETATM   19  C22 UNL     1     -17.407   0.476  16.930  1.00  0.00     0.080 C 
HETATM   20  C23 UNL     1     -16.581  -0.661  16.350  1.00  0.00     0.022 C 
HETATM   21  C24 UNL     1     -17.036  -1.105  14.926  1.00  0.00    -0.008 C 
HETATM   22  C25 UNL     1     -18.282  -2.021  15.148  1.00  0.00     0.021 C 
HETATM   23  C26 UNL     1     -15.198  -3.117  12.037  1.00  0.00     0.017 C 
HETATM   24  C27 UNL     1     -13.930  -2.269  11.731  1.00  0.00     0.023 C 
HETATM   25  C28 UNL     1     -15.680  -3.794  10.712  1.00  0.00     0.132 C 
HETATM   26  C29 UNL     1     -14.895  -5.112  10.601  1.00  0.00     0.038 C 
HETATM   27  C30 UNL     1     -14.154  -5.319  11.946  1.00  0.00     0.002 C 
HETATM   28  C31 UNL     1     -14.969  -4.407  12.922  1.00  0.00    -0.016 C 
HETATM   29  C32 UNL     1     -16.327  -5.129  13.269  1.00  0.00     0.018 C 
ENDROOT
BRANCH   1  30
HETATM   30  C5  UNL     1     -13.379  -7.704  11.174  1.00  0.00     0.040 C 
BRANCH  30  31
HETATM   31  C4  UNL     1     -14.233  -7.949   9.922  1.00  0.00     0.142 C 
BRANCH  31  32
HETATM   32  C3  UNL     1     -13.592  -7.351   8.695  1.00  0.00     0.018 C 
HETATM   33  C2  UNL     1     -14.174  -6.897   7.563  1.00  0.00     0.010 C 
HETATM   34  C1  UNL     1     -15.638  -6.975   7.241  1.00  0.00     0.055 C 
BRANCH  33  35
HETATM   35  C33 UNL     1     -13.353  -6.287   6.485  1.00  0.00     0.171 C 
HETATM   36  O6  UNL     1     -13.211  -6.740   5.362  1.00  0.00    -0.646 OA
BRANCH  35  37
HETATM   37  O7  UNL     1     -12.752  -5.138   6.837  1.00  0.00    -0.773 OA
HETATM   38  H48 UNL     1     -12.269  -4.878   6.026  1.00  0.00     0.167 HD
ENDBRANCH  35  37
ENDBRANCH  33  35
ENDBRANCH  31  32
BRANCH  31  39
HETATM   39  O1  UNL     1     -14.476  -9.330   9.727  1.00  0.00    -0.392 OA
HETATM   40  H6  UNL     1     -14.938  -9.425   8.877  1.00  0.00     0.210 HD
ENDBRANCH  31  39
ENDBRANCH  30  31
ENDBRANCH   1  30
BRANCH  25  41
HETATM   41  O5  UNL     1     -15.445  -3.031   9.537  1.00  0.00    -0.394 OA
HETATM   42  H41 UNL     1     -15.864  -2.162   9.716  1.00  0.00     0.210 HD
ENDBRANCH  25  41
BRANCH  11  43
HETATM   43  O3  UNL     1     -16.863  -1.240  10.661  1.00  0.00    -0.391 OA
HETATM   44  H20 UNL     1     -17.601  -0.761  10.241  1.00  0.00     0.210 HD
ENDBRANCH  11  43
TORSDOF 8
ENDMDL
MODEL 9
REMARK minimizedAffinity -9.02031708
REMARK CNNscore 0.342613757
REMARK CNNaffinity 6.86678123
REMARK  8 active torsions:
REMARK  status: ('A' for Active; 'I' for Inactive)
REMARK    1  A    between atoms: C2_2  and  C33_38 
REMARK    2  A    between atoms: C3_3  and  C4_4 
REMARK    3  A    between atoms: C4_4  and  O1_5 
REMARK    4  A    between atoms: C4_4  and  C5_6 
REMARK    5  A    between atoms: C5_6  and  C6_7 
REMARK    6  A    between atoms: C15_17  and  O3_18 
REMARK    7  A    between atoms: C28_32  and  O5_33 
REMARK    8  A    between atoms: C33_38  and  O7_40 
ROOT
HETATM    1  C6  UNL     1       1.153   6.824  11.930  1.00  0.00    -0.007 C 
HETATM    2  C7  UNL     1       0.843   5.666  10.953  1.00  0.00     0.005 C 
HETATM    3  C8  UNL     1       0.756   4.254  11.543  1.00  0.00     0.000 C 
HETATM    4  C9  UNL     1      -0.662   3.702  11.700  1.00  0.00     0.001 C 
HETATM    5  C10 UNL     1      -1.470   4.323  12.843  1.00  0.00     0.013 C 
HETATM    6  C11 UNL     1      -2.025   5.723  12.516  1.00  0.00     0.070 C 
HETATM    7  C12 UNL     1      -3.524   5.789  12.857  1.00  0.00     0.161 C 
HETATM    8  O2  UNL     1      -4.276   4.971  12.322  1.00  0.00    -0.292 OA
HETATM    9  C13 UNL     1      -4.078   6.857  13.787  1.00  0.00     0.003 C 
HETATM   10  C14 UNL     1      -3.213   7.552  14.578  1.00  0.00    -0.029 C 
HETATM   11  C15 UNL     1      -3.757   8.643  15.473  1.00  0.00     0.149 C 
HETATM   12  C16 UNL     1      -5.086   8.236  16.092  1.00  0.00     0.043 C 
HETATM   13  C17 UNL     1      -6.161   7.710  15.121  1.00  0.00     0.016 C 
HETATM   14  C18 UNL     1      -7.127   6.703  15.853  1.00  0.00     0.018 C 
HETATM   15  C19 UNL     1      -6.432   5.423  16.355  1.00  0.00     0.023 C 
HETATM   16  C20 UNL     1      -7.792   7.394  17.069  1.00  0.00     0.023 C 
HETATM   17  C21 UNL     1      -8.264   6.291  14.906  1.00  0.00     0.135 C 
HETATM   18  O4  UNL     1      -9.367   5.931  15.319  1.00  0.00    -0.297 OA
HETATM   19  C22 UNL     1      -8.003   6.361  13.425  1.00  0.00     0.080 C 
HETATM   20  C23 UNL     1      -6.529   6.118  13.143  1.00  0.00     0.022 C 
HETATM   21  C24 UNL     1      -5.589   7.219  13.726  1.00  0.00    -0.008 C 
HETATM   22  C25 UNL     1      -5.664   8.414  12.723  1.00  0.00     0.021 C 
HETATM   23  C26 UNL     1      -1.706   7.252  14.559  1.00  0.00     0.017 C 
HETATM   24  C27 UNL     1      -1.525   6.087  15.575  1.00  0.00     0.023 C 
HETATM   25  C28 UNL     1      -0.681   8.382  14.904  1.00  0.00     0.132 C 
HETATM   26  C29 UNL     1       0.618   8.015  14.165  1.00  0.00     0.038 C 
HETATM   27  C30 UNL     1       0.288   6.834  13.218  1.00  0.00     0.002 C 
HETATM   28  C31 UNL     1      -1.265   6.944  13.071  1.00  0.00    -0.016 C 
HETATM   29  C32 UNL     1      -1.595   8.144  12.102  1.00  0.00     0.018 C 
ENDROOT
BRANCH   1  30
HETATM   30  C5  UNL     1       2.689   6.981  12.169  1.00  0.00     0.040 C 
BRANCH  30  31
HETATM   31  C4  UNL     1       3.609   7.139  10.952  1.00  0.00     0.142 C 
BRANCH  31  32
HETATM   32  C3  UNL     1       3.821   5.821  10.249  1.00  0.00     0.018 C 
HETATM   33  C2  UNL     1       3.456   5.450   9.003  1.00  0.00     0.010 C 
HETATM   34  C1  UNL     1       2.651   6.278   8.044  1.00  0.00     0.055 C 
BRANCH  33  35
HETATM   35  C33 UNL     1       3.817   4.105   8.480  1.00  0.00     0.171 C 
HETATM   36  O6  UNL     1       3.901   3.805   7.302  1.00  0.00    -0.646 OA
BRANCH  35  37
HETATM   37  O7  UNL     1       4.069   3.195   9.436  1.00  0.00    -0.773 OA
HETATM   38  H48 UNL     1       4.290   2.389   8.926  1.00  0.00     0.167 HD
ENDBRANCH  35  37
ENDBRANCH  33  35
ENDBRANCH  31  32
BRANCH  31  39
HETATM   39  O1  UNL     1       3.106   8.103  10.046  1.00  0.00    -0.392 OA
HETATM   40  H6  UNL     1       3.679   8.090   9.261  1.00  0.00     0.210 HD
ENDBRANCH  31  39
ENDBRANCH  30  31
ENDBRANCH   1  30
BRANCH  25  41
HETATM   41  O5  UNL     1      -0.389   8.515  16.287  1.00  0.00    -0.394 OA
HETATM   42  H41 UNL     1      -1.263   8.625  16.718  1.00  0.00     0.210 HD
ENDBRANCH  25  41
BRANCH  11  43
HETATM   43  O3  UNL     1      -2.888   8.909  16.569  1.00  0.00    -0.391 OA
HETATM   44  H20 UNL     1      -3.289   9.637  17.080  1.00  0.00     0.210 HD
ENDBRANCH  11  43
TORSDOF 8
ENDMDL
