MODEL 1
REMARK minimizedAffinity -8.15105247
REMARK CNNscore 0.715792656
REMARK CNNaffinity 6.26064682
REMARK  13 active torsions:
REMARK  status: ('A' for Active; 'I' for Inactive)
REMARK    1  A    between atoms: C14_15  and  O2_16 
REMARK    2  A    between atoms: C14_15  and  C15_17 
REMARK    3  A    between atoms: C15_17  and  C16_19 
REMARK    4  A    between atoms: C16_19  and  O4_20 
REMARK    5  A    between atoms: O4_20  and  C17_21 
REMARK    6  A    between atoms: C17_21  and  C18_23 
REMARK    7  A    between atoms: C18_23  and  C19_24 
REMARK    8  A    between atoms: C19_24  and  C20_25 
REMARK       I    between atoms: C20_25  and  N1_27 
REMARK    9  A    between atoms: N1_27  and  C21_28 
REMARK   10  A    between atoms: C21_28  and  C22_29 
REMARK   11  A    between atoms: C22_29  and  C23_30 
REMARK   12  A    between atoms: C26_33  and  O7_34 
REMARK   13  A    between atoms: C27_35  and  O8_36 
ROOT
HETATM    1  C15 UNL     1       0.730  52.353 -11.698  1.00  0.00     0.185 C 
HETATM    2  O3  UNL     1      -0.057  53.124 -12.258  1.00  0.00    -0.292 OA
ENDROOT
BRANCH   1   3
HETATM    3  C14 UNL     1       0.799  52.241 -10.148  1.00  0.00     0.128 C 
HETATM    4  C13 UNL     1       2.073  51.464  -9.755  1.00  0.00     0.047 C 
HETATM    5  C12 UNL     1       3.101  52.506  -9.306  1.00  0.00     0.009 C 
HETATM    6  C11 UNL     1       2.474  53.885  -9.580  1.00  0.00     0.002 C 
HETATM    7  C10 UNL     1       3.089  54.988  -8.698  1.00  0.00     0.003 C 
HETATM    8  C29 UNL     1       0.962  53.625  -9.433  1.00  0.00     0.005 C 
HETATM    9  C9  UNL     1       3.135  56.347  -9.428  1.00  0.00     0.010 C 
HETATM   10  C33 UNL     1       2.522  55.102  -7.246  1.00  0.00     0.072 C 
HETATM   11  C8  UNL     1       3.990  57.381  -8.678  1.00  0.00     0.035 C 
HETATM   12  C7  UNL     1       4.128  57.023  -7.217  1.00  0.00    -0.067 C 
HETATM   13  C2  UNL     1       2.852  56.489  -6.561  1.00  0.00    -0.009 C 
HETATM   14  C6  UNL     1       5.325  57.073  -6.610  1.00  0.00     0.053 C 
HETATM   15  C1  UNL     1       1.739  57.561  -6.736  1.00  0.00     0.021 C 
HETATM   16  C3  UNL     1       3.054  56.332  -5.026  1.00  0.00     0.022 C 
HETATM   17  C4  UNL     1       4.397  55.735  -4.634  1.00  0.00     0.084 C 
HETATM   18  C5  UNL     1       5.528  56.519  -5.252  1.00  0.00     0.149 C 
HETATM   19  O1  UNL     1       6.625  56.627  -4.713  1.00  0.00    -0.293 OA
HETATM   20  C32 UNL     1       1.054  54.684  -7.126  1.00  0.00     0.133 C 
HETATM   21  C31 UNL     1       0.581  53.508  -7.945  1.00  0.00     0.091 C 
HETATM   22  O9  UNL     1       0.296  55.162  -6.280  1.00  0.00    -0.297 OA
HETATM   23  C30 UNL     1       0.103  54.725 -10.077  1.00  0.00     0.019 C 
BRANCH   3  24
HETATM   24  O2  UNL     1      -0.341  51.557  -9.640  1.00  0.00    -0.381 OA
HETATM   25  H19 UNL     1      -0.232  50.603  -9.820  1.00  0.00     0.211 HD
ENDBRANCH   3  24
ENDBRANCH   1   3
BRANCH   1  26
HETATM   26  C16 UNL     1       1.651  51.437 -12.511  1.00  0.00     0.260 C 
BRANCH  26  27
HETATM   27  O4  UNL     1       1.158  51.200 -13.831  1.00  0.00    -0.314 OA
BRANCH  27  28
HETATM   28  C17 UNL     1       2.054  51.527 -14.808  1.00  0.00     0.259 C 
HETATM   29  O5  UNL     1       3.185  51.946 -14.600  1.00  0.00    -0.265 OA
BRANCH  28  30
HETATM   30  C18 UNL     1       1.430  51.308 -16.163  1.00  0.00     0.120 C 
BRANCH  30  31
HETATM   31  C19 UNL     1       1.295  52.621 -16.922  1.00  0.00     0.112 C 
BRANCH  31  32
HETATM   32  C20 UNL     1       0.860  52.403 -18.358  1.00  0.00     0.218 C 
HETATM   33  O6  UNL     1       0.156  51.466 -18.715  1.00  0.00    -0.274 OA
HETATM   34  N1  UNL     1       1.294  53.399 -19.206  1.00  0.00    -0.361 N 
HETATM   35  H26 UNL     1       1.961  54.079 -18.865  1.00  0.00     0.162 HD
BRANCH  34  36
HETATM   36  C21 UNL     1       1.036  53.349 -20.634  1.00  0.00     0.127 C 
BRANCH  36  37
HETATM   37  C22 UNL     1      -0.241  52.573 -20.959  1.00  0.00     0.058 C 
BRANCH  37  38
HETATM   38  C23 UNL     1      -0.285  52.151 -22.406  1.00  0.00    -0.054 A 
HETATM   39  C24 UNL     1      -1.221  51.195 -22.839  1.00  0.00     0.010 A 
HETATM   40  C25 UNL     1      -1.283  50.812 -24.183  1.00  0.00     0.040 A 
HETATM   41  C26 UNL     1      -0.409  51.393 -25.094  1.00  0.00     0.098 A 
HETATM   42  C27 UNL     1       0.517  52.345 -24.672  1.00  0.00     0.099 A 
HETATM   43  C28 UNL     1       0.586  52.731 -23.340  1.00  0.00     0.046 A 
BRANCH  41  44
HETATM   44  O7  UNL     1      -0.419  51.060 -26.420  1.00  0.00    -0.358 OA
HETATM   45  H33 UNL     1      -1.104  50.382 -26.553  1.00  0.00     0.217 HD
ENDBRANCH  41  44
BRANCH  42  46
HETATM   46  O8  UNL     1       1.368  52.916 -25.575  1.00  0.00    -0.358 OA
HETATM   47  H34 UNL     1       1.136  52.494 -26.426  1.00  0.00     0.217 HD
ENDBRANCH  42  46
ENDBRANCH  37  38
ENDBRANCH  36  37
ENDBRANCH  34  36
ENDBRANCH  31  32
ENDBRANCH  30  31
ENDBRANCH  28  30
ENDBRANCH  27  28
ENDBRANCH  26  27
ENDBRANCH   1  26
TORSDOF 13
ENDMDL
MODEL 2
REMARK minimizedAffinity -8.63701439
REMARK CNNscore 0.714002967
REMARK CNNaffinity 6.91701841
REMARK  13 active torsions:
REMARK  status: ('A' for Active; 'I' for Inactive)
REMARK    1  A    between atoms: C14_15  and  O2_16 
REMARK    2  A    between atoms: C14_15  and  C15_17 
REMARK    3  A    between atoms: C15_17  and  C16_19 
REMARK    4  A    between atoms: C16_19  and  O4_20 
REMARK    5  A    between atoms: O4_20  and  C17_21 
REMARK    6  A    between atoms: C17_21  and  C18_23 
REMARK    7  A    between atoms: C18_23  and  C19_24 
REMARK    8  A    between atoms: C19_24  and  C20_25 
REMARK       I    between atoms: C20_25  and  N1_27 
REMARK    9  A    between atoms: N1_27  and  C21_28 
REMARK   10  A    between atoms: C21_28  and  C22_29 
REMARK   11  A    between atoms: C22_29  and  C23_30 
REMARK   12  A    between atoms: C26_33  and  O7_34 
REMARK   13  A    between atoms: C27_35  and  O8_36 
ROOT
HETATM    1  C15 UNL     1      -3.302  50.870 -11.998  1.00  0.00     0.185 C 
HETATM    2  O3  UNL     1      -3.883  50.440 -10.997  1.00  0.00    -0.292 OA
ENDROOT
BRANCH   1   3
HETATM    3  C14 UNL     1      -2.660  52.287 -12.023  1.00  0.00     0.128 C 
HETATM    4  C13 UNL     1      -3.715  53.326 -11.587  1.00  0.00     0.047 C 
HETATM    5  C12 UNL     1      -3.412  53.672 -10.127  1.00  0.00     0.009 C 
HETATM    6  C11 UNL     1      -2.280  52.728  -9.679  1.00  0.00     0.002 C 
HETATM    7  C10 UNL     1      -1.487  53.297  -8.488  1.00  0.00     0.003 C 
HETATM    8  C29 UNL     1      -1.503  52.462 -10.982  1.00  0.00     0.005 C 
HETATM    9  C9  UNL     1      -0.982  52.180  -7.550  1.00  0.00     0.010 C 
HETATM   10  C33 UNL     1      -0.377  54.340  -8.837  1.00  0.00     0.072 C 
HETATM   11  C8  UNL     1      -0.436  52.737  -6.225  1.00  0.00     0.035 C 
HETATM   12  C7  UNL     1      -0.038  54.188  -6.361  1.00  0.00    -0.067 C 
HETATM   13  C2  UNL     1       0.672  54.541  -7.671  1.00  0.00    -0.009 C 
HETATM   14  C6  UNL     1      -0.404  55.088  -5.433  1.00  0.00     0.053 C 
HETATM   15  C1  UNL     1       1.932  53.638  -7.790  1.00  0.00     0.021 C 
HETATM   16  C3  UNL     1       1.200  56.005  -7.625  1.00  0.00     0.022 C 
HETATM   17  C4  UNL     1       0.222  56.999  -7.018  1.00  0.00     0.084 C 
HETATM   18  C5  UNL     1      -0.223  56.541  -5.652  1.00  0.00     0.149 C 
HETATM   19  O1  UNL     1      -0.525  57.328  -4.759  1.00  0.00    -0.293 OA
HETATM   20  C32 UNL     1       0.260  54.121 -10.212  1.00  0.00     0.133 C 
HETATM   21  C31 UNL     1      -0.633  53.680 -11.346  1.00  0.00     0.091 C 
HETATM   22  O9  UNL     1       1.424  54.441 -10.462  1.00  0.00    -0.297 OA
HETATM   23  C30 UNL     1      -0.599  51.221 -10.894  1.00  0.00     0.019 C 
BRANCH   3  24
HETATM   24  O2  UNL     1      -2.199  52.610 -13.330  1.00  0.00    -0.381 OA
HETATM   25  H19 UNL     1      -2.973  52.836 -13.882  1.00  0.00     0.211 HD
ENDBRANCH   3  24
ENDBRANCH   1   3
BRANCH   1  26
HETATM   26  C16 UNL     1      -3.149  50.008 -13.255  1.00  0.00     0.260 C 
BRANCH  26  27
HETATM   27  O4  UNL     1      -1.801  49.964 -13.727  1.00  0.00    -0.314 OA
BRANCH  27  28
HETATM   28  C17 UNL     1      -1.705  49.696 -15.062  1.00  0.00     0.259 C 
HETATM   29  O5  UNL     1      -0.853  48.976 -15.566  1.00  0.00    -0.265 OA
BRANCH  28  30
HETATM   30  C18 UNL     1      -2.790  50.433 -15.807  1.00  0.00     0.120 C 
BRANCH  30  31
HETATM   31  C19 UNL     1      -3.137  49.726 -17.110  1.00  0.00     0.112 C 
BRANCH  31  32
HETATM   32  C20 UNL     1      -2.862  50.598 -18.319  1.00  0.00     0.218 C 
HETATM   33  O6  UNL     1      -2.682  51.808 -18.251  1.00  0.00    -0.274 OA
HETATM   34  N1  UNL     1      -2.783  49.879 -19.491  1.00  0.00    -0.361 N 
HETATM   35  H26 UNL     1      -3.050  48.903 -19.489  1.00  0.00     0.162 HD
BRANCH  34  36
HETATM   36  C21 UNL     1      -2.585  50.531 -20.773  1.00  0.00     0.127 C 
BRANCH  36  37
HETATM   37  C22 UNL     1      -1.217  50.207 -21.376  1.00  0.00     0.058 C 
BRANCH  37  38
HETATM   38  C23 UNL     1      -0.354  51.439 -21.496  1.00  0.00    -0.054 A 
HETATM   39  C24 UNL     1      -0.084  51.997 -22.757  1.00  0.00     0.010 A 
HETATM   40  C25 UNL     1       0.698  53.150 -22.877  1.00  0.00     0.040 A 
HETATM   41  C26 UNL     1       1.206  53.746 -21.729  1.00  0.00     0.098 A 
HETATM   42  C27 UNL     1       0.937  53.201 -20.475  1.00  0.00     0.099 A 
HETATM   43  C28 UNL     1       0.163  52.056 -20.347  1.00  0.00     0.046 A 
BRANCH  41  44
HETATM   44  O7  UNL     1       1.979  54.874 -21.780  1.00  0.00    -0.358 OA
HETATM   45  H33 UNL     1       2.085  55.122 -22.715  1.00  0.00     0.217 HD
ENDBRANCH  41  44
BRANCH  42  46
HETATM   46  O8  UNL     1       1.435  53.796 -19.351  1.00  0.00    -0.358 OA
HETATM   47  H34 UNL     1       1.937  54.566 -19.688  1.00  0.00     0.217 HD
ENDBRANCH  42  46
ENDBRANCH  37  38
ENDBRANCH  36  37
ENDBRANCH  34  36
ENDBRANCH  31  32
ENDBRANCH  30  31
ENDBRANCH  28  30
ENDBRANCH  27  28
ENDBRANCH  26  27
ENDBRANCH   1  26
TORSDOF 13
ENDMDL
MODEL 3
REMARK minimizedAffinity -9.42325974
REMARK CNNscore 0.687915206
REMARK CNNaffinity 6.51421881
REMARK  13 active torsions:
REMARK  status: ('A' for Active; 'I' for Inactive)
REMARK    1  A    between atoms: C14_15  and  O2_16 
REMARK    2  A    between atoms: C14_15  and  C15_17 
REMARK    3  A    between atoms: C15_17  and  C16_19 
REMARK    4  A    between atoms: C16_19  and  O4_20 
REMARK    5  A    between atoms: O4_20  and  C17_21 
REMARK    6  A    between atoms: C17_21  and  C18_23 
REMARK    7  A    between atoms: C18_23  and  C19_24 
REMARK    8  A    between atoms: C19_24  and  C20_25 
REMARK       I    between atoms: C20_25  and  N1_27 
REMARK    9  A    between atoms: N1_27  and  C21_28 
REMARK   10  A    between atoms: C21_28  and  C22_29 
REMARK   11  A    between atoms: C22_29  and  C23_30 
REMARK   12  A    between atoms: C26_33  and  O7_34 
REMARK   13  A    between atoms: C27_35  and  O8_36 
ROOT
HETATM    1  C15 UNL     1      -8.174  47.093 -29.686  1.00  0.00     0.185 C 
HETATM    2  O3  UNL     1      -7.812  46.002 -30.137  1.00  0.00    -0.292 OA
ENDROOT
BRANCH   1   3
HETATM    3  C14 UNL     1      -9.657  47.556 -29.763  1.00  0.00     0.128 C 
HETATM    4  C13 UNL     1     -10.281  47.035 -31.075  1.00  0.00     0.047 C 
HETATM    5  C12 UNL     1     -11.120  45.809 -30.704  1.00  0.00     0.009 C 
HETATM    6  C11 UNL     1     -10.862  45.538 -29.210  1.00  0.00     0.002 C 
HETATM    7  C10 UNL     1     -12.010  44.744 -28.558  1.00  0.00     0.003 C 
HETATM    8  C29 UNL     1     -10.558  46.937 -28.642  1.00  0.00     0.005 C 
HETATM    9  C9  UNL     1     -11.498  43.803 -27.448  1.00  0.00     0.010 C 
HETATM   10  C33 UNL     1     -13.255  45.578 -28.115  1.00  0.00     0.072 C 
HETATM   11  C8  UNL     1     -12.577  42.811 -26.983  1.00  0.00     0.035 C 
HETATM   12  C7  UNL     1     -13.963  43.316 -27.309  1.00  0.00    -0.067 C 
HETATM   13  C2  UNL     1     -14.174  44.815 -27.078  1.00  0.00    -0.009 C 
HETATM   14  C6  UNL     1     -14.874  42.501 -27.868  1.00  0.00     0.053 C 
HETATM   15  C1  UNL     1     -13.840  45.121 -25.591  1.00  0.00     0.021 C 
HETATM   16  C3  UNL     1     -15.674  45.188 -27.264  1.00  0.00     0.022 C 
HETATM   17  C4  UNL     1     -16.337  44.518 -28.457  1.00  0.00     0.084 C 
HETATM   18  C5  UNL     1     -16.154  43.023 -28.398  1.00  0.00     0.149 C 
HETATM   19  O1  UNL     1     -16.981  42.239 -28.857  1.00  0.00    -0.293 OA
HETATM   20  C32 UNL     1     -12.918  47.014 -27.704  1.00  0.00     0.133 C 
HETATM   21  C31 UNL     1     -11.859  47.748 -28.490  1.00  0.00     0.091 C 
HETATM   22  O9  UNL     1     -13.580  47.638 -26.872  1.00  0.00    -0.297 OA
HETATM   23  C30 UNL     1      -9.850  46.885 -27.279  1.00  0.00     0.019 C 
BRANCH   3  24
HETATM   24  O2  UNL     1      -9.745  48.976 -29.736  1.00  0.00    -0.381 OA
HETATM   25  H19 UNL     1      -9.483  49.317 -30.614  1.00  0.00     0.211 HD
ENDBRANCH   3  24
ENDBRANCH   1   3
BRANCH   1  26
HETATM   26  C16 UNL     1      -7.181  48.029 -28.989  1.00  0.00     0.260 C 
BRANCH  26  27
HETATM   27  O4  UNL     1      -5.925  47.398 -28.730  1.00  0.00    -0.314 OA
BRANCH  27  28
HETATM   28  C17 UNL     1      -4.917  48.284 -28.481  1.00  0.00     0.259 C 
HETATM   29  O5  UNL     1      -4.341  48.939 -29.340  1.00  0.00    -0.265 OA
BRANCH  28  30
HETATM   30  C18 UNL     1      -4.621  48.314 -27.002  1.00  0.00     0.120 C 
BRANCH  30  31
HETATM   31  C19 UNL     1      -3.148  48.601 -26.745  1.00  0.00     0.112 C 
BRANCH  31  32
HETATM   32  C20 UNL     1      -2.947  49.898 -25.986  1.00  0.00     0.218 C 
HETATM   33  O6  UNL     1      -3.274  50.994 -26.425  1.00  0.00    -0.274 OA
HETATM   34  N1  UNL     1      -2.409  49.706 -24.732  1.00  0.00    -0.361 N 
HETATM   35  H26 UNL     1      -2.063  48.789 -24.480  1.00  0.00     0.162 HD
BRANCH  34  36
HETATM   36  C21 UNL     1      -2.083  50.824 -23.865  1.00  0.00     0.127 C 
BRANCH  36  37
HETATM   37  C22 UNL     1      -0.671  51.355 -24.122  1.00  0.00     0.058 C 
BRANCH  37  38
HETATM   38  C23 UNL     1      -0.126  52.094 -22.926  1.00  0.00    -0.054 A 
HETATM   39  C24 UNL     1      -0.372  51.619 -21.625  1.00  0.00     0.010 A 
HETATM   40  C25 UNL     1       0.147  52.287 -20.510  1.00  0.00     0.040 A 
HETATM   41  C26 UNL     1       0.916  53.428 -20.701  1.00  0.00     0.098 A 
HETATM   42  C27 UNL     1       1.167  53.900 -21.988  1.00  0.00     0.099 A 
HETATM   43  C28 UNL     1       0.656  53.245 -23.100  1.00  0.00     0.046 A 
BRANCH  41  44
HETATM   44  O7  UNL     1       1.449  54.126 -19.653  1.00  0.00    -0.358 OA
HETATM   45  H33 UNL     1       1.177  53.683 -18.830  1.00  0.00     0.217 HD
ENDBRANCH  41  44
BRANCH  42  46
HETATM   46  O8  UNL     1       1.929  55.020 -22.167  1.00  0.00    -0.358 OA
HETATM   47  H34 UNL     1       2.168  55.297 -21.260  1.00  0.00     0.217 HD
ENDBRANCH  42  46
ENDBRANCH  37  38
ENDBRANCH  36  37
ENDBRANCH  34  36
ENDBRANCH  31  32
ENDBRANCH  30  31
ENDBRANCH  28  30
ENDBRANCH  27  28
ENDBRANCH  26  27
ENDBRANCH   1  26
TORSDOF 13
ENDMDL
MODEL 4
REMARK minimizedAffinity -9.14684677
REMARK CNNscore 0.642470479
REMARK CNNaffinity 6.89102173
REMARK  13 active torsions:
REMARK  status: ('A' for Active; 'I' for Inactive)
REMARK    1  A    between atoms: C14_15  and  O2_16 
REMARK    2  A    between atoms: C14_15  and  C15_17 
REMARK    3  A    between atoms: C15_17  and  C16_19 
REMARK    4  A    between atoms: C16_19  and  O4_20 
REMARK    5  A    between atoms: O4_20  and  C17_21 
REMARK    6  A    between atoms: C17_21  and  C18_23 
REMARK    7  A    between atoms: C18_23  and  C19_24 
REMARK    8  A    between atoms: C19_24  and  C20_25 
REMARK       I    between atoms: C20_25  and  N1_27 
REMARK    9  A    between atoms: N1_27  and  C21_28 
REMARK   10  A    between atoms: C21_28  and  C22_29 
REMARK   11  A    between atoms: C22_29  and  C23_30 
REMARK   12  A    between atoms: C26_33  and  O7_34 
REMARK   13  A    between atoms: C27_35  and  O8_36 
ROOT
HETATM    1  C15 UNL     1      -5.456  47.799 -29.666  1.00  0.00     0.185 C 
HETATM    2  O3  UNL     1      -4.666  47.417 -30.536  1.00  0.00    -0.292 OA
ENDROOT
BRANCH   1   3
HETATM    3  C14 UNL     1      -6.980  47.932 -29.950  1.00  0.00     0.128 C 
HETATM    4  C13 UNL     1      -7.187  48.854 -31.171  1.00  0.00     0.047 C 
HETATM    5  C12 UNL     1      -7.470  47.942 -32.366  1.00  0.00     0.009 C 
HETATM    6  C11 UNL     1      -7.280  46.496 -31.869  1.00  0.00     0.002 C 
HETATM    7  C10 UNL     1      -8.052  45.480 -32.731  1.00  0.00     0.003 C 
HETATM    8  C29 UNL     1      -7.651  46.582 -30.376  1.00  0.00     0.005 C 
HETATM    9  C9  UNL     1      -7.311  44.129 -32.825  1.00  0.00     0.010 C 
HETATM   10  C33 UNL     1      -9.570  45.314 -32.402  1.00  0.00     0.072 C 
HETATM   11  C8  UNL     1      -7.918  43.207 -33.895  1.00  0.00     0.035 C 
HETATM   12  C7  UNL     1      -9.346  43.591 -34.205  1.00  0.00    -0.067 C 
HETATM   13  C2  UNL     1     -10.188  43.981 -32.987  1.00  0.00    -0.009 C 
HETATM   14  C6  UNL     1      -9.768  43.685 -35.477  1.00  0.00     0.053 C 
HETATM   15  C1  UNL     1     -10.171  42.786 -31.992  1.00  0.00     0.021 C 
HETATM   16  C3  UNL     1     -11.678  44.174 -33.395  1.00  0.00     0.022 C 
HETATM   17  C4  UNL     1     -11.871  44.925 -34.704  1.00  0.00     0.084 C 
HETATM   18  C5  UNL     1     -11.086  44.271 -35.813  1.00  0.00     0.149 C 
HETATM   19  O1  UNL     1     -11.456  44.295 -36.984  1.00  0.00    -0.293 OA
HETATM   20  C32 UNL     1      -9.911  45.561 -30.930  1.00  0.00     0.133 C 
HETATM   21  C31 UNL     1      -9.180  46.667 -30.208  1.00  0.00     0.091 C 
HETATM   22  O9  UNL     1     -10.856  45.007 -30.366  1.00  0.00    -0.297 OA
HETATM   23  C30 UNL     1      -7.133  45.385 -29.564  1.00  0.00     0.019 C 
BRANCH   3  24
HETATM   24  O2  UNL     1      -7.656  48.485 -28.828  1.00  0.00    -0.381 OA
HETATM   25  H19 UNL     1      -7.471  49.443 -28.798  1.00  0.00     0.211 HD
ENDBRANCH   3  24
ENDBRANCH   1   3
BRANCH   1  26
HETATM   26  C16 UNL     1      -4.975  48.120 -28.248  1.00  0.00     0.260 C 
BRANCH  26  27
HETATM   27  O4  UNL     1      -3.550  48.110 -28.139  1.00  0.00    -0.314 OA
BRANCH  27  28
HETATM   28  C17 UNL     1      -3.077  48.957 -27.178  1.00  0.00     0.259 C 
HETATM   29  O5  UNL     1      -2.467  48.601 -26.179  1.00  0.00    -0.265 OA
BRANCH  28  30
HETATM   30  C18 UNL     1      -3.436  50.379 -27.533  1.00  0.00     0.120 C 
BRANCH  30  31
HETATM   31  C19 UNL     1      -2.186  51.227 -27.727  1.00  0.00     0.112 C 
BRANCH  31  32
HETATM   32  C20 UNL     1      -1.821  51.993 -26.471  1.00  0.00     0.218 C 
HETATM   33  O6  UNL     1      -1.122  52.999 -26.472  1.00  0.00    -0.274 OA
HETATM   34  N1  UNL     1      -2.402  51.469 -25.337  1.00  0.00    -0.361 N 
HETATM   35  H26 UNL     1      -2.876  50.576 -25.394  1.00  0.00     0.162 HD
BRANCH  34  36
HETATM   36  C21 UNL     1      -2.134  52.018 -24.020  1.00  0.00     0.127 C 
BRANCH  36  37
HETATM   37  C22 UNL     1      -1.187  51.129 -23.211  1.00  0.00     0.058 C 
BRANCH  37  38
HETATM   38  C23 UNL     1      -0.386  51.929 -22.214  1.00  0.00    -0.054 A 
HETATM   39  C24 UNL     1      -0.376  51.565 -20.856  1.00  0.00     0.010 A 
HETATM   40  C25 UNL     1       0.380  52.289 -19.927  1.00  0.00     0.040 A 
HETATM   41  C26 UNL     1       1.129  53.376 -20.363  1.00  0.00     0.098 A 
HETATM   42  C27 UNL     1       1.127  53.737 -21.708  1.00  0.00     0.099 A 
HETATM   43  C28 UNL     1       0.380  53.026 -22.636  1.00  0.00     0.046 A 
BRANCH  41  44
HETATM   44  O7  UNL     1       1.887  54.123 -19.504  1.00  0.00    -0.358 OA
HETATM   45  H33 UNL     1       1.775  53.756 -18.610  1.00  0.00     0.217 HD
ENDBRANCH  41  44
BRANCH  42  46
HETATM   46  O8  UNL     1       1.871  54.803 -22.129  1.00  0.00    -0.358 OA
HETATM   47  H34 UNL     1       2.298  55.136 -21.315  1.00  0.00     0.217 HD
ENDBRANCH  42  46
ENDBRANCH  37  38
ENDBRANCH  36  37
ENDBRANCH  34  36
ENDBRANCH  31  32
ENDBRANCH  30  31
ENDBRANCH  28  30
ENDBRANCH  27  28
ENDBRANCH  26  27
ENDBRANCH   1  26
TORSDOF 13
ENDMDL
MODEL 5
REMARK minimizedAffinity -8.25283623
REMARK CNNscore 0.570045292
REMARK CNNaffinity 6.36116171
REMARK  13 active torsions:
REMARK  status: ('A' for Active; 'I' for Inactive)
REMARK    1  A    between atoms: C14_15  and  O2_16 
REMARK    2  A    between atoms: C14_15  and  C15_17 
REMARK    3  A    between atoms: C15_17  and  C16_19 
REMARK    4  A    between atoms: C16_19  and  O4_20 
REMARK    5  A    between atoms: O4_20  and  C17_21 
REMARK    6  A    between atoms: C17_21  and  C18_23 
REMARK    7  A    between atoms: C18_23  and  C19_24 
REMARK    8  A    between atoms: C19_24  and  C20_25 
REMARK       I    between atoms: C20_25  and  N1_27 
REMARK    9  A    between atoms: N1_27  and  C21_28 
REMARK   10  A    between atoms: C21_28  and  C22_29 
REMARK   11  A    between atoms: C22_29  and  C23_30 
REMARK   12  A    between atoms: C26_33  and  O7_34 
REMARK   13  A    between atoms: C27_35  and  O8_36 
ROOT
HETATM    1  C15 UNL     1      -7.174  47.550 -24.362  1.00  0.00     0.185 C 
HETATM    2  O3  UNL     1      -7.231  46.509 -23.700  1.00  0.00    -0.292 OA
ENDROOT
BRANCH   1   3
HETATM    3  C14 UNL     1      -6.889  48.927 -23.695  1.00  0.00     0.128 C 
HETATM    4  C13 UNL     1      -7.392  48.893 -22.236  1.00  0.00     0.047 C 
HETATM    5  C12 UNL     1      -6.160  48.682 -21.353  1.00  0.00     0.009 C 
HETATM    6  C11 UNL     1      -4.973  48.446 -22.306  1.00  0.00     0.002 C 
HETATM    7  C10 UNL     1      -3.622  48.780 -21.645  1.00  0.00     0.003 C 
HETATM    8  C29 UNL     1      -5.362  49.247 -23.563  1.00  0.00     0.005 C 
HETATM    9  C9  UNL     1      -2.492  47.863 -22.157  1.00  0.00     0.010 C 
HETATM   10  C33 UNL     1      -3.218  50.290 -21.636  1.00  0.00     0.072 C 
HETATM   11  C8  UNL     1      -1.212  47.994 -21.315  1.00  0.00     0.035 C 
HETATM   12  C7  UNL     1      -1.178  49.307 -20.568  1.00  0.00    -0.067 C 
HETATM   13  C2  UNL     1      -1.676  50.515 -21.366  1.00  0.00    -0.009 C 
HETATM   14  C6  UNL     1      -0.840  49.346 -19.268  1.00  0.00     0.053 C 
HETATM   15  C1  UNL     1      -0.817  50.623 -22.657  1.00  0.00     0.021 C 
HETATM   16  C3  UNL     1      -1.423  51.831 -20.574  1.00  0.00     0.022 C 
HETATM   17  C4  UNL     1      -1.744  51.735 -19.090  1.00  0.00     0.084 C 
HETATM   18  C5  UNL     1      -1.013  50.576 -18.462  1.00  0.00     0.149 C 
HETATM   19  O1  UNL     1      -0.648  50.585 -17.289  1.00  0.00    -0.293 OA
HETATM   20  C32 UNL     1      -3.759  51.078 -22.831  1.00  0.00     0.133 C 
HETATM   21  C31 UNL     1      -5.149  50.754 -23.325  1.00  0.00     0.091 C 
HETATM   22  O9  UNL     1      -3.177  52.059 -23.297  1.00  0.00    -0.297 OA
HETATM   23  C30 UNL     1      -4.563  48.828 -24.807  1.00  0.00     0.019 C 
BRANCH   3  24
HETATM   24  O2  UNL     1      -7.553  49.974 -24.394  1.00  0.00    -0.381 OA
HETATM   25  H19 UNL     1      -8.502  49.941 -24.166  1.00  0.00     0.211 HD
ENDBRANCH   3  24
ENDBRANCH   1   3
BRANCH   1  26
HETATM   26  C16 UNL     1      -7.340  47.529 -25.885  1.00  0.00     0.260 C 
BRANCH  26  27
HETATM   27  O4  UNL     1      -8.669  47.859 -26.294  1.00  0.00    -0.314 OA
BRANCH  27  28
HETATM   28  C17 UNL     1      -8.817  47.916 -27.650  1.00  0.00     0.259 C 
HETATM   29  O5  UNL     1      -7.913  48.164 -28.437  1.00  0.00    -0.265 OA
BRANCH  28  30
HETATM   30  C18 UNL     1     -10.255  47.645 -28.016  1.00  0.00     0.120 C 
BRANCH  30  31
HETATM   31  C19 UNL     1     -10.735  46.331 -27.414  1.00  0.00     0.112 C 
BRANCH  31  32
HETATM   32  C20 UNL     1     -12.247  46.265 -27.330  1.00  0.00     0.218 C 
HETATM   33  O6  UNL     1     -12.992  46.974 -27.996  1.00  0.00    -0.274 OA
HETATM   34  N1  UNL     1     -12.693  45.288 -26.466  1.00  0.00    -0.361 N 
HETATM   35  H26 UNL     1     -12.025  44.817 -25.869  1.00  0.00     0.162 HD
BRANCH  34  36
HETATM   36  C21 UNL     1     -14.106  45.099 -26.195  1.00  0.00     0.127 C 
BRANCH  36  37
HETATM   37  C22 UNL     1     -14.646  46.141 -25.214  1.00  0.00     0.058 C 
BRANCH  37  38
HETATM   38  C23 UNL     1     -16.155  46.164 -25.197  1.00  0.00    -0.054 A 
HETATM   39  C24 UNL     1     -16.844  46.758 -24.125  1.00  0.00     0.010 A 
HETATM   40  C25 UNL     1     -18.242  46.801 -24.110  1.00  0.00     0.040 A 
HETATM   41  C26 UNL     1     -18.948  46.253 -25.175  1.00  0.00     0.098 A 
HETATM   42  C27 UNL     1     -18.270  45.669 -26.242  1.00  0.00     0.099 A 
HETATM   43  C28 UNL     1     -16.883  45.620 -26.265  1.00  0.00     0.046 A 
BRANCH  41  44
HETATM   44  O7  UNL     1     -20.315  46.263 -25.218  1.00  0.00    -0.358 OA
HETATM   45  H33 UNL     1     -20.637  46.690 -24.405  1.00  0.00     0.217 HD
ENDBRANCH  41  44
BRANCH  42  46
HETATM   46  O8  UNL     1     -18.972  45.138 -27.287  1.00  0.00    -0.358 OA
HETATM   47  H34 UNL     1     -19.909  45.287 -27.049  1.00  0.00     0.217 HD
ENDBRANCH  42  46
ENDBRANCH  37  38
ENDBRANCH  36  37
ENDBRANCH  34  36
ENDBRANCH  31  32
ENDBRANCH  30  31
ENDBRANCH  28  30
ENDBRANCH  27  28
ENDBRANCH  26  27
ENDBRANCH   1  26
TORSDOF 13
ENDMDL
MODEL 6
REMARK minimizedAffinity -8.69864464
REMARK CNNscore 0.567487478
REMARK CNNaffinity 7.09405708
REMARK  13 active torsions:
REMARK  status: ('A' for Active; 'I' for Inactive)
REMARK    1  A    between atoms: C14_15  and  O2_16 
REMARK    2  A    between atoms: C14_15  and  C15_17 
REMARK    3  A    between atoms: C15_17  and  C16_19 
REMARK    4  A    between atoms: C16_19  and  O4_20 
REMARK    5  A    between atoms: O4_20  and  C17_21 
REMARK    6  A    between atoms: C17_21  and  C18_23 
REMARK    7  A    between atoms: C18_23  and  C19_24 
REMARK    8  A    between atoms: C19_24  and  C20_25 
REMARK       I    between atoms: C20_25  and  N1_27 
REMARK    9  A    between atoms: N1_27  and  C21_28 
REMARK   10  A    between atoms: C21_28  and  C22_29 
REMARK   11  A    between atoms: C22_29  and  C23_30 
REMARK   12  A    between atoms: C26_33  and  O7_34 
REMARK   13  A    between atoms: C27_35  and  O8_36 
ROOT
HETATM    1  C15 UNL     1      -3.921  46.910 -19.311  1.00  0.00     0.185 C 
HETATM    2  O3  UNL     1      -4.851  46.579 -20.054  1.00  0.00    -0.292 OA
ENDROOT
BRANCH   1   3
HETATM    3  C14 UNL     1      -3.137  48.237 -19.526  1.00  0.00     0.128 C 
HETATM    4  C13 UNL     1      -1.642  47.913 -19.726  1.00  0.00     0.047 C 
HETATM    5  C12 UNL     1      -1.372  47.998 -21.229  1.00  0.00     0.009 C 
HETATM    6  C11 UNL     1      -2.736  48.224 -21.907  1.00  0.00     0.002 C 
HETATM    7  C10 UNL     1      -2.594  48.885 -23.292  1.00  0.00     0.003 C 
HETATM    8  C29 UNL     1      -3.541  48.989 -20.840  1.00  0.00     0.005 C 
HETATM    9  C9  UNL     1      -3.687  48.405 -24.270  1.00  0.00     0.010 C 
HETATM   10  C33 UNL     1      -2.418  50.437 -23.297  1.00  0.00     0.072 C 
HETATM   11  C8  UNL     1      -3.399  48.833 -25.718  1.00  0.00     0.035 C 
HETATM   12  C7  UNL     1      -2.461  50.017 -25.764  1.00  0.00    -0.067 C 
HETATM   13  C2  UNL     1      -2.724  51.090 -24.705  1.00  0.00    -0.009 C 
HETATM   14  C6  UNL     1      -1.417  50.030 -26.610  1.00  0.00     0.053 C 
HETATM   15  C1  UNL     1      -4.191  51.577 -24.871  1.00  0.00     0.021 C 
HETATM   16  C3  UNL     1      -1.830  52.338 -24.960  1.00  0.00     0.022 C 
HETATM   17  C4  UNL     1      -0.395  52.006 -25.343  1.00  0.00     0.084 C 
HETATM   18  C5  UNL     1      -0.363  51.066 -26.521  1.00  0.00     0.149 C 
HETATM   19  O1  UNL     1       0.550  51.071 -27.343  1.00  0.00    -0.293 OA
HETATM   20  C32 UNL     1      -3.112  51.138 -22.125  1.00  0.00     0.133 C 
HETATM   21  C31 UNL     1      -3.087  50.460 -20.777  1.00  0.00     0.091 C 
HETATM   22  O9  UNL     1      -3.544  52.289 -22.203  1.00  0.00    -0.297 OA
HETATM   23  C30 UNL     1      -5.056  48.952 -21.096  1.00  0.00     0.019 C 
BRANCH   3  24
HETATM   24  O2  UNL     1      -3.283  49.098 -18.403  1.00  0.00    -0.381 OA
HETATM   25  H19 UNL     1      -2.719  48.758 -17.681  1.00  0.00     0.211 HD
ENDBRANCH   3  24
ENDBRANCH   1   3
BRANCH   1  26
HETATM   26  C16 UNL     1      -3.522  46.046 -18.110  1.00  0.00     0.260 C 
BRANCH  26  27
HETATM   27  O4  UNL     1      -3.761  46.700 -16.863  1.00  0.00    -0.314 OA
BRANCH  27  28
HETATM   28  C17 UNL     1      -2.895  46.318 -15.879  1.00  0.00     0.259 C 
HETATM   29  O5  UNL     1      -2.904  45.222 -15.334  1.00  0.00    -0.265 OA
BRANCH  28  30
HETATM   30  C18 UNL     1      -1.951  47.452 -15.565  1.00  0.00     0.120 C 
BRANCH  30  31
HETATM   31  C19 UNL     1      -2.680  48.596 -14.873  1.00  0.00     0.112 C 
BRANCH  31  32
HETATM   32  C20 UNL     1      -2.092  49.944 -15.237  1.00  0.00     0.218 C 
HETATM   33  O6  UNL     1      -2.691  50.786 -15.895  1.00  0.00    -0.274 OA
HETATM   34  N1  UNL     1      -0.837  50.142 -14.703  1.00  0.00    -0.361 N 
HETATM   35  H26 UNL     1      -0.360  49.365 -14.265  1.00  0.00     0.162 HD
BRANCH  34  36
HETATM   36  C21 UNL     1      -0.073  51.345 -14.981  1.00  0.00     0.127 C 
BRANCH  36  37
HETATM   37  C22 UNL     1       1.105  51.072 -15.919  1.00  0.00     0.058 C 
BRANCH  37  38
HETATM   38  C23 UNL     1       0.798  51.488 -17.336  1.00  0.00    -0.054 A 
HETATM   39  C24 UNL     1      -0.033  50.693 -18.145  1.00  0.00     0.010 A 
HETATM   40  C25 UNL     1      -0.340  51.080 -19.454  1.00  0.00     0.040 A 
HETATM   41  C26 UNL     1       0.184  52.269 -19.949  1.00  0.00     0.098 A 
HETATM   42  C27 UNL     1       1.003  53.063 -19.149  1.00  0.00     0.099 A 
HETATM   43  C28 UNL     1       1.313  52.686 -17.850  1.00  0.00     0.046 A 
BRANCH  41  44
HETATM   44  O7  UNL     1      -0.078  52.702 -21.219  1.00  0.00    -0.358 OA
HETATM   45  H33 UNL     1      -0.647  52.040 -21.649  1.00  0.00     0.217 HD
ENDBRANCH  41  44
BRANCH  42  46
HETATM   46  O8  UNL     1       1.509  54.233 -19.641  1.00  0.00    -0.358 OA
HETATM   47  H34 UNL     1       1.161  54.282 -20.554  1.00  0.00     0.217 HD
ENDBRANCH  42  46
ENDBRANCH  37  38
ENDBRANCH  36  37
ENDBRANCH  34  36
ENDBRANCH  31  32
ENDBRANCH  30  31
ENDBRANCH  28  30
ENDBRANCH  27  28
ENDBRANCH  26  27
ENDBRANCH   1  26
TORSDOF 13
ENDMDL
MODEL 7
REMARK minimizedAffinity -9.39573002
REMARK CNNscore 0.534481883
REMARK CNNaffinity 7.00175238
REMARK  13 active torsions:
REMARK  status: ('A' for Active; 'I' for Inactive)
REMARK    1  A    between atoms: C14_15  and  O2_16 
REMARK    2  A    between atoms: C14_15  and  C15_17 
REMARK    3  A    between atoms: C15_17  and  C16_19 
REMARK    4  A    between atoms: C16_19  and  O4_20 
REMARK    5  A    between atoms: O4_20  and  C17_21 
REMARK    6  A    between atoms: C17_21  and  C18_23 
REMARK    7  A    between atoms: C18_23  and  C19_24 
REMARK    8  A    between atoms: C19_24  and  C20_25 
REMARK       I    between atoms: C20_25  and  N1_27 
REMARK    9  A    between atoms: N1_27  and  C21_28 
REMARK   10  A    between atoms: C21_28  and  C22_29 
REMARK   11  A    between atoms: C22_29  and  C23_30 
REMARK   12  A    between atoms: C26_33  and  O7_34 
REMARK   13  A    between atoms: C27_35  and  O8_36 
ROOT
HETATM    1  C15 UNL     1      -2.719  50.918 -22.237  1.00  0.00     0.185 C 
HETATM    2  O3  UNL     1      -2.699  52.089 -22.629  1.00  0.00    -0.292 OA
ENDROOT
BRANCH   1   3
HETATM    3  C14 UNL     1      -2.965  49.734 -23.217  1.00  0.00     0.128 C 
HETATM    4  C13 UNL     1      -2.442  48.431 -22.575  1.00  0.00     0.047 C 
HETATM    5  C12 UNL     1      -3.665  47.688 -22.033  1.00  0.00     0.009 C 
HETATM    6  C11 UNL     1      -4.870  48.627 -22.229  1.00  0.00     0.002 C 
HETATM    7  C10 UNL     1      -6.204  47.857 -22.278  1.00  0.00     0.003 C 
HETATM    8  C29 UNL     1      -4.483  49.448 -23.474  1.00  0.00     0.005 C 
HETATM    9  C9  UNL     1      -7.361  48.678 -21.671  1.00  0.00     0.010 C 
HETATM   10  C33 UNL     1      -6.575  47.215 -23.653  1.00  0.00     0.072 C 
HETATM   11  C8  UNL     1      -8.626  47.830 -21.458  1.00  0.00     0.035 C 
HETATM   12  C7  UNL     1      -8.621  46.606 -22.344  1.00  0.00    -0.067 C 
HETATM   13  C2  UNL     1      -8.109  46.842 -23.767  1.00  0.00    -0.009 C 
HETATM   14  C6  UNL     1      -8.939  45.399 -21.845  1.00  0.00     0.053 C 
HETATM   15  C1  UNL     1      -8.984  47.953 -24.412  1.00  0.00     0.021 C 
HETATM   16  C3  UNL     1      -8.322  45.571 -24.639  1.00  0.00     0.022 C 
HETATM   17  C4  UNL     1      -7.981  44.268 -23.933  1.00  0.00     0.084 C 
HETATM   18  C5  UNL     1      -8.727  44.160 -22.627  1.00  0.00     0.149 C 
HETATM   19  O1  UNL     1      -9.075  43.081 -22.155  1.00  0.00    -0.293 OA
HETATM   20  C32 UNL     1      -6.035  47.988 -24.859  1.00  0.00     0.133 C 
HETATM   21  C31 UNL     1      -4.660  48.602 -24.750  1.00  0.00     0.091 C 
HETATM   22  O9  UNL     1      -6.603  47.993 -25.952  1.00  0.00    -0.297 OA
HETATM   23  C30 UNL     1      -5.308  50.736 -23.619  1.00  0.00     0.019 C 
BRANCH   3  24
HETATM   24  O2  UNL     1      -2.289  49.951 -24.450  1.00  0.00    -0.381 OA
HETATM   25  H19 UNL     1      -1.337  49.779 -24.313  1.00  0.00     0.211 HD
ENDBRANCH   3  24
ENDBRANCH   1   3
BRANCH   1  26
HETATM   26  C16 UNL     1      -2.460  50.571 -20.767  1.00  0.00     0.260 C 
BRANCH  26  27
HETATM   27  O4  UNL     1      -1.072  50.374 -20.489  1.00  0.00    -0.314 OA
BRANCH  27  28
HETATM   28  C17 UNL     1      -0.673  50.936 -19.311  1.00  0.00     0.259 C 
HETATM   29  O5  UNL     1      -0.076  50.339 -18.425  1.00  0.00    -0.265 OA
BRANCH  28  30
HETATM   30  C18 UNL     1      -1.094  52.384 -19.270  1.00  0.00     0.120 C 
BRANCH  30  31
HETATM   31  C19 UNL     1       0.108  53.299 -19.079  1.00  0.00     0.112 C 
BRANCH  31  32
HETATM   32  C20 UNL     1       0.782  53.630 -20.396  1.00  0.00     0.218 C 
HETATM   33  O6  UNL     1       1.718  54.413 -20.497  1.00  0.00    -0.274 OA
HETATM   34  N1  UNL     1       0.264  52.917 -21.456  1.00  0.00    -0.361 N 
HETATM   35  H26 UNL     1      -0.578  52.373 -21.319  1.00  0.00     0.162 HD
BRANCH  34  36
HETATM   36  C21 UNL     1       0.728  53.129 -22.815  1.00  0.00     0.127 C 
BRANCH  36  37
HETATM   37  C22 UNL     1       0.560  51.878 -23.679  1.00  0.00     0.058 C 
BRANCH  37  38
HETATM   38  C23 UNL     1       0.426  52.224 -25.142  1.00  0.00    -0.054 A 
HETATM   39  C24 UNL     1       0.576  51.229 -26.123  1.00  0.00     0.010 A 
HETATM   40  C25 UNL     1       0.434  51.536 -27.481  1.00  0.00     0.040 A 
HETATM   41  C26 UNL     1       0.136  52.842 -27.852  1.00  0.00     0.098 A 
HETATM   42  C27 UNL     1      -0.019  53.831 -26.884  1.00  0.00     0.099 A 
HETATM   43  C28 UNL     1       0.121  53.535 -25.535  1.00  0.00     0.046 A 
BRANCH  41  44
HETATM   44  O7  UNL     1      -0.014  53.205 -29.162  1.00  0.00    -0.358 OA
HETATM   45  H33 UNL     1       0.135  52.415 -29.711  1.00  0.00     0.217 HD
ENDBRANCH  41  44
BRANCH  42  46
HETATM   46  O8  UNL     1      -0.318  55.110 -27.257  1.00  0.00    -0.358 OA
HETATM   47  H34 UNL     1      -0.364  55.072 -28.233  1.00  0.00     0.217 HD
ENDBRANCH  42  46
ENDBRANCH  37  38
ENDBRANCH  36  37
ENDBRANCH  34  36
ENDBRANCH  31  32
ENDBRANCH  30  31
ENDBRANCH  28  30
ENDBRANCH  27  28
ENDBRANCH  26  27
ENDBRANCH   1  26
TORSDOF 13
ENDMDL
MODEL 8
REMARK minimizedAffinity -8.08657074
REMARK CNNscore 0.493197024
REMARK CNNaffinity 6.40928268
REMARK  13 active torsions:
REMARK  status: ('A' for Active; 'I' for Inactive)
REMARK    1  A    between atoms: C14_15  and  O2_16 
REMARK    2  A    between atoms: C14_15  and  C15_17 
REMARK    3  A    between atoms: C15_17  and  C16_19 
REMARK    4  A    between atoms: C16_19  and  O4_20 
REMARK    5  A    between atoms: O4_20  and  C17_21 
REMARK    6  A    between atoms: C17_21  and  C18_23 
REMARK    7  A    between atoms: C18_23  and  C19_24 
REMARK    8  A    between atoms: C19_24  and  C20_25 
REMARK       I    between atoms: C20_25  and  N1_27 
REMARK    9  A    between atoms: N1_27  and  C21_28 
REMARK   10  A    between atoms: C21_28  and  C22_29 
REMARK   11  A    between atoms: C22_29  and  C23_30 
REMARK   12  A    between atoms: C26_33  and  O7_34 
REMARK   13  A    between atoms: C27_35  and  O8_36 
ROOT
HETATM    1  C15 UNL     1      -1.954  49.076 -18.046  1.00  0.00     0.185 C 
HETATM    2  O3  UNL     1      -2.807  48.201 -18.227  1.00  0.00    -0.292 OA
ENDROOT
BRANCH   1   3
HETATM    3  C14 UNL     1      -1.973  50.411 -18.844  1.00  0.00     0.128 C 
HETATM    4  C13 UNL     1      -0.541  50.737 -19.317  1.00  0.00     0.047 C 
HETATM    5  C12 UNL     1      -0.466  50.342 -20.794  1.00  0.00     0.009 C 
HETATM    6  C11 UNL     1      -1.803  49.655 -21.131  1.00  0.00     0.002 C 
HETATM    7  C10 UNL     1      -2.122  49.713 -22.637  1.00  0.00     0.003 C 
HETATM    8  C29 UNL     1      -2.801  50.328 -20.171  1.00  0.00     0.005 C 
HETATM    9  C9  UNL     1      -2.889  48.461 -23.109  1.00  0.00     0.010 C 
HETATM   10  C33 UNL     1      -2.762  51.043 -23.151  1.00  0.00     0.072 C 
HETATM   11  C8  UNL     1      -2.970  48.372 -24.642  1.00  0.00     0.035 C 
HETATM   12  C7  UNL     1      -2.771  49.726 -25.281  1.00  0.00    -0.067 C 
HETATM   13  C2  UNL     1      -3.463  50.887 -24.561  1.00  0.00    -0.009 C 
HETATM   14  C6  UNL     1      -1.947  49.872 -26.332  1.00  0.00     0.053 C 
HETATM   15  C1  UNL     1      -4.981  50.562 -24.479  1.00  0.00     0.021 C 
HETATM   16  C3  UNL     1      -3.350  52.192 -25.400  1.00  0.00     0.022 C 
HETATM   17  C4  UNL     1      -1.981  52.414 -26.024  1.00  0.00     0.084 C 
HETATM   18  C5  UNL     1      -1.563  51.212 -26.833  1.00  0.00     0.149 C 
HETATM   19  O1  UNL     1      -0.846  51.303 -27.825  1.00  0.00    -0.293 OA
HETATM   20  C32 UNL     1      -3.625  51.754 -22.106  1.00  0.00     0.133 C 
HETATM   21  C31 UNL     1      -3.156  51.742 -20.671  1.00  0.00     0.091 C 
HETATM   22  O9  UNL     1      -4.587  52.461 -22.410  1.00  0.00    -0.297 OA
HETATM   23  C30 UNL     1      -4.101  49.525 -20.004  1.00  0.00     0.019 C 
BRANCH   3  24
HETATM   24  O2  UNL     1      -2.451  51.478 -18.032  1.00  0.00    -0.381 OA
HETATM   25  H19 UNL     1      -1.740  51.735 -17.413  1.00  0.00     0.211 HD
ENDBRANCH   3  24
ENDBRANCH   1   3
BRANCH   1  26
HETATM   26  C16 UNL     1      -0.855  48.903 -16.992  1.00  0.00     0.260 C 
BRANCH  26  27
HETATM   27  O4  UNL     1      -1.347  49.060 -15.660  1.00  0.00    -0.314 OA
BRANCH  27  28
HETATM   28  C17 UNL     1      -0.983  50.244 -15.086  1.00  0.00     0.259 C 
HETATM   29  O5  UNL     1      -0.438  51.164 -15.681  1.00  0.00    -0.265 OA
BRANCH  28  30
HETATM   30  C18 UNL     1      -1.340  50.229 -13.620  1.00  0.00     0.120 C 
BRANCH  30  31
HETATM   31  C19 UNL     1      -2.539  51.125 -13.340  1.00  0.00     0.112 C 
BRANCH  31  32
HETATM   32  C20 UNL     1      -2.453  51.773 -11.972  1.00  0.00     0.218 C 
HETATM   33  O6  UNL     1      -2.022  51.201 -10.979  1.00  0.00    -0.274 OA
HETATM   34  N1  UNL     1      -2.861  53.090 -11.978  1.00  0.00    -0.361 N 
HETATM   35  H26 UNL     1      -3.307  53.463 -12.806  1.00  0.00     0.162 HD
BRANCH  34  36
HETATM   36  C21 UNL     1      -2.913  53.876 -10.759  1.00  0.00     0.127 C 
BRANCH  36  37
HETATM   37  C22 UNL     1      -1.618  54.657 -10.525  1.00  0.00     0.058 C 
BRANCH  37  38
HETATM   38  C23 UNL     1      -1.134  54.522  -9.102  1.00  0.00    -0.054 A 
HETATM   39  C24 UNL     1      -0.299  55.503  -8.540  1.00  0.00     0.010 A 
HETATM   40  C25 UNL     1       0.139  55.396  -7.216  1.00  0.00     0.040 A 
HETATM   41  C26 UNL     1      -0.267  54.307  -6.454  1.00  0.00     0.098 A 
HETATM   42  C27 UNL     1      -1.100  53.335  -7.004  1.00  0.00     0.099 A 
HETATM   43  C28 UNL     1      -1.538  53.432  -8.317  1.00  0.00     0.046 A 
BRANCH  41  44
HETATM   44  O7  UNL     1       0.128  54.146  -5.155  1.00  0.00    -0.358 OA
HETATM   45  H33 UNL     1       0.709  54.892  -4.924  1.00  0.00     0.217 HD
ENDBRANCH  41  44
BRANCH  42  46
HETATM   46  O8  UNL     1      -1.499  52.271  -6.246  1.00  0.00    -0.358 OA
HETATM   47  H34 UNL     1      -1.071  52.418  -5.379  1.00  0.00     0.217 HD
ENDBRANCH  42  46
ENDBRANCH  37  38
ENDBRANCH  36  37
ENDBRANCH  34  36
ENDBRANCH  31  32
ENDBRANCH  30  31
ENDBRANCH  28  30
ENDBRANCH  27  28
ENDBRANCH  26  27
ENDBRANCH   1  26
TORSDOF 13
ENDMDL
MODEL 9
REMARK minimizedAffinity -8.11655617
REMARK CNNscore 0.42597872
REMARK CNNaffinity 6.64706039
REMARK  13 active torsions:
REMARK  status: ('A' for Active; 'I' for Inactive)
REMARK    1  A    between atoms: C14_15  and  O2_16 
REMARK    2  A    between atoms: C14_15  and  C15_17 
REMARK    3  A    between atoms: C15_17  and  C16_19 
REMARK    4  A    between atoms: C16_19  and  O4_20 
REMARK    5  A    between atoms: O4_20  and  C17_21 
REMARK    6  A    between atoms: C17_21  and  C18_23 
REMARK    7  A    between atoms: C18_23  and  C19_24 
REMARK    8  A    between atoms: C19_24  and  C20_25 
REMARK       I    between atoms: C20_25  and  N1_27 
REMARK    9  A    between atoms: N1_27  and  C21_28 
REMARK   10  A    between atoms: C21_28  and  C22_29 
REMARK   11  A    between atoms: C22_29  and  C23_30 
REMARK   12  A    between atoms: C26_33  and  O7_34 
REMARK   13  A    between atoms: C27_35  and  O8_36 
ROOT
HETATM    1  C15 UNL     1      -1.555  52.302 -11.705  1.00  0.00     0.185 C 
HETATM    2  O3  UNL     1      -2.608  52.922 -11.887  1.00  0.00    -0.292 OA
ENDROOT
BRANCH   1   3
HETATM    3  C14 UNL     1      -0.947  52.128 -10.283  1.00  0.00     0.128 C 
HETATM    4  C13 UNL     1       0.173  51.068 -10.340  1.00  0.00     0.047 C 
HETATM    5  C12 UNL     1       1.499  51.832 -10.357  1.00  0.00     0.009 C 
HETATM    6  C11 UNL     1       1.142  53.327 -10.459  1.00  0.00     0.002 C 
HETATM    7  C10 UNL     1       2.270  54.231  -9.926  1.00  0.00     0.003 C 
HETATM    8  C29 UNL     1      -0.226  53.415  -9.756  1.00  0.00     0.005 C 
HETATM    9  C9  UNL     1       2.347  55.565 -10.698  1.00  0.00     0.010 C 
HETATM   10  C33 UNL     1       2.318  54.425  -8.377  1.00  0.00     0.072 C 
HETATM   11  C8  UNL     1       3.627  56.352 -10.371  1.00  0.00     0.035 C 
HETATM   12  C7  UNL     1       4.209  55.926  -9.043  1.00  0.00    -0.067 C 
HETATM   13  C2  UNL     1       3.179  55.678  -7.937  1.00  0.00    -0.009 C 
HETATM   14  C6  UNL     1       5.524  55.681  -8.920  1.00  0.00     0.053 C 
HETATM   15  C1  UNL     1       2.352  56.981  -7.753  1.00  0.00     0.021 C 
HETATM   16  C3  UNL     1       3.892  55.429  -6.576  1.00  0.00     0.022 C 
HETATM   17  C4  UNL     1       5.114  54.529  -6.670  1.00  0.00     0.084 C 
HETATM   18  C5  UNL     1       6.082  55.052  -7.701  1.00  0.00     0.149 C 
HETATM   19  O1  UNL     1       7.296  54.889  -7.608  1.00  0.00    -0.293 OA
HETATM   20  C32 UNL     1       0.945  54.351  -7.705  1.00  0.00     0.133 C 
HETATM   21  C31 UNL     1      -0.048  53.342  -8.227  1.00  0.00     0.091 C 
HETATM   22  O9  UNL     1       0.680  54.963  -6.668  1.00  0.00    -0.297 OA
HETATM   23  C30 UNL     1      -0.992  54.702 -10.101  1.00  0.00     0.019 C 
BRANCH   3  24
HETATM   24  O2  UNL     1      -1.942  51.708  -9.357  1.00  0.00    -0.381 OA
HETATM   25  H19 UNL     1      -2.124  50.760  -9.510  1.00  0.00     0.211 HD
ENDBRANCH   3  24
ENDBRANCH   1   3
BRANCH   1  26
HETATM   26  C16 UNL     1      -0.817  51.637 -12.871  1.00  0.00     0.260 C 
BRANCH  26  27
HETATM   27  O4  UNL     1      -0.109  52.580 -13.678  1.00  0.00    -0.314 OA
BRANCH  27  28
HETATM   28  C17 UNL     1       0.657  51.994 -14.645  1.00  0.00     0.259 C 
HETATM   29  O5  UNL     1       1.873  52.106 -14.728  1.00  0.00    -0.265 OA
BRANCH  28  30
HETATM   30  C18 UNL     1      -0.224  51.215 -15.589  1.00  0.00     0.120 C 
BRANCH  30  31
HETATM   31  C19 UNL     1       0.571  50.700 -16.780  1.00  0.00     0.112 C 
BRANCH  31  32
HETATM   32  C20 UNL     1       0.372  51.564 -18.010  1.00  0.00     0.218 C 
HETATM   33  O6  UNL     1       0.718  52.737 -18.073  1.00  0.00    -0.274 OA
HETATM   34  N1  UNL     1      -0.188  50.874 -19.064  1.00  0.00    -0.361 N 
HETATM   35  H26 UNL     1      -0.548  49.942 -18.906  1.00  0.00     0.162 HD
BRANCH  34  36
HETATM   36  C21 UNL     1      -0.517  51.532 -20.315  1.00  0.00     0.127 C 
BRANCH  36  37
HETATM   37  C22 UNL     1      -0.645  50.537 -21.470  1.00  0.00     0.058 C 
BRANCH  37  38
HETATM   38  C23 UNL     1      -1.308  51.159 -22.673  1.00  0.00    -0.054 A 
HETATM   39  C24 UNL     1      -2.708  51.149 -22.797  1.00  0.00     0.010 A 
HETATM   40  C25 UNL     1      -3.333  51.741 -23.899  1.00  0.00     0.040 A 
HETATM   41  C26 UNL     1      -2.552  52.349 -24.875  1.00  0.00     0.098 A 
HETATM   42  C27 UNL     1      -1.164  52.367 -24.755  1.00  0.00     0.099 A 
HETATM   43  C28 UNL     1      -0.536  51.781 -23.665  1.00  0.00     0.046 A 
BRANCH  41  44
HETATM   44  O7  UNL     1      -3.103  52.944 -25.976  1.00  0.00    -0.358 OA
HETATM   45  H33 UNL     1      -4.069  52.838 -25.922  1.00  0.00     0.217 HD
ENDBRANCH  41  44
BRANCH  42  46
HETATM   46  O8  UNL     1      -0.404  52.972 -25.715  1.00  0.00    -0.358 OA
HETATM   47  H34 UNL     1      -1.056  53.302 -26.366  1.00  0.00     0.217 HD
ENDBRANCH  42  46
ENDBRANCH  37  38
ENDBRANCH  36  37
ENDBRANCH  34  36
ENDBRANCH  31  32
ENDBRANCH  30  31
ENDBRANCH  28  30
ENDBRANCH  27  28
ENDBRANCH  26  27
ENDBRANCH   1  26
TORSDOF 13
ENDMDL
