MODEL 1
REMARK minimizedAffinity -9.59357643
REMARK  9 active torsions:
REMARK  status: ('A' for Active; 'I' for Inactive)
REMARK    1  A    between atoms: C2_2  and  C3_3 
REMARK    2  A    between atoms: C2_2  and  C27_31 
REMARK    3  A    between atoms: C3_3  and  C4_4 
REMARK    4  A    between atoms: C4_4  and  C5_5 
REMARK    5  A    between atoms: C5_5  and  C7_7 
REMARK    6  A    between atoms: C22_24  and  O3_26 
REMARK    7  A    between atoms: C26_29  and  O4_30 
REMARK    8  A    between atoms: C27_31  and  C29_33 
REMARK    9  A    between atoms: C29_33  and  O6_35 
ROOT
HETATM    1  C7  UNL     1      -2.020   6.542  12.427  1.00  0.00    -0.002 C 
HETATM    2  C8  UNL     1      -1.972   8.060  12.728  1.00  0.00     0.006 C 
HETATM    3  C9  UNL     1      -0.603   8.356  13.331  1.00  0.00     0.010 C 
HETATM    4  C10 UNL     1       0.226   7.075  13.174  1.00  0.00     0.027 C 
HETATM    5  C11 UNL     1       1.691   7.341  12.890  1.00  0.00    -0.036 C 
HETATM    6  C12 UNL     1       2.268   7.200  11.675  1.00  0.00     0.002 C 
HETATM    7  C13 UNL     1       1.358   6.935  10.495  1.00  0.00     0.157 C 
HETATM    8  O1  UNL     1       1.794   6.927   9.344  1.00  0.00    -0.293 OA
HETATM    9  C14 UNL     1      -0.133   6.778  10.709  1.00  0.00     0.093 C 
HETATM   10  C15 UNL     1      -0.506   6.243  12.105  1.00  0.00    -0.026 C 
HETATM   11  C16 UNL     1      -0.090   4.764  12.176  1.00  0.00     0.016 C 
HETATM   12  C17 UNL     1       3.800   7.321  11.428  1.00  0.00    -0.006 C 
HETATM   13  C18 UNL     1       4.279   6.036  10.698  1.00  0.00     0.021 C 
HETATM   14  C19 UNL     1       4.064   8.581  10.553  1.00  0.00     0.022 C 
HETATM   15  C20 UNL     1       5.534   8.935  10.379  1.00  0.00     0.083 C 
HETATM   16  C21 UNL     1       6.166   9.105  11.735  1.00  0.00     0.161 C 
HETATM   17  O2  UNL     1       6.682  10.171  12.070  1.00  0.00    -0.295 OA
HETATM   18  C22 UNL     1       6.096   7.876  12.651  1.00  0.00     0.119 C 
HETATM   19  C23 UNL     1       6.806   8.164  13.980  1.00  0.00     0.055 C 
HETATM   20  C24 UNL     1       4.605   7.436  12.803  1.00  0.00     0.043 C 
HETATM   21  C25 UNL     1       3.839   8.341  13.787  1.00  0.00     0.045 C 
HETATM   22  C26 UNL     1       2.468   7.760  14.106  1.00  0.00     0.148 C 
ENDROOT
BRANCH   1  23
HETATM   23  C5  UNL     1      -2.666   5.683  13.573  1.00  0.00    -0.014 C 
HETATM   24  C6  UNL     1      -1.676   5.456  14.734  1.00  0.00     0.010 C 
BRANCH  23  25
HETATM   25  C4  UNL     1      -3.220   4.297  13.148  1.00  0.00     0.009 C 
BRANCH  25  26
HETATM   26  C3  UNL     1      -4.133   4.315  11.914  1.00  0.00     0.034 C 
BRANCH  26  27
HETATM   27  C2  UNL     1      -5.352   3.419  12.082  1.00  0.00    -0.075 C 
HETATM   28  C1  UNL     1      -5.489   2.336  11.294  1.00  0.00     0.015 C 
BRANCH  27  29
HETATM   29  C27 UNL     1      -6.346   3.826  13.172  1.00  0.00     0.107 C 
HETATM   30  C28 UNL     1      -6.730   5.307  13.202  1.00  0.00     0.026 C 
BRANCH  29  31
HETATM   31  C29 UNL     1      -7.632   3.009  13.066  1.00  0.00     0.147 C 
HETATM   32  O5  UNL     1      -7.746   1.802  12.923  1.00  0.00    -0.650 OA
BRANCH  31  33
HETATM   33  O6  UNL     1      -8.737   3.783  13.135  1.00  0.00    -0.776 OA
HETATM   34  H42 UNL     1      -9.476   3.142  13.058  1.00  0.00     0.167 HD
ENDBRANCH  31  33
ENDBRANCH  29  31
ENDBRANCH  27  29
ENDBRANCH  26  27
ENDBRANCH  25  26
ENDBRANCH  23  25
ENDBRANCH   1  23
BRANCH  22  35
HETATM   35  O4  UNL     1       2.619   6.607  14.928  1.00  0.00    -0.391 OA
HETATM   36  H37 UNL     1       2.973   6.900  15.784  1.00  0.00     0.210 HD
ENDBRANCH  22  35
BRANCH  18  37
HETATM   37  O3  UNL     1       6.842   6.827  12.026  1.00  0.00    -0.382 OA
HETATM   38  H32 UNL     1       7.007   6.132  12.686  1.00  0.00     0.211 HD
ENDBRANCH  18  37
TORSDOF 9
ENDMDL
MODEL 2
REMARK minimizedAffinity -9.45002556
REMARK  9 active torsions:
REMARK  status: ('A' for Active; 'I' for Inactive)
REMARK    1  A    between atoms: C2_2  and  C3_3 
REMARK    2  A    between atoms: C2_2  and  C27_31 
REMARK    3  A    between atoms: C3_3  and  C4_4 
REMARK    4  A    between atoms: C4_4  and  C5_5 
REMARK    5  A    between atoms: C5_5  and  C7_7 
REMARK    6  A    between atoms: C22_24  and  O3_26 
REMARK    7  A    between atoms: C26_29  and  O4_30 
REMARK    8  A    between atoms: C27_31  and  C29_33 
REMARK    9  A    between atoms: C29_33  and  O6_35 
ROOT
HETATM    1  C7  UNL     1       0.130   7.988  13.587  1.00  0.00    -0.002 C 
HETATM    2  C8  UNL     1      -0.342   8.241  12.134  1.00  0.00     0.006 C 
HETATM    3  C9  UNL     1      -1.389   7.179  11.811  1.00  0.00     0.010 C 
HETATM    4  C10 UNL     1      -1.695   6.457  13.129  1.00  0.00     0.027 C 
HETATM    5  C11 UNL     1      -3.147   6.046  13.263  1.00  0.00    -0.036 C 
HETATM    6  C12 UNL     1      -4.049   6.680  14.047  1.00  0.00     0.002 C 
HETATM    7  C13 UNL     1      -3.623   7.984  14.687  1.00  0.00     0.157 C 
HETATM    8  O1  UNL     1      -4.427   8.684  15.303  1.00  0.00    -0.293 OA
HETATM    9  C14 UNL     1      -2.214   8.502  14.488  1.00  0.00     0.093 C 
HETATM   10  C15 UNL     1      -1.176   7.391  14.238  1.00  0.00    -0.026 C 
HETATM   11  C16 UNL     1      -0.971   6.624  15.555  1.00  0.00     0.016 C 
HETATM   12  C17 UNL     1      -5.492   6.157  14.301  1.00  0.00    -0.006 C 
HETATM   13  C18 UNL     1      -5.715   6.064  15.835  1.00  0.00     0.021 C 
HETATM   14  C19 UNL     1      -6.501   7.153  13.658  1.00  0.00     0.022 C 
HETATM   15  C20 UNL     1      -7.948   6.681  13.665  1.00  0.00     0.083 C 
HETATM   16  C21 UNL     1      -8.036   5.343  12.981  1.00  0.00     0.161 C 
HETATM   17  O2  UNL     1      -8.733   5.181  11.980  1.00  0.00    -0.295 OA
HETATM   18  C22 UNL     1      -7.188   4.228  13.609  1.00  0.00     0.119 C 
HETATM   19  C23 UNL     1      -7.395   2.913  12.847  1.00  0.00     0.055 C 
HETATM   20  C24 UNL     1      -5.701   4.698  13.684  1.00  0.00     0.043 C 
HETATM   21  C25 UNL     1      -5.001   4.602  12.314  1.00  0.00     0.045 C 
HETATM   22  C26 UNL     1      -3.502   4.831  12.452  1.00  0.00     0.148 C 
ENDROOT
BRANCH   1  23
HETATM   23  C5  UNL     1       1.424   7.102  13.694  1.00  0.00    -0.014 C 
HETATM   24  C6  UNL     1       2.588   7.881  14.340  1.00  0.00     0.010 C 
BRANCH  23  25
HETATM   25  C4  UNL     1       1.941   6.498  12.361  1.00  0.00     0.009 C 
BRANCH  25  26
HETATM   26  C3  UNL     1       3.131   7.239  11.733  1.00  0.00     0.034 C 
BRANCH  26  27
HETATM   27  C2  UNL     1       3.849   6.398  10.687  1.00  0.00    -0.075 C 
HETATM   28  C1  UNL     1       5.185   6.252  10.760  1.00  0.00     0.015 C 
BRANCH  27  29
HETATM   29  C27 UNL     1       2.968   5.758   9.612  1.00  0.00     0.107 C 
HETATM   30  C28 UNL     1       2.768   6.582   8.338  1.00  0.00     0.026 C 
BRANCH  29  31
HETATM   31  C29 UNL     1       3.514   4.390   9.207  1.00  0.00     0.147 C 
HETATM   32  O5  UNL     1       4.215   4.115   8.247  1.00  0.00    -0.650 OA
BRANCH  31  33
HETATM   33  O6  UNL     1       3.123   3.413  10.053  1.00  0.00    -0.776 OA
HETATM   34  H42 UNL     1       3.538   2.605   9.684  1.00  0.00     0.167 HD
ENDBRANCH  31  33
ENDBRANCH  29  31
ENDBRANCH  27  29
ENDBRANCH  26  27
ENDBRANCH  25  26
ENDBRANCH  23  25
ENDBRANCH   1  23
BRANCH  22  35
HETATM   35  O4  UNL     1      -2.904   3.708  13.092  1.00  0.00    -0.391 OA
HETATM   36  H37 UNL     1      -2.989   2.949  12.492  1.00  0.00     0.210 HD
ENDBRANCH  22  35
BRANCH  18  37
HETATM   37  O3  UNL     1      -7.683   4.000  14.932  1.00  0.00    -0.382 OA
HETATM   38  H32 UNL     1      -7.324   3.153  15.251  1.00  0.00     0.211 HD
ENDBRANCH  18  37
TORSDOF 9
ENDMDL
MODEL 3
REMARK minimizedAffinity -8.9842844
REMARK  9 active torsions:
REMARK  status: ('A' for Active; 'I' for Inactive)
REMARK    1  A    between atoms: C2_2  and  C3_3 
REMARK    2  A    between atoms: C2_2  and  C27_31 
REMARK    3  A    between atoms: C3_3  and  C4_4 
REMARK    4  A    between atoms: C4_4  and  C5_5 
REMARK    5  A    between atoms: C5_5  and  C7_7 
REMARK    6  A    between atoms: C22_24  and  O3_26 
REMARK    7  A    between atoms: C26_29  and  O4_30 
REMARK    8  A    between atoms: C27_31  and  C29_33 
REMARK    9  A    between atoms: C29_33  and  O6_35 
ROOT
HETATM    1  C7  UNL     1      -3.017   7.002  14.490  1.00  0.00    -0.002 C 
HETATM    2  C8  UNL     1      -2.372   5.639  14.839  1.00  0.00     0.006 C 
HETATM    3  C9  UNL     1      -1.164   5.465  13.924  1.00  0.00     0.010 C 
HETATM    4  C10 UNL     1      -0.966   6.807  13.208  1.00  0.00     0.027 C 
HETATM    5  C11 UNL     1       0.490   7.153  12.974  1.00  0.00    -0.036 C 
HETATM    6  C12 UNL     1       1.180   8.068  13.692  1.00  0.00     0.002 C 
HETATM    7  C13 UNL     1       0.505   8.650  14.916  1.00  0.00     0.157 C 
HETATM    8  O1  UNL     1       1.115   9.385  15.692  1.00  0.00    -0.293 OA
HETATM    9  C14 UNL     1      -0.914   8.247  15.262  1.00  0.00     0.093 C 
HETATM   10  C15 UNL     1      -1.756   7.836  14.040  1.00  0.00    -0.026 C 
HETATM   11  C16 UNL     1      -2.054   9.100  13.217  1.00  0.00     0.016 C 
HETATM   12  C17 UNL     1       2.625   8.529  13.343  1.00  0.00    -0.006 C 
HETATM   13  C18 UNL     1       2.630  10.079  13.235  1.00  0.00     0.021 C 
HETATM   14  C19 UNL     1       3.584   8.054  14.473  1.00  0.00     0.022 C 
HETATM   15  C20 UNL     1       5.062   8.273  14.183  1.00  0.00     0.083 C 
HETATM   16  C21 UNL     1       5.416   7.597  12.885  1.00  0.00     0.161 C 
HETATM   17  O2  UNL     1       6.268   6.709  12.838  1.00  0.00    -0.295 OA
HETATM   18  C22 UNL     1       4.633   8.080  11.658  1.00  0.00     0.119 C 
HETATM   19  C23 UNL     1       5.112   7.345  10.399  1.00  0.00     0.055 C 
HETATM   20  C24 UNL     1       3.103   7.937  11.939  1.00  0.00     0.043 C 
HETATM   21  C25 UNL     1       2.629   6.477  11.796  1.00  0.00     0.045 C 
HETATM   22  C26 UNL     1       1.110   6.392  11.836  1.00  0.00     0.148 C 
ENDROOT
BRANCH   1  23
HETATM   23  C5  UNL     1      -4.190   6.906  13.450  1.00  0.00    -0.014 C 
HETATM   24  C6  UNL     1      -4.940   8.248  13.321  1.00  0.00     0.010 C 
BRANCH  23  25
HETATM   25  C4  UNL     1      -5.245   5.801  13.720  1.00  0.00     0.009 C 
BRANCH  25  26
HETATM   26  C3  UNL     1      -4.848   4.396  13.244  1.00  0.00     0.034 C 
BRANCH  26  27
HETATM   27  C2  UNL     1      -5.867   3.801  12.282  1.00  0.00    -0.075 C 
HETATM   28  C1  UNL     1      -7.179   3.899  12.566  1.00  0.00     0.015 C 
BRANCH  27  29
HETATM   29  C27 UNL     1      -5.303   3.130  11.028  1.00  0.00     0.107 C 
HETATM   30  C28 UNL     1      -3.915   3.600  10.590  1.00  0.00     0.026 C 
BRANCH  29  31
HETATM   31  C29 UNL     1      -5.254   1.613  11.199  1.00  0.00     0.147 C 
HETATM   32  O5  UNL     1      -6.181   0.821  11.158  1.00  0.00    -0.650 OA
BRANCH  31  33
HETATM   33  O6  UNL     1      -4.001   1.166  11.434  1.00  0.00    -0.776 OA
HETATM   34  H42 UNL     1      -4.112   0.195  11.520  1.00  0.00     0.167 HD
ENDBRANCH  31  33
ENDBRANCH  29  31
ENDBRANCH  27  29
ENDBRANCH  26  27
ENDBRANCH  25  26
ENDBRANCH  23  25
ENDBRANCH   1  23
BRANCH  22  35
HETATM   35  O4  UNL     1       0.570   6.925  10.630  1.00  0.00    -0.391 OA
HETATM   36  H37 UNL     1       0.836   6.337   9.904  1.00  0.00     0.210 HD
ENDBRANCH  22  35
BRANCH  18  37
HETATM   37  O3  UNL     1       4.952   9.460  11.454  1.00  0.00    -0.382 OA
HETATM   38  H32 UNL     1       4.660   9.714  10.562  1.00  0.00     0.211 HD
ENDBRANCH  18  37
TORSDOF 9
ENDMDL
MODEL 4
REMARK minimizedAffinity -8.95715904
REMARK  9 active torsions:
REMARK  status: ('A' for Active; 'I' for Inactive)
REMARK    1  A    between atoms: C2_2  and  C3_3 
REMARK    2  A    between atoms: C2_2  and  C27_31 
REMARK    3  A    between atoms: C3_3  and  C4_4 
REMARK    4  A    between atoms: C4_4  and  C5_5 
REMARK    5  A    between atoms: C5_5  and  C7_7 
REMARK    6  A    between atoms: C22_24  and  O3_26 
REMARK    7  A    between atoms: C26_29  and  O4_30 
REMARK    8  A    between atoms: C27_31  and  C29_33 
REMARK    9  A    between atoms: C29_33  and  O6_35 
ROOT
HETATM    1  C7  UNL     1      -0.663   9.094  13.999  1.00  0.00    -0.002 C 
HETATM    2  C8  UNL     1      -1.144   9.295  12.541  1.00  0.00     0.006 C 
HETATM    3  C9  UNL     1      -1.998   8.084  12.178  1.00  0.00     0.010 C 
HETATM    4  C10 UNL     1      -2.207   7.296  13.477  1.00  0.00     0.027 C 
HETATM    5  C11 UNL     1      -3.575   6.652  13.573  1.00  0.00    -0.036 C 
HETATM    6  C12 UNL     1      -4.582   7.116  14.347  1.00  0.00     0.002 C 
HETATM    7  C13 UNL     1      -4.386   8.458  15.018  1.00  0.00     0.157 C 
HETATM    8  O1  UNL     1      -5.305   9.006  15.628  1.00  0.00    -0.293 OA
HETATM    9  C14 UNL     1      -3.076   9.202  14.857  1.00  0.00     0.093 C 
HETATM   10  C15 UNL     1      -1.867   8.280  14.612  1.00  0.00    -0.026 C 
HETATM   11  C16 UNL     1      -1.565   7.530  15.920  1.00  0.00     0.016 C 
HETATM   12  C17 UNL     1      -5.925   6.360  14.561  1.00  0.00    -0.006 C 
HETATM   13  C18 UNL     1      -6.159   6.202  16.088  1.00  0.00     0.021 C 
HETATM   14  C19 UNL     1      -7.071   7.191  13.913  1.00  0.00     0.022 C 
HETATM   15  C20 UNL     1      -8.421   6.491  13.882  1.00  0.00     0.083 C 
HETATM   16  C21 UNL     1      -8.278   5.170  13.174  1.00  0.00     0.161 C 
HETATM   17  O2  UNL     1      -8.920   4.917  12.155  1.00  0.00    -0.295 OA
HETATM   18  C22 UNL     1      -7.272   4.196  13.801  1.00  0.00     0.119 C 
HETATM   19  C23 UNL     1      -7.247   2.879  13.013  1.00  0.00     0.055 C 
HETATM   20  C24 UNL     1      -5.882   4.899  13.916  1.00  0.00     0.043 C 
HETATM   21  C25 UNL     1      -5.150   4.945  12.560  1.00  0.00     0.045 C 
HETATM   22  C26 UNL     1      -3.712   5.412  12.734  1.00  0.00     0.148 C 
ENDROOT
BRANCH   1  23
HETATM   23  C5  UNL     1       0.754   8.428  14.119  1.00  0.00    -0.014 C 
HETATM   24  C6  UNL     1       1.585   9.070  15.249  1.00  0.00     0.010 C 
BRANCH  23  25
HETATM   25  C4  UNL     1       1.620   8.443  12.831  1.00  0.00     0.009 C 
BRANCH  25  26
HETATM   26  C3  UNL     1       1.954   7.058  12.258  1.00  0.00     0.034 C 
BRANCH  26  27
HETATM   27  C2  UNL     1       1.359   6.844  10.874  1.00  0.00    -0.075 C 
HETATM   28  C1  UNL     1       0.407   5.909  10.701  1.00  0.00     0.015 C 
BRANCH  27  29
HETATM   29  C27 UNL     1       1.896   7.745   9.760  1.00  0.00     0.107 C 
HETATM   30  C28 UNL     1       2.941   7.112   8.839  1.00  0.00     0.026 C 
BRANCH  29  31
HETATM   31  C29 UNL     1       0.757   8.269   8.889  1.00  0.00     0.147 C 
HETATM   32  O5  UNL     1      -0.192   8.959   9.226  1.00  0.00    -0.650 OA
BRANCH  31  33
HETATM   33  O6  UNL     1       0.873   7.873   7.603  1.00  0.00    -0.776 OA
HETATM   34  H42 UNL     1       0.093   8.274   7.164  1.00  0.00     0.167 HD
ENDBRANCH  31  33
ENDBRANCH  29  31
ENDBRANCH  27  29
ENDBRANCH  26  27
ENDBRANCH  25  26
ENDBRANCH  23  25
ENDBRANCH   1  23
BRANCH  22  35
HETATM   35  O4  UNL     1      -2.951   4.388  13.368  1.00  0.00    -0.391 OA
HETATM   36  H37 UNL     1      -2.900   3.637  12.754  1.00  0.00     0.210 HD
ENDBRANCH  22  35
BRANCH  18  37
HETATM   37  O3  UNL     1      -7.747   3.863  15.109  1.00  0.00    -0.382 OA
HETATM   38  H32 UNL     1      -7.261   3.081  15.422  1.00  0.00     0.211 HD
ENDBRANCH  18  37
TORSDOF 9
ENDMDL
MODEL 5
REMARK minimizedAffinity -8.69834042
REMARK  9 active torsions:
REMARK  status: ('A' for Active; 'I' for Inactive)
REMARK    1  A    between atoms: C2_2  and  C3_3 
REMARK    2  A    between atoms: C2_2  and  C27_31 
REMARK    3  A    between atoms: C3_3  and  C4_4 
REMARK    4  A    between atoms: C4_4  and  C5_5 
REMARK    5  A    between atoms: C5_5  and  C7_7 
REMARK    6  A    between atoms: C22_24  and  O3_26 
REMARK    7  A    between atoms: C26_29  and  O4_30 
REMARK    8  A    between atoms: C27_31  and  C29_33 
REMARK    9  A    between atoms: C29_33  and  O6_35 
ROOT
HETATM    1  C7  UNL     1      -0.282  11.002  16.524  1.00  0.00    -0.002 C 
HETATM    2  C8  UNL     1       0.719  11.945  15.813  1.00  0.00     0.006 C 
HETATM    3  C9  UNL     1       1.672  11.066  15.009  1.00  0.00     0.010 C 
HETATM    4  C10 UNL     1       1.099   9.644  15.062  1.00  0.00     0.027 C 
HETATM    5  C11 UNL     1       1.306   8.867  13.778  1.00  0.00    -0.036 C 
HETATM    6  C12 UNL     1       0.334   8.626  12.868  1.00  0.00     0.002 C 
HETATM    7  C13 UNL     1      -0.992   9.329  13.061  1.00  0.00     0.157 C 
HETATM    8  O1  UNL     1      -1.877   9.265  12.207  1.00  0.00    -0.293 OA
HETATM    9  C14 UNL     1      -1.213  10.214  14.269  1.00  0.00     0.093 C 
HETATM   10  C15 UNL     1      -0.370   9.810  15.495  1.00  0.00    -0.026 C 
HETATM   11  C16 UNL     1      -0.936   8.493  16.050  1.00  0.00     0.016 C 
HETATM   12  C17 UNL     1       0.517   7.695  11.636  1.00  0.00    -0.006 C 
HETATM   13  C18 UNL     1      -0.619   6.635  11.651  1.00  0.00     0.021 C 
HETATM   14  C19 UNL     1       0.444   8.560  10.344  1.00  0.00     0.022 C 
HETATM   15  C20 UNL     1       0.788   7.816   9.062  1.00  0.00     0.083 C 
HETATM   16  C21 UNL     1       2.157   7.205   9.197  1.00  0.00     0.161 C 
HETATM   17  O2  UNL     1       3.070   7.504   8.428  1.00  0.00    -0.295 OA
HETATM   18  C22 UNL     1       2.322   6.216  10.359  1.00  0.00     0.119 C 
HETATM   19  C23 UNL     1       3.743   5.636  10.364  1.00  0.00     0.055 C 
HETATM   20  C24 UNL     1       1.913   6.920  11.692  1.00  0.00     0.043 C 
HETATM   21  C25 UNL     1       3.018   7.864  12.202  1.00  0.00     0.045 C 
HETATM   22  C26 UNL     1       2.708   8.354  13.610  1.00  0.00     0.148 C 
ENDROOT
BRANCH   1  23
HETATM   23  C5  UNL     1       0.132  10.619  17.991  1.00  0.00    -0.014 C 
HETATM   24  C6  UNL     1      -0.975  10.982  19.001  1.00  0.00     0.010 C 
BRANCH  23  25
HETATM   25  C4  UNL     1       1.460  11.239  18.502  1.00  0.00     0.009 C 
BRANCH  25  26
HETATM   26  C3  UNL     1       2.365  10.276  19.285  1.00  0.00     0.034 C 
BRANCH  26  27
HETATM   27  C2  UNL     1       2.548  10.703  20.734  1.00  0.00    -0.075 C 
HETATM   28  C1  UNL     1       1.930  11.813  21.179  1.00  0.00     0.015 C 
BRANCH  27  29
HETATM   29  C27 UNL     1       3.436   9.804  21.598  1.00  0.00     0.107 C 
HETATM   30  C28 UNL     1       4.416  10.529  22.523  1.00  0.00     0.026 C 
BRANCH  29  31
HETATM   31  C29 UNL     1       2.588   8.864  22.452  1.00  0.00     0.147 C 
HETATM   32  O5  UNL     1       1.697   8.115  22.087  1.00  0.00    -0.650 OA
BRANCH  31  33
HETATM   33  O6  UNL     1       2.913   8.932  23.761  1.00  0.00    -0.776 OA
HETATM   34  H42 UNL     1       2.306   8.289  24.186  1.00  0.00     0.167 HD
ENDBRANCH  31  33
ENDBRANCH  29  31
ENDBRANCH  27  29
ENDBRANCH  26  27
ENDBRANCH  25  26
ENDBRANCH  23  25
ENDBRANCH   1  23
BRANCH  22  35
HETATM   35  O4  UNL     1       2.879   7.283  14.535  1.00  0.00    -0.391 OA
HETATM   36  H37 UNL     1       3.824   7.056  14.550  1.00  0.00     0.210 HD
ENDBRANCH  22  35
BRANCH  18  37
HETATM   37  O3  UNL     1       1.447   5.110  10.116  1.00  0.00    -0.382 OA
HETATM   38  H32 UNL     1       1.707   4.379  10.702  1.00  0.00     0.211 HD
ENDBRANCH  18  37
TORSDOF 9
ENDMDL
MODEL 6
REMARK minimizedAffinity -8.55058956
REMARK  9 active torsions:
REMARK  status: ('A' for Active; 'I' for Inactive)
REMARK    1  A    between atoms: C2_2  and  C3_3 
REMARK    2  A    between atoms: C2_2  and  C27_31 
REMARK    3  A    between atoms: C3_3  and  C4_4 
REMARK    4  A    between atoms: C4_4  and  C5_5 
REMARK    5  A    between atoms: C5_5  and  C7_7 
REMARK    6  A    between atoms: C22_24  and  O3_26 
REMARK    7  A    between atoms: C26_29  and  O4_30 
REMARK    8  A    between atoms: C27_31  and  C29_33 
REMARK    9  A    between atoms: C29_33  and  O6_35 
ROOT
HETATM    1  C7  UNL     1      -1.736   6.590  14.830  1.00  0.00    -0.002 C 
HETATM    2  C8  UNL     1      -1.042   5.301  14.327  1.00  0.00     0.006 C 
HETATM    3  C9  UNL     1       0.028   5.728  13.327  1.00  0.00     0.010 C 
HETATM    4  C10 UNL     1       0.118   7.257  13.414  1.00  0.00     0.027 C 
HETATM    5  C11 UNL     1       1.527   7.785  13.234  1.00  0.00    -0.036 C 
HETATM    6  C12 UNL     1       2.305   8.238  14.243  1.00  0.00     0.002 C 
HETATM    7  C13 UNL     1       1.803   8.037  15.657  1.00  0.00     0.157 C 
HETATM    8  O1  UNL     1       2.511   8.301  16.629  1.00  0.00    -0.293 OA
HETATM    9  C14 UNL     1       0.448   7.404  15.897  1.00  0.00     0.093 C 
HETATM   10  C15 UNL     1      -0.554   7.631  14.749  1.00  0.00    -0.026 C 
HETATM   11  C16 UNL     1      -0.969   9.111  14.763  1.00  0.00     0.016 C 
HETATM   12  C17 UNL     1       3.685   8.925  14.029  1.00  0.00    -0.006 C 
HETATM   13  C18 UNL     1       3.667  10.295  14.759  1.00  0.00     0.021 C 
HETATM   14  C19 UNL     1       4.794   8.003  14.615  1.00  0.00     0.022 C 
HETATM   15  C20 UNL     1       6.216   8.456  14.317  1.00  0.00     0.083 C 
HETATM   16  C21 UNL     1       6.391   8.591  12.828  1.00  0.00     0.161 C 
HETATM   17  O2  UNL     1       7.232   7.929  12.220  1.00  0.00    -0.295 OA
HETATM   18  C22 UNL     1       5.442   9.584  12.144  1.00  0.00     0.119 C 
HETATM   19  C23 UNL     1       5.746   9.659  10.642  1.00  0.00     0.055 C 
HETATM   20  C24 UNL     1       3.967   9.196  12.480  1.00  0.00     0.043 C 
HETATM   21  C25 UNL     1       3.485   7.997  11.640  1.00  0.00     0.045 C 
HETATM   22  C26 UNL     1       1.986   7.786  11.803  1.00  0.00     0.148 C 
ENDROOT
BRANCH   1  23
HETATM   23  C5  UNL     1      -3.042   6.964  14.041  1.00  0.00    -0.014 C 
HETATM   24  C6  UNL     1      -4.169   7.410  14.995  1.00  0.00     0.010 C 
BRANCH  23  25
HETATM   25  C4  UNL     1      -3.615   5.855  13.119  1.00  0.00     0.009 C 
BRANCH  25  26
HETATM   26  C3  UNL     1      -5.113   5.570  13.301  1.00  0.00     0.034 C 
BRANCH  26  27
HETATM   27  C2  UNL     1      -5.528   4.239  12.692  1.00  0.00    -0.075 C 
HETATM   28  C1  UNL     1      -4.581   3.394  12.243  1.00  0.00     0.015 C 
BRANCH  27  29
HETATM   29  C27 UNL     1      -7.031   3.953  12.649  1.00  0.00     0.107 C 
HETATM   30  C28 UNL     1      -7.432   2.482  12.779  1.00  0.00     0.026 C 
BRANCH  29  31
HETATM   31  C29 UNL     1      -7.763   4.738  13.735  1.00  0.00     0.147 C 
HETATM   32  O5  UNL     1      -8.278   5.841  13.648  1.00  0.00    -0.650 OA
BRANCH  31  33
HETATM   33  O6  UNL     1      -7.796   4.075  14.911  1.00  0.00    -0.776 OA
HETATM   34  H42 UNL     1      -8.289   4.680  15.506  1.00  0.00     0.167 HD
ENDBRANCH  31  33
ENDBRANCH  29  31
ENDBRANCH  27  29
ENDBRANCH  26  27
ENDBRANCH  25  26
ENDBRANCH  23  25
ENDBRANCH   1  23
BRANCH  22  35
HETATM   35  O4  UNL     1       1.282   8.829  11.135  1.00  0.00    -0.391 OA
HETATM   36  H37 UNL     1       1.448   8.732  10.183  1.00  0.00     0.210 HD
ENDBRANCH  22  35
BRANCH  18  37
HETATM   37  O3  UNL     1       5.724  10.885  12.668  1.00  0.00    -0.382 OA
HETATM   38  H32 UNL     1       5.309  11.546  12.087  1.00  0.00     0.211 HD
ENDBRANCH  18  37
TORSDOF 9
ENDMDL
MODEL 7
REMARK minimizedAffinity -8.53860664
REMARK  9 active torsions:
REMARK  status: ('A' for Active; 'I' for Inactive)
REMARK    1  A    between atoms: C2_2  and  C3_3 
REMARK    2  A    between atoms: C2_2  and  C27_31 
REMARK    3  A    between atoms: C3_3  and  C4_4 
REMARK    4  A    between atoms: C4_4  and  C5_5 
REMARK    5  A    between atoms: C5_5  and  C7_7 
REMARK    6  A    between atoms: C22_24  and  O3_26 
REMARK    7  A    between atoms: C26_29  and  O4_30 
REMARK    8  A    between atoms: C27_31  and  C29_33 
REMARK    9  A    between atoms: C29_33  and  O6_35 
ROOT
HETATM    1  C7  UNL     1      -5.981   6.578  14.360  1.00  0.00    -0.002 C 
HETATM    2  C8  UNL     1      -6.147   7.463  13.100  1.00  0.00     0.006 C 
HETATM    3  C9  UNL     1      -4.834   8.216  12.904  1.00  0.00     0.010 C 
HETATM    4  C10 UNL     1      -3.834   7.610  13.897  1.00  0.00     0.027 C 
HETATM    5  C11 UNL     1      -2.420   7.545  13.358  1.00  0.00    -0.036 C 
HETATM    6  C12 UNL     1      -1.823   6.413  12.922  1.00  0.00     0.002 C 
HETATM    7  C13 UNL     1      -2.681   5.172  12.800  1.00  0.00     0.157 C 
HETATM    8  O1  UNL     1      -2.244   4.142  12.287  1.00  0.00    -0.293 OA
HETATM    9  C14 UNL     1      -4.137   5.214  13.216  1.00  0.00     0.093 C 
HETATM   10  C15 UNL     1      -4.438   6.254  14.311  1.00  0.00    -0.026 C 
HETATM   11  C16 UNL     1      -3.822   5.754  15.628  1.00  0.00     0.016 C 
HETATM   12  C17 UNL     1      -0.322   6.327  12.521  1.00  0.00    -0.006 C 
HETATM   13  C18 UNL     1       0.335   5.175  13.330  1.00  0.00     0.021 C 
HETATM   14  C19 UNL     1      -0.231   6.047  10.993  1.00  0.00     0.022 C 
HETATM   15  C20 UNL     1       1.176   6.118  10.418  1.00  0.00     0.083 C 
HETATM   16  C21 UNL     1       1.771   7.464  10.732  1.00  0.00     0.161 C 
HETATM   17  O2  UNL     1       2.133   8.228   9.837  1.00  0.00    -0.295 OA
HETATM   18  C22 UNL     1       1.870   7.806  12.225  1.00  0.00     0.119 C 
HETATM   19  C23 UNL     1       2.526   9.180  12.412  1.00  0.00     0.055 C 
HETATM   20  C24 UNL     1       0.454   7.679  12.872  1.00  0.00     0.043 C 
HETATM   21  C25 UNL     1      -0.435   8.895  12.546  1.00  0.00     0.045 C 
HETATM   22  C26 UNL     1      -1.714   8.871  13.372  1.00  0.00     0.148 C 
ENDROOT
BRANCH   1  23
HETATM   23  C5  UNL     1      -6.506   7.243  15.683  1.00  0.00    -0.014 C 
HETATM   24  C6  UNL     1      -7.132   6.198  16.629  1.00  0.00     0.010 C 
BRANCH  23  25
HETATM   25  C4  UNL     1      -7.535   8.391  15.500  1.00  0.00     0.009 C 
BRANCH  25  26
HETATM   26  C3  UNL     1      -8.938   8.098  16.054  1.00  0.00     0.034 C 
BRANCH  26  27
HETATM   27  C2  UNL     1     -10.033   8.782  15.247  1.00  0.00    -0.075 C 
HETATM   28  C1  UNL     1      -9.881  10.069  14.885  1.00  0.00     0.015 C 
BRANCH  27  29
HETATM   29  C27 UNL     1     -11.248   7.922  14.892  1.00  0.00     0.107 C 
HETATM   30  C28 UNL     1     -12.593   8.652  14.861  1.00  0.00     0.026 C 
BRANCH  29  31
HETATM   31  C29 UNL     1     -11.052   7.238  13.541  1.00  0.00     0.147 C 
HETATM   32  O5  UNL     1     -10.035   6.735  13.093  1.00  0.00    -0.650 OA
BRANCH  31  33
HETATM   33  O6  UNL     1     -12.182   7.238  12.799  1.00  0.00    -0.776 OA
HETATM   34  H42 UNL     1     -11.920   6.775  11.975  1.00  0.00     0.167 HD
ENDBRANCH  31  33
ENDBRANCH  29  31
ENDBRANCH  27  29
ENDBRANCH  26  27
ENDBRANCH  25  26
ENDBRANCH  23  25
ENDBRANCH   1  23
BRANCH  22  35
HETATM   35  O4  UNL     1      -1.408   9.172  14.731  1.00  0.00    -0.391 OA
HETATM   36  H37 UNL     1      -1.102  10.093  14.767  1.00  0.00     0.210 HD
ENDBRANCH  22  35
BRANCH  18  37
HETATM   37  O3  UNL     1       2.756   6.860  12.829  1.00  0.00    -0.382 OA
HETATM   38  H32 UNL     1       3.014   7.197  13.705  1.00  0.00     0.211 HD
ENDBRANCH  18  37
TORSDOF 9
ENDMDL
MODEL 8
REMARK minimizedAffinity -8.2102356
REMARK  9 active torsions:
REMARK  status: ('A' for Active; 'I' for Inactive)
REMARK    1  A    between atoms: C2_2  and  C3_3 
REMARK    2  A    between atoms: C2_2  and  C27_31 
REMARK    3  A    between atoms: C3_3  and  C4_4 
REMARK    4  A    between atoms: C4_4  and  C5_5 
REMARK    5  A    between atoms: C5_5  and  C7_7 
REMARK    6  A    between atoms: C22_24  and  O3_26 
REMARK    7  A    between atoms: C26_29  and  O4_30 
REMARK    8  A    between atoms: C27_31  and  C29_33 
REMARK    9  A    between atoms: C29_33  and  O6_35 
ROOT
HETATM    1  C7  UNL     1      -3.708   7.006  13.002  1.00  0.00    -0.002 C 
HETATM    2  C8  UNL     1      -4.146   8.479  12.817  1.00  0.00     0.006 C 
HETATM    3  C9  UNL     1      -3.725   9.234  14.074  1.00  0.00     0.010 C 
HETATM    4  C10 UNL     1      -2.849   8.272  14.885  1.00  0.00     0.027 C 
HETATM    5  C11 UNL     1      -1.714   8.964  15.612  1.00  0.00    -0.036 C 
HETATM    6  C12 UNL     1      -0.421   8.924  15.217  1.00  0.00     0.002 C 
HETATM    7  C13 UNL     1      -0.121   8.300  13.871  1.00  0.00     0.157 C 
HETATM    8  O1  UNL     1       1.010   8.346  13.385  1.00  0.00    -0.293 OA
HETATM    9  C14 UNL     1      -1.240   7.697  13.048  1.00  0.00     0.093 C 
HETATM   10  C15 UNL     1      -2.418   7.175  13.893  1.00  0.00    -0.026 C 
HETATM   11  C16 UNL     1      -1.951   5.912  14.634  1.00  0.00     0.016 C 
HETATM   12  C17 UNL     1       0.756   9.502  16.054  1.00  0.00    -0.006 C 
HETATM   13  C18 UNL     1       1.818   8.384  16.240  1.00  0.00     0.021 C 
HETATM   14  C19 UNL     1       1.362  10.714  15.288  1.00  0.00     0.022 C 
HETATM   15  C20 UNL     1       2.407  11.498  16.068  1.00  0.00     0.083 C 
HETATM   16  C21 UNL     1       1.809  11.958  17.371  1.00  0.00     0.161 C 
HETATM   17  O2  UNL     1       1.732  13.153  17.654  1.00  0.00    -0.295 OA
HETATM   18  C22 UNL     1       1.297  10.839  18.289  1.00  0.00     0.119 C 
HETATM   19  C23 UNL     1       0.751  11.432  19.594  1.00  0.00     0.055 C 
HETATM   20  C24 UNL     1       0.269   9.964  17.503  1.00  0.00     0.043 C 
HETATM   21  C25 UNL     1      -1.106  10.651  17.401  1.00  0.00     0.045 C 
HETATM   22  C26 UNL     1      -2.153   9.693  16.850  1.00  0.00     0.148 C 
ENDROOT
BRANCH   1  23
HETATM   23  C5  UNL     1      -4.831   6.073  13.582  1.00  0.00    -0.014 C 
HETATM   24  C6  UNL     1      -4.876   6.135  15.122  1.00  0.00     0.010 C 
BRANCH  23  25
HETATM   25  C4  UNL     1      -4.746   4.578  13.172  1.00  0.00     0.009 C 
BRANCH  25  26
HETATM   26  C3  UNL     1      -5.621   4.184  11.973  1.00  0.00     0.034 C 
BRANCH  26  27
HETATM   27  C2  UNL     1      -6.695   3.173  12.347  1.00  0.00    -0.075 C 
HETATM   28  C1  UNL     1      -6.558   1.891  11.961  1.00  0.00     0.015 C 
BRANCH  27  29
HETATM   29  C27 UNL     1      -7.873   3.708  13.165  1.00  0.00     0.107 C 
HETATM   30  C28 UNL     1      -7.643   3.805  14.675  1.00  0.00     0.026 C 
BRANCH  29  31
HETATM   31  C29 UNL     1      -8.300   5.086  12.664  1.00  0.00     0.147 C 
HETATM   32  O5  UNL     1      -8.632   5.405  11.534  1.00  0.00    -0.650 OA
BRANCH  31  33
HETATM   33  O6  UNL     1      -8.271   6.017  13.642  1.00  0.00    -0.776 OA
HETATM   34  H42 UNL     1      -8.565   6.837  13.192  1.00  0.00     0.167 HD
ENDBRANCH  31  33
ENDBRANCH  29  31
ENDBRANCH  27  29
ENDBRANCH  26  27
ENDBRANCH  25  26
ENDBRANCH  23  25
ENDBRANCH   1  23
BRANCH  22  35
HETATM   35  O4  UNL     1      -2.464   8.709  17.832  1.00  0.00    -0.391 OA
HETATM   36  H37 UNL     1      -2.901   9.161  18.572  1.00  0.00     0.210 HD
ENDBRANCH  22  35
BRANCH  18  37
HETATM   37  O3  UNL     1       2.421  10.035  18.661  1.00  0.00    -0.382 OA
HETATM   38  H32 UNL     1       2.163   9.478  19.416  1.00  0.00     0.211 HD
ENDBRANCH  18  37
TORSDOF 9
ENDMDL
MODEL 9
REMARK minimizedAffinity -8.12378502
REMARK  9 active torsions:
REMARK  status: ('A' for Active; 'I' for Inactive)
REMARK    1  A    between atoms: C2_2  and  C3_3 
REMARK    2  A    between atoms: C2_2  and  C27_31 
REMARK    3  A    between atoms: C3_3  and  C4_4 
REMARK    4  A    between atoms: C4_4  and  C5_5 
REMARK    5  A    between atoms: C5_5  and  C7_7 
REMARK    6  A    between atoms: C22_24  and  O3_26 
REMARK    7  A    between atoms: C26_29  and  O4_30 
REMARK    8  A    between atoms: C27_31  and  C29_33 
REMARK    9  A    between atoms: C29_33  and  O6_35 
ROOT
HETATM    1  C7  UNL     1       7.884   8.718  13.531  1.00  0.00    -0.002 C 
HETATM    2  C8  UNL     1       7.254   7.972  14.732  1.00  0.00     0.006 C 
HETATM    3  C9  UNL     1       5.756   8.258  14.702  1.00  0.00     0.010 C 
HETATM    4  C10 UNL     1       5.476   8.971  13.373  1.00  0.00     0.027 C 
HETATM    5  C11 UNL     1       4.140   8.599  12.764  1.00  0.00    -0.036 C 
HETATM    6  C12 UNL     1       3.990   7.766  11.708  1.00  0.00     0.002 C 
HETATM    7  C13 UNL     1       5.218   7.024  11.224  1.00  0.00     0.157 C 
HETATM    8  O1  UNL     1       5.135   6.152  10.359  1.00  0.00    -0.293 OA
HETATM    9  C14 UNL     1       6.561   7.272  11.879  1.00  0.00     0.093 C 
HETATM   10  C15 UNL     1       6.702   8.681  12.487  1.00  0.00    -0.026 C 
HETATM   11  C16 UNL     1       6.802   9.692  11.333  1.00  0.00     0.016 C 
HETATM   12  C17 UNL     1       2.632   7.517  10.991  1.00  0.00    -0.006 C 
HETATM   13  C18 UNL     1       2.823   7.790   9.474  1.00  0.00     0.021 C 
HETATM   14  C19 UNL     1       2.208   6.039  11.234  1.00  0.00     0.022 C 
HETATM   15  C20 UNL     1       0.808   5.694  10.747  1.00  0.00     0.083 C 
HETATM   16  C21 UNL     1      -0.184   6.628  11.387  1.00  0.00     0.161 C 
HETATM   17  O2  UNL     1      -1.097   6.205  12.097  1.00  0.00    -0.295 OA
HETATM   18  C22 UNL     1       0.044   8.120  11.106  1.00  0.00     0.119 C 
HETATM   19  C23 UNL     1      -1.050   8.960  11.779  1.00  0.00     0.055 C 
HETATM   20  C24 UNL     1       1.498   8.504  11.530  1.00  0.00     0.043 C 
HETATM   21  C25 UNL     1       1.624   8.666  13.057  1.00  0.00     0.045 C 
HETATM   22  C26 UNL     1       2.972   9.268  13.431  1.00  0.00     0.148 C 
ENDROOT
BRANCH   1  23
HETATM   23  C5  UNL     1       8.448  10.141  13.886  1.00  0.00    -0.014 C 
HETATM   24  C6  UNL     1       9.903  10.307  13.403  1.00  0.00     0.010 C 
BRANCH  23  25
HETATM   25  C4  UNL     1       8.401  10.532  15.387  1.00  0.00     0.009 C 
BRANCH  25  26
HETATM   26  C3  UNL     1       9.686  10.233  16.174  1.00  0.00     0.034 C 
BRANCH  26  27
HETATM   27  C2  UNL     1       9.693  10.897  17.544  1.00  0.00    -0.075 C 
HETATM   28  C1  UNL     1       8.665  10.686  18.386  1.00  0.00     0.015 C 
BRANCH  27  29
HETATM   29  C27 UNL     1      10.909  11.767  17.868  1.00  0.00     0.107 C 
HETATM   30  C28 UNL     1      10.604  13.135  18.482  1.00  0.00     0.026 C 
BRANCH  29  31
HETATM   31  C29 UNL     1      11.867  11.034  18.804  1.00  0.00     0.147 C 
HETATM   32  O5  UNL     1      11.692  10.733  19.974  1.00  0.00    -0.650 OA
BRANCH  31  33
HETATM   33  O6  UNL     1      13.034  10.721  18.199  1.00  0.00    -0.776 OA
HETATM   34  H42 UNL     1      13.543  10.260  18.900  1.00  0.00     0.167 HD
ENDBRANCH  31  33
ENDBRANCH  29  31
ENDBRANCH  27  29
ENDBRANCH  26  27
ENDBRANCH  25  26
ENDBRANCH  23  25
ENDBRANCH   1  23
BRANCH  22  35
HETATM   35  O4  UNL     1       3.001  10.642  13.053  1.00  0.00    -0.391 OA
HETATM   36  H37 UNL     1       2.353  11.112  13.605  1.00  0.00     0.210 HD
ENDBRANCH  22  35
BRANCH  18  37
HETATM   37  O3  UNL     1      -0.111   8.325   9.699  1.00  0.00    -0.382 OA
HETATM   38  H32 UNL     1      -0.206   9.280   9.537  1.00  0.00     0.211 HD
ENDBRANCH  18  37
TORSDOF 9
ENDMDL
