MODEL 1
REMARK minimizedAffinity -7.35841036
REMARK CNNscore 0.532213569
REMARK CNNaffinity 7.70720482
REMARK  14 active torsions:
REMARK  status: ('A' for Active; 'I' for Inactive)
REMARK    1  A    between atoms: O1_2  and  C2_3 
REMARK    2  A    between atoms: C8_9  and  O2_10 
REMARK    3  A    between atoms: O2_10  and  C9_11 
REMARK    4  A    between atoms: C10_13  and  C11_14 
REMARK    5  A    between atoms: C11_14  and  O4_15 
REMARK    6  A    between atoms: C12_16  and  O5_17 
REMARK    7  A    between atoms: C13_18  and  O6_19 
REMARK    8  A    between atoms: C14_20  and  O7_21 
REMARK    9  A    between atoms: C18_25  and  C19_26 
REMARK   10  A    between atoms: C24_32  and  C25_33 
REMARK   11  A    between atoms: C25_33  and  C27_35 
REMARK   12  A    between atoms: C27_35  and  C28_36 
REMARK   13  A    between atoms: C29_37  and  C30_38 
REMARK   14  A    between atoms: C30_38  and  O9_41 
ROOT
HETATM    1  C2  UNL     1       2.944  56.767  -8.398  1.00  0.00     0.149 C 
HETATM    2  C3  UNL     1       1.609  56.120  -8.582  1.00  0.00     0.009 C 
HETATM    3  C4  UNL     1       1.386  54.887  -9.077  1.00  0.00    -0.066 C 
HETATM    4  C5  UNL     1       2.537  54.005  -9.538  1.00  0.00     0.031 C 
HETATM    5  C6  UNL     1       2.216  53.295 -10.884  1.00  0.00     0.013 C 
HETATM    6  C7  UNL     1       0.761  52.872 -11.077  1.00  0.00     0.034 C 
HETATM    7  C8  UNL     1      -0.035  52.862  -9.776  1.00  0.00     0.136 C 
HETATM    8  C15 UNL     1      -0.038  54.281  -9.111  1.00  0.00     0.002 C 
HETATM    9  C16 UNL     1      -0.563  54.111  -7.666  1.00  0.00     0.022 C 
HETATM   10  C17 UNL     1      -1.007  55.236  -9.853  1.00  0.00     0.022 C 
HETATM   11  C18 UNL     1       3.964  54.696  -9.525  1.00  0.00     0.027 C 
HETATM   12  C20 UNL     1       5.072  53.592  -9.501  1.00  0.00     0.018 C 
HETATM   13  C21 UNL     1       5.511  53.101  -8.110  1.00  0.00     0.011 C 
HETATM   14  C22 UNL     1       5.876  54.276  -7.191  1.00  0.00    -0.032 C 
HETATM   15  C23 UNL     1       7.077  55.045  -7.835  1.00  0.00     0.016 C 
HETATM   16  C24 UNL     1       6.257  53.950  -5.710  1.00  0.00    -0.002 C 
HETATM   17  C34 UNL     1       5.976  55.310  -5.000  1.00  0.00     0.006 C 
HETATM   18  C35 UNL     1       5.078  56.147  -5.931  1.00  0.00     0.011 C 
HETATM   19  C36 UNL     1       4.570  55.157  -6.997  1.00  0.00    -0.029 C 
HETATM   20  C37 UNL     1       3.380  54.405  -6.321  1.00  0.00     0.016 C 
HETATM   21  C38 UNL     1       4.139  55.773  -8.376  1.00  0.00     0.043 C 
ENDROOT
BRANCH   7  22
HETATM   22  O2  UNL     1      -1.382  52.436 -10.052  1.00  0.00    -0.352 OA
BRANCH  22  23
HETATM   23  C9  UNL     1      -1.465  51.276 -10.882  1.00  0.00     0.292 C 
HETATM   24  O3  UNL     1      -2.316  51.524 -12.000  1.00  0.00    -0.348 OA
HETATM   25  C10 UNL     1      -3.704  51.776 -11.698  1.00  0.00     0.179 C 
HETATM   26  C12 UNL     1      -4.171  51.213 -10.346  1.00  0.00     0.180 C 
HETATM   27  C13 UNL     1      -3.467  49.881 -10.110  1.00  0.00     0.183 C 
HETATM   28  C14 UNL     1      -1.945  50.061 -10.051  1.00  0.00     0.204 C 
BRANCH  25  29
HETATM   29  C11 UNL     1      -4.020  53.273 -11.863  1.00  0.00     0.198 C 
BRANCH  29  30
HETATM   30  O4  UNL     1      -4.210  53.648 -13.225  1.00  0.00    -0.398 OA
HETATM   31  H16 UNL     1      -4.638  52.889 -13.663  1.00  0.00     0.209 HD
ENDBRANCH  29  30
ENDBRANCH  25  29
BRANCH  26  32
HETATM   32  O5  UNL     1      -5.587  51.003 -10.365  1.00  0.00    -0.390 OA
HETATM   33  H18 UNL     1      -5.775  50.473  -9.562  1.00  0.00     0.210 HD
ENDBRANCH  26  32
BRANCH  27  34
HETATM   34  O6  UNL     1      -3.954  49.294  -8.891  1.00  0.00    -0.390 OA
HETATM   35  H20 UNL     1      -3.471  48.455  -8.784  1.00  0.00     0.210 HD
ENDBRANCH  27  34
BRANCH  28  36
HETATM   36  O7  UNL     1      -1.342  48.836 -10.523  1.00  0.00    -0.388 OA
HETATM   37  H22 UNL     1      -1.537  48.761 -11.476  1.00  0.00     0.210 HD
ENDBRANCH  28  36
ENDBRANCH  22  23
ENDBRANCH   7  22
BRANCH  11  38
HETATM   38  C19 UNL     1       4.130  55.505 -10.828  1.00  0.00     0.241 C 
HETATM   39  O8  UNL     1       3.553  56.560 -11.075  1.00  0.00    -0.306 OA
ENDBRANCH  11  38
BRANCH   1  40
HETATM   40  O1  UNL     1       2.871  57.551  -7.211  1.00  0.00    -0.386 OA
HETATM   41  C1  UNL     1       1.580  57.530  -6.614  1.00  0.00     0.202 C 
ENDBRANCH   1  40
BRANCH  16  42
HETATM   42  C25 UNL     1       7.678  53.402  -5.362  1.00  0.00    -0.010 C 
HETATM   43  C26 UNL     1       7.795  51.896  -5.633  1.00  0.00     0.010 C 
BRANCH  42  44
HETATM   44  C27 UNL     1       8.032  53.703  -3.879  1.00  0.00     0.031 C 
BRANCH  44  45
HETATM   45  C28 UNL     1       9.279  54.529  -3.690  1.00  0.00    -0.027 C 
HETATM   46  C29 UNL     1       9.583  55.589  -4.458  1.00  0.00     0.006 C 
BRANCH  46  47
HETATM   47  C30 UNL     1      10.793  56.498  -4.348  1.00  0.00     0.070 C 
HETATM   48  C31 UNL     1      11.095  57.026  -2.937  1.00  0.00     0.050 C 
HETATM   49  C32 UNL     1      12.018  55.706  -4.836  1.00  0.00     0.050 C 
BRANCH  47  50
HETATM   50  O9  UNL     1      10.643  57.578  -5.289  1.00  0.00    -0.382 OA
HETATM   51  C33 UNL     1      10.662  58.891  -4.744  1.00  0.00     0.202 C 
ENDBRANCH  47  50
ENDBRANCH  46  47
ENDBRANCH  44  45
ENDBRANCH  42  44
ENDBRANCH  16  42
TORSDOF 14
ENDMDL
MODEL 2
REMARK minimizedAffinity -7.51138926
REMARK CNNscore 0.472289473
REMARK CNNaffinity 7.50125885
REMARK  14 active torsions:
REMARK  status: ('A' for Active; 'I' for Inactive)
REMARK    1  A    between atoms: O1_2  and  C2_3 
REMARK    2  A    between atoms: C8_9  and  O2_10 
REMARK    3  A    between atoms: O2_10  and  C9_11 
REMARK    4  A    between atoms: C10_13  and  C11_14 
REMARK    5  A    between atoms: C11_14  and  O4_15 
REMARK    6  A    between atoms: C12_16  and  O5_17 
REMARK    7  A    between atoms: C13_18  and  O6_19 
REMARK    8  A    between atoms: C14_20  and  O7_21 
REMARK    9  A    between atoms: C18_25  and  C19_26 
REMARK   10  A    between atoms: C24_32  and  C25_33 
REMARK   11  A    between atoms: C25_33  and  C27_35 
REMARK   12  A    between atoms: C27_35  and  C28_36 
REMARK   13  A    between atoms: C29_37  and  C30_38 
REMARK   14  A    between atoms: C30_38  and  O9_41 
ROOT
HETATM    1  C2  UNL     1      -3.474  50.009 -16.794  1.00  0.00     0.149 C 
HETATM    2  C3  UNL     1      -3.222  48.724 -16.071  1.00  0.00     0.009 C 
HETATM    3  C4  UNL     1      -2.979  47.528 -16.641  1.00  0.00    -0.066 C 
HETATM    4  C5  UNL     1      -2.964  47.367 -18.154  1.00  0.00     0.031 C 
HETATM    5  C6  UNL     1      -3.714  46.081 -18.605  1.00  0.00     0.013 C 
HETATM    6  C7  UNL     1      -3.583  44.878 -17.673  1.00  0.00     0.034 C 
HETATM    7  C8  UNL     1      -2.433  45.016 -16.680  1.00  0.00     0.136 C 
HETATM    8  C15 UNL     1      -2.617  46.290 -15.786  1.00  0.00     0.002 C 
HETATM    9  C16 UNL     1      -1.276  46.538 -15.058  1.00  0.00     0.022 C 
HETATM   10  C17 UNL     1      -3.701  46.052 -14.704  1.00  0.00     0.022 C 
HETATM   11  C18 UNL     1      -3.389  48.655 -18.975  1.00  0.00     0.027 C 
HETATM   12  C20 UNL     1      -2.842  48.539 -20.436  1.00  0.00     0.018 C 
HETATM   13  C21 UNL     1      -1.425  49.091 -20.676  1.00  0.00     0.011 C 
HETATM   14  C22 UNL     1      -1.284  50.523 -20.140  1.00  0.00    -0.032 C 
HETATM   15  C23 UNL     1      -2.296  51.435 -20.911  1.00  0.00     0.016 C 
HETATM   16  C24 UNL     1       0.125  51.196 -20.226  1.00  0.00    -0.002 C 
HETATM   17  C34 UNL     1       0.025  52.292 -19.121  1.00  0.00     0.006 C 
HETATM   18  C35 UNL     1      -1.161  51.928 -18.207  1.00  0.00     0.011 C 
HETATM   19  C36 UNL     1      -1.518  50.473 -18.571  1.00  0.00    -0.029 C 
HETATM   20  C37 UNL     1      -0.489  49.595 -17.793  1.00  0.00     0.016 C 
HETATM   21  C38 UNL     1      -2.991  50.017 -18.272  1.00  0.00     0.043 C 
ENDROOT
BRANCH   7  22
HETATM   22  O2  UNL     1      -2.375  43.834 -15.861  1.00  0.00    -0.352 OA
BRANCH  22  23
HETATM   23  C9  UNL     1      -1.112  43.168 -15.892  1.00  0.00     0.292 C 
HETATM   24  O3  UNL     1      -1.061  42.249 -16.983  1.00  0.00    -0.348 OA
HETATM   25  C10 UNL     1      -1.982  41.141 -16.924  1.00  0.00     0.179 C 
HETATM   26  C12 UNL     1      -2.469  40.796 -15.508  1.00  0.00     0.180 C 
HETATM   27  C13 UNL     1      -1.312  41.006 -14.537  1.00  0.00     0.183 C 
HETATM   28  C14 UNL     1      -0.845  42.468 -14.537  1.00  0.00     0.204 C 
BRANCH  25  29
HETATM   29  C11 UNL     1      -3.138  41.358 -17.917  1.00  0.00     0.198 C 
BRANCH  29  30
HETATM   30  O4  UNL     1      -2.683  41.629 -19.240  1.00  0.00    -0.398 OA
HETATM   31  H16 UNL     1      -1.870  41.104 -19.366  1.00  0.00     0.209 HD
ENDBRANCH  29  30
ENDBRANCH  25  29
BRANCH  26  32
HETATM   32  O5  UNL     1      -2.890  39.429 -15.453  1.00  0.00    -0.390 OA
HETATM   33  H18 UNL     1      -2.997  39.235 -14.498  1.00  0.00     0.210 HD
ENDBRANCH  26  32
BRANCH  27  34
HETATM   34  O6  UNL     1      -1.719  40.606 -13.216  1.00  0.00    -0.390 OA
HETATM   35  H20 UNL     1      -0.952  40.766 -12.638  1.00  0.00     0.210 HD
ENDBRANCH  27  34
BRANCH  28  36
HETATM   36  O7  UNL     1       0.562  42.476 -14.214  1.00  0.00    -0.388 OA
HETATM   37  H22 UNL     1       1.038  42.073 -14.964  1.00  0.00     0.210 HD
ENDBRANCH  28  36
ENDBRANCH  22  23
ENDBRANCH   7  22
BRANCH  11  38
HETATM   38  C19 UNL     1      -4.929  48.704 -19.048  1.00  0.00     0.241 C 
HETATM   39  O8  UNL     1      -5.575  49.564 -19.641  1.00  0.00    -0.306 OA
ENDBRANCH  11  38
BRANCH   1  40
HETATM   40  O1  UNL     1      -2.876  51.048 -16.024  1.00  0.00    -0.386 OA
HETATM   41  C1  UNL     1      -2.560  50.641 -14.699  1.00  0.00     0.202 C 
ENDBRANCH   1  40
BRANCH  16  42
HETATM   42  C25 UNL     1       0.638  51.787 -21.578  1.00  0.00    -0.010 C 
HETATM   43  C26 UNL     1       1.516  53.027 -21.367  1.00  0.00     0.010 C 
BRANCH  42  44
HETATM   44  C27 UNL     1      -0.556  52.135 -22.510  1.00  0.00     0.031 C 
BRANCH  44  45
HETATM   45  C28 UNL     1      -0.402  51.652 -23.929  1.00  0.00    -0.027 C 
HETATM   46  C29 UNL     1       0.377  52.267 -24.835  1.00  0.00     0.006 C 
BRANCH  46  47
HETATM   47  C30 UNL     1       0.620  51.863 -26.278  1.00  0.00     0.070 C 
HETATM   48  C31 UNL     1       0.446  52.983 -27.315  1.00  0.00     0.050 C 
HETATM   49  C32 UNL     1       2.061  51.334 -26.379  1.00  0.00     0.050 C 
BRANCH  47  50
HETATM   50  O9  UNL     1      -0.218  50.732 -26.584  1.00  0.00    -0.382 OA
HETATM   51  C33 UNL     1      -1.376  51.004 -27.364  1.00  0.00     0.202 C 
ENDBRANCH  47  50
ENDBRANCH  46  47
ENDBRANCH  44  45
ENDBRANCH  42  44
ENDBRANCH  16  42
TORSDOF 14
ENDMDL
MODEL 3
REMARK minimizedAffinity -8.40549564
REMARK CNNscore 0.457015038
REMARK CNNaffinity 7.1915226
REMARK  14 active torsions:
REMARK  status: ('A' for Active; 'I' for Inactive)
REMARK    1  A    between atoms: O1_2  and  C2_3 
REMARK    2  A    between atoms: C8_9  and  O2_10 
REMARK    3  A    between atoms: O2_10  and  C9_11 
REMARK    4  A    between atoms: C10_13  and  C11_14 
REMARK    5  A    between atoms: C11_14  and  O4_15 
REMARK    6  A    between atoms: C12_16  and  O5_17 
REMARK    7  A    between atoms: C13_18  and  O6_19 
REMARK    8  A    between atoms: C14_20  and  O7_21 
REMARK    9  A    between atoms: C18_25  and  C19_26 
REMARK   10  A    between atoms: C24_32  and  C25_33 
REMARK   11  A    between atoms: C25_33  and  C27_35 
REMARK   12  A    between atoms: C27_35  and  C28_36 
REMARK   13  A    between atoms: C29_37  and  C30_38 
REMARK   14  A    between atoms: C30_38  and  O9_41 
ROOT
HETATM    1  C2  UNL     1      -5.472  50.061 -20.362  1.00  0.00     0.149 C 
HETATM    2  C3  UNL     1      -4.916  50.646 -21.620  1.00  0.00     0.009 C 
HETATM    3  C4  UNL     1      -3.648  50.528 -22.058  1.00  0.00    -0.066 C 
HETATM    4  C5  UNL     1      -2.606  49.765 -21.251  1.00  0.00     0.031 C 
HETATM    5  C6  UNL     1      -1.247  50.521 -21.203  1.00  0.00     0.013 C 
HETATM    6  C7  UNL     1      -0.871  51.287 -22.470  1.00  0.00     0.034 C 
HETATM    7  C8  UNL     1      -1.687  50.863 -23.687  1.00  0.00     0.136 C 
HETATM    8  C15 UNL     1      -3.219  51.082 -23.437  1.00  0.00     0.002 C 
HETATM    9  C16 UNL     1      -3.979  50.332 -24.556  1.00  0.00     0.022 C 
HETATM   10  C17 UNL     1      -3.586  52.584 -23.548  1.00  0.00     0.022 C 
HETATM   11  C18 UNL     1      -3.089  49.263 -19.827  1.00  0.00     0.027 C 
HETATM   12  C20 UNL     1      -2.165  48.096 -19.351  1.00  0.00     0.018 C 
HETATM   13  C21 UNL     1      -2.586  46.678 -19.779  1.00  0.00     0.011 C 
HETATM   14  C22 UNL     1      -4.056  46.402 -19.431  1.00  0.00    -0.032 C 
HETATM   15  C23 UNL     1      -4.218  46.507 -17.878  1.00  0.00     0.016 C 
HETATM   16  C24 UNL     1      -4.666  45.035 -19.883  1.00  0.00    -0.002 C 
HETATM   17  C34 UNL     1      -6.192  45.356 -19.903  1.00  0.00     0.006 C 
HETATM   18  C35 UNL     1      -6.348  46.889 -19.918  1.00  0.00     0.011 C 
HETATM   19  C36 UNL     1      -4.944  47.432 -20.249  1.00  0.00    -0.029 C 
HETATM   20  C37 UNL     1      -4.814  47.307 -21.799  1.00  0.00     0.016 C 
HETATM   21  C38 UNL     1      -4.629  48.896 -19.772  1.00  0.00     0.043 C 
ENDROOT
BRANCH   7  22
HETATM   22  O2  UNL     1      -1.253  51.620 -24.831  1.00  0.00    -0.352 OA
BRANCH  22  23
HETATM   23  C9  UNL     1      -1.438  50.947 -26.077  1.00  0.00     0.292 C 
HETATM   24  O3  UNL     1      -0.178  50.563 -26.626  1.00  0.00    -0.348 OA
HETATM   25  C10 UNL     1       0.708  51.639 -26.997  1.00  0.00     0.179 C 
HETATM   26  C12 UNL     1       0.001  52.976 -27.270  1.00  0.00     0.180 C 
HETATM   27  C13 UNL     1      -1.331  52.686 -27.952  1.00  0.00     0.183 C 
HETATM   28  C14 UNL     1      -2.242  51.841 -27.052  1.00  0.00     0.204 C 
BRANCH  25  29
HETATM   29  C11 UNL     1       1.849  51.765 -25.971  1.00  0.00     0.198 C 
BRANCH  29  30
HETATM   30  O4  UNL     1       3.020  51.051 -26.360  1.00  0.00    -0.398 OA
HETATM   31  H16 UNL     1       3.072  51.116 -27.333  1.00  0.00     0.209 HD
ENDBRANCH  29  30
ENDBRANCH  25  29
BRANCH  26  32
HETATM   32  O5  UNL     1       0.806  53.789 -28.132  1.00  0.00    -0.390 OA
HETATM   33  H18 UNL     1       0.217  54.521 -28.412  1.00  0.00     0.210 HD
ENDBRANCH  26  32
BRANCH  27  34
HETATM   34  O6  UNL     1      -1.971  53.927 -28.296  1.00  0.00    -0.390 OA
HETATM   35  H20 UNL     1      -2.816  53.687 -28.719  1.00  0.00     0.210 HD
ENDBRANCH  27  34
BRANCH  28  36
HETATM   36  O7  UNL     1      -3.089  51.046 -27.911  1.00  0.00    -0.388 OA
HETATM   37  H22 UNL     1      -2.521  50.391 -28.358  1.00  0.00     0.210 HD
ENDBRANCH  28  36
ENDBRANCH  22  23
ENDBRANCH   7  22
BRANCH  11  38
HETATM   38  C19 UNL     1      -2.943  50.424 -18.822  1.00  0.00     0.241 C 
HETATM   39  O8  UNL     1      -2.302  50.369 -17.776  1.00  0.00    -0.306 OA
ENDBRANCH  11  38
BRANCH   1  40
HETATM   40  O1  UNL     1      -6.814  49.671 -20.636  1.00  0.00    -0.386 OA
HETATM   41  C1  UNL     1      -7.198  49.927 -21.982  1.00  0.00     0.202 C 
ENDBRANCH   1  40
BRANCH  16  42
HETATM   42  C25 UNL     1      -4.363  43.730 -19.079  1.00  0.00    -0.010 C 
HETATM   43  C26 UNL     1      -5.620  42.876 -18.873  1.00  0.00     0.010 C 
BRANCH  42  44
HETATM   44  C27 UNL     1      -3.723  44.071 -17.705  1.00  0.00     0.031 C 
BRANCH  44  45
HETATM   45  C28 UNL     1      -2.581  43.172 -17.307  1.00  0.00    -0.027 C 
HETATM   46  C29 UNL     1      -2.367  41.965 -17.859  1.00  0.00     0.006 C 
BRANCH  46  47
HETATM   47  C30 UNL     1      -1.248  40.989 -17.550  1.00  0.00     0.070 C 
HETATM   48  C31 UNL     1      -0.534  41.208 -16.207  1.00  0.00     0.050 C 
HETATM   49  C32 UNL     1      -1.850  39.573 -17.548  1.00  0.00     0.050 C 
BRANCH  47  50
HETATM   50  O9  UNL     1      -0.315  41.000 -18.646  1.00  0.00    -0.382 OA
HETATM   51  C33 UNL     1       1.047  41.230 -18.308  1.00  0.00     0.202 C 
ENDBRANCH  47  50
ENDBRANCH  46  47
ENDBRANCH  44  45
ENDBRANCH  42  44
ENDBRANCH  16  42
TORSDOF 14
ENDMDL
MODEL 4
REMARK minimizedAffinity -8.70364094
REMARK CNNscore 0.448920548
REMARK CNNaffinity 6.44052172
REMARK  14 active torsions:
REMARK  status: ('A' for Active; 'I' for Inactive)
REMARK    1  A    between atoms: O1_2  and  C2_3 
REMARK    2  A    between atoms: C8_9  and  O2_10 
REMARK    3  A    between atoms: O2_10  and  C9_11 
REMARK    4  A    between atoms: C10_13  and  C11_14 
REMARK    5  A    between atoms: C11_14  and  O4_15 
REMARK    6  A    between atoms: C12_16  and  O5_17 
REMARK    7  A    between atoms: C13_18  and  O6_19 
REMARK    8  A    between atoms: C14_20  and  O7_21 
REMARK    9  A    between atoms: C18_25  and  C19_26 
REMARK   10  A    between atoms: C24_32  and  C25_33 
REMARK   11  A    between atoms: C25_33  and  C27_35 
REMARK   12  A    between atoms: C27_35  and  C28_36 
REMARK   13  A    between atoms: C29_37  and  C30_38 
REMARK   14  A    between atoms: C30_38  and  O9_41 
ROOT
HETATM    1  C2  UNL     1       4.646  65.711 -33.903  1.00  0.00     0.149 C 
HETATM    2  C3  UNL     1       3.659  66.133 -34.944  1.00  0.00     0.009 C 
HETATM    3  C4  UNL     1       3.952  66.674 -36.142  1.00  0.00    -0.066 C 
HETATM    4  C5  UNL     1       5.393  66.939 -36.554  1.00  0.00     0.031 C 
HETATM    5  C6  UNL     1       5.553  68.330 -37.233  1.00  0.00     0.013 C 
HETATM    6  C7  UNL     1       4.380  68.779 -38.102  1.00  0.00     0.034 C 
HETATM    7  C8  UNL     1       3.439  67.636 -38.471  1.00  0.00     0.136 C 
HETATM    8  C15 UNL     1       2.846  66.964 -37.185  1.00  0.00     0.002 C 
HETATM    9  C16 UNL     1       2.187  65.635 -37.623  1.00  0.00     0.022 C 
HETATM   10  C17 UNL     1       1.740  67.851 -36.558  1.00  0.00     0.022 C 
HETATM   11  C18 UNL     1       6.478  66.669 -35.429  1.00  0.00     0.027 C 
HETATM   12  C20 UNL     1       7.876  66.467 -36.098  1.00  0.00     0.018 C 
HETATM   13  C21 UNL     1       8.229  65.027 -36.512  1.00  0.00     0.011 C 
HETATM   14  C22 UNL     1       8.020  64.044 -35.352  1.00  0.00    -0.032 C 
HETATM   15  C23 UNL     1       8.973  64.458 -34.182  1.00  0.00     0.016 C 
HETATM   16  C24 UNL     1       8.248  62.523 -35.636  1.00  0.00    -0.002 C 
HETATM   17  C34 UNL     1       7.410  61.855 -34.503  1.00  0.00     0.006 C 
HETATM   18  C35 UNL     1       6.441  62.918 -33.949  1.00  0.00     0.011 C 
HETATM   19  C36 UNL     1       6.478  64.069 -34.973  1.00  0.00    -0.029 C 
HETATM   20  C37 UNL     1       5.525  63.620 -36.125  1.00  0.00     0.016 C 
HETATM   21  C38 UNL     1       6.089  65.494 -34.440  1.00  0.00     0.043 C 
ENDROOT
BRANCH   7  22
HETATM   22  O2  UNL     1       2.380  68.149 -39.301  1.00  0.00    -0.352 OA
BRANCH  22  23
HETATM   23  C9  UNL     1       1.797  67.172 -40.166  1.00  0.00     0.292 C 
HETATM   24  O3  UNL     1       2.284  67.335 -41.498  1.00  0.00    -0.348 OA
HETATM   25  C10 UNL     1       1.930  68.568 -42.156  1.00  0.00     0.179 C 
HETATM   26  C12 UNL     1       0.677  69.253 -41.589  1.00  0.00     0.180 C 
HETATM   27  C13 UNL     1      -0.323  68.174 -41.190  1.00  0.00     0.183 C 
HETATM   28  C14 UNL     1       0.253  67.259 -40.102  1.00  0.00     0.204 C 
BRANCH  25  29
HETATM   29  C11 UNL     1       3.148  69.507 -42.217  1.00  0.00     0.198 C 
BRANCH  29  30
HETATM   30  O4  UNL     1       3.144  70.339 -43.374  1.00  0.00    -0.398 OA
HETATM   31  H16 UNL     1       2.210  70.551 -43.559  1.00  0.00     0.209 HD
ENDBRANCH  29  30
ENDBRANCH  25  29
BRANCH  26  32
HETATM   32  O5  UNL     1       0.088  70.099 -42.583  1.00  0.00    -0.390 OA
HETATM   33  H18 UNL     1      -0.792  70.340 -42.221  1.00  0.00     0.210 HD
ENDBRANCH  26  32
BRANCH  27  34
HETATM   34  O6  UNL     1      -1.539  68.794 -40.737  1.00  0.00    -0.390 OA
HETATM   35  H20 UNL     1      -2.137  68.065 -40.489  1.00  0.00     0.210 HD
ENDBRANCH  27  34
BRANCH  28  36
HETATM   36  O7  UNL     1      -0.349  65.956 -40.263  1.00  0.00    -0.388 OA
HETATM   37  H22 UNL     1      -0.011  65.578 -41.097  1.00  0.00     0.210 HD
ENDBRANCH  28  36
ENDBRANCH  22  23
ENDBRANCH   7  22
BRANCH  11  38
HETATM   38  C19 UNL     1       6.562  67.913 -34.520  1.00  0.00     0.241 C 
HETATM   39  O8  UNL     1       6.424  69.071 -34.902  1.00  0.00    -0.306 OA
ENDBRANCH  11  38
BRANCH   1  40
HETATM   40  O1  UNL     1       4.122  64.545 -33.275  1.00  0.00    -0.386 OA
HETATM   41  C1  UNL     1       4.128  64.632 -31.856  1.00  0.00     0.202 C 
ENDBRANCH   1  40
BRANCH  16  42
HETATM   42  C25 UNL     1       9.696  61.940 -35.702  1.00  0.00    -0.010 C 
HETATM   43  C26 UNL     1      10.517  62.299 -34.457  1.00  0.00     0.010 C 
BRANCH  42  44
HETATM   44  C27 UNL     1      10.426  62.435 -36.980  1.00  0.00     0.031 C 
BRANCH  44  45
HETATM   45  C28 UNL     1      11.856  61.974 -37.101  1.00  0.00    -0.027 C 
HETATM   46  C29 UNL     1      12.333  61.329 -38.180  1.00  0.00     0.006 C 
BRANCH  46  47
HETATM   47  C30 UNL     1      13.749  60.837 -38.416  1.00  0.00     0.070 C 
HETATM   48  C31 UNL     1      14.445  61.406 -39.662  1.00  0.00     0.050 C 
HETATM   49  C32 UNL     1      14.587  61.215 -37.183  1.00  0.00     0.050 C 
BRANCH  47  50
HETATM   50  O9  UNL     1      13.736  59.397 -38.435  1.00  0.00    -0.382 OA
HETATM   51  C33 UNL     1      13.682  58.788 -39.719  1.00  0.00     0.202 C 
ENDBRANCH  47  50
ENDBRANCH  46  47
ENDBRANCH  44  45
ENDBRANCH  42  44
ENDBRANCH  16  42
TORSDOF 14
ENDMDL
MODEL 5
REMARK minimizedAffinity -7.83592892
REMARK CNNscore 0.402528733
REMARK CNNaffinity 7.12273407
REMARK  14 active torsions:
REMARK  status: ('A' for Active; 'I' for Inactive)
REMARK    1  A    between atoms: O1_2  and  C2_3 
REMARK    2  A    between atoms: C8_9  and  O2_10 
REMARK    3  A    between atoms: O2_10  and  C9_11 
REMARK    4  A    between atoms: C10_13  and  C11_14 
REMARK    5  A    between atoms: C11_14  and  O4_15 
REMARK    6  A    between atoms: C12_16  and  O5_17 
REMARK    7  A    between atoms: C13_18  and  O6_19 
REMARK    8  A    between atoms: C14_20  and  O7_21 
REMARK    9  A    between atoms: C18_25  and  C19_26 
REMARK   10  A    between atoms: C24_32  and  C25_33 
REMARK   11  A    between atoms: C25_33  and  C27_35 
REMARK   12  A    between atoms: C27_35  and  C28_36 
REMARK   13  A    between atoms: C29_37  and  C30_38 
REMARK   14  A    between atoms: C30_38  and  O9_41 
ROOT
HETATM    1  C2  UNL     1      -5.553  50.324 -20.036  1.00  0.00     0.149 C 
HETATM    2  C3  UNL     1      -4.991  50.779 -21.345  1.00  0.00     0.009 C 
HETATM    3  C4  UNL     1      -3.724  50.605 -21.768  1.00  0.00    -0.066 C 
HETATM    4  C5  UNL     1      -2.691  49.913 -20.892  1.00  0.00     0.031 C 
HETATM    5  C6  UNL     1      -1.324  50.654 -20.916  1.00  0.00     0.013 C 
HETATM    6  C7  UNL     1      -0.940  51.290 -22.251  1.00  0.00     0.034 C 
HETATM    7  C8  UNL     1      -1.761  50.759 -23.422  1.00  0.00     0.136 C 
HETATM    8  C15 UNL     1      -3.290  51.019 -23.195  1.00  0.00     0.002 C 
HETATM    9  C16 UNL     1      -4.059  50.173 -24.236  1.00  0.00     0.022 C 
HETATM   10  C17 UNL     1      -3.641  52.507 -23.450  1.00  0.00     0.022 C 
HETATM   11  C18 UNL     1      -3.178  49.556 -19.426  1.00  0.00     0.027 C 
HETATM   12  C20 UNL     1      -2.267  48.429 -18.839  1.00  0.00     0.018 C 
HETATM   13  C21 UNL     1      -2.704  46.982 -19.128  1.00  0.00     0.011 C 
HETATM   14  C22 UNL     1      -4.177  46.757 -18.756  1.00  0.00    -0.032 C 
HETATM   15  C23 UNL     1      -4.337  47.014 -17.220  1.00  0.00     0.016 C 
HETATM   16  C24 UNL     1      -4.803  45.360 -19.073  1.00  0.00    -0.002 C 
HETATM   17  C34 UNL     1      -6.325  45.694 -19.125  1.00  0.00     0.006 C 
HETATM   18  C35 UNL     1      -6.463  47.220 -19.288  1.00  0.00     0.011 C 
HETATM   19  C36 UNL     1      -5.054  47.714 -19.669  1.00  0.00    -0.029 C 
HETATM   20  C37 UNL     1      -4.927  47.438 -21.200  1.00  0.00     0.016 C 
HETATM   21  C38 UNL     1      -4.722  49.212 -19.335  1.00  0.00     0.043 C 
ENDROOT
BRANCH   7  22
HETATM   22  O2  UNL     1      -1.319  51.398 -24.633  1.00  0.00    -0.352 OA
BRANCH  22  23
HETATM   23  C9  UNL     1      -1.579  50.640 -25.817  1.00  0.00     0.292 C 
HETATM   24  O3  UNL     1      -0.355  50.220 -26.417  1.00  0.00    -0.348 OA
HETATM   25  C10 UNL     1       0.501  51.269 -26.915  1.00  0.00     0.179 C 
HETATM   26  C12 UNL     1      -0.228  52.584 -27.234  1.00  0.00     0.180 C 
HETATM   27  C13 UNL     1      -1.600  52.247 -27.808  1.00  0.00     0.183 C 
HETATM   28  C14 UNL     1      -2.448  51.466 -26.797  1.00  0.00     0.204 C 
BRANCH  25  29
HETATM   29  C11 UNL     1       1.703  51.465 -25.974  1.00  0.00     0.198 C 
BRANCH  29  30
HETATM   30  O4  UNL     1       2.857  51.956 -26.652  1.00  0.00    -0.398 OA
HETATM   31  H16 UNL     1       2.533  52.556 -27.350  1.00  0.00     0.209 HD
ENDBRANCH  29  30
ENDBRANCH  25  29
BRANCH  26  32
HETATM   32  O5  UNL     1       0.517  53.336 -28.198  1.00  0.00    -0.390 OA
HETATM   33  H18 UNL     1      -0.093  54.047 -28.489  1.00  0.00     0.210 HD
ENDBRANCH  26  32
BRANCH  27  34
HETATM   34  O6  UNL     1      -2.266  53.462 -28.195  1.00  0.00    -0.390 OA
HETATM   35  H20 UNL     1      -3.134  53.193 -28.546  1.00  0.00     0.210 HD
ENDBRANCH  27  34
BRANCH  28  36
HETATM   36  O7  UNL     1      -3.343  50.614 -27.544  1.00  0.00    -0.388 OA
HETATM   37  H22 UNL     1      -2.801  49.930 -27.981  1.00  0.00     0.210 HD
ENDBRANCH  28  36
ENDBRANCH  22  23
ENDBRANCH   7  22
BRANCH  11  38
HETATM   38  C19 UNL     1      -3.018  50.807 -18.537  1.00  0.00     0.241 C 
HETATM   39  O8  UNL     1      -2.609  51.896 -18.928  1.00  0.00    -0.306 OA
ENDBRANCH  11  38
BRANCH   1  40
HETATM   40  O1  UNL     1      -6.900  49.925 -20.272  1.00  0.00    -0.386 OA
HETATM   41  C1  UNL     1      -7.278  50.043 -21.638  1.00  0.00     0.202 C 
ENDBRANCH   1  40
BRANCH  16  42
HETATM   42  C25 UNL     1      -4.513  44.135 -18.147  1.00  0.00    -0.010 C 
HETATM   43  C26 UNL     1      -3.425  43.222 -18.725  1.00  0.00     0.010 C 
BRANCH  42  44
HETATM   44  C27 UNL     1      -5.812  43.320 -17.898  1.00  0.00     0.031 C 
BRANCH  44  45
HETATM   45  C28 UNL     1      -6.517  42.869 -19.151  1.00  0.00    -0.027 C 
HETATM   46  C29 UNL     1      -6.203  41.739 -19.806  1.00  0.00     0.006 C 
BRANCH  46  47
HETATM   47  C30 UNL     1      -6.853  41.182 -21.060  1.00  0.00     0.070 C 
HETATM   48  C31 UNL     1      -6.755  42.076 -22.306  1.00  0.00     0.050 C 
HETATM   49  C32 UNL     1      -6.176  39.838 -21.379  1.00  0.00     0.050 C 
BRANCH  47  50
HETATM   50  O9  UNL     1      -8.222  40.851 -20.758  1.00  0.00    -0.382 OA
HETATM   51  C33 UNL     1      -9.124  40.859 -21.857  1.00  0.00     0.202 C 
ENDBRANCH  47  50
ENDBRANCH  46  47
ENDBRANCH  44  45
ENDBRANCH  42  44
ENDBRANCH  16  42
TORSDOF 14
ENDMDL
MODEL 6
REMARK minimizedAffinity -7.3560195
REMARK CNNscore 0.399356097
REMARK CNNaffinity 6.48469925
REMARK  14 active torsions:
REMARK  status: ('A' for Active; 'I' for Inactive)
REMARK    1  A    between atoms: O1_2  and  C2_3 
REMARK    2  A    between atoms: C8_9  and  O2_10 
REMARK    3  A    between atoms: O2_10  and  C9_11 
REMARK    4  A    between atoms: C10_13  and  C11_14 
REMARK    5  A    between atoms: C11_14  and  O4_15 
REMARK    6  A    between atoms: C12_16  and  O5_17 
REMARK    7  A    between atoms: C13_18  and  O6_19 
REMARK    8  A    between atoms: C14_20  and  O7_21 
REMARK    9  A    between atoms: C18_25  and  C19_26 
REMARK   10  A    between atoms: C24_32  and  C25_33 
REMARK   11  A    between atoms: C25_33  and  C27_35 
REMARK   12  A    between atoms: C27_35  and  C28_36 
REMARK   13  A    between atoms: C29_37  and  C30_38 
REMARK   14  A    between atoms: C30_38  and  O9_41 
ROOT
HETATM    1  C2  UNL     1      -8.191  43.658 -33.279  1.00  0.00     0.149 C 
HETATM    2  C3  UNL     1      -8.575  44.296 -34.577  1.00  0.00     0.009 C 
HETATM    3  C4  UNL     1      -9.665  45.056 -34.795  1.00  0.00    -0.066 C 
HETATM    4  C5  UNL     1     -10.670  45.327 -33.684  1.00  0.00     0.031 C 
HETATM    5  C6  UNL     1     -12.136  45.201 -34.189  1.00  0.00     0.013 C 
HETATM    6  C7  UNL     1     -12.384  45.671 -35.622  1.00  0.00     0.034 C 
HETATM    7  C8  UNL     1     -11.255  46.538 -36.169  1.00  0.00     0.136 C 
HETATM    8  C15 UNL     1      -9.895  45.759 -36.154  1.00  0.00     0.002 C 
HETATM    9  C16 UNL     1      -8.771  46.793 -36.399  1.00  0.00     0.022 C 
HETATM   10  C17 UNL     1      -9.840  44.724 -37.307  1.00  0.00     0.022 C 
HETATM   11  C18 UNL     1     -10.409  44.543 -32.332  1.00  0.00     0.027 C 
HETATM   12  C20 UNL     1     -11.146  45.273 -31.161  1.00  0.00     0.018 C 
HETATM   13  C21 UNL     1     -10.351  46.381 -30.446  1.00  0.00     0.011 C 
HETATM   14  C22 UNL     1      -8.967  45.884 -30.008  1.00  0.00    -0.032 C 
HETATM   15  C23 UNL     1      -9.168  44.704 -29.000  1.00  0.00     0.016 C 
HETATM   16  C24 UNL     1      -7.998  46.917 -29.345  1.00  0.00    -0.002 C 
HETATM   17  C34 UNL     1      -6.607  46.257 -29.592  1.00  0.00     0.006 C 
HETATM   18  C35 UNL     1      -6.780  45.200 -30.700  1.00  0.00     0.011 C 
HETATM   19  C36 UNL     1      -8.162  45.488 -31.318  1.00  0.00    -0.029 C 
HETATM   20  C37 UNL     1      -7.926  46.670 -32.310  1.00  0.00     0.016 C 
HETATM   21  C38 UNL     1      -8.875  44.284 -32.032  1.00  0.00     0.043 C 
ENDROOT
BRANCH   7  22
HETATM   22  O2  UNL     1     -11.583  46.946 -37.509  1.00  0.00    -0.352 OA
BRANCH  22  23
HETATM   23  C9  UNL     1     -11.187  48.283 -37.822  1.00  0.00     0.292 C 
HETATM   24  O3  UNL     1     -12.310  49.162 -37.758  1.00  0.00    -0.348 OA
HETATM   25  C10 UNL     1     -13.356  48.926 -38.723  1.00  0.00     0.179 C 
HETATM   26  C12 UNL     1     -12.899  48.175 -39.983  1.00  0.00     0.180 C 
HETATM   27  C13 UNL     1     -11.492  48.641 -40.338  1.00  0.00     0.183 C 
HETATM   28  C14 UNL     1     -10.502  48.324 -39.209  1.00  0.00     0.204 C 
BRANCH  25  29
HETATM   29  C11 UNL     1     -14.569  48.267 -38.041  1.00  0.00     0.198 C 
BRANCH  29  30
HETATM   30  O4  UNL     1     -14.451  48.235 -36.621  1.00  0.00    -0.398 OA
HETATM   31  H16 UNL     1     -13.985  49.053 -36.364  1.00  0.00     0.209 HD
ENDBRANCH  29  30
ENDBRANCH  25  29
BRANCH  26  32
HETATM   32  O5  UNL     1     -13.782  48.463 -41.074  1.00  0.00    -0.390 OA
HETATM   33  H18 UNL     1     -13.324  48.115 -41.868  1.00  0.00     0.210 HD
ENDBRANCH  26  32
BRANCH  27  34
HETATM   34  O6  UNL     1     -11.077  48.015 -41.564  1.00  0.00    -0.390 OA
HETATM   35  H20 UNL     1     -10.175  48.339 -41.740  1.00  0.00     0.210 HD
ENDBRANCH  27  34
BRANCH  28  36
HETATM   36  O7  UNL     1      -9.462  49.326 -39.247  1.00  0.00    -0.388 OA
HETATM   37  H22 UNL     1      -9.863  50.175 -38.982  1.00  0.00     0.210 HD
ENDBRANCH  28  36
ENDBRANCH  22  23
ENDBRANCH   7  22
BRANCH  11  38
HETATM   38  C19 UNL     1     -11.011  43.128 -32.461  1.00  0.00     0.241 C 
HETATM   39  O8  UNL     1     -11.365  42.610 -33.516  1.00  0.00    -0.306 OA
ENDBRANCH  11  38
BRANCH   1  40
HETATM   40  O1  UNL     1      -6.770  43.699 -33.195  1.00  0.00    -0.386 OA
HETATM   41  C1  UNL     1      -6.177  42.407 -33.236  1.00  0.00     0.202 C 
ENDBRANCH   1  40
BRANCH  16  42
HETATM   42  C25 UNL     1      -8.184  47.328 -27.849  1.00  0.00    -0.010 C 
HETATM   43  C26 UNL     1      -9.033  48.596 -27.703  1.00  0.00     0.010 C 
BRANCH  42  44
HETATM   44  C27 UNL     1      -6.804  47.531 -27.163  1.00  0.00     0.031 C 
BRANCH  44  45
HETATM   45  C28 UNL     1      -6.863  47.637 -25.661  1.00  0.00    -0.027 C 
HETATM   46  C29 UNL     1      -5.839  48.082 -24.914  1.00  0.00     0.006 C 
BRANCH  46  47
HETATM   47  C30 UNL     1      -5.793  48.246 -23.406  1.00  0.00     0.070 C 
HETATM   48  C31 UNL     1      -4.471  48.792 -22.842  1.00  0.00     0.050 C 
HETATM   49  C32 UNL     1      -6.920  49.212 -23.007  1.00  0.00     0.050 C 
BRANCH  47  50
HETATM   50  O9  UNL     1      -6.142  46.988 -22.797  1.00  0.00    -0.382 OA
HETATM   51  C33 UNL     1      -5.466  46.669 -21.587  1.00  0.00     0.202 C 
ENDBRANCH  47  50
ENDBRANCH  46  47
ENDBRANCH  44  45
ENDBRANCH  42  44
ENDBRANCH  16  42
TORSDOF 14
ENDMDL
MODEL 7
REMARK minimizedAffinity -7.33415031
REMARK CNNscore 0.362885892
REMARK CNNaffinity 6.91304207
REMARK  14 active torsions:
REMARK  status: ('A' for Active; 'I' for Inactive)
REMARK    1  A    between atoms: O1_2  and  C2_3 
REMARK    2  A    between atoms: C8_9  and  O2_10 
REMARK    3  A    between atoms: O2_10  and  C9_11 
REMARK    4  A    between atoms: C10_13  and  C11_14 
REMARK    5  A    between atoms: C11_14  and  O4_15 
REMARK    6  A    between atoms: C12_16  and  O5_17 
REMARK    7  A    between atoms: C13_18  and  O6_19 
REMARK    8  A    between atoms: C14_20  and  O7_21 
REMARK    9  A    between atoms: C18_25  and  C19_26 
REMARK   10  A    between atoms: C24_32  and  C25_33 
REMARK   11  A    between atoms: C25_33  and  C27_35 
REMARK   12  A    between atoms: C27_35  and  C28_36 
REMARK   13  A    between atoms: C29_37  and  C30_38 
REMARK   14  A    between atoms: C30_38  and  O9_41 
ROOT
HETATM    1  C2  UNL     1       3.662  51.357 -10.235  1.00  0.00     0.149 C 
HETATM    2  C3  UNL     1       3.295  51.149 -11.670  1.00  0.00     0.009 C 
HETATM    3  C4  UNL     1       2.243  51.699 -12.307  1.00  0.00    -0.066 C 
HETATM    4  C5  UNL     1       1.271  52.613 -11.576  1.00  0.00     0.031 C 
HETATM    5  C6  UNL     1      -0.207  52.295 -11.944  1.00  0.00     0.013 C 
HETATM    6  C7  UNL     1      -0.450  51.864 -13.389  1.00  0.00     0.034 C 
HETATM    7  C8  UNL     1       0.716  52.197 -14.315  1.00  0.00     0.136 C 
HETATM    8  C15 UNL     1       2.032  51.499 -13.827  1.00  0.00     0.002 C 
HETATM    9  C16 UNL     1       3.206  52.142 -14.602  1.00  0.00     0.022 C 
HETATM   10  C17 UNL     1       2.015  49.988 -14.171  1.00  0.00     0.022 C 
HETATM   11  C18 UNL     1       1.509  52.741 -10.014  1.00  0.00     0.027 C 
HETATM   12  C20 UNL     1       0.830  54.050  -9.494  1.00  0.00     0.018 C 
HETATM   13  C21 UNL     1       1.692  55.324  -9.534  1.00  0.00     0.011 C 
HETATM   14  C22 UNL     1       3.055  55.100  -8.863  1.00  0.00    -0.032 C 
HETATM   15  C23 UNL     1       2.805  54.731  -7.362  1.00  0.00     0.016 C 
HETATM   16  C24 UNL     1       4.087  56.274  -8.899  1.00  0.00    -0.002 C 
HETATM   17  C34 UNL     1       5.436  55.521  -8.693  1.00  0.00     0.006 C 
HETATM   18  C35 UNL     1       5.191  54.030  -8.992  1.00  0.00     0.011 C 
HETATM   19  C36 UNL     1       3.818  53.980  -9.689  1.00  0.00    -0.029 C 
HETATM   20  C37 UNL     1       4.102  54.358 -11.176  1.00  0.00     0.016 C 
HETATM   21  C38 UNL     1       3.031  52.623  -9.591  1.00  0.00     0.043 C 
ENDROOT
BRANCH   7  22
HETATM   22  O2  UNL     1       0.390  51.773 -15.651  1.00  0.00    -0.352 OA
BRANCH  22  23
HETATM   23  C9  UNL     1      -0.095  50.431 -15.732  1.00  0.00     0.292 C 
HETATM   24  O3  UNL     1       0.015  49.944 -17.069  1.00  0.00    -0.348 OA
HETATM   25  C10 UNL     1      -0.793  50.614 -18.057  1.00  0.00     0.179 C 
HETATM   26  C12 UNL     1      -2.020  51.343 -17.486  1.00  0.00     0.180 C 
HETATM   27  C13 UNL     1      -2.580  50.513 -16.336  1.00  0.00     0.183 C 
HETATM   28  C14 UNL     1      -1.550  50.359 -15.210  1.00  0.00     0.204 C 
BRANCH  25  29
HETATM   29  C11 UNL     1       0.086  51.522 -18.935  1.00  0.00     0.198 C 
BRANCH  29  30
HETATM   30  O4  UNL     1       0.002  51.197 -20.321  1.00  0.00    -0.398 OA
HETATM   31  H16 UNL     1      -0.916  50.909 -20.481  1.00  0.00     0.209 HD
ENDBRANCH  29  30
ENDBRANCH  25  29
BRANCH  26  32
HETATM   32  O5  UNL     1      -3.022  51.485 -18.499  1.00  0.00    -0.390 OA
HETATM   33  H18 UNL     1      -3.827  51.773 -18.019  1.00  0.00     0.210 HD
ENDBRANCH  26  32
BRANCH  27  34
HETATM   34  O6  UNL     1      -3.780  51.133 -15.842  1.00  0.00    -0.390 OA
HETATM   35  H20 UNL     1      -4.091  50.571 -15.109  1.00  0.00     0.210 HD
ENDBRANCH  27  34
BRANCH  28  36
HETATM   36  O7  UNL     1      -1.806  49.098 -14.554  1.00  0.00    -0.388 OA
HETATM   37  H22 UNL     1      -1.580  48.388 -15.183  1.00  0.00     0.210 HD
ENDBRANCH  28  36
ENDBRANCH  22  23
ENDBRANCH   7  22
BRANCH  11  38
HETATM   38  C19 UNL     1       0.830  51.544  -9.314  1.00  0.00     0.241 C 
HETATM   39  O8  UNL     1       0.327  50.587  -9.894  1.00  0.00    -0.306 OA
ENDBRANCH  11  38
BRANCH   1  40
HETATM   40  O1  UNL     1       5.085  51.366 -10.163  1.00  0.00    -0.386 OA
HETATM   41  C1  UNL     1       5.661  50.105 -10.483  1.00  0.00     0.202 C 
ENDBRANCH   1  40
BRANCH  16  42
HETATM   42  C25 UNL     1       3.945  57.482  -7.918  1.00  0.00    -0.010 C 
HETATM   43  C26 UNL     1       5.021  57.464  -6.826  1.00  0.00     0.010 C 
BRANCH  42  44
HETATM   44  C27 UNL     1       2.532  57.496  -7.271  1.00  0.00     0.031 C 
BRANCH  44  45
HETATM   45  C28 UNL     1       2.511  57.931  -5.828  1.00  0.00    -0.027 C 
HETATM   46  C29 UNL     1       1.526  57.602  -4.975  1.00  0.00     0.006 C 
BRANCH  46  47
HETATM   47  C30 UNL     1       1.410  57.967  -3.506  1.00  0.00     0.070 C 
HETATM   48  C31 UNL     1       0.072  58.596  -3.086  1.00  0.00     0.050 C 
HETATM   49  C32 UNL     1       1.614  56.681  -2.688  1.00  0.00     0.050 C 
BRANCH  47  50
HETATM   50  O9  UNL     1       2.520  58.816  -3.156  1.00  0.00    -0.382 OA
HETATM   51  C33 UNL     1       2.195  60.025  -2.481  1.00  0.00     0.202 C 
ENDBRANCH  47  50
ENDBRANCH  46  47
ENDBRANCH  44  45
ENDBRANCH  42  44
ENDBRANCH  16  42
TORSDOF 14
ENDMDL
MODEL 8
REMARK minimizedAffinity -8.45988846
REMARK CNNscore 0.351281077
REMARK CNNaffinity 7.17250395
REMARK  14 active torsions:
REMARK  status: ('A' for Active; 'I' for Inactive)
REMARK    1  A    between atoms: O1_2  and  C2_3 
REMARK    2  A    between atoms: C8_9  and  O2_10 
REMARK    3  A    between atoms: O2_10  and  C9_11 
REMARK    4  A    between atoms: C10_13  and  C11_14 
REMARK    5  A    between atoms: C11_14  and  O4_15 
REMARK    6  A    between atoms: C12_16  and  O5_17 
REMARK    7  A    between atoms: C13_18  and  O6_19 
REMARK    8  A    between atoms: C14_20  and  O7_21 
REMARK    9  A    between atoms: C18_25  and  C19_26 
REMARK   10  A    between atoms: C24_32  and  C25_33 
REMARK   11  A    between atoms: C25_33  and  C27_35 
REMARK   12  A    between atoms: C27_35  and  C28_36 
REMARK   13  A    between atoms: C29_37  and  C30_38 
REMARK   14  A    between atoms: C30_38  and  O9_41 
ROOT
HETATM    1  C2  UNL     1      -5.544  47.360 -19.485  1.00  0.00     0.149 C 
HETATM    2  C3  UNL     1      -6.382  46.720 -20.545  1.00  0.00     0.009 C 
HETATM    3  C4  UNL     1      -6.823  47.310 -21.673  1.00  0.00    -0.066 C 
HETATM    4  C5  UNL     1      -6.508  48.769 -21.971  1.00  0.00     0.031 C 
HETATM    5  C6  UNL     1      -7.751  49.527 -22.518  1.00  0.00     0.013 C 
HETATM    6  C7  UNL     1      -8.680  48.712 -23.416  1.00  0.00     0.034 C 
HETATM    7  C8  UNL     1      -8.034  47.433 -23.938  1.00  0.00     0.136 C 
HETATM    8  C15 UNL     1      -7.589  46.509 -22.753  1.00  0.00     0.002 C 
HETATM    9  C16 UNL     1      -6.662  45.420 -23.343  1.00  0.00     0.022 C 
HETATM   10  C17 UNL     1      -8.811  45.793 -22.122  1.00  0.00     0.022 C 
HETATM   11  C18 UNL     1      -5.765  49.551 -20.809  1.00  0.00     0.027 C 
HETATM   12  C20 UNL     1      -5.054  50.809 -21.406  1.00  0.00     0.018 C 
HETATM   13  C21 UNL     1      -3.618  50.597 -21.919  1.00  0.00     0.011 C 
HETATM   14  C22 UNL     1      -2.741  49.912 -20.861  1.00  0.00    -0.032 C 
HETATM   15  C23 UNL     1      -2.675  50.842 -19.604  1.00  0.00     0.016 C 
HETATM   16  C24 UNL     1      -1.275  49.543 -21.259  1.00  0.00    -0.002 C 
HETATM   17  C34 UNL     1      -0.941  48.411 -20.241  1.00  0.00     0.006 C 
HETATM   18  C35 UNL     1      -2.272  47.896 -19.659  1.00  0.00     0.011 C 
HETATM   19  C36 UNL     1      -3.364  48.479 -20.577  1.00  0.00    -0.029 C 
HETATM   20  C37 UNL     1      -3.398  47.535 -21.820  1.00  0.00     0.016 C 
HETATM   21  C38 UNL     1      -4.795  48.641 -19.950  1.00  0.00     0.043 C 
ENDROOT
BRANCH   7  22
HETATM   22  O2  UNL     1      -8.972  46.744 -24.785  1.00  0.00    -0.352 OA
BRANCH  22  23
HETATM   23  C9  UNL     1      -9.974  47.591 -25.349  1.00  0.00     0.292 C 
HETATM   24  O3  UNL     1     -10.948  46.813 -26.045  1.00  0.00    -0.348 OA
HETATM   25  C10 UNL     1     -10.477  46.094 -27.203  1.00  0.00     0.179 C 
HETATM   26  C12 UNL     1      -9.202  46.675 -27.835  1.00  0.00     0.180 C 
HETATM   27  C13 UNL     1      -9.263  48.195 -27.732  1.00  0.00     0.183 C 
HETATM   28  C14 UNL     1      -9.320  48.651 -26.269  1.00  0.00     0.204 C 
BRANCH  25  29
HETATM   29  C11 UNL     1     -10.355  44.594 -26.883  1.00  0.00     0.198 C 
BRANCH  29  30
HETATM   30  O4  UNL     1     -11.561  44.043 -26.358  1.00  0.00    -0.398 OA
HETATM   31  H16 UNL     1     -12.294  44.508 -26.805  1.00  0.00     0.209 HD
ENDBRANCH  29  30
ENDBRANCH  25  29
BRANCH  26  32
HETATM   32  O5  UNL     1      -9.122  46.297 -29.213  1.00  0.00    -0.390 OA
HETATM   33  H18 UNL     1      -8.406  46.853 -29.587  1.00  0.00     0.210 HD
ENDBRANCH  26  32
BRANCH  27  34
HETATM   34  O6  UNL     1      -8.120  48.764 -28.395  1.00  0.00    -0.390 OA
HETATM   35  H20 UNL     1      -8.204  49.730 -28.295  1.00  0.00     0.210 HD
ENDBRANCH  27  34
BRANCH  28  36
HETATM   36  O7  UNL     1     -10.047  49.898 -26.227  1.00  0.00    -0.388 OA
HETATM   37  H22 UNL     1     -10.976  49.703 -26.453  1.00  0.00     0.210 HD
ENDBRANCH  28  36
ENDBRANCH  22  23
ENDBRANCH   7  22
BRANCH  11  38
HETATM   38  C19 UNL     1      -6.820  50.040 -19.794  1.00  0.00     0.241 C 
HETATM   39  O8  UNL     1      -7.708  49.341 -19.315  1.00  0.00    -0.306 OA
ENDBRANCH  11  38
BRANCH   1  40
HETATM   40  O1  UNL     1      -4.655  46.362 -18.993  1.00  0.00    -0.386 OA
HETATM   41  C1  UNL     1      -4.986  45.056 -19.447  1.00  0.00     0.202 C 
ENDBRANCH   1  40
BRANCH  16  42
HETATM   42  C25 UNL     1      -0.163  50.641 -21.286  1.00  0.00    -0.010 C 
HETATM   43  C26 UNL     1       0.154  51.171 -19.881  1.00  0.00     0.010 C 
BRANCH  42  44
HETATM   44  C27 UNL     1      -0.578  51.816 -22.214  1.00  0.00     0.031 C 
BRANCH  44  45
HETATM   45  C28 UNL     1      -0.346  51.563 -23.682  1.00  0.00    -0.027 C 
HETATM   46  C29 UNL     1       0.475  52.312 -24.438  1.00  0.00     0.006 C 
BRANCH  46  47
HETATM   47  C30 UNL     1       0.795  52.139 -25.911  1.00  0.00     0.070 C 
HETATM   48  C31 UNL     1       2.135  51.453 -26.219  1.00  0.00     0.050 C 
HETATM   49  C32 UNL     1      -0.330  51.299 -26.538  1.00  0.00     0.050 C 
BRANCH  47  50
HETATM   50  O9  UNL     1       0.706  53.426 -26.553  1.00  0.00    -0.382 OA
HETATM   51  C33 UNL     1      -0.239  53.534 -27.610  1.00  0.00     0.202 C 
ENDBRANCH  47  50
ENDBRANCH  46  47
ENDBRANCH  44  45
ENDBRANCH  42  44
ENDBRANCH  16  42
TORSDOF 14
ENDMDL
MODEL 9
REMARK minimizedAffinity -7.08100224
REMARK CNNscore 0.332821459
REMARK CNNaffinity 6.37583542
REMARK  14 active torsions:
REMARK  status: ('A' for Active; 'I' for Inactive)
REMARK    1  A    between atoms: O1_2  and  C2_3 
REMARK    2  A    between atoms: C8_9  and  O2_10 
REMARK    3  A    between atoms: O2_10  and  C9_11 
REMARK    4  A    between atoms: C10_13  and  C11_14 
REMARK    5  A    between atoms: C11_14  and  O4_15 
REMARK    6  A    between atoms: C12_16  and  O5_17 
REMARK    7  A    between atoms: C13_18  and  O6_19 
REMARK    8  A    between atoms: C14_20  and  O7_21 
REMARK    9  A    between atoms: C18_25  and  C19_26 
REMARK   10  A    between atoms: C24_32  and  C25_33 
REMARK   11  A    between atoms: C25_33  and  C27_35 
REMARK   12  A    between atoms: C27_35  and  C28_36 
REMARK   13  A    between atoms: C29_37  and  C30_38 
REMARK   14  A    between atoms: C30_38  and  O9_41 
ROOT
HETATM    1  C2  UNL     1     -11.412  45.416 -25.996  1.00  0.00     0.149 C 
HETATM    2  C3  UNL     1     -11.367  44.540 -27.206  1.00  0.00     0.009 C 
HETATM    3  C4  UNL     1     -10.790  44.843 -28.385  1.00  0.00    -0.066 C 
HETATM    4  C5  UNL     1     -10.115  46.190 -28.606  1.00  0.00     0.031 C 
HETATM    5  C6  UNL     1     -10.473  46.792 -29.995  1.00  0.00     0.013 C 
HETATM    6  C7  UNL     1     -10.634  45.784 -31.132  1.00  0.00     0.034 C 
HETATM    7  C8  UNL     1     -10.036  44.419 -30.806  1.00  0.00     0.136 C 
HETATM    8  C15 UNL     1     -10.707  43.805 -29.530  1.00  0.00     0.002 C 
HETATM    9  C16 UNL     1      -9.835  42.609 -29.082  1.00  0.00     0.022 C 
HETATM   10  C17 UNL     1     -12.120  43.258 -29.858  1.00  0.00     0.022 C 
HETATM   11  C18 UNL     1     -10.274  47.228 -27.419  1.00  0.00     0.027 C 
HETATM   12  C20 UNL     1      -9.149  48.309 -27.524  1.00  0.00     0.018 C 
HETATM   13  C21 UNL     1      -7.826  47.984 -26.807  1.00  0.00     0.011 C 
HETATM   14  C22 UNL     1      -8.067  47.573 -25.348  1.00  0.00    -0.032 C 
HETATM   15  C23 UNL     1      -8.739  48.776 -24.605  1.00  0.00     0.016 C 
HETATM   16  C24 UNL     1      -6.830  47.123 -24.504  1.00  0.00    -0.002 C 
HETATM   17  C34 UNL     1      -7.497  46.268 -23.385  1.00  0.00     0.006 C 
HETATM   18  C35 UNL     1      -8.918  45.904 -23.859  1.00  0.00     0.011 C 
HETATM   19  C36 UNL     1      -8.941  46.248 -25.361  1.00  0.00    -0.029 C 
HETATM   20  C37 UNL     1      -8.261  45.034 -26.068  1.00  0.00     0.016 C 
HETATM   21  C38 UNL     1     -10.349  46.551 -25.988  1.00  0.00     0.043 C 
ENDROOT
BRANCH   7  22
HETATM   22  O2  UNL     1     -10.217  43.546 -31.936  1.00  0.00    -0.352 OA
BRANCH  22  23
HETATM   23  C9  UNL     1      -9.019  43.294 -32.673  1.00  0.00     0.292 C 
HETATM   24  O3  UNL     1      -7.881  43.379 -31.815  1.00  0.00    -0.348 OA
HETATM   25  C10 UNL     1      -7.614  44.675 -31.242  1.00  0.00     0.179 C 
HETATM   26  C12 UNL     1      -8.210  45.852 -32.031  1.00  0.00     0.180 C 
HETATM   27  C13 UNL     1      -8.114  45.533 -33.518  1.00  0.00     0.183 C 
HETATM   28  C14 UNL     1      -8.914  44.272 -33.868  1.00  0.00     0.204 C 
BRANCH  25  29
HETATM   29  C11 UNL     1      -8.010  44.691 -29.755  1.00  0.00     0.198 C 
BRANCH  29  30
HETATM   30  O4  UNL     1      -6.923  44.360 -28.893  1.00  0.00    -0.398 OA
HETATM   31  H16 UNL     1      -6.120  44.727 -29.308  1.00  0.00     0.209 HD
ENDBRANCH  29  30
ENDBRANCH  25  29
BRANCH  26  32
HETATM   32  O5  UNL     1      -7.474  47.050 -31.755  1.00  0.00    -0.390 OA
HETATM   33  H18 UNL     1      -7.781  47.695 -32.427  1.00  0.00     0.210 HD
ENDBRANCH  26  32
BRANCH  27  34
HETATM   34  O6  UNL     1      -8.586  46.659 -34.279  1.00  0.00    -0.390 OA
HETATM   35  H20 UNL     1      -8.511  46.401 -35.216  1.00  0.00     0.210 HD
ENDBRANCH  27  34
BRANCH  28  36
HETATM   36  O7  UNL     1      -8.270  43.646 -34.999  1.00  0.00    -0.388 OA
HETATM   37  H22 UNL     1      -7.408  43.305 -34.694  1.00  0.00     0.210 HD
ENDBRANCH  28  36
ENDBRANCH  22  23
ENDBRANCH   7  22
BRANCH  11  38
HETATM   38  C19 UNL     1     -11.634  47.942 -27.569  1.00  0.00     0.241 C 
HETATM   39  O8  UNL     1     -12.140  48.670 -26.721  1.00  0.00    -0.306 OA
ENDBRANCH  11  38
BRANCH   1  40
HETATM   40  O1  UNL     1     -11.304  44.567 -24.858  1.00  0.00    -0.386 OA
HETATM   41  C1  UNL     1     -11.456  43.190 -25.181  1.00  0.00     0.202 C 
ENDBRANCH   1  40
BRANCH  16  42
HETATM   42  C25 UNL     1      -5.850  48.186 -23.910  1.00  0.00    -0.010 C 
HETATM   43  C26 UNL     1      -6.568  49.495 -23.558  1.00  0.00     0.010 C 
BRANCH  42  44
HETATM   44  C27 UNL     1      -4.686  48.469 -24.899  1.00  0.00     0.031 C 
BRANCH  44  45
HETATM   45  C28 UNL     1      -3.415  48.949 -24.247  1.00  0.00    -0.027 C 
HETATM   46  C29 UNL     1      -3.276  49.085 -22.917  1.00  0.00     0.006 C 
BRANCH  46  47
HETATM   47  C30 UNL     1      -2.045  49.540 -22.154  1.00  0.00     0.070 C 
HETATM   48  C31 UNL     1      -1.130  50.521 -22.904  1.00  0.00     0.050 C 
HETATM   49  C32 UNL     1      -2.523  50.222 -20.861  1.00  0.00     0.050 C 
BRANCH  47  50
HETATM   50  O9  UNL     1      -1.318  48.375 -21.720  1.00  0.00    -0.382 OA
HETATM   51  C33 UNL     1      -2.104  47.281 -21.263  1.00  0.00     0.202 C 
ENDBRANCH  47  50
ENDBRANCH  46  47
ENDBRANCH  44  45
ENDBRANCH  42  44
ENDBRANCH  16  42
TORSDOF 14
ENDMDL
