MODEL 1
REMARK minimizedAffinity -7.75354624
REMARK CNNscore 0.784020543
REMARK CNNaffinity 7.09478235
REMARK  5 active torsions:
REMARK  status: ('A' for Active; 'I' for Inactive)
REMARK    1  A    between atoms: C2_2  and  C4_4 
REMARK    2  A    between atoms: C4_4  and  C6_6 
REMARK    3  A    between atoms: C7_7  and  C8_8 
REMARK    4  A    between atoms: C8_8  and  C10_10 
REMARK    5  A    between atoms: C19_20  and  O2_21 
ROOT
HETATM    1  C10 UNL     1       0.195  53.339  -9.998  1.00  0.00     0.001 C 
HETATM    2  C11 UNL     1      -0.927  53.900  -9.070  1.00  0.00     0.006 C 
HETATM    3  C12 UNL     1      -0.227  54.628  -7.928  1.00  0.00     0.006 C 
HETATM    4  C13 UNL     1       0.953  55.238  -8.665  1.00  0.00     0.001 C 
HETATM    5  C14 UNL     1       1.966  56.074  -7.883  1.00  0.00     0.033 C 
HETATM    6  C15 UNL     1       2.194  55.749  -6.403  1.00  0.00     0.089 C 
HETATM    7  C16 UNL     1       3.341  56.641  -5.926  1.00  0.00     0.162 C 
HETATM    8  O1  UNL     1       3.347  57.097  -4.779  1.00  0.00    -0.295 OA
HETATM    9  C17 UNL     1       4.457  56.833  -7.074  1.00  0.00     0.131 C 
HETATM   10  C18 UNL     1       5.746  57.516  -6.636  1.00  0.00     0.078 C 
HETATM   11  C19 UNL     1       6.780  56.440  -6.324  1.00  0.00     0.121 C 
HETATM   12  C20 UNL     1       7.120  55.574  -7.550  1.00  0.00     0.036 C 
HETATM   13  C21 UNL     1       6.013  55.528  -8.631  1.00  0.00    -0.006 C 
HETATM   14  C22 UNL     1       6.183  54.284  -9.497  1.00  0.00     0.010 C 
HETATM   15  C23 UNL     1       4.640  55.548  -7.953  1.00  0.00     0.067 C 
HETATM   16  C24 UNL     1       3.331  56.153  -8.643  1.00  0.00     0.074 C 
HETATM   17  C25 UNL     1       3.149  56.030 -10.152  1.00  0.00     0.040 C 
HETATM   18  C26 UNL     1       2.466  54.707 -10.579  1.00  0.00     0.013 C 
HETATM   19  C27 UNL     1       1.516  54.083  -9.522  1.00  0.00    -0.036 C 
HETATM   20  C28 UNL     1       2.316  53.030  -8.709  1.00  0.00     0.016 C 
HETATM   21  O3  UNL     1       3.895  57.489  -8.292  1.00  0.00    -0.360 OA
ENDROOT
BRANCH   1  22
HETATM   22  C8  UNL     1      -0.209  53.411 -11.499  1.00  0.00     0.008 C 
HETATM   23  C9  UNL     1      -1.619  52.844 -11.742  1.00  0.00     0.014 C 
BRANCH  22  24
HETATM   24  C7  UNL     1       0.717  52.716 -12.479  1.00  0.00    -0.026 C 
HETATM   25  C6  UNL     1       0.415  52.252 -13.705  1.00  0.00    -0.026 C 
BRANCH  25  26
HETATM   26  C4  UNL     1       1.359  51.542 -14.661  1.00  0.00     0.007 C 
HETATM   27  C5  UNL     1       2.655  51.088 -13.966  1.00  0.00     0.014 C 
BRANCH  26  28
HETATM   28  C2  UNL     1       1.639  52.408 -15.925  1.00  0.00    -0.015 C 
HETATM   29  C1  UNL     1       0.903  51.883 -17.166  1.00  0.00     0.010 C 
HETATM   30  C3  UNL     1       3.137  52.500 -16.250  1.00  0.00     0.010 C 
ENDBRANCH  26  28
ENDBRANCH  25  26
ENDBRANCH  22  24
ENDBRANCH   1  22
BRANCH  11  31
HETATM   31  O2  UNL     1       6.252  55.581  -5.316  1.00  0.00    -0.395 OA
HETATM   32  H30 UNL     1       6.661  55.825  -4.460  1.00  0.00     0.210 HD
ENDBRANCH  11  31
TORSDOF 5
ENDMDL
MODEL 2
REMARK minimizedAffinity -7.04149485
REMARK CNNscore 0.710500479
REMARK CNNaffinity 7.05371141
REMARK  5 active torsions:
REMARK  status: ('A' for Active; 'I' for Inactive)
REMARK    1  A    between atoms: C2_2  and  C4_4 
REMARK    2  A    between atoms: C4_4  and  C6_6 
REMARK    3  A    between atoms: C7_7  and  C8_8 
REMARK    4  A    between atoms: C8_8  and  C10_10 
REMARK    5  A    between atoms: C19_20  and  O2_21 
ROOT
HETATM    1  C10 UNL     1       3.856  52.909  -9.000  1.00  0.00     0.001 C 
HETATM    2  C11 UNL     1       4.299  51.459  -9.368  1.00  0.00     0.006 C 
HETATM    3  C12 UNL     1       3.042  50.716  -9.809  1.00  0.00     0.006 C 
HETATM    4  C13 UNL     1       2.303  51.824 -10.540  1.00  0.00     0.001 C 
HETATM    5  C14 UNL     1       0.938  51.524 -11.159  1.00  0.00     0.033 C 
HETATM    6  C15 UNL     1       0.062  50.447 -10.510  1.00  0.00     0.089 C 
HETATM    7  C16 UNL     1      -1.278  50.462 -11.248  1.00  0.00     0.162 C 
HETATM    8  O1  UNL     1      -1.902  49.415 -11.439  1.00  0.00    -0.295 OA
HETATM    9  C17 UNL     1      -1.706  51.961 -11.664  1.00  0.00     0.131 C 
HETATM   10  C18 UNL     1      -3.122  52.118 -12.204  1.00  0.00     0.078 C 
HETATM   11  C19 UNL     1      -4.025  52.569 -11.063  1.00  0.00     0.121 C 
HETATM   12  C20 UNL     1      -3.608  53.932 -10.482  1.00  0.00     0.036 C 
HETATM   13  C21 UNL     1      -2.120  54.295 -10.701  1.00  0.00    -0.006 C 
HETATM   14  C22 UNL     1      -1.681  55.336  -9.676  1.00  0.00     0.010 C 
HETATM   15  C23 UNL     1      -1.267  53.026 -10.601  1.00  0.00     0.067 C 
HETATM   16  C24 UNL     1       0.119  52.840 -11.373  1.00  0.00     0.074 C 
HETATM   17  C25 UNL     1       1.028  54.045 -11.591  1.00  0.00     0.040 C 
HETATM   18  C26 UNL     1       2.000  54.299 -10.412  1.00  0.00     0.013 C 
HETATM   19  C27 UNL     1       2.386  53.040  -9.591  1.00  0.00    -0.036 C 
HETATM   20  C28 UNL     1       1.437  52.946  -8.366  1.00  0.00     0.016 C 
HETATM   21  O3  UNL     1      -0.713  52.588 -12.586  1.00  0.00    -0.360 OA
ENDROOT
BRANCH   1  22
HETATM   22  C8  UNL     1       4.927  53.960  -9.412  1.00  0.00     0.008 C 
HETATM   23  C9  UNL     1       6.346  53.365  -9.409  1.00  0.00     0.014 C 
BRANCH  22  24
HETATM   24  C7  UNL     1       4.981  55.227  -8.579  1.00  0.00    -0.026 C 
HETATM   25  C6  UNL     1       4.127  56.265  -8.609  1.00  0.00    -0.026 C 
BRANCH  25  26
HETATM   26  C4  UNL     1       4.215  57.533  -7.775  1.00  0.00     0.007 C 
HETATM   27  C5  UNL     1       5.345  57.463  -6.732  1.00  0.00     0.014 C 
BRANCH  26  28
HETATM   28  C2  UNL     1       2.840  57.884  -7.134  1.00  0.00    -0.015 C 
HETATM   29  C1  UNL     1       2.961  58.212  -5.638  1.00  0.00     0.010 C 
HETATM   30  C3  UNL     1       1.811  56.758  -7.304  1.00  0.00     0.010 C 
ENDBRANCH  26  28
ENDBRANCH  25  26
ENDBRANCH  22  24
ENDBRANCH   1  22
BRANCH  11  31
HETATM   31  O2  UNL     1      -3.949  51.606 -10.014  1.00  0.00    -0.395 OA
HETATM   32  H30 UNL     1      -4.751  51.046 -10.052  1.00  0.00     0.210 HD
ENDBRANCH  11  31
TORSDOF 5
ENDMDL
MODEL 3
REMARK minimizedAffinity -9.4426136
REMARK CNNscore 0.68646127
REMARK CNNaffinity 7.13437796
REMARK  5 active torsions:
REMARK  status: ('A' for Active; 'I' for Inactive)
REMARK    1  A    between atoms: C2_2  and  C4_4 
REMARK    2  A    between atoms: C4_4  and  C6_6 
REMARK    3  A    between atoms: C7_7  and  C8_8 
REMARK    4  A    between atoms: C8_8  and  C10_10 
REMARK    5  A    between atoms: C19_20  and  O2_21 
ROOT
HETATM    1  C10 UNL     1      -4.127  50.356 -24.730  1.00  0.00     0.001 C 
HETATM    2  C11 UNL     1      -3.999  51.893 -24.490  1.00  0.00     0.006 C 
HETATM    3  C12 UNL     1      -3.866  52.091 -22.984  1.00  0.00     0.006 C 
HETATM    4  C13 UNL     1      -3.029  50.879 -22.613  1.00  0.00     0.001 C 
HETATM    5  C14 UNL     1      -2.650  50.657 -21.149  1.00  0.00     0.033 C 
HETATM    6  C15 UNL     1      -3.597  51.175 -20.063  1.00  0.00     0.089 C 
HETATM    7  C16 UNL     1      -3.039  50.696 -18.722  1.00  0.00     0.162 C 
HETATM    8  O1  UNL     1      -3.132  51.401 -17.713  1.00  0.00    -0.295 OA
HETATM    9  C17 UNL     1      -2.393  49.222 -18.845  1.00  0.00     0.131 C 
HETATM   10  C18 UNL     1      -2.008  48.558 -17.529  1.00  0.00     0.078 C 
HETATM   11  C19 UNL     1      -3.140  47.628 -17.110  1.00  0.00     0.121 C 
HETATM   12  C20 UNL     1      -3.389  46.503 -18.130  1.00  0.00     0.036 C 
HETATM   13  C21 UNL     1      -2.925  46.827 -19.570  1.00  0.00    -0.006 C 
HETATM   14  C22 UNL     1      -3.667  45.943 -20.568  1.00  0.00     0.010 C 
HETATM   15  C23 UNL     1      -3.167  48.312 -19.859  1.00  0.00     0.067 C 
HETATM   16  C24 UNL     1      -2.283  49.159 -20.887  1.00  0.00     0.074 C 
HETATM   17  C25 UNL     1      -1.726  48.484 -22.136  1.00  0.00     0.040 C 
HETATM   18  C26 UNL     1      -2.707  48.511 -23.335  1.00  0.00     0.013 C 
HETATM   19  C27 UNL     1      -3.705  49.699 -23.345  1.00  0.00    -0.036 C 
HETATM   20  C28 UNL     1      -5.030  49.229 -22.687  1.00  0.00     0.016 C 
HETATM   21  O3  UNL     1      -1.253  49.193 -19.809  1.00  0.00    -0.360 OA
ENDROOT
BRANCH   1  22
HETATM   22  C8  UNL     1      -3.392  49.913 -26.027  1.00  0.00     0.008 C 
HETATM   23  C9  UNL     1      -3.713  48.454 -26.399  1.00  0.00     0.014 C 
BRANCH  22  24
HETATM   24  C7  UNL     1      -1.880  50.041 -26.021  1.00  0.00    -0.026 C 
HETATM   25  C6  UNL     1      -1.152  51.136 -25.737  1.00  0.00    -0.026 C 
BRANCH  25  26
HETATM   26  C4  UNL     1       0.364  51.242 -25.757  1.00  0.00     0.007 C 
HETATM   27  C5  UNL     1       0.877  52.380 -24.856  1.00  0.00     0.014 C 
BRANCH  26  28
HETATM   28  C2  UNL     1       0.904  51.353 -27.213  1.00  0.00    -0.015 C 
HETATM   29  C1  UNL     1       2.414  51.630 -27.257  1.00  0.00     0.010 C 
HETATM   30  C3  UNL     1       0.186  52.443 -28.022  1.00  0.00     0.010 C 
ENDBRANCH  26  28
ENDBRANCH  25  26
ENDBRANCH  22  24
ENDBRANCH   1  22
BRANCH  11  31
HETATM   31  O2  UNL     1      -4.340  48.391 -17.000  1.00  0.00    -0.395 OA
HETATM   32  H30 UNL     1      -4.508  48.564 -16.052  1.00  0.00     0.210 HD
ENDBRANCH  11  31
TORSDOF 5
ENDMDL
MODEL 4
REMARK minimizedAffinity -7.15276909
REMARK CNNscore 0.533099174
REMARK CNNaffinity 6.40560961
REMARK  5 active torsions:
REMARK  status: ('A' for Active; 'I' for Inactive)
REMARK    1  A    between atoms: C2_2  and  C4_4 
REMARK    2  A    between atoms: C4_4  and  C6_6 
REMARK    3  A    between atoms: C7_7  and  C8_8 
REMARK    4  A    between atoms: C8_8  and  C10_10 
REMARK    5  A    between atoms: C19_20  and  O2_21 
ROOT
HETATM    1  C10 UNL     1       3.744  55.328  -8.325  1.00  0.00     0.001 C 
HETATM    2  C11 UNL     1       4.349  55.666  -9.723  1.00  0.00     0.006 C 
HETATM    3  C12 UNL     1       3.466  54.979 -10.759  1.00  0.00     0.006 C 
HETATM    4  C13 UNL     1       2.099  55.147 -10.119  1.00  0.00     0.001 C 
HETATM    5  C14 UNL     1       0.871  54.579 -10.830  1.00  0.00     0.033 C 
HETATM    6  C15 UNL     1       1.049  53.344 -11.720  1.00  0.00     0.089 C 
HETATM    7  C16 UNL     1      -0.349  52.926 -12.180  1.00  0.00     0.162 C 
HETATM    8  O1  UNL     1      -0.526  52.458 -13.309  1.00  0.00    -0.295 OA
HETATM    9  C17 UNL     1      -1.446  53.153 -11.019  1.00  0.00     0.131 C 
HETATM   10  C18 UNL     1      -2.826  52.567 -11.289  1.00  0.00     0.078 C 
HETATM   11  C19 UNL     1      -2.915  51.210 -10.601  1.00  0.00     0.121 C 
HETATM   12  C20 UNL     1      -2.755  51.310  -9.073  1.00  0.00     0.036 C 
HETATM   13  C21 UNL     1      -1.982  52.560  -8.589  1.00  0.00    -0.006 C 
HETATM   14  C22 UNL     1      -1.417  52.315  -7.193  1.00  0.00     0.010 C 
HETATM   15  C23 UNL     1      -0.867  52.886  -9.587  1.00  0.00     0.067 C 
HETATM   16  C24 UNL     1      -0.308  54.364  -9.824  1.00  0.00     0.074 C 
HETATM   17  C25 UNL     1      -0.242  55.341  -8.655  1.00  0.00     0.040 C 
HETATM   18  C26 UNL     1       1.074  55.236  -7.845  1.00  0.00     0.013 C 
HETATM   19  C27 UNL     1       2.305  54.734  -8.645  1.00  0.00    -0.036 C 
HETATM   20  C28 UNL     1       2.432  53.202  -8.434  1.00  0.00     0.016 C 
HETATM   21  O3  UNL     1      -1.548  54.590 -10.623  1.00  0.00    -0.360 OA
ENDROOT
BRANCH   1  22
HETATM   22  C8  UNL     1       3.860  56.529  -7.343  1.00  0.00     0.008 C 
HETATM   23  C9  UNL     1       3.718  57.879  -8.067  1.00  0.00     0.014 C 
BRANCH  22  24
HETATM   24  C7  UNL     1       5.132  56.605  -6.519  1.00  0.00    -0.026 C 
HETATM   25  C6  UNL     1       5.912  57.681  -6.312  1.00  0.00    -0.026 C 
BRANCH  25  26
HETATM   26  C4  UNL     1       7.193  57.725  -5.495  1.00  0.00     0.007 C 
HETATM   27  C5  UNL     1       7.610  56.331  -4.995  1.00  0.00     0.014 C 
BRANCH  26  28
HETATM   28  C2  UNL     1       7.090  58.762  -4.338  1.00  0.00    -0.015 C 
HETATM   29  C1  UNL     1       5.672  59.332  -4.191  1.00  0.00     0.010 C 
HETATM   30  C3  UNL     1       8.069  59.931  -4.512  1.00  0.00     0.010 C 
ENDBRANCH  26  28
ENDBRANCH  25  26
ENDBRANCH  22  24
ENDBRANCH   1  22
BRANCH  11  31
HETATM   31  O2  UNL     1      -1.866  50.379 -11.095  1.00  0.00    -0.395 OA
HETATM   32  H30 UNL     1      -2.249  49.757 -11.747  1.00  0.00     0.210 HD
ENDBRANCH  11  31
TORSDOF 5
ENDMDL
MODEL 5
REMARK minimizedAffinity -8.81922054
REMARK CNNscore 0.428408742
REMARK CNNaffinity 6.99374819
REMARK  5 active torsions:
REMARK  status: ('A' for Active; 'I' for Inactive)
REMARK    1  A    between atoms: C2_2  and  C4_4 
REMARK    2  A    between atoms: C4_4  and  C6_6 
REMARK    3  A    between atoms: C7_7  and  C8_8 
REMARK    4  A    between atoms: C8_8  and  C10_10 
REMARK    5  A    between atoms: C19_20  and  O2_21 
ROOT
HETATM    1  C10 UNL     1      -1.993  49.924 -22.935  1.00  0.00     0.001 C 
HETATM    2  C11 UNL     1      -3.004  48.771 -23.225  1.00  0.00     0.006 C 
HETATM    3  C12 UNL     1      -3.162  47.991 -21.924  1.00  0.00     0.006 C 
HETATM    4  C13 UNL     1      -3.091  49.119 -20.909  1.00  0.00     0.001 C 
HETATM    5  C14 UNL     1      -3.198  48.786 -19.421  1.00  0.00     0.033 C 
HETATM    6  C15 UNL     1      -2.701  47.419 -18.941  1.00  0.00     0.089 C 
HETATM    7  C16 UNL     1      -2.802  47.422 -17.414  1.00  0.00     0.162 C 
HETATM    8  O1  UNL     1      -3.105  46.394 -16.802  1.00  0.00    -0.295 OA
HETATM    9  C17 UNL     1      -2.444  48.871 -16.802  1.00  0.00     0.131 C 
HETATM   10  C18 UNL     1      -2.297  48.930 -15.287  1.00  0.00     0.078 C 
HETATM   11  C19 UNL     1      -0.816  48.823 -14.942  1.00  0.00     0.121 C 
HETATM   12  C20 UNL     1       0.012  49.984 -15.524  1.00  0.00     0.036 C 
HETATM   13  C21 UNL     1      -0.617  50.663 -16.764  1.00  0.00    -0.006 C 
HETATM   14  C22 UNL     1       0.461  51.387 -17.564  1.00  0.00     0.010 C 
HETATM   15  C23 UNL     1      -1.325  49.606 -17.617  1.00  0.00     0.067 C 
HETATM   16  C24 UNL     1      -2.583  49.930 -18.548  1.00  0.00     0.074 C 
HETATM   17  C25 UNL     1      -2.681  51.286 -19.238  1.00  0.00     0.040 C 
HETATM   18  C26 UNL     1      -1.965  51.327 -20.611  1.00  0.00     0.013 C 
HETATM   19  C27 UNL     1      -1.877  49.965 -21.350  1.00  0.00    -0.036 C 
HETATM   20  C28 UNL     1      -0.506  49.316 -21.017  1.00  0.00     0.016 C 
HETATM   21  O3  UNL     1      -3.381  49.928 -17.286  1.00  0.00    -0.360 OA
ENDROOT
BRANCH   1  22
HETATM   22  C8  UNL     1      -2.373  51.228 -23.694  1.00  0.00     0.008 C 
HETATM   23  C9  UNL     1      -3.776  51.140 -24.320  1.00  0.00     0.014 C 
BRANCH  22  24
HETATM   24  C7  UNL     1      -1.427  51.664 -24.798  1.00  0.00    -0.026 C 
HETATM   25  C6  UNL     1      -0.293  52.375 -24.673  1.00  0.00    -0.026 C 
BRANCH  25  26
HETATM   26  C4  UNL     1       0.628  52.815 -25.800  1.00  0.00     0.007 C 
HETATM   27  C5  UNL     1       0.012  53.945 -26.643  1.00  0.00     0.014 C 
BRANCH  26  28
HETATM   28  C2  UNL     1       1.073  51.603 -26.670  1.00  0.00    -0.015 C 
HETATM   29  C1  UNL     1       2.594  51.388 -26.637  1.00  0.00     0.010 C 
HETATM   30  C3  UNL     1       0.633  51.741 -28.134  1.00  0.00     0.010 C 
ENDBRANCH  26  28
ENDBRANCH  25  26
ENDBRANCH  22  24
ENDBRANCH   1  22
BRANCH  11  31
HETATM   31  O2  UNL     1      -0.307  47.608 -15.489  1.00  0.00    -0.395 OA
HETATM   32  H30 UNL     1      -0.234  46.953 -14.765  1.00  0.00     0.210 HD
ENDBRANCH  11  31
TORSDOF 5
ENDMDL
MODEL 6
REMARK minimizedAffinity -7.13565254
REMARK CNNscore 0.384208977
REMARK CNNaffinity 5.85782766
REMARK  5 active torsions:
REMARK  status: ('A' for Active; 'I' for Inactive)
REMARK    1  A    between atoms: C2_2  and  C4_4 
REMARK    2  A    between atoms: C4_4  and  C6_6 
REMARK    3  A    between atoms: C7_7  and  C8_8 
REMARK    4  A    between atoms: C8_8  and  C10_10 
REMARK    5  A    between atoms: C19_20  and  O2_21 
ROOT
HETATM    1  C10 UNL     1      -6.898  48.114 -32.112  1.00  0.00     0.001 C 
HETATM    2  C11 UNL     1      -5.546  48.009 -31.340  1.00  0.00     0.006 C 
HETATM    3  C12 UNL     1      -5.895  47.844 -29.865  1.00  0.00     0.006 C 
HETATM    4  C13 UNL     1      -7.137  46.974 -29.966  1.00  0.00     0.001 C 
HETATM    5  C14 UNL     1      -7.856  46.555 -28.684  1.00  0.00     0.033 C 
HETATM    6  C15 UNL     1      -7.786  47.486 -27.470  1.00  0.00     0.089 C 
HETATM    7  C16 UNL     1      -8.698  46.885 -26.398  1.00  0.00     0.162 C 
HETATM    8  O1  UNL     1      -8.402  46.967 -25.203  1.00  0.00    -0.295 OA
HETATM    9  C17 UNL     1     -10.012  46.214 -27.050  1.00  0.00     0.131 C 
HETATM   10  C18 UNL     1     -11.092  45.784 -26.065  1.00  0.00     0.078 C 
HETATM   11  C19 UNL     1     -12.141  46.888 -25.988  1.00  0.00     0.121 C 
HETATM   12  C20 UNL     1     -12.833  47.140 -27.340  1.00  0.00     0.036 C 
HETATM   13  C21 UNL     1     -12.004  46.718 -28.575  1.00  0.00    -0.006 C 
HETATM   14  C22 UNL     1     -12.492  47.466 -29.811  1.00  0.00     0.010 C 
HETATM   15  C23 UNL     1     -10.521  46.995 -28.311  1.00  0.00     0.067 C 
HETATM   16  C24 UNL     1      -9.339  46.153 -28.982  1.00  0.00     0.074 C 
HETATM   17  C25 UNL     1      -9.508  45.614 -30.398  1.00  0.00     0.040 C 
HETATM   18  C26 UNL     1      -9.081  46.624 -31.492  1.00  0.00     0.013 C 
HETATM   19  C27 UNL     1      -7.995  47.645 -31.061  1.00  0.00    -0.036 C 
HETATM   20  C28 UNL     1      -8.704  48.944 -30.593  1.00  0.00     0.016 C 
HETATM   21  O3  UNL     1      -9.665  45.098 -27.979  1.00  0.00    -0.360 OA
ENDROOT
BRANCH   1  22
HETATM   22  C8  UNL     1      -6.829  47.402 -33.493  1.00  0.00     0.008 C 
HETATM   23  C9  UNL     1      -5.571  47.802 -34.283  1.00  0.00     0.014 C 
BRANCH  22  24
HETATM   24  C7  UNL     1      -8.013  47.614 -34.419  1.00  0.00    -0.026 C 
HETATM   25  C6  UNL     1      -8.312  46.929 -35.537  1.00  0.00    -0.026 C 
BRANCH  25  26
HETATM   26  C4  UNL     1      -9.497  47.174 -36.458  1.00  0.00     0.007 C 
HETATM   27  C5  UNL     1     -10.235  45.872 -36.811  1.00  0.00     0.014 C 
BRANCH  26  28
HETATM   28  C2  UNL     1      -9.072  47.975 -37.723  1.00  0.00    -0.015 C 
HETATM   29  C1  UNL     1      -7.548  48.142 -37.824  1.00  0.00     0.010 C 
HETATM   30  C3  UNL     1      -9.718  49.367 -37.779  1.00  0.00     0.010 C 
ENDBRANCH  26  28
ENDBRANCH  25  26
ENDBRANCH  22  24
ENDBRANCH   1  22
BRANCH  11  31
HETATM   31  O2  UNL     1     -11.499  48.098 -25.594  1.00  0.00    -0.395 OA
HETATM   32  H30 UNL     1     -11.681  48.247 -24.644  1.00  0.00     0.210 HD
ENDBRANCH  11  31
TORSDOF 5
ENDMDL
MODEL 7
REMARK minimizedAffinity -8.31342697
REMARK CNNscore 0.38221547
REMARK CNNaffinity 6.84885931
REMARK  5 active torsions:
REMARK  status: ('A' for Active; 'I' for Inactive)
REMARK    1  A    between atoms: C2_2  and  C4_4 
REMARK    2  A    between atoms: C4_4  and  C6_6 
REMARK    3  A    between atoms: C7_7  and  C8_8 
REMARK    4  A    between atoms: C8_8  and  C10_10 
REMARK    5  A    between atoms: C19_20  and  O2_21 
ROOT
HETATM    1  C10 UNL     1      -2.651  48.508 -22.326  1.00  0.00     0.001 C 
HETATM    2  C11 UNL     1      -3.560  47.355 -21.794  1.00  0.00     0.006 C 
HETATM    3  C12 UNL     1      -3.312  47.260 -20.293  1.00  0.00     0.006 C 
HETATM    4  C13 UNL     1      -3.136  48.728 -19.943  1.00  0.00     0.001 C 
HETATM    5  C14 UNL     1      -2.846  49.117 -18.493  1.00  0.00     0.033 C 
HETATM    6  C15 UNL     1      -2.093  48.121 -17.607  1.00  0.00     0.089 C 
HETATM    7  C16 UNL     1      -1.829  48.826 -16.275  1.00  0.00     0.162 C 
HETATM    8  O1  UNL     1      -1.854  48.195 -15.214  1.00  0.00    -0.295 OA
HETATM    9  C17 UNL     1      -1.508  50.392 -16.489  1.00  0.00     0.131 C 
HETATM   10  C18 UNL     1      -1.014  51.140 -15.257  1.00  0.00     0.078 C 
HETATM   11  C19 UNL     1       0.508  51.197 -15.307  1.00  0.00     0.121 C 
HETATM   12  C20 UNL     1       1.031  51.956 -16.539  1.00  0.00     0.036 C 
HETATM   13  C21 UNL     1       0.051  51.992 -17.736  1.00  0.00    -0.006 C 
HETATM   14  C22 UNL     1       0.816  52.263 -19.027  1.00  0.00     0.010 C 
HETATM   15  C23 UNL     1      -0.709  50.665 -17.810  1.00  0.00     0.067 C 
HETATM   16  C24 UNL     1      -2.181  50.531 -18.417  1.00  0.00     0.074 C 
HETATM   17  C25 UNL     1      -2.598  51.419 -19.584  1.00  0.00     0.040 C 
HETATM   18  C26 UNL     1      -2.238  50.821 -20.967  1.00  0.00     0.013 C 
HETATM   19  C27 UNL     1      -2.168  49.271 -21.018  1.00  0.00    -0.036 C 
HETATM   20  C28 UNL     1      -0.692  48.842 -20.808  1.00  0.00     0.016 C 
HETATM   21  O3  UNL     1      -2.651  51.113 -17.125  1.00  0.00    -0.360 OA
ENDROOT
BRANCH   1  22
HETATM   22  C8  UNL     1      -3.351  49.318 -23.454  1.00  0.00     0.008 C 
HETATM   23  C9  UNL     1      -4.368  48.463 -24.231  1.00  0.00     0.014 C 
BRANCH  22  24
HETATM   24  C7  UNL     1      -2.441  49.961 -24.485  1.00  0.00    -0.026 C 
HETATM   25  C6  UNL     1      -1.621  51.013 -24.311  1.00  0.00    -0.026 C 
BRANCH  25  26
HETATM   26  C4  UNL     1      -0.732  51.649 -25.368  1.00  0.00     0.007 C 
HETATM   27  C5  UNL     1      -0.144  50.607 -26.335  1.00  0.00     0.014 C 
BRANCH  26  28
HETATM   28  C2  UNL     1       0.367  52.540 -24.718  1.00  0.00    -0.015 C 
HETATM   29  C1  UNL     1       0.417  52.385 -23.190  1.00  0.00     0.010 C 
HETATM   30  C3  UNL     1       0.186  54.028 -25.050  1.00  0.00     0.010 C 
ENDBRANCH  26  28
ENDBRANCH  25  26
ENDBRANCH  22  24
ENDBRANCH   1  22
BRANCH  11  31
HETATM   31  O2  UNL     1       1.012  49.864 -15.370  1.00  0.00    -0.395 OA
HETATM   32  H30 UNL     1       1.331  49.614 -14.479  1.00  0.00     0.210 HD
ENDBRANCH  11  31
TORSDOF 5
ENDMDL
MODEL 8
REMARK minimizedAffinity -8.98138714
REMARK CNNscore 0.339984238
REMARK CNNaffinity 6.53908682
REMARK  5 active torsions:
REMARK  status: ('A' for Active; 'I' for Inactive)
REMARK    1  A    between atoms: C2_2  and  C4_4 
REMARK    2  A    between atoms: C4_4  and  C6_6 
REMARK    3  A    between atoms: C7_7  and  C8_8 
REMARK    4  A    between atoms: C8_8  and  C10_10 
REMARK    5  A    between atoms: C19_20  and  O2_21 
ROOT
HETATM    1  C10 UNL     1      -0.568  52.410 -20.923  1.00  0.00     0.001 C 
HETATM    2  C11 UNL     1      -0.091  52.697 -19.465  1.00  0.00     0.006 C 
HETATM    3  C12 UNL     1      -0.857  51.741 -18.558  1.00  0.00     0.006 C 
HETATM    4  C13 UNL     1      -0.916  50.504 -19.438  1.00  0.00     0.001 C 
HETATM    5  C14 UNL     1      -1.629  49.256 -18.918  1.00  0.00     0.033 C 
HETATM    6  C15 UNL     1      -2.788  49.434 -17.932  1.00  0.00     0.089 C 
HETATM    7  C16 UNL     1      -3.387  48.046 -17.698  1.00  0.00     0.162 C 
HETATM    8  O1  UNL     1      -3.830  47.731 -16.590  1.00  0.00    -0.295 OA
HETATM    9  C17 UNL     1      -3.368  47.160 -19.046  1.00  0.00     0.131 C 
HETATM   10  C18 UNL     1      -4.139  45.848 -18.985  1.00  0.00     0.078 C 
HETATM   11  C19 UNL     1      -5.521  46.072 -19.589  1.00  0.00     0.121 C 
HETATM   12  C20 UNL     1      -5.459  46.493 -21.068  1.00  0.00     0.036 C 
HETATM   13  C21 UNL     1      -4.130  47.165 -21.489  1.00  0.00    -0.006 C 
HETATM   14  C22 UNL     1      -4.345  48.003 -22.745  1.00  0.00     0.010 C 
HETATM   15  C23 UNL     1      -3.605  48.023 -20.334  1.00  0.00     0.067 C 
HETATM   16  C24 UNL     1      -2.053  48.322 -20.099  1.00  0.00     0.074 C 
HETATM   17  C25 UNL     1      -1.124  48.467 -21.300  1.00  0.00     0.040 C 
HETATM   18  C26 UNL     1      -1.068  49.911 -21.858  1.00  0.00     0.013 C 
HETATM   19  C27 UNL     1      -1.353  51.031 -20.822  1.00  0.00    -0.036 C 
HETATM   20  C28 UNL     1      -2.857  51.403 -20.907  1.00  0.00     0.016 C 
HETATM   21  O3  UNL     1      -1.979  46.938 -19.547  1.00  0.00    -0.360 OA
ENDROOT
BRANCH   1  22
HETATM   22  C8  UNL     1       0.597  52.539 -21.946  1.00  0.00     0.008 C 
HETATM   23  C9  UNL     1       1.532  53.713 -21.608  1.00  0.00     0.014 C 
BRANCH  22  24
HETATM   24  C7  UNL     1       0.199  52.700 -23.402  1.00  0.00    -0.026 C 
HETATM   25  C6  UNL     1       0.387  51.824 -24.405  1.00  0.00    -0.026 C 
BRANCH  25  26
HETATM   26  C4  UNL     1      -0.005  52.018 -25.860  1.00  0.00     0.007 C 
HETATM   27  C5  UNL     1      -0.953  50.913 -26.358  1.00  0.00     0.014 C 
BRANCH  26  28
HETATM   28  C2  UNL     1       1.251  52.173 -26.768  1.00  0.00    -0.015 C 
HETATM   29  C1  UNL     1       0.942  51.888 -28.245  1.00  0.00     0.010 C 
HETATM   30  C3  UNL     1       2.405  51.262 -26.328  1.00  0.00     0.010 C 
ENDBRANCH  26  28
ENDBRANCH  25  26
ENDBRANCH  22  24
ENDBRANCH   1  22
BRANCH  11  31
HETATM   31  O2  UNL     1      -6.170  47.115 -18.865  1.00  0.00    -0.395 OA
HETATM   32  H30 UNL     1      -6.814  46.708 -18.250  1.00  0.00     0.210 HD
ENDBRANCH  11  31
TORSDOF 5
ENDMDL
MODEL 9
REMARK minimizedAffinity -7.80331612
REMARK CNNscore 0.335815728
REMARK CNNaffinity 6.25781488
REMARK  5 active torsions:
REMARK  status: ('A' for Active; 'I' for Inactive)
REMARK    1  A    between atoms: C2_2  and  C4_4 
REMARK    2  A    between atoms: C4_4  and  C6_6 
REMARK    3  A    between atoms: C7_7  and  C8_8 
REMARK    4  A    between atoms: C8_8  and  C10_10 
REMARK    5  A    between atoms: C19_20  and  O2_21 
ROOT
HETATM    1  C10 UNL     1      -2.427  49.335 -23.479  1.00  0.00     0.001 C 
HETATM    2  C11 UNL     1      -3.175  49.062 -24.822  1.00  0.00     0.006 C 
HETATM    3  C12 UNL     1      -4.491  48.384 -24.459  1.00  0.00     0.006 C 
HETATM    4  C13 UNL     1      -4.839  49.114 -23.173  1.00  0.00     0.001 C 
HETATM    5  C14 UNL     1      -6.119  48.737 -22.427  1.00  0.00     0.033 C 
HETATM    6  C15 UNL     1      -6.636  47.299 -22.544  1.00  0.00     0.089 C 
HETATM    7  C16 UNL     1      -7.832  47.181 -21.598  1.00  0.00     0.162 C 
HETATM    8  O1  UNL     1      -8.800  46.474 -21.894  1.00  0.00    -0.295 OA
HETATM    9  C17 UNL     1      -7.607  48.040 -20.251  1.00  0.00     0.131 C 
HETATM   10  C18 UNL     1      -8.632  47.818 -19.146  1.00  0.00     0.078 C 
HETATM   11  C19 UNL     1      -8.064  46.805 -18.159  1.00  0.00     0.121 C 
HETATM   12  C20 UNL     1      -6.771  47.298 -17.485  1.00  0.00     0.036 C 
HETATM   13  C21 UNL     1      -5.989  48.360 -18.295  1.00  0.00    -0.006 C 
HETATM   14  C22 UNL     1      -4.530  48.383 -17.851  1.00  0.00     0.010 C 
HETATM   15  C23 UNL     1      -6.109  48.049 -19.789  1.00  0.00     0.067 C 
HETATM   16  C24 UNL     1      -6.040  49.170 -20.926  1.00  0.00     0.074 C 
HETATM   17  C25 UNL     1      -5.139  50.385 -20.733  1.00  0.00     0.040 C 
HETATM   18  C26 UNL     1      -3.686  50.152 -21.217  1.00  0.00     0.013 C 
HETATM   19  C27 UNL     1      -3.528  49.109 -22.356  1.00  0.00    -0.036 C 
HETATM   20  C28 UNL     1      -3.193  47.735 -21.716  1.00  0.00     0.016 C 
HETATM   21  O3  UNL     1      -7.444  49.496 -20.540  1.00  0.00    -0.360 OA
ENDROOT
BRANCH   1  22
HETATM   22  C8  UNL     1      -1.656  50.686 -23.514  1.00  0.00     0.008 C 
HETATM   23  C9  UNL     1      -2.523  51.855 -23.016  1.00  0.00     0.014 C 
BRANCH  22  24
HETATM   24  C7  UNL     1      -1.088  51.102 -24.859  1.00  0.00    -0.026 C 
HETATM   25  C6  UNL     1       0.169  50.933 -25.306  1.00  0.00    -0.026 C 
BRANCH  25  26
HETATM   26  C4  UNL     1       0.716  51.377 -26.653  1.00  0.00     0.007 C 
HETATM   27  C5  UNL     1       2.237  51.607 -26.613  1.00  0.00     0.014 C 
BRANCH  26  28
HETATM   28  C2  UNL     1      -0.056  52.616 -27.195  1.00  0.00    -0.015 C 
HETATM   29  C1  UNL     1       0.313  52.941 -28.651  1.00  0.00     0.010 C 
HETATM   30  C3  UNL     1       0.179  53.870 -26.342  1.00  0.00     0.010 C 
ENDBRANCH  26  28
ENDBRANCH  25  26
ENDBRANCH  22  24
ENDBRANCH   1  22
BRANCH  11  31
HETATM   31  O2  UNL     1      -7.758  45.604 -18.864  1.00  0.00    -0.395 OA
HETATM   32  H30 UNL     1      -8.469  44.955 -18.687  1.00  0.00     0.210 HD
ENDBRANCH  11  31
TORSDOF 5
ENDMDL
