MODEL 1
REMARK minimizedAffinity -9.05081463
REMARK CNNscore 0.479210138
REMARK CNNaffinity 7.18917847
REMARK  13 active torsions:
REMARK  status: ('A' for Active; 'I' for Inactive)
REMARK    1  A    between atoms: O1_2  and  C2_3 
REMARK    2  A    between atoms: C12_14  and  C13_15 
REMARK    3  A    between atoms: C13_15  and  C15_17 
REMARK    4  A    between atoms: C15_17  and  C16_18 
REMARK    5  A    between atoms: C17_19  and  C18_20 
REMARK    6  A    between atoms: C18_20  and  O3_23 
REMARK    7  A    between atoms: C28_31  and  O4_32 
REMARK    8  A    between atoms: O4_32  and  C29_33 
REMARK    9  A    between atoms: C30_35  and  C31_36 
REMARK   10  A    between atoms: C31_36  and  O6_37 
REMARK   11  A    between atoms: C32_38  and  O7_39 
REMARK   12  A    between atoms: C33_40  and  O8_41 
REMARK   13  A    between atoms: C34_42  and  O9_43 
ROOT
HETATM    1  C2  UNL     1      -0.691  53.682  -7.882  1.00  0.00     0.270 C 
HETATM    2  O2  UNL     1      -1.840  53.654  -8.767  1.00  0.00    -0.344 OA
HETATM    3  C3  UNL     1      -1.459  52.950  -9.973  1.00  0.00     0.095 C 
HETATM    4  C4  UNL     1      -1.092  54.027 -10.997  1.00  0.00     0.008 C 
HETATM    5  C5  UNL     1       0.024  54.768 -10.884  1.00  0.00    -0.021 C 
HETATM    6  C6  UNL     1       0.842  54.683  -9.620  1.00  0.00     0.030 C 
HETATM    7  C7  UNL     1       0.570  53.353  -8.786  1.00  0.00     0.024 C 
HETATM    8  C8  UNL     1       1.765  52.778  -7.967  1.00  0.00     0.016 C 
HETATM    9  C9  UNL     1       3.168  53.390  -8.126  1.00  0.00     0.011 C 
HETATM   10  C10 UNL     1       3.388  54.107  -9.450  1.00  0.00    -0.032 C 
HETATM   11  C11 UNL     1       3.312  53.101 -10.623  1.00  0.00     0.016 C 
HETATM   12  C12 UNL     1       4.702  54.938  -9.531  1.00  0.00    -0.002 C 
HETATM   13  C21 UNL     1       4.411  55.901 -10.710  1.00  0.00     0.006 C 
HETATM   14  C22 UNL     1       2.866  55.971 -10.844  1.00  0.00     0.011 C 
HETATM   15  C23 UNL     1       2.312  55.234  -9.602  1.00  0.00    -0.029 C 
HETATM   16  C24 UNL     1       2.316  56.299  -8.437  1.00  0.00     0.016 C 
HETATM   17  C25 UNL     1      -0.168  52.224  -9.582  1.00  0.00     0.039 C 
HETATM   18  C26 UNL     1       0.411  51.443 -10.759  1.00  0.00     0.011 C 
HETATM   19  C27 UNL     1      -0.621  50.410 -11.249  1.00  0.00     0.033 C 
HETATM   20  C28 UNL     1      -1.994  51.032 -11.596  1.00  0.00     0.136 C 
HETATM   21  C35 UNL     1      -2.558  51.933 -10.443  1.00  0.00     0.014 C 
HETATM   22  C36 UNL     1      -3.012  51.013  -9.275  1.00  0.00     0.021 C 
HETATM   23  C37 UNL     1      -3.846  52.672 -10.886  1.00  0.00     0.021 C 
ENDROOT
BRANCH  20  24
HETATM   24  O4  UNL     1      -1.798  51.795 -12.792  1.00  0.00    -0.352 OA
BRANCH  24  25
HETATM   25  C29 UNL     1      -1.329  51.025 -13.909  1.00  0.00     0.292 C 
HETATM   26  O5  UNL     1      -0.245  51.707 -14.532  1.00  0.00    -0.348 OA
HETATM   27  C30 UNL     1       0.333  50.997 -15.639  1.00  0.00     0.179 C 
HETATM   28  C32 UNL     1      -0.592  49.932 -16.275  1.00  0.00     0.180 C 
HETATM   29  C33 UNL     1      -2.062  50.376 -16.273  1.00  0.00     0.183 C 
HETATM   30  C34 UNL     1      -2.510  50.900 -14.897  1.00  0.00     0.204 C 
BRANCH  27  31
HETATM   31  C31 UNL     1       0.785  52.050 -16.660  1.00  0.00     0.198 C 
BRANCH  31  32
HETATM   32  O6  UNL     1       1.447  53.141 -16.028  1.00  0.00    -0.398 OA
HETATM   33  H48 UNL     1       0.757  53.755 -15.719  1.00  0.00     0.209 HD
ENDBRANCH  31  32
ENDBRANCH  27  31
BRANCH  28  34
HETATM   34  O7  UNL     1      -0.460  48.711 -15.522  1.00  0.00    -0.390 OA
HETATM   35  H50 UNL     1      -1.119  48.072 -15.851  1.00  0.00     0.210 HD
ENDBRANCH  28  34
BRANCH  29  36
HETATM   36  O8  UNL     1      -2.304  51.380 -17.264  1.00  0.00    -0.390 OA
HETATM   37  H52 UNL     1      -2.038  51.026 -18.133  1.00  0.00     0.210 HD
ENDBRANCH  29  36
BRANCH  30  38
HETATM   38  O9  UNL     1      -3.515  50.015 -14.364  1.00  0.00    -0.388 OA
HETATM   39  H54 UNL     1      -4.379  50.396 -14.611  1.00  0.00     0.210 HD
ENDBRANCH  30  38
ENDBRANCH  24  25
ENDBRANCH  20  24
BRANCH   1  40
HETATM   40  O1  UNL     1      -0.858  52.716  -6.839  1.00  0.00    -0.365 OA
HETATM   41  C1  UNL     1      -1.309  53.315  -5.632  1.00  0.00     0.204 C 
ENDBRANCH   1  40
BRANCH  12  42
HETATM   42  C13 UNL     1       6.123  54.303  -9.459  1.00  0.00    -0.010 C 
HETATM   43  C14 UNL     1       5.988  52.870  -8.896  1.00  0.00     0.010 C 
BRANCH  42  44
HETATM   44  C15 UNL     1       7.217  55.079  -8.695  1.00  0.00     0.031 C 
BRANCH  44  45
HETATM   45  C16 UNL     1       6.877  55.648  -7.332  1.00  0.00    -0.027 C 
HETATM   46  C17 UNL     1       5.992  56.627  -7.058  1.00  0.00     0.006 C 
BRANCH  46  47
HETATM   47  C18 UNL     1       5.637  57.203  -5.703  1.00  0.00     0.068 C 
HETATM   48  C19 UNL     1       6.677  58.255  -5.306  1.00  0.00     0.050 C 
HETATM   49  C20 UNL     1       5.473  56.183  -4.572  1.00  0.00     0.050 C 
BRANCH  47  50
HETATM   50  O3  UNL     1       4.372  57.860  -5.840  1.00  0.00    -0.387 OA
HETATM   51  H30 UNL     1       4.438  58.486  -6.581  1.00  0.00     0.211 HD
ENDBRANCH  47  50
ENDBRANCH  46  47
ENDBRANCH  44  45
ENDBRANCH  42  44
ENDBRANCH  12  42
TORSDOF 13
ENDMDL
MODEL 2
REMARK minimizedAffinity -8.06124306
REMARK CNNscore 0.423886895
REMARK CNNaffinity 6.99533987
REMARK  13 active torsions:
REMARK  status: ('A' for Active; 'I' for Inactive)
REMARK    1  A    between atoms: O1_2  and  C2_3 
REMARK    2  A    between atoms: C12_14  and  C13_15 
REMARK    3  A    between atoms: C13_15  and  C15_17 
REMARK    4  A    between atoms: C15_17  and  C16_18 
REMARK    5  A    between atoms: C17_19  and  C18_20 
REMARK    6  A    between atoms: C18_20  and  O3_23 
REMARK    7  A    between atoms: C28_31  and  O4_32 
REMARK    8  A    between atoms: O4_32  and  C29_33 
REMARK    9  A    between atoms: C30_35  and  C31_36 
REMARK   10  A    between atoms: C31_36  and  O6_37 
REMARK   11  A    between atoms: C32_38  and  O7_39 
REMARK   12  A    between atoms: C33_40  and  O8_41 
REMARK   13  A    between atoms: C34_42  and  O9_43 
ROOT
HETATM    1  C2  UNL     1      -7.574  48.836 -20.664  1.00  0.00     0.270 C 
HETATM    2  O2  UNL     1      -8.390  47.703 -21.058  1.00  0.00    -0.344 OA
HETATM    3  C3  UNL     1      -7.521  46.555 -21.201  1.00  0.00     0.095 C 
HETATM    4  C4  UNL     1      -7.202  46.445 -22.694  1.00  0.00     0.008 C 
HETATM    5  C5  UNL     1      -6.406  47.327 -23.321  1.00  0.00    -0.021 C 
HETATM    6  C6  UNL     1      -5.967  48.572 -22.593  1.00  0.00     0.030 C 
HETATM    7  C7  UNL     1      -6.076  48.443 -21.009  1.00  0.00     0.024 C 
HETATM    8  C8  UNL     1      -5.035  49.237 -20.163  1.00  0.00     0.016 C 
HETATM    9  C9  UNL     1      -3.865  49.952 -20.862  1.00  0.00     0.011 C 
HETATM   10  C10 UNL     1      -3.504  49.371 -22.222  1.00  0.00    -0.032 C 
HETATM   11  C11 UNL     1      -2.982  47.923 -22.063  1.00  0.00     0.016 C 
HETATM   12  C12 UNL     1      -2.497  50.224 -23.048  1.00  0.00    -0.002 C 
HETATM   13  C21 UNL     1      -2.714  49.687 -24.486  1.00  0.00     0.006 C 
HETATM   14  C22 UNL     1      -4.124  49.038 -24.501  1.00  0.00     0.011 C 
HETATM   15  C23 UNL     1      -4.766  49.419 -23.146  1.00  0.00    -0.029 C 
HETATM   16  C24 UNL     1      -5.368  50.864 -23.351  1.00  0.00     0.016 C 
HETATM   17  C25 UNL     1      -6.234  46.976 -20.484  1.00  0.00     0.039 C 
HETATM   18  C26 UNL     1      -5.169  45.885 -20.563  1.00  0.00     0.011 C 
HETATM   19  C27 UNL     1      -5.707  44.593 -19.919  1.00  0.00     0.033 C 
HETATM   20  C28 UNL     1      -7.051  44.122 -20.519  1.00  0.00     0.136 C 
HETATM   21  C35 UNL     1      -8.130  45.261 -20.554  1.00  0.00     0.014 C 
HETATM   22  C36 UNL     1      -8.609  45.531 -19.100  1.00  0.00     0.021 C 
HETATM   23  C37 UNL     1      -9.403  44.807 -21.311  1.00  0.00     0.021 C 
ENDROOT
BRANCH  20  24
HETATM   24  O4  UNL     1      -6.759  43.655 -21.841  1.00  0.00    -0.352 OA
BRANCH  24  25
HETATM   25  C29 UNL     1      -6.927  42.240 -22.013  1.00  0.00     0.292 C 
HETATM   26  O5  UNL     1      -7.589  41.989 -23.250  1.00  0.00    -0.348 OA
HETATM   27  C30 UNL     1      -7.766  40.594 -23.544  1.00  0.00     0.179 C 
HETATM   28  C32 UNL     1      -7.703  39.662 -22.311  1.00  0.00     0.180 C 
HETATM   29  C33 UNL     1      -8.323  40.316 -21.067  1.00  0.00     0.183 C 
HETATM   30  C34 UNL     1      -7.802  41.745 -20.839  1.00  0.00     0.204 C 
BRANCH  27  31
HETATM   31  C31 UNL     1      -9.097  40.461 -24.298  1.00  0.00     0.198 C 
BRANCH  31  32
HETATM   32  O6  UNL     1      -9.193  41.407 -25.359  1.00  0.00    -0.398 OA
HETATM   33  H48 UNL     1      -9.510  42.241 -24.970  1.00  0.00     0.209 HD
ENDBRANCH  31  32
ENDBRANCH  27  31
BRANCH  28  34
HETATM   34  O7  UNL     1      -6.321  39.352 -22.049  1.00  0.00    -0.390 OA
HETATM   35  H50 UNL     1      -6.269  38.856 -21.211  1.00  0.00     0.210 HD
ENDBRANCH  28  34
BRANCH  29  36
HETATM   36  O8  UNL     1      -9.752  40.340 -21.150  1.00  0.00    -0.390 OA
HETATM   37  H52 UNL     1     -10.070  39.425 -21.270  1.00  0.00     0.210 HD
ENDBRANCH  29  36
BRANCH  30  38
HETATM   38  O9  UNL     1      -7.051  41.779 -19.609  1.00  0.00    -0.388 OA
HETATM   39  H54 UNL     1      -7.672  42.067 -18.914  1.00  0.00     0.210 HD
ENDBRANCH  30  38
ENDBRANCH  24  25
ENDBRANCH  20  24
BRANCH   1  40
HETATM   40  O1  UNL     1      -7.743  49.093 -19.266  1.00  0.00    -0.365 OA
HETATM   41  C1  UNL     1      -6.759  48.427 -18.485  1.00  0.00     0.204 C 
ENDBRANCH   1  40
BRANCH  12  42
HETATM   42  C13 UNL     1      -1.030  50.492 -22.598  1.00  0.00    -0.010 C 
HETATM   43  C14 UNL     1      -0.886  50.059 -21.121  1.00  0.00     0.010 C 
BRANCH  42  44
HETATM   44  C15 UNL     1      -0.469  51.917 -22.796  1.00  0.00     0.031 C 
BRANCH  44  45
HETATM   45  C16 UNL     1       0.364  52.197 -24.030  1.00  0.00    -0.027 C 
HETATM   46  C17 UNL     1       0.134  51.757 -25.283  1.00  0.00     0.006 C 
BRANCH  46  47
HETATM   47  C18 UNL     1       0.953  52.032 -26.527  1.00  0.00     0.068 C 
HETATM   48  C19 UNL     1       0.238  51.447 -27.750  1.00  0.00     0.050 C 
HETATM   49  C20 UNL     1       2.402  51.538 -26.489  1.00  0.00     0.050 C 
BRANCH  47  50
HETATM   50  O3  UNL     1       1.015  53.453 -26.687  1.00  0.00    -0.387 OA
HETATM   51  H30 UNL     1       0.105  53.797 -26.675  1.00  0.00     0.211 HD
ENDBRANCH  47  50
ENDBRANCH  46  47
ENDBRANCH  44  45
ENDBRANCH  42  44
ENDBRANCH  12  42
TORSDOF 13
ENDMDL
MODEL 3
REMARK minimizedAffinity -7.77251005
REMARK CNNscore 0.377546817
REMARK CNNaffinity 7.00606537
REMARK  13 active torsions:
REMARK  status: ('A' for Active; 'I' for Inactive)
REMARK    1  A    between atoms: O1_2  and  C2_3 
REMARK    2  A    between atoms: C12_14  and  C13_15 
REMARK    3  A    between atoms: C13_15  and  C15_17 
REMARK    4  A    between atoms: C15_17  and  C16_18 
REMARK    5  A    between atoms: C17_19  and  C18_20 
REMARK    6  A    between atoms: C18_20  and  O3_23 
REMARK    7  A    between atoms: C28_31  and  O4_32 
REMARK    8  A    between atoms: O4_32  and  C29_33 
REMARK    9  A    between atoms: C30_35  and  C31_36 
REMARK   10  A    between atoms: C31_36  and  O6_37 
REMARK   11  A    between atoms: C32_38  and  O7_39 
REMARK   12  A    between atoms: C33_40  and  O8_41 
REMARK   13  A    between atoms: C34_42  and  O9_43 
ROOT
HETATM    1  C2  UNL     1      -0.577  53.716  -7.801  1.00  0.00     0.270 C 
HETATM    2  O2  UNL     1      -1.716  53.707  -8.700  1.00  0.00    -0.344 OA
HETATM    3  C3  UNL     1      -1.327  53.012  -9.908  1.00  0.00     0.095 C 
HETATM    4  C4  UNL     1      -0.937  54.095 -10.917  1.00  0.00     0.008 C 
HETATM    5  C5  UNL     1       0.184  54.825 -10.783  1.00  0.00    -0.021 C 
HETATM    6  C6  UNL     1       0.986  54.721  -9.511  1.00  0.00     0.030 C 
HETATM    7  C7  UNL     1       0.692  53.385  -8.693  1.00  0.00     0.024 C 
HETATM    8  C8  UNL     1       1.872  52.791  -7.866  1.00  0.00     0.016 C 
HETATM    9  C9  UNL     1       3.282  53.392  -8.002  1.00  0.00     0.011 C 
HETATM   10  C10 UNL     1       3.524  54.120  -9.316  1.00  0.00    -0.032 C 
HETATM   11  C11 UNL     1       3.454  53.126 -10.499  1.00  0.00     0.016 C 
HETATM   12  C12 UNL     1       4.847  54.940  -9.373  1.00  0.00    -0.002 C 
HETATM   13  C21 UNL     1       4.578  55.916 -10.546  1.00  0.00     0.006 C 
HETATM   14  C22 UNL     1       3.035  56.002 -10.698  1.00  0.00     0.011 C 
HETATM   15  C23 UNL     1       2.460  55.258  -9.470  1.00  0.00    -0.029 C 
HETATM   16  C24 UNL     1       2.460  56.311  -8.294  1.00  0.00     0.016 C 
HETATM   17  C25 UNL     1      -0.046  52.270  -9.509  1.00  0.00     0.039 C 
HETATM   18  C26 UNL     1       0.539  51.495 -10.686  1.00  0.00     0.011 C 
HETATM   19  C27 UNL     1      -0.496  50.477 -11.199  1.00  0.00     0.033 C 
HETATM   20  C28 UNL     1      -1.859  51.114 -11.556  1.00  0.00     0.136 C 
HETATM   21  C35 UNL     1      -2.429  52.009 -10.402  1.00  0.00     0.014 C 
HETATM   22  C36 UNL     1      -2.904  51.082  -9.247  1.00  0.00     0.021 C 
HETATM   23  C37 UNL     1      -3.705  52.763 -10.853  1.00  0.00     0.021 C 
ENDROOT
BRANCH  20  24
HETATM   24  O4  UNL     1      -1.642  51.887 -12.742  1.00  0.00    -0.352 OA
BRANCH  24  25
HETATM   25  C29 UNL     1      -1.818  51.151 -13.962  1.00  0.00     0.292 C 
HETATM   26  O5  UNL     1      -2.440  49.902 -13.675  1.00  0.00    -0.348 OA
HETATM   27  C30 UNL     1      -2.707  49.102 -14.838  1.00  0.00     0.179 C 
HETATM   28  C32 UNL     1      -1.848  49.457 -16.075  1.00  0.00     0.180 C 
HETATM   29  C33 UNL     1      -0.422  49.871 -15.683  1.00  0.00     0.183 C 
HETATM   30  C34 UNL     1      -0.409  50.913 -14.551  1.00  0.00     0.204 C 
BRANCH  27  31
HETATM   31  C31 UNL     1      -2.535  47.634 -14.420  1.00  0.00     0.198 C 
BRANCH  31  32
HETATM   32  O6  UNL     1      -1.563  47.495 -13.389  1.00  0.00    -0.398 OA
HETATM   33  H48 UNL     1      -0.691  47.461 -13.820  1.00  0.00     0.209 HD
ENDBRANCH  31  32
ENDBRANCH  27  31
BRANCH  28  34
HETATM   34  O7  UNL     1      -2.487  50.544 -16.771  1.00  0.00    -0.390 OA
HETATM   35  H50 UNL     1      -1.897  50.842 -17.487  1.00  0.00     0.210 HD
ENDBRANCH  28  34
BRANCH  29  36
HETATM   36  O8  UNL     1       0.359  48.737 -15.291  1.00  0.00    -0.390 OA
HETATM   37  H52 UNL     1       0.362  48.096 -16.027  1.00  0.00     0.210 HD
ENDBRANCH  29  36
BRANCH  30  38
HETATM   38  O9  UNL     1       0.133  52.148 -15.059  1.00  0.00    -0.388 OA
HETATM   39  H54 UNL     1       1.086  52.141 -14.845  1.00  0.00     0.210 HD
ENDBRANCH  30  38
ENDBRANCH  24  25
ENDBRANCH  20  24
BRANCH   1  40
HETATM   40  O1  UNL     1      -0.765  52.741  -6.770  1.00  0.00    -0.365 OA
HETATM   41  C1  UNL     1      -1.196  53.337  -5.553  1.00  0.00     0.204 C 
ENDBRANCH   1  40
BRANCH  12  42
HETATM   42  C13 UNL     1       6.261  54.291  -9.290  1.00  0.00    -0.010 C 
HETATM   43  C14 UNL     1       6.099  52.757  -9.381  1.00  0.00     0.010 C 
BRANCH  42  44
HETATM   44  C15 UNL     1       7.152  54.667  -8.087  1.00  0.00     0.031 C 
BRANCH  44  45
HETATM   45  C16 UNL     1       6.539  55.474  -6.961  1.00  0.00    -0.027 C 
HETATM   46  C17 UNL     1       7.015  56.615  -6.426  1.00  0.00     0.006 C 
BRANCH  46  47
HETATM   47  C18 UNL     1       6.411  57.435  -5.305  1.00  0.00     0.068 C 
HETATM   48  C19 UNL     1       4.922  57.667  -5.585  1.00  0.00     0.050 C 
HETATM   49  C20 UNL     1       7.098  58.774  -5.019  1.00  0.00     0.050 C 
BRANCH  47  50
HETATM   50  O3  UNL     1       6.521  56.660  -4.106  1.00  0.00    -0.387 OA
HETATM   51  H30 UNL     1       6.126  55.788  -4.275  1.00  0.00     0.211 HD
ENDBRANCH  47  50
ENDBRANCH  46  47
ENDBRANCH  44  45
ENDBRANCH  42  44
ENDBRANCH  12  42
TORSDOF 13
ENDMDL
MODEL 4
REMARK minimizedAffinity -7.83393478
REMARK CNNscore 0.348716587
REMARK CNNaffinity 7.17002058
REMARK  13 active torsions:
REMARK  status: ('A' for Active; 'I' for Inactive)
REMARK    1  A    between atoms: O1_2  and  C2_3 
REMARK    2  A    between atoms: C12_14  and  C13_15 
REMARK    3  A    between atoms: C13_15  and  C15_17 
REMARK    4  A    between atoms: C15_17  and  C16_18 
REMARK    5  A    between atoms: C17_19  and  C18_20 
REMARK    6  A    between atoms: C18_20  and  O3_23 
REMARK    7  A    between atoms: C28_31  and  O4_32 
REMARK    8  A    between atoms: O4_32  and  C29_33 
REMARK    9  A    between atoms: C30_35  and  C31_36 
REMARK   10  A    between atoms: C31_36  and  O6_37 
REMARK   11  A    between atoms: C32_38  and  O7_39 
REMARK   12  A    between atoms: C33_40  and  O8_41 
REMARK   13  A    between atoms: C34_42  and  O9_43 
ROOT
HETATM    1  C2  UNL     1      -1.940  51.674 -23.100  1.00  0.00     0.270 C 
HETATM    2  O2  UNL     1      -1.582  52.150 -21.777  1.00  0.00    -0.344 OA
HETATM    3  C3  UNL     1      -1.777  51.062 -20.843  1.00  0.00     0.095 C 
HETATM    4  C4  UNL     1      -3.152  51.286 -20.209  1.00  0.00     0.008 C 
HETATM    5  C5  UNL     1      -4.292  51.112 -20.898  1.00  0.00    -0.021 C 
HETATM    6  C6  UNL     1      -4.228  50.881 -22.386  1.00  0.00     0.030 C 
HETATM    7  C7  UNL     1      -2.804  50.362 -22.879  1.00  0.00     0.024 C 
HETATM    8  C8  UNL     1      -2.788  49.414 -24.116  1.00  0.00     0.016 C 
HETATM    9  C9  UNL     1      -4.113  48.885 -24.692  1.00  0.00     0.011 C 
HETATM   10  C10 UNL     1      -5.263  48.866 -23.695  1.00  0.00    -0.032 C 
HETATM   11  C11 UNL     1      -4.960  47.873 -22.548  1.00  0.00     0.016 C 
HETATM   12  C12 UNL     1      -6.659  48.571 -24.316  1.00  0.00    -0.002 C 
HETATM   13  C21 UNL     1      -7.623  49.099 -23.224  1.00  0.00     0.006 C 
HETATM   14  C22 UNL     1      -6.810  50.117 -22.380  1.00  0.00     0.011 C 
HETATM   15  C23 UNL     1      -5.481  50.315 -23.145  1.00  0.00    -0.029 C 
HETATM   16  C24 UNL     1      -5.785  51.394 -24.256  1.00  0.00     0.016 C 
HETATM   17  C25 UNL     1      -1.877  49.822 -21.738  1.00  0.00     0.039 C 
HETATM   18  C26 UNL     1      -2.123  48.559 -20.916  1.00  0.00     0.011 C 
HETATM   19  C27 UNL     1      -0.971  48.366 -19.912  1.00  0.00     0.033 C 
HETATM   20  C28 UNL     1      -0.732  49.597 -19.008  1.00  0.00     0.136 C 
HETATM   21  C35 UNL     1      -0.589  50.928 -19.825  1.00  0.00     0.014 C 
HETATM   22  C36 UNL     1       0.782  50.912 -20.559  1.00  0.00     0.021 C 
HETATM   23  C37 UNL     1      -0.519  52.159 -18.887  1.00  0.00     0.021 C 
ENDROOT
BRANCH  20  24
HETATM   24  O4  UNL     1      -1.850  49.664 -18.116  1.00  0.00    -0.352 OA
BRANCH  24  25
HETATM   25  C29 UNL     1      -1.491  49.674 -16.726  1.00  0.00     0.292 C 
HETATM   26  O5  UNL     1      -0.953  48.404 -16.367  1.00  0.00    -0.348 OA
HETATM   27  C30 UNL     1      -0.515  48.321 -15.001  1.00  0.00     0.179 C 
HETATM   28  C32 UNL     1      -1.149  49.369 -14.057  1.00  0.00     0.180 C 
HETATM   29  C33 UNL     1      -2.610  49.664 -14.425  1.00  0.00     0.183 C 
HETATM   30  C34 UNL     1      -2.787  49.939 -15.928  1.00  0.00     0.204 C 
BRANCH  27  31
HETATM   31  C31 UNL     1      -0.786  46.884 -14.531  1.00  0.00     0.198 C 
BRANCH  31  32
HETATM   32  O6  UNL     1      -1.149  46.845 -13.154  1.00  0.00    -0.398 OA
HETATM   33  H48 UNL     1      -0.322  46.844 -12.641  1.00  0.00     0.209 HD
ENDBRANCH  31  32
ENDBRANCH  27  31
BRANCH  28  34
HETATM   34  O7  UNL     1      -0.379  50.583 -14.148  1.00  0.00    -0.390 OA
HETATM   35  H50 UNL     1      -0.836  51.279 -13.640  1.00  0.00     0.210 HD
ENDBRANCH  28  34
BRANCH  29  36
HETATM   36  O8  UNL     1      -3.471  48.588 -14.037  1.00  0.00    -0.390 OA
HETATM   37  H52 UNL     1      -3.366  48.440 -13.078  1.00  0.00     0.210 HD
ENDBRANCH  29  36
BRANCH  30  38
HETATM   38  O9  UNL     1      -3.211  51.306 -16.106  1.00  0.00    -0.388 OA
HETATM   39  H54 UNL     1      -4.185  51.290 -16.158  1.00  0.00     0.210 HD
ENDBRANCH  30  38
ENDBRANCH  24  25
ENDBRANCH  20  24
BRANCH   1  40
HETATM   40  O1  UNL     1      -0.754  51.403 -23.856  1.00  0.00    -0.365 OA
HETATM   41  C1  UNL     1       0.124  52.520 -23.879  1.00  0.00     0.204 C 
ENDBRANCH   1  40
BRANCH  12  42
HETATM   42  C13 UNL     1      -7.024  47.219 -25.000  1.00  0.00    -0.010 C 
HETATM   43  C14 UNL     1      -7.059  47.441 -26.530  1.00  0.00     0.010 C 
BRANCH  42  44
HETATM   44  C15 UNL     1      -8.309  46.503 -24.533  1.00  0.00     0.031 C 
BRANCH  44  45
HETATM   45  C16 UNL     1      -9.541  46.590 -25.412  1.00  0.00    -0.027 C 
HETATM   46  C17 UNL     1     -10.671  45.864 -25.302  1.00  0.00     0.006 C 
BRANCH  46  47
HETATM   47  C18 UNL     1     -11.911  45.942 -26.167  1.00  0.00     0.068 C 
HETATM   48  C19 UNL     1     -12.214  47.408 -26.496  1.00  0.00     0.050 C 
HETATM   49  C20 UNL     1     -13.163  45.271 -25.595  1.00  0.00     0.050 C 
BRANCH  47  50
HETATM   50  O3  UNL     1     -11.615  45.265 -27.394  1.00  0.00    -0.387 OA
HETATM   51  H30 UNL     1     -10.799  45.648 -27.759  1.00  0.00     0.211 HD
ENDBRANCH  47  50
ENDBRANCH  46  47
ENDBRANCH  44  45
ENDBRANCH  42  44
ENDBRANCH  12  42
TORSDOF 13
ENDMDL
MODEL 5
REMARK minimizedAffinity -9.70377064
REMARK CNNscore 0.31561777
REMARK CNNaffinity 6.75068521
REMARK  13 active torsions:
REMARK  status: ('A' for Active; 'I' for Inactive)
REMARK    1  A    between atoms: O1_2  and  C2_3 
REMARK    2  A    between atoms: C12_14  and  C13_15 
REMARK    3  A    between atoms: C13_15  and  C15_17 
REMARK    4  A    between atoms: C15_17  and  C16_18 
REMARK    5  A    between atoms: C17_19  and  C18_20 
REMARK    6  A    between atoms: C18_20  and  O3_23 
REMARK    7  A    between atoms: C28_31  and  O4_32 
REMARK    8  A    between atoms: O4_32  and  C29_33 
REMARK    9  A    between atoms: C30_35  and  C31_36 
REMARK   10  A    between atoms: C31_36  and  O6_37 
REMARK   11  A    between atoms: C32_38  and  O7_39 
REMARK   12  A    between atoms: C33_40  and  O8_41 
REMARK   13  A    between atoms: C34_42  and  O9_43 
ROOT
HETATM    1  C2  UNL     1      -6.426  46.506 -20.054  1.00  0.00     0.270 C 
HETATM    2  O2  UNL     1      -7.859  46.585 -20.268  1.00  0.00    -0.344 OA
HETATM    3  C3  UNL     1      -8.086  46.949 -21.650  1.00  0.00     0.095 C 
HETATM    4  C4  UNL     1      -8.317  48.463 -21.659  1.00  0.00     0.008 C 
HETATM    5  C5  UNL     1      -7.324  49.337 -21.423  1.00  0.00    -0.021 C 
HETATM    6  C6  UNL     1      -5.989  48.828 -20.943  1.00  0.00     0.030 C 
HETATM    7  C7  UNL     1      -5.756  47.284 -21.263  1.00  0.00     0.024 C 
HETATM    8  C8  UNL     1      -4.288  46.834 -21.531  1.00  0.00     0.016 C 
HETATM    9  C9  UNL     1      -3.173  47.887 -21.650  1.00  0.00     0.011 C 
HETATM   10  C10 UNL     1      -3.663  49.270 -22.056  1.00  0.00    -0.032 C 
HETATM   11  C11 UNL     1      -4.258  49.228 -23.483  1.00  0.00     0.016 C 
HETATM   12  C12 UNL     1      -2.597  50.398 -21.943  1.00  0.00    -0.002 C 
HETATM   13  C21 UNL     1      -3.472  51.676 -21.920  1.00  0.00     0.006 C 
HETATM   14  C22 UNL     1      -4.886  51.229 -21.461  1.00  0.00     0.011 C 
HETATM   15  C23 UNL     1      -4.726  49.757 -21.014  1.00  0.00    -0.029 C 
HETATM   16  C24 UNL     1      -4.200  49.817 -19.528  1.00  0.00     0.016 C 
HETATM   17  C25 UNL     1      -6.737  46.683 -22.326  1.00  0.00     0.039 C 
HETATM   18  C26 UNL     1      -6.774  47.050 -23.808  1.00  0.00     0.011 C 
HETATM   19  C27 UNL     1      -7.866  46.225 -24.515  1.00  0.00     0.033 C 
HETATM   20  C28 UNL     1      -9.259  46.360 -23.858  1.00  0.00     0.136 C 
HETATM   21  C35 UNL     1      -9.227  46.099 -22.312  1.00  0.00     0.014 C 
HETATM   22  C36 UNL     1      -9.007  44.578 -22.073  1.00  0.00     0.021 C 
HETATM   23  C37 UNL     1     -10.599  46.406 -21.661  1.00  0.00     0.021 C 
ENDROOT
BRANCH  20  24
HETATM   24  O4  UNL     1      -9.710  47.689 -24.142  1.00  0.00    -0.352 OA
BRANCH  24  25
HETATM   25  C29 UNL     1     -10.482  47.801 -25.347  1.00  0.00     0.292 C 
HETATM   26  O5  UNL     1     -10.805  46.498 -25.825  1.00  0.00    -0.348 OA
HETATM   27  C30 UNL     1     -11.622  46.495 -27.007  1.00  0.00     0.179 C 
HETATM   28  C32 UNL     1     -11.572  47.807 -27.826  1.00  0.00     0.180 C 
HETATM   29  C33 UNL     1     -10.175  48.445 -27.805  1.00  0.00     0.183 C 
HETATM   30  C34 UNL     1      -9.599  48.536 -26.381  1.00  0.00     0.204 C 
BRANCH  27  31
HETATM   31  C31 UNL     1     -11.196  45.279 -27.842  1.00  0.00     0.198 C 
BRANCH  31  32
HETATM   32  O6  UNL     1     -11.308  45.539 -29.238  1.00  0.00    -0.398 OA
HETATM   33  H48 UNL     1     -12.234  45.370 -29.487  1.00  0.00     0.209 HD
ENDBRANCH  31  32
ENDBRANCH  27  31
BRANCH  28  34
HETATM   34  O7  UNL     1     -12.527  48.727 -27.263  1.00  0.00    -0.390 OA
HETATM   35  H50 UNL     1     -12.423  49.590 -27.706  1.00  0.00     0.210 HD
ENDBRANCH  28  34
BRANCH  29  36
HETATM   36  O8  UNL     1      -9.262  47.724 -28.639  1.00  0.00    -0.390 OA
HETATM   37  H52 UNL     1      -9.629  47.695 -29.543  1.00  0.00     0.210 HD
ENDBRANCH  29  36
BRANCH  30  38
HETATM   38  O9  UNL     1      -9.461  49.925 -26.021  1.00  0.00    -0.388 OA
HETATM   39  H54 UNL     1      -8.543  50.177 -26.235  1.00  0.00     0.210 HD
ENDBRANCH  30  38
ENDBRANCH  24  25
ENDBRANCH  20  24
BRANCH   1  40
HETATM   40  O1  UNL     1      -6.016  45.134 -20.019  1.00  0.00    -0.365 OA
HETATM   41  C1  UNL     1      -6.021  44.549 -21.315  1.00  0.00     0.204 C 
ENDBRANCH   1  40
BRANCH  12  42
HETATM   42  C13 UNL     1      -1.296  50.436 -22.799  1.00  0.00    -0.010 C 
HETATM   43  C14 UNL     1      -0.449  51.648 -22.346  1.00  0.00     0.010 C 
BRANCH  42  44
HETATM   44  C15 UNL     1      -1.448  50.432 -24.335  1.00  0.00     0.031 C 
BRANCH  44  45
HETATM   45  C16 UNL     1      -0.575  51.367 -25.147  1.00  0.00    -0.027 C 
HETATM   46  C17 UNL     1       0.314  51.026 -26.101  1.00  0.00     0.006 C 
BRANCH  46  47
HETATM   47  C18 UNL     1       1.190  51.948 -26.924  1.00  0.00     0.068 C 
HETATM   48  C19 UNL     1       0.662  52.006 -28.362  1.00  0.00     0.050 C 
HETATM   49  C20 UNL     1       2.683  51.610 -26.934  1.00  0.00     0.050 C 
BRANCH  47  50
HETATM   50  O3  UNL     1       1.076  53.258 -26.357  1.00  0.00    -0.387 OA
HETATM   51  H30 UNL     1       0.131  53.481 -26.303  1.00  0.00     0.211 HD
ENDBRANCH  47  50
ENDBRANCH  46  47
ENDBRANCH  44  45
ENDBRANCH  42  44
ENDBRANCH  12  42
TORSDOF 13
ENDMDL
MODEL 6
REMARK minimizedAffinity -8.4999361
REMARK CNNscore 0.28729555
REMARK CNNaffinity 6.6528554
REMARK  13 active torsions:
REMARK  status: ('A' for Active; 'I' for Inactive)
REMARK    1  A    between atoms: O1_2  and  C2_3 
REMARK    2  A    between atoms: C12_14  and  C13_15 
REMARK    3  A    between atoms: C13_15  and  C15_17 
REMARK    4  A    between atoms: C15_17  and  C16_18 
REMARK    5  A    between atoms: C17_19  and  C18_20 
REMARK    6  A    between atoms: C18_20  and  O3_23 
REMARK    7  A    between atoms: C28_31  and  O4_32 
REMARK    8  A    between atoms: O4_32  and  C29_33 
REMARK    9  A    between atoms: C30_35  and  C31_36 
REMARK   10  A    between atoms: C31_36  and  O6_37 
REMARK   11  A    between atoms: C32_38  and  O7_39 
REMARK   12  A    between atoms: C33_40  and  O8_41 
REMARK   13  A    between atoms: C34_42  and  O9_43 
ROOT
HETATM    1  C2  UNL     1      -7.131  45.992 -20.132  1.00  0.00     0.270 C 
HETATM    2  O2  UNL     1      -8.512  46.170 -20.538  1.00  0.00    -0.344 OA
HETATM    3  C3  UNL     1      -8.520  46.590 -21.923  1.00  0.00     0.095 C 
HETATM    4  C4  UNL     1      -8.656  48.115 -21.905  1.00  0.00     0.008 C 
HETATM    5  C5  UNL     1      -7.656  48.916 -21.501  1.00  0.00    -0.021 C 
HETATM    6  C6  UNL     1      -6.435  48.307 -20.861  1.00  0.00     0.030 C 
HETATM    7  C7  UNL     1      -6.252  46.761 -21.205  1.00  0.00     0.024 C 
HETATM    8  C8  UNL     1      -4.791  46.225 -21.284  1.00  0.00     0.016 C 
HETATM    9  C9  UNL     1      -3.608  47.207 -21.207  1.00  0.00     0.011 C 
HETATM   10  C10 UNL     1      -3.953  48.630 -21.622  1.00  0.00    -0.032 C 
HETATM   11  C11 UNL     1      -4.342  48.671 -23.119  1.00  0.00     0.016 C 
HETATM   12  C12 UNL     1      -2.847  49.683 -21.319  1.00  0.00    -0.002 C 
HETATM   13  C21 UNL     1      -3.640  51.014 -21.368  1.00  0.00     0.006 C 
HETATM   14  C22 UNL     1      -5.128  50.646 -21.127  1.00  0.00     0.011 C 
HETATM   15  C23 UNL     1      -5.120  49.154 -20.720  1.00  0.00    -0.029 C 
HETATM   16  C24 UNL     1      -4.806  49.134 -19.173  1.00  0.00     0.016 C 
HETATM   17  C25 UNL     1      -7.107  46.258 -22.416  1.00  0.00     0.039 C 
HETATM   18  C26 UNL     1      -6.914  46.670 -23.873  1.00  0.00     0.011 C 
HETATM   19  C27 UNL     1      -7.943  45.939 -24.756  1.00  0.00     0.033 C 
HETATM   20  C28 UNL     1      -9.404  46.145 -24.294  1.00  0.00     0.136 C 
HETATM   21  C35 UNL     1      -9.605  45.836 -22.770  1.00  0.00     0.014 C 
HETATM   22  C36 UNL     1      -9.512  44.297 -22.562  1.00  0.00     0.021 C 
HETATM   23  C37 UNL     1     -11.034  46.211 -22.304  1.00  0.00     0.021 C 
ENDROOT
BRANCH  20  24
HETATM   24  O4  UNL     1      -9.730  47.508 -24.586  1.00  0.00    -0.352 OA
BRANCH  24  25
HETATM   25  C29 UNL     1     -10.609  47.674 -25.708  1.00  0.00     0.292 C 
HETATM   26  O5  UNL     1     -11.245  46.432 -25.998  1.00  0.00    -0.348 OA
HETATM   27  C30 UNL     1     -12.187  46.497 -27.081  1.00  0.00     0.179 C 
HETATM   28  C32 UNL     1     -11.979  47.688 -28.045  1.00  0.00     0.180 C 
HETATM   29  C33 UNL     1     -10.491  48.013 -28.242  1.00  0.00     0.183 C 
HETATM   30  C34 UNL     1      -9.734  48.107 -26.906  1.00  0.00     0.204 C 
BRANCH  27  31
HETATM   31  C31 UNL     1     -12.124  45.148 -27.811  1.00  0.00     0.198 C 
BRANCH  31  32
HETATM   32  O6  UNL     1     -13.165  45.025 -28.774  1.00  0.00    -0.398 OA
HETATM   33  H48 UNL     1     -13.959  44.718 -28.301  1.00  0.00     0.209 HD
ENDBRANCH  31  32
ENDBRANCH  27  31
BRANCH  28  34
HETATM   34  O7  UNL     1     -12.650  48.838 -27.494  1.00  0.00    -0.390 OA
HETATM   35  H50 UNL     1     -12.431  49.615 -28.041  1.00  0.00     0.210 HD
ENDBRANCH  28  34
BRANCH  29  36
HETATM   36  O8  UNL     1      -9.853  47.043 -29.080  1.00  0.00    -0.390 OA
HETATM   37  H52 UNL     1     -10.329  47.011 -29.931  1.00  0.00     0.210 HD
ENDBRANCH  29  36
BRANCH  30  38
HETATM   38  O9  UNL     1      -9.275  49.462 -26.723  1.00  0.00    -0.388 OA
HETATM   39  H54 UNL     1      -8.359  49.492 -27.059  1.00  0.00     0.210 HD
ENDBRANCH  30  38
ENDBRANCH  24  25
ENDBRANCH  20  24
BRANCH   1  40
HETATM   40  O1  UNL     1      -6.813  44.596 -20.094  1.00  0.00    -0.365 OA
HETATM   41  C1  UNL     1      -6.835  44.086 -18.767  1.00  0.00     0.204 C 
ENDBRANCH   1  40
BRANCH  12  42
HETATM   42  C13 UNL     1      -1.439  49.663 -21.985  1.00  0.00    -0.010 C 
HETATM   43  C14 UNL     1      -0.383  49.409 -20.884  1.00  0.00     0.010 C 
BRANCH  42  44
HETATM   44  C15 UNL     1      -1.035  50.879 -22.845  1.00  0.00     0.031 C 
BRANCH  44  45
HETATM   45  C16 UNL     1      -0.359  52.051 -22.162  1.00  0.00    -0.027 C 
HETATM   46  C17 UNL     1       0.038  52.124 -20.876  1.00  0.00     0.006 C 
BRANCH  46  47
HETATM   47  C18 UNL     1       0.718  53.284 -20.180  1.00  0.00     0.068 C 
HETATM   48  C19 UNL     1      -0.327  54.111 -19.423  1.00  0.00     0.050 C 
HETATM   49  C20 UNL     1       1.550  54.201 -21.081  1.00  0.00     0.050 C 
BRANCH  47  50
HETATM   50  O3  UNL     1       1.625  52.730 -19.221  1.00  0.00    -0.387 OA
HETATM   51  H30 UNL     1       1.127  52.111 -18.659  1.00  0.00     0.211 HD
ENDBRANCH  47  50
ENDBRANCH  46  47
ENDBRANCH  44  45
ENDBRANCH  42  44
ENDBRANCH  12  42
TORSDOF 13
ENDMDL
MODEL 7
REMARK minimizedAffinity -8.48527622
REMARK CNNscore 0.27287659
REMARK CNNaffinity 6.70972204
REMARK  13 active torsions:
REMARK  status: ('A' for Active; 'I' for Inactive)
REMARK    1  A    between atoms: O1_2  and  C2_3 
REMARK    2  A    between atoms: C12_14  and  C13_15 
REMARK    3  A    between atoms: C13_15  and  C15_17 
REMARK    4  A    between atoms: C15_17  and  C16_18 
REMARK    5  A    between atoms: C17_19  and  C18_20 
REMARK    6  A    between atoms: C18_20  and  O3_23 
REMARK    7  A    between atoms: C28_31  and  O4_32 
REMARK    8  A    between atoms: O4_32  and  C29_33 
REMARK    9  A    between atoms: C30_35  and  C31_36 
REMARK   10  A    between atoms: C31_36  and  O6_37 
REMARK   11  A    between atoms: C32_38  and  O7_39 
REMARK   12  A    between atoms: C33_40  and  O8_41 
REMARK   13  A    between atoms: C34_42  and  O9_43 
ROOT
HETATM    1  C2  UNL     1      -1.454  51.757 -21.122  1.00  0.00     0.270 C 
HETATM    2  O2  UNL     1      -1.769  51.853 -19.709  1.00  0.00    -0.344 OA
HETATM    3  C3  UNL     1      -2.281  50.570 -19.276  1.00  0.00     0.095 C 
HETATM    4  C4  UNL     1      -3.807  50.688 -19.305  1.00  0.00     0.008 C 
HETATM    5  C5  UNL     1      -4.496  50.756 -20.456  1.00  0.00    -0.021 C 
HETATM    6  C6  UNL     1      -3.749  50.918 -21.756  1.00  0.00     0.030 C 
HETATM    7  C7  UNL     1      -2.221  50.477 -21.659  1.00  0.00     0.024 C 
HETATM    8  C8  UNL     1      -1.576  49.885 -22.948  1.00  0.00     0.016 C 
HETATM    9  C9  UNL     1      -2.453  49.589 -24.178  1.00  0.00     0.011 C 
HETATM   10  C10 UNL     1      -3.924  49.368 -23.855  1.00  0.00    -0.032 C 
HETATM   11  C11 UNL     1      -4.096  48.096 -22.991  1.00  0.00     0.016 C 
HETATM   12  C12 UNL     1      -4.862  49.313 -25.096  1.00  0.00    -0.002 C 
HETATM   13  C21 UNL     1      -6.252  49.585 -24.469  1.00  0.00     0.006 C 
HETATM   14  C22 UNL     1      -5.989  50.307 -23.120  1.00  0.00     0.011 C 
HETATM   15  C23 UNL     1      -4.477  50.632 -23.117  1.00  0.00    -0.029 C 
HETATM   16  C24 UNL     1      -4.329  51.977 -23.930  1.00  0.00     0.016 C 
HETATM   17  C25 UNL     1      -1.870  49.613 -20.401  1.00  0.00     0.039 C 
HETATM   18  C26 UNL     1      -2.363  48.194 -20.132  1.00  0.00     0.011 C 
HETATM   19  C27 UNL     1      -1.778  47.689 -18.800  1.00  0.00     0.033 C 
HETATM   20  C28 UNL     1      -2.068  48.629 -17.607  1.00  0.00     0.136 C 
HETATM   21  C35 UNL     1      -1.674  50.118 -17.901  1.00  0.00     0.014 C 
HETATM   22  C36 UNL     1      -0.123  50.227 -17.907  1.00  0.00     0.021 C 
HETATM   23  C37 UNL     1      -2.131  51.057 -16.757  1.00  0.00     0.021 C 
ENDROOT
BRANCH  20  24
HETATM   24  O4  UNL     1      -3.470  48.515 -17.338  1.00  0.00    -0.352 OA
BRANCH  24  25
HETATM   25  C29 UNL     1      -3.781  47.750 -16.164  1.00  0.00     0.292 C 
HETATM   26  O5  UNL     1      -2.586  47.170 -15.647  1.00  0.00    -0.348 OA
HETATM   27  C30 UNL     1      -2.778  46.417 -14.438  1.00  0.00     0.179 C 
HETATM   28  C32 UNL     1      -4.230  45.936 -14.203  1.00  0.00     0.180 C 
HETATM   29  C33 UNL     1      -4.928  45.556 -15.517  1.00  0.00     0.183 C 
HETATM   30  C34 UNL     1      -4.760  46.636 -16.599  1.00  0.00     0.204 C 
BRANCH  27  31
HETATM   31  C31 UNL     1      -1.784  45.248 -14.476  1.00  0.00     0.198 C 
BRANCH  31  32
HETATM   32  O6  UNL     1      -2.312  44.092 -13.834  1.00  0.00    -0.398 OA
HETATM   33  H48 UNL     1      -2.140  44.190 -12.881  1.00  0.00     0.209 HD
ENDBRANCH  31  32
ENDBRANCH  27  31
BRANCH  28  34
HETATM   34  O7  UNL     1      -4.960  47.001 -13.564  1.00  0.00    -0.390 OA
HETATM   35  H50 UNL     1      -5.900  46.744 -13.512  1.00  0.00     0.210 HD
ENDBRANCH  28  34
BRANCH  29  36
HETATM   36  O8  UNL     1      -4.446  44.304 -16.018  1.00  0.00    -0.390 OA
HETATM   37  H52 UNL     1      -4.581  43.625 -15.331  1.00  0.00     0.210 HD
ENDBRANCH  29  36
BRANCH  30  38
HETATM   38  O9  UNL     1      -6.052  47.199 -16.902  1.00  0.00    -0.388 OA
HETATM   39  H54 UNL     1      -6.394  46.708 -17.673  1.00  0.00     0.210 HD
ENDBRANCH  30  38
ENDBRANCH  24  25
ENDBRANCH  20  24
BRANCH   1  40
HETATM   40  O1  UNL     1      -0.038  51.634 -21.295  1.00  0.00    -0.365 OA
HETATM   41  C1  UNL     1       0.508  52.752 -21.984  1.00  0.00     0.204 C 
ENDBRANCH   1  40
BRANCH  12  42
HETATM   42  C13 UNL     1      -4.773  48.206 -26.189  1.00  0.00    -0.010 C 
HETATM   43  C14 UNL     1      -3.809  48.691 -27.296  1.00  0.00     0.010 C 
BRANCH  42  44
HETATM   44  C15 UNL     1      -6.095  47.705 -26.811  1.00  0.00     0.031 C 
BRANCH  44  45
HETATM   45  C16 UNL     1      -6.161  47.530 -28.315  1.00  0.00    -0.027 C 
HETATM   46  C17 UNL     1      -5.448  48.198 -29.243  1.00  0.00     0.006 C 
BRANCH  46  47
HETATM   47  C18 UNL     1      -5.499  48.030 -30.748  1.00  0.00     0.068 C 
HETATM   48  C19 UNL     1      -6.928  48.283 -31.242  1.00  0.00     0.050 C 
HETATM   49  C20 UNL     1      -4.996  46.686 -31.282  1.00  0.00     0.050 C 
BRANCH  47  50
HETATM   50  O3  UNL     1      -4.650  49.034 -31.314  1.00  0.00    -0.387 OA
HETATM   51  H30 UNL     1      -4.925  49.896 -30.958  1.00  0.00     0.211 HD
ENDBRANCH  47  50
ENDBRANCH  46  47
ENDBRANCH  44  45
ENDBRANCH  42  44
ENDBRANCH  12  42
TORSDOF 13
ENDMDL
MODEL 8
REMARK minimizedAffinity -7.70282221
REMARK CNNscore 0.270314991
REMARK CNNaffinity 6.76126242
REMARK  13 active torsions:
REMARK  status: ('A' for Active; 'I' for Inactive)
REMARK    1  A    between atoms: O1_2  and  C2_3 
REMARK    2  A    between atoms: C12_14  and  C13_15 
REMARK    3  A    between atoms: C13_15  and  C15_17 
REMARK    4  A    between atoms: C15_17  and  C16_18 
REMARK    5  A    between atoms: C17_19  and  C18_20 
REMARK    6  A    between atoms: C18_20  and  O3_23 
REMARK    7  A    between atoms: C28_31  and  O4_32 
REMARK    8  A    between atoms: O4_32  and  C29_33 
REMARK    9  A    between atoms: C30_35  and  C31_36 
REMARK   10  A    between atoms: C31_36  and  O6_37 
REMARK   11  A    between atoms: C32_38  and  O7_39 
REMARK   12  A    between atoms: C33_40  and  O8_41 
REMARK   13  A    between atoms: C34_42  and  O9_43 
ROOT
HETATM    1  C2  UNL     1      -1.444  47.854 -11.281  1.00  0.00     0.270 C 
HETATM    2  O2  UNL     1      -1.891  47.302 -12.546  1.00  0.00    -0.344 OA
HETATM    3  C3  UNL     1      -1.523  48.229 -13.594  1.00  0.00     0.095 C 
HETATM    4  C4  UNL     1      -2.770  49.070 -13.877  1.00  0.00     0.008 C 
HETATM    5  C5  UNL     1      -3.226  49.985 -13.006  1.00  0.00    -0.021 C 
HETATM    6  C6  UNL     1      -2.621  50.060 -11.628  1.00  0.00     0.030 C 
HETATM    7  C7  UNL     1      -1.175  49.395 -11.542  1.00  0.00     0.024 C 
HETATM    8  C8  UNL     1      -0.174  50.015 -10.521  1.00  0.00     0.016 C 
HETATM    9  C9  UNL     1      -0.538  51.314  -9.782  1.00  0.00     0.011 C 
HETATM   10  C10 UNL     1      -1.566  52.174 -10.504  1.00  0.00    -0.032 C 
HETATM   11  C11 UNL     1      -0.986  52.686 -11.845  1.00  0.00     0.016 C 
HETATM   12  C12 UNL     1      -2.128  53.360  -9.667  1.00  0.00    -0.002 C 
HETATM   13  C21 UNL     1      -3.435  53.706 -10.424  1.00  0.00     0.006 C 
HETATM   14  C22 UNL     1      -3.823  52.437 -11.228  1.00  0.00     0.011 C 
HETATM   15  C23 UNL     1      -2.863  51.329 -10.735  1.00  0.00    -0.029 C 
HETATM   16  C24 UNL     1      -3.512  50.759  -9.414  1.00  0.00     0.016 C 
HETATM   17  C25 UNL     1      -0.490  49.145 -12.928  1.00  0.00     0.039 C 
HETATM   18  C26 UNL     1      -0.004  50.227 -13.888  1.00  0.00     0.011 C 
HETATM   19  C27 UNL     1       0.629  49.570 -15.129  1.00  0.00     0.033 C 
HETATM   20  C28 UNL     1      -0.308  48.561 -15.833  1.00  0.00     0.136 C 
HETATM   21  C35 UNL     1      -0.911  47.504 -14.844  1.00  0.00     0.014 C 
HETATM   22  C36 UNL     1       0.217  46.518 -14.428  1.00  0.00     0.021 C 
HETATM   23  C37 UNL     1      -1.970  46.617 -15.546  1.00  0.00     0.021 C 
ENDROOT
BRANCH  20  24
HETATM   24  O4  UNL     1      -1.344  49.336 -16.447  1.00  0.00    -0.352 OA
BRANCH  24  25
HETATM   25  C29 UNL     1      -1.213  49.468 -17.870  1.00  0.00     0.292 C 
HETATM   26  O5  UNL     1      -0.507  50.669 -18.171  1.00  0.00    -0.348 OA
HETATM   27  C30 UNL     1      -0.278  50.876 -19.574  1.00  0.00     0.179 C 
HETATM   28  C32 UNL     1      -1.237  50.096 -20.505  1.00  0.00     0.180 C 
HETATM   29  C33 UNL     1      -2.653  49.998 -19.918  1.00  0.00     0.183 C 
HETATM   30  C34 UNL     1      -2.644  49.540 -18.449  1.00  0.00     0.204 C 
BRANCH  27  31
HETATM   31  C31 UNL     1      -0.344  52.390 -19.820  1.00  0.00     0.198 C 
BRANCH  31  32
HETATM   32  O6  UNL     1      -0.295  52.697 -21.210  1.00  0.00    -0.398 OA
HETATM   33  H48 UNL     1       0.643  52.708 -21.468  1.00  0.00     0.209 HD
ENDBRANCH  31  32
ENDBRANCH  27  31
BRANCH  28  34
HETATM   34  O7  UNL     1      -0.704  48.770 -20.692  1.00  0.00    -0.390 OA
HETATM   35  H50 UNL     1      -1.357  48.242 -21.188  1.00  0.00     0.210 HD
ENDBRANCH  28  34
BRANCH  29  36
HETATM   36  O8  UNL     1      -3.345  51.247 -20.020  1.00  0.00    -0.390 OA
HETATM   37  H52 UNL     1      -3.364  51.512 -20.959  1.00  0.00     0.210 HD
ENDBRANCH  29  36
BRANCH  30  38
HETATM   38  O9  UNL     1      -3.283  48.252 -18.357  1.00  0.00    -0.388 OA
HETATM   39  H54 UNL     1      -4.217  48.422 -18.130  1.00  0.00     0.210 HD
ENDBRANCH  30  38
ENDBRANCH  24  25
ENDBRANCH  20  24
BRANCH   1  40
HETATM   40  O1  UNL     1      -0.258  47.178 -10.849  1.00  0.00    -0.365 OA
HETATM   41  C1  UNL     1      -0.513  46.315  -9.749  1.00  0.00     0.204 C 
ENDBRANCH   1  40
BRANCH  12  42
HETATM   42  C13 UNL     1      -1.252  54.548  -9.168  1.00  0.00    -0.010 C 
HETATM   43  C14 UNL     1      -1.252  55.644 -10.258  1.00  0.00     0.010 C 
BRANCH  42  44
HETATM   44  C15 UNL     1       0.192  54.235  -8.721  1.00  0.00     0.031 C 
BRANCH  44  45
HETATM   45  C16 UNL     1       1.315  54.451  -9.716  1.00  0.00    -0.027 C 
HETATM   46  C17 UNL     1       2.454  55.144  -9.518  1.00  0.00     0.006 C 
BRANCH  46  47
HETATM   47  C18 UNL     1       3.587  55.364 -10.499  1.00  0.00     0.068 C 
HETATM   48  C19 UNL     1       4.928  55.190  -9.779  1.00  0.00     0.050 C 
HETATM   49  C20 UNL     1       3.568  56.702 -11.244  1.00  0.00     0.050 C 
BRANCH  47  50
HETATM   50  O3  UNL     1       3.485  54.344 -11.499  1.00  0.00    -0.387 OA
HETATM   51  H30 UNL     1       3.455  53.483 -11.047  1.00  0.00     0.211 HD
ENDBRANCH  47  50
ENDBRANCH  46  47
ENDBRANCH  44  45
ENDBRANCH  42  44
ENDBRANCH  12  42
TORSDOF 13
ENDMDL
MODEL 9
REMARK minimizedAffinity -9.6301136
REMARK CNNscore 0.261077076
REMARK CNNaffinity 6.94099808
REMARK  13 active torsions:
REMARK  status: ('A' for Active; 'I' for Inactive)
REMARK    1  A    between atoms: O1_2  and  C2_3 
REMARK    2  A    between atoms: C12_14  and  C13_15 
REMARK    3  A    between atoms: C13_15  and  C15_17 
REMARK    4  A    between atoms: C15_17  and  C16_18 
REMARK    5  A    between atoms: C17_19  and  C18_20 
REMARK    6  A    between atoms: C18_20  and  O3_23 
REMARK    7  A    between atoms: C28_31  and  O4_32 
REMARK    8  A    between atoms: O4_32  and  C29_33 
REMARK    9  A    between atoms: C30_35  and  C31_36 
REMARK   10  A    between atoms: C31_36  and  O6_37 
REMARK   11  A    between atoms: C32_38  and  O7_39 
REMARK   12  A    between atoms: C33_40  and  O8_41 
REMARK   13  A    between atoms: C34_42  and  O9_43 
ROOT
HETATM    1  C2  UNL     1      -2.927  49.706 -19.280  1.00  0.00     0.270 C 
HETATM    2  O2  UNL     1      -1.735  49.894 -20.084  1.00  0.00    -0.344 OA
HETATM    3  C3  UNL     1      -2.149  50.146 -21.448  1.00  0.00     0.095 C 
HETATM    4  C4  UNL     1      -2.050  48.805 -22.178  1.00  0.00     0.008 C 
HETATM    5  C5  UNL     1      -2.903  47.795 -21.934  1.00  0.00    -0.021 C 
HETATM    6  C6  UNL     1      -3.863  47.902 -20.778  1.00  0.00     0.030 C 
HETATM    7  C7  UNL     1      -4.104  49.403 -20.300  1.00  0.00     0.024 C 
HETATM    8  C8  UNL     1      -5.509  49.741 -19.717  1.00  0.00     0.016 C 
HETATM    9  C9  UNL     1      -6.638  48.697 -19.784  1.00  0.00     0.011 C 
HETATM   10  C10 UNL     1      -6.466  47.664 -20.889  1.00  0.00    -0.032 C 
HETATM   11  C11 UNL     1      -6.542  48.348 -22.275  1.00  0.00     0.016 C 
HETATM   12  C12 UNL     1      -7.456  46.465 -20.819  1.00  0.00    -0.002 C 
HETATM   13  C21 UNL     1      -6.746  45.402 -21.696  1.00  0.00     0.006 C 
HETATM   14  C22 UNL     1      -5.245  45.796 -21.730  1.00  0.00     0.011 C 
HETATM   15  C23 UNL     1      -5.096  46.933 -20.692  1.00  0.00    -0.029 C 
HETATM   16  C24 UNL     1      -4.935  46.218 -19.295  1.00  0.00     0.016 C 
HETATM   17  C25 UNL     1      -3.636  50.495 -21.321  1.00  0.00     0.039 C 
HETATM   18  C26 UNL     1      -4.264  50.762 -22.687  1.00  0.00     0.011 C 
HETATM   19  C27 UNL     1      -3.528  51.928 -23.373  1.00  0.00     0.033 C 
HETATM   20  C28 UNL     1      -2.001  51.711 -23.480  1.00  0.00     0.136 C 
HETATM   21  C35 UNL     1      -1.347  51.323 -22.108  1.00  0.00     0.014 C 
HETATM   22  C36 UNL     1      -1.338  52.580 -21.193  1.00  0.00     0.021 C 
HETATM   23  C37 UNL     1       0.146  50.950 -22.281  1.00  0.00     0.021 C 
ENDROOT
BRANCH  20  24
HETATM   24  O4  UNL     1      -1.809  50.673 -24.448  1.00  0.00    -0.352 OA
BRANCH  24  25
HETATM   25  C29 UNL     1      -1.175  51.112 -25.659  1.00  0.00     0.292 C 
HETATM   26  O5  UNL     1       0.221  50.837 -25.589  1.00  0.00    -0.348 OA
HETATM   27  C30 UNL     1       0.947  51.196 -26.775  1.00  0.00     0.179 C 
HETATM   28  C32 UNL     1       0.244  52.245 -27.668  1.00  0.00     0.180 C 
HETATM   29  C33 UNL     1      -0.519  53.287 -26.837  1.00  0.00     0.183 C 
HETATM   30  C34 UNL     1      -1.407  52.636 -25.761  1.00  0.00     0.204 C 
BRANCH  27  31
HETATM   31  C31 UNL     1       2.338  51.663 -26.325  1.00  0.00     0.198 C 
BRANCH  31  32
HETATM   32  O6  UNL     1       3.320  51.427 -27.329  1.00  0.00    -0.398 OA
HETATM   33  H48 UNL     1       3.613  50.504 -27.233  1.00  0.00     0.209 HD
ENDBRANCH  31  32
ENDBRANCH  27  31
BRANCH  28  34
HETATM   34  O7  UNL     1      -0.679  51.556 -28.534  1.00  0.00    -0.390 OA
HETATM   35  H50 UNL     1      -1.201  52.220 -29.021  1.00  0.00     0.210 HD
ENDBRANCH  28  34
BRANCH  29  36
HETATM   36  O8  UNL     1       0.378  54.213 -26.213  1.00  0.00    -0.390 OA
HETATM   37  H52 UNL     1       0.917  54.634 -26.909  1.00  0.00     0.210 HD
ENDBRANCH  29  36
BRANCH  30  38
HETATM   38  O9  UNL     1      -2.788  52.911 -26.067  1.00  0.00    -0.388 OA
HETATM   39  H54 UNL     1      -3.032  53.707 -25.557  1.00  0.00     0.210 HD
ENDBRANCH  30  38
ENDBRANCH  24  25
ENDBRANCH  20  24
BRANCH   1  40
HETATM   40  O1  UNL     1      -3.186  50.887 -18.513  1.00  0.00    -0.365 OA
HETATM   41  C1  UNL     1      -2.791  50.732 -17.156  1.00  0.00     0.204 C 
ENDBRANCH   1  40
BRANCH  12  42
HETATM   42  C13 UNL     1      -8.998  46.616 -20.984  1.00  0.00    -0.010 C 
HETATM   43  C14 UNL     1      -9.284  47.196 -22.388  1.00  0.00     0.010 C 
BRANCH  42  44
HETATM   44  C15 UNL     1      -9.759  47.419 -19.907  1.00  0.00     0.031 C 
BRANCH  44  45
HETATM   45  C16 UNL     1     -11.221  47.737 -20.146  1.00  0.00    -0.027 C 
HETATM   46  C17 UNL     1     -12.166  47.966 -19.213  1.00  0.00     0.006 C 
BRANCH  46  47
HETATM   47  C18 UNL     1     -13.629  48.291 -19.435  1.00  0.00     0.068 C 
HETATM   48  C19 UNL     1     -14.365  48.283 -18.091  1.00  0.00     0.050 C 
HETATM   49  C20 UNL     1     -14.363  47.390 -20.433  1.00  0.00     0.050 C 
BRANCH  47  50
HETATM   50  O3  UNL     1     -13.691  49.619 -19.968  1.00  0.00    -0.387 OA
HETATM   51  H30 UNL     1     -13.197  50.205 -19.370  1.00  0.00     0.211 HD
ENDBRANCH  47  50
ENDBRANCH  46  47
ENDBRANCH  44  45
ENDBRANCH  42  44
ENDBRANCH  12  42
TORSDOF 13
ENDMDL
