MODEL 1
REMARK minimizedAffinity -6.56152678
REMARK CNNscore 0.552721798
REMARK CNNaffinity 6.38619852
REMARK  8 active torsions:
REMARK  status: ('A' for Active; 'I' for Inactive)
REMARK    1  A    between atoms: C11_11  and  O1_12 
REMARK    2  A    between atoms: O1_12  and  C12_13 
REMARK    3  A    between atoms: C14_16  and  O3_17 
REMARK    4  A    between atoms: C15_18  and  O4_19 
REMARK    5  A    between atoms: C16_20  and  O5_21 
REMARK    6  A    between atoms: C19_24  and  C20_25 
REMARK    7  A    between atoms: C21_27  and  O7_28 
REMARK    8  A    between atoms: C24_31  and  C25_32 
ROOT
HETATM    1  C1  UNL     1     -15.715   2.236  30.025  1.00  0.00     0.019 C 
HETATM    2  C2  UNL     1     -14.781   3.429  29.733  1.00  0.00    -0.005 C 
HETATM    3  C3  UNL     1     -15.612   4.553  29.060  1.00  0.00     0.013 C 
HETATM    4  C4  UNL     1     -16.034   4.232  27.629  1.00  0.00     0.007 C 
HETATM    5  C5  UNL     1     -14.824   3.931  26.723  1.00  0.00     0.012 C 
HETATM    6  C6  UNL     1     -13.956   2.788  27.343  1.00  0.00     0.027 C 
HETATM    7  C7  UNL     1     -12.708   2.510  26.471  1.00  0.00     0.012 C 
HETATM    8  C8  UNL     1     -13.052   2.228  25.011  1.00  0.00     0.036 C 
HETATM    9  C9  UNL     1     -13.908   3.344  24.468  1.00  0.00    -0.065 C 
HETATM   10  C10 UNL     1     -13.461   4.100  23.444  1.00  0.00     0.009 C 
HETATM   11  C11 UNL     1     -14.112   5.363  22.968  1.00  0.00     0.148 C 
HETATM   12  C17 UNL     1     -15.081   5.913  24.017  1.00  0.00     0.037 C 
HETATM   13  C18 UNL     1     -15.987   4.803  24.545  1.00  0.00     0.024 C 
HETATM   14  C19 UNL     1     -15.209   3.635  25.229  1.00  0.00     0.040 C 
HETATM   15  C21 UNL     1     -13.577   3.035  28.831  1.00  0.00     0.070 C 
HETATM   16  C22 UNL     1     -12.581   4.177  29.067  1.00  0.00     0.040 C 
HETATM   17  C23 UNL     1     -12.694   4.492  30.557  1.00  0.00     0.013 C 
HETATM   18  C24 UNL     1     -14.100   4.031  31.020  1.00  0.00     0.028 C 
ENDROOT
BRANCH  11  19
HETATM   19  O1  UNL     1     -14.818   5.030  21.775  1.00  0.00    -0.349 OA
BRANCH  19  20
HETATM   20  C12 UNL     1     -15.434   6.162  21.157  1.00  0.00     0.291 C 
HETATM   21  O2  UNL     1     -16.799   5.899  20.822  1.00  0.00    -0.356 OA
HETATM   22  C13 UNL     1     -16.959   5.420  19.483  1.00  0.00     0.205 C 
HETATM   23  C14 UNL     1     -16.629   6.545  18.495  1.00  0.00     0.173 C 
HETATM   24  C15 UNL     1     -15.397   7.352  18.948  1.00  0.00     0.182 C 
HETATM   25  C16 UNL     1     -14.561   6.548  19.941  1.00  0.00     0.204 C 
BRANCH  23  26
HETATM   26  O3  UNL     1     -17.761   7.427  18.404  1.00  0.00    -0.391 OA
HETATM   27  H20 UNL     1     -18.011   7.678  19.312  1.00  0.00     0.210 HD
ENDBRANCH  23  26
BRANCH  24  28
HETATM   28  O4  UNL     1     -14.582   7.688  17.816  1.00  0.00    -0.390 OA
HETATM   29  H22 UNL     1     -13.769   8.082  18.189  1.00  0.00     0.210 HD
ENDBRANCH  24  28
BRANCH  25  30
HETATM   30  O5  UNL     1     -13.415   7.318  20.346  1.00  0.00    -0.388 OA
HETATM   31  H24 UNL     1     -12.910   6.744  20.954  1.00  0.00     0.210 HD
ENDBRANCH  25  30
ENDBRANCH  19  20
ENDBRANCH  11  19
BRANCH  14  32
HETATM   32  C20 UNL     1     -16.197   2.445  25.163  1.00  0.00     0.245 C 
HETATM   33  O6  UNL     1     -17.062   2.261  24.314  1.00  0.00    -0.306 OA
ENDBRANCH  14  32
BRANCH  15  34
HETATM   34  O7  UNL     1     -12.995   1.836  29.359  1.00  0.00    -0.389 OA
HETATM   35  H30 UNL     1     -12.130   1.691  28.938  1.00  0.00     0.210 HD
ENDBRANCH  15  34
BRANCH  18  36
HETATM   36  C25 UNL     1     -14.067   3.170  32.254  1.00  0.00    -0.045 A 
HETATM   37  C26 UNL     1     -15.065   2.803  33.060  1.00  0.00     0.087 A 
HETATM   38  C27 UNL     1     -14.491   1.956  34.103  1.00  0.00     0.283 A 
HETATM   39  O8  UNL     1     -15.123   1.438  35.006  1.00  0.00    -0.260 OA
HETATM   40  O9  UNL     1     -13.155   1.832  33.893  1.00  0.00    -0.314 OA
HETATM   41  C28 UNL     1     -12.795   2.573  32.729  1.00  0.00     0.213 A 
ENDBRANCH  18  36
TORSDOF 8
ENDMDL
MODEL 2
REMARK minimizedAffinity -7.50187683
REMARK CNNscore 0.404445201
REMARK CNNaffinity 6.10665655
REMARK  8 active torsions:
REMARK  status: ('A' for Active; 'I' for Inactive)
REMARK    1  A    between atoms: C11_11  and  O1_12 
REMARK    2  A    between atoms: O1_12  and  C12_13 
REMARK    3  A    between atoms: C14_16  and  O3_17 
REMARK    4  A    between atoms: C15_18  and  O4_19 
REMARK    5  A    between atoms: C16_20  and  O5_21 
REMARK    6  A    between atoms: C19_24  and  C20_25 
REMARK    7  A    between atoms: C21_27  and  O7_28 
REMARK    8  A    between atoms: C24_31  and  C25_32 
ROOT
HETATM    1  C1  UNL     1      -8.759 -10.170  -3.946  1.00  0.00     0.019 C 
HETATM    2  C2  UNL     1      -8.181  -8.966  -3.174  1.00  0.00    -0.005 C 
HETATM    3  C3  UNL     1      -6.653  -9.174  -3.007  1.00  0.00     0.013 C 
HETATM    4  C4  UNL     1      -6.288 -10.279  -2.021  1.00  0.00     0.007 C 
HETATM    5  C5  UNL     1      -6.886 -10.028  -0.623  1.00  0.00     0.012 C 
HETATM    6  C6  UNL     1      -8.434  -9.830  -0.725  1.00  0.00     0.027 C 
HETATM    7  C7  UNL     1      -9.043  -9.525   0.664  1.00  0.00     0.012 C 
HETATM    8  C8  UNL     1      -8.678 -10.568   1.716  1.00  0.00     0.036 C 
HETATM    9  C9  UNL     1      -7.180 -10.739   1.760  1.00  0.00    -0.065 C 
HETATM   10  C10 UNL     1      -6.500 -10.445   2.886  1.00  0.00     0.009 C 
HETATM   11  C11 UNL     1      -5.007 -10.361   2.985  1.00  0.00     0.148 C 
HETATM   12  C17 UNL     1      -4.369 -10.240   1.599  1.00  0.00     0.037 C 
HETATM   13  C18 UNL     1      -4.961 -11.272   0.643  1.00  0.00     0.024 C 
HETATM   14  C19 UNL     1      -6.501 -11.122   0.438  1.00  0.00     0.040 C 
HETATM   15  C21 UNL     1      -8.854  -8.772  -1.785  1.00  0.00     0.070 C 
HETATM   16  C22 UNL     1      -8.501  -7.322  -1.431  1.00  0.00     0.040 C 
HETATM   17  C23 UNL     1      -8.616  -6.558  -2.749  1.00  0.00     0.013 C 
HETATM   18  C24 UNL     1      -8.409  -7.583  -3.893  1.00  0.00     0.028 C 
ENDROOT
BRANCH  11  19
HETATM   19  O1  UNL     1      -4.575 -11.563   3.619  1.00  0.00    -0.349 OA
BRANCH  19  20
HETATM   20  C12 UNL     1      -3.987 -11.336   4.902  1.00  0.00     0.291 C 
HETATM   21  O2  UNL     1      -4.938 -11.517   5.954  1.00  0.00    -0.356 OA
HETATM   22  C13 UNL     1      -5.584 -10.298   6.334  1.00  0.00     0.205 C 
HETATM   23  C14 UNL     1      -4.567  -9.373   7.016  1.00  0.00     0.173 C 
HETATM   24  C15 UNL     1      -3.205  -9.404   6.299  1.00  0.00     0.182 C 
HETATM   25  C16 UNL     1      -3.358  -9.925   4.872  1.00  0.00     0.204 C 
BRANCH  23  26
HETATM   26  O3  UNL     1      -4.393  -9.802   8.377  1.00  0.00    -0.391 OA
HETATM   27  H20 UNL     1      -4.198 -10.757   8.361  1.00  0.00     0.210 HD
ENDBRANCH  23  26
BRANCH  24  28
HETATM   28  O4  UNL     1      -2.638  -8.087   6.257  1.00  0.00    -0.390 OA
HETATM   29  H22 UNL     1      -1.848  -8.162   5.685  1.00  0.00     0.210 HD
ENDBRANCH  24  28
BRANCH  25  30
HETATM   30  O5  UNL     1      -2.075  -9.940   4.220  1.00  0.00    -0.388 OA
HETATM   31  H24 UNL     1      -2.242 -10.254   3.310  1.00  0.00     0.210 HD
ENDBRANCH  25  30
ENDBRANCH  19  20
ENDBRANCH  11  19
BRANCH  14  32
HETATM   32  C20 UNL     1      -6.946 -12.519  -0.058  1.00  0.00     0.245 C 
HETATM   33  O6  UNL     1      -6.289 -13.294  -0.745  1.00  0.00    -0.306 OA
ENDBRANCH  14  32
BRANCH  15  34
HETATM   34  O7  UNL     1     -10.275  -8.841  -1.962  1.00  0.00    -0.389 OA
HETATM   35  H30 UNL     1     -10.712  -8.522  -1.153  1.00  0.00     0.210 HD
ENDBRANCH  15  34
BRANCH  18  36
HETATM   36  C25 UNL     1      -9.480  -7.519  -4.950  1.00  0.00    -0.045 A 
HETATM   37  C26 UNL     1     -10.785  -7.781  -4.853  1.00  0.00     0.087 A 
HETATM   38  C27 UNL     1     -11.372  -7.554  -6.171  1.00  0.00     0.283 A 
HETATM   39  O8  UNL     1     -12.551  -7.690  -6.442  1.00  0.00    -0.260 OA
HETATM   40  O9  UNL     1     -10.398  -7.154  -7.031  1.00  0.00    -0.314 OA
HETATM   41  C28 UNL     1      -9.155  -7.101  -6.336  1.00  0.00     0.213 A 
ENDBRANCH  18  36
TORSDOF 8
ENDMDL
MODEL 3
REMARK minimizedAffinity -6.56222916
REMARK CNNscore 0.378230929
REMARK CNNaffinity 5.52067804
REMARK  8 active torsions:
REMARK  status: ('A' for Active; 'I' for Inactive)
REMARK    1  A    between atoms: C11_11  and  O1_12 
REMARK    2  A    between atoms: O1_12  and  C12_13 
REMARK    3  A    between atoms: C14_16  and  O3_17 
REMARK    4  A    between atoms: C15_18  and  O4_19 
REMARK    5  A    between atoms: C16_20  and  O5_21 
REMARK    6  A    between atoms: C19_24  and  C20_25 
REMARK    7  A    between atoms: C21_27  and  O7_28 
REMARK    8  A    between atoms: C24_31  and  C25_32 
ROOT
HETATM    1  C1  UNL     1      -7.218  15.563  22.845  1.00  0.00     0.019 C 
HETATM    2  C2  UNL     1      -7.658  14.179  22.323  1.00  0.00    -0.005 C 
HETATM    3  C3  UNL     1      -6.478  13.187  22.502  1.00  0.00     0.013 C 
HETATM    4  C4  UNL     1      -5.316  13.437  21.546  1.00  0.00     0.007 C 
HETATM    5  C5  UNL     1      -5.758  13.385  20.071  1.00  0.00     0.012 C 
HETATM    6  C6  UNL     1      -6.937  14.383  19.825  1.00  0.00     0.027 C 
HETATM    7  C7  UNL     1      -7.428  14.305  18.359  1.00  0.00     0.012 C 
HETATM    8  C8  UNL     1      -6.305  14.498  17.344  1.00  0.00     0.036 C 
HETATM    9  C9  UNL     1      -5.185  13.532  17.637  1.00  0.00    -0.065 C 
HETATM   10  C10 UNL     1      -4.844  12.598  16.727  1.00  0.00     0.009 C 
HETATM   11  C11 UNL     1      -3.912  11.454  16.986  1.00  0.00     0.148 C 
HETATM   12  C17 UNL     1      -3.720  11.228  18.487  1.00  0.00     0.037 C 
HETATM   13  C18 UNL     1      -3.436  12.549  19.196  1.00  0.00     0.024 C 
HETATM   14  C19 UNL     1      -4.584  13.597  19.048  1.00  0.00     0.040 C 
HETATM   15  C21 UNL     1      -8.107  14.221  20.836  1.00  0.00     0.070 C 
HETATM   16  C22 UNL     1      -8.920  12.928  20.685  1.00  0.00     0.040 C 
HETATM   17  C23 UNL     1      -9.696  12.800  21.995  1.00  0.00     0.013 C 
HETATM   18  C24 UNL     1      -8.910  13.587  23.074  1.00  0.00     0.028 C 
ENDROOT
BRANCH  11  19
HETATM   19  O1  UNL     1      -2.669  11.798  16.379  1.00  0.00    -0.349 OA
BRANCH  19  20
HETATM   20  C12 UNL     1      -1.869  10.658  16.060  1.00  0.00     0.291 C 
HETATM   21  O2  UNL     1      -1.295  10.074  17.233  1.00  0.00    -0.356 OA
HETATM   22  C13 UNL     1       0.014  10.577  17.519  1.00  0.00     0.205 C 
HETATM   23  C14 UNL     1       0.994  10.091  16.444  1.00  0.00     0.173 C 
HETATM   24  C15 UNL     1       0.368  10.156  15.038  1.00  0.00     0.182 C 
HETATM   25  C16 UNL     1      -0.820  11.115  15.020  1.00  0.00     0.204 C 
BRANCH  23  26
HETATM   26  O3  UNL     1       1.361   8.732  16.734  1.00  0.00    -0.391 OA
HETATM   27  H20 UNL     1       0.537   8.226  16.859  1.00  0.00     0.210 HD
ENDBRANCH  23  26
BRANCH  24  28
HETATM   28  O4  UNL     1       1.342  10.601  14.083  1.00  0.00    -0.390 OA
HETATM   29  H22 UNL     1       0.847  10.736  13.251  1.00  0.00     0.210 HD
ENDBRANCH  24  28
BRANCH  25  30
HETATM   30  O5  UNL     1      -1.385  11.164  13.697  1.00  0.00    -0.388 OA
HETATM   31  H24 UNL     1      -2.116  11.809  13.743  1.00  0.00     0.210 HD
ENDBRANCH  25  30
ENDBRANCH  19  20
ENDBRANCH  11  19
BRANCH  14  32
HETATM   32  C20 UNL     1      -3.886  14.952  19.318  1.00  0.00     0.245 C 
HETATM   33  O6  UNL     1      -2.716  15.118  19.644  1.00  0.00    -0.306 OA
ENDBRANCH  14  32
BRANCH  15  34
HETATM   34  O7  UNL     1      -9.011  15.322  20.670  1.00  0.00    -0.389 OA
HETATM   35  H30 UNL     1      -9.457  15.240  19.809  1.00  0.00     0.210 HD
ENDBRANCH  15  34
BRANCH  18  36
HETATM   36  C25 UNL     1      -9.769  14.548  23.854  1.00  0.00    -0.045 A 
HETATM   37  C26 UNL     1     -11.042  14.897  23.661  1.00  0.00     0.087 A 
HETATM   38  C27 UNL     1     -11.393  15.854  24.707  1.00  0.00     0.283 A 
HETATM   39  O8  UNL     1     -12.485  16.375  24.838  1.00  0.00    -0.260 OA
HETATM   40  O9  UNL     1     -10.314  16.053  25.510  1.00  0.00    -0.314 OA
HETATM   41  C28 UNL     1      -9.230  15.255  25.041  1.00  0.00     0.213 A 
ENDBRANCH  18  36
TORSDOF 8
ENDMDL
MODEL 4
REMARK minimizedAffinity -6.63653326
REMARK CNNscore 0.356949329
REMARK CNNaffinity 5.8093338
REMARK  8 active torsions:
REMARK  status: ('A' for Active; 'I' for Inactive)
REMARK    1  A    between atoms: C11_11  and  O1_12 
REMARK    2  A    between atoms: O1_12  and  C12_13 
REMARK    3  A    between atoms: C14_16  and  O3_17 
REMARK    4  A    between atoms: C15_18  and  O4_19 
REMARK    5  A    between atoms: C16_20  and  O5_21 
REMARK    6  A    between atoms: C19_24  and  C20_25 
REMARK    7  A    between atoms: C21_27  and  O7_28 
REMARK    8  A    between atoms: C24_31  and  C25_32 
ROOT
HETATM    1  C1  UNL     1      -7.799 -10.635   7.454  1.00  0.00     0.019 C 
HETATM    2  C2  UNL     1      -6.679  -9.877   6.712  1.00  0.00    -0.005 C 
HETATM    3  C3  UNL     1      -7.331  -8.830   5.771  1.00  0.00     0.013 C 
HETATM    4  C4  UNL     1      -8.034  -9.444   4.564  1.00  0.00     0.007 C 
HETATM    5  C5  UNL     1      -7.082 -10.311   3.719  1.00  0.00     0.012 C 
HETATM    6  C6  UNL     1      -6.407 -11.402   4.613  1.00  0.00     0.027 C 
HETATM    7  C7  UNL     1      -5.407 -12.249   3.790  1.00  0.00     0.012 C 
HETATM    8  C8  UNL     1      -6.033 -12.855   2.537  1.00  0.00     0.036 C 
HETATM    9  C9  UNL     1      -6.689 -11.770   1.722  1.00  0.00    -0.065 C 
HETATM   10  C10 UNL     1      -6.251 -11.504   0.475  1.00  0.00     0.009 C 
HETATM   11  C11 UNL     1      -6.667 -10.318  -0.341  1.00  0.00     0.148 C 
HETATM   12  C17 UNL     1      -7.310  -9.242   0.537  1.00  0.00     0.037 C 
HETATM   13  C18 UNL     1      -8.347  -9.861   1.471  1.00  0.00     0.024 C 
HETATM   14  C19 UNL     1      -7.755 -10.931   2.441  1.00  0.00     0.040 C 
HETATM   15  C21 UNL     1      -5.753 -10.828   5.902  1.00  0.00     0.070 C 
HETATM   16  C22 UNL     1      -4.501  -9.974   5.670  1.00  0.00     0.040 C 
HETATM   17  C23 UNL     1      -4.303  -9.206   6.976  1.00  0.00     0.013 C 
HETATM   18  C24 UNL     1      -5.685  -9.118   7.671  1.00  0.00     0.028 C 
ENDROOT
BRANCH  11  19
HETATM   19  O1  UNL     1      -7.609 -10.795  -1.299  1.00  0.00    -0.349 OA
BRANCH  19  20
HETATM   20  C12 UNL     1      -7.117 -10.742  -2.640  1.00  0.00     0.291 C 
HETATM   21  O2  UNL     1      -6.499  -9.483  -2.922  1.00  0.00    -0.356 OA
HETATM   22  C13 UNL     1      -7.404  -8.538  -3.502  1.00  0.00     0.205 C 
HETATM   23  C14 UNL     1      -7.786  -8.998  -4.915  1.00  0.00     0.173 C 
HETATM   24  C15 UNL     1      -8.025 -10.519  -4.969  1.00  0.00     0.182 C 
HETATM   25  C16 UNL     1      -8.304 -11.071  -3.573  1.00  0.00     0.204 C 
BRANCH  23  26
HETATM   26  O3  UNL     1      -6.719  -8.656  -5.816  1.00  0.00    -0.391 OA
HETATM   27  H20 UNL     1      -5.892  -9.001  -5.435  1.00  0.00     0.210 HD
ENDBRANCH  23  26
BRANCH  24  28
HETATM   28  O4  UNL     1      -9.141 -10.814  -5.821  1.00  0.00    -0.390 OA
HETATM   29  H22 UNL     1      -9.308 -11.771  -5.708  1.00  0.00     0.210 HD
ENDBRANCH  24  28
BRANCH  25  30
HETATM   30  O5  UNL     1      -8.529 -12.490  -3.649  1.00  0.00    -0.388 OA
HETATM   31  H24 UNL     1      -8.728 -12.778  -2.737  1.00  0.00     0.210 HD
ENDBRANCH  25  30
ENDBRANCH  19  20
ENDBRANCH  11  19
BRANCH  14  32
HETATM   32  C20 UNL     1      -8.983 -11.780   2.849  1.00  0.00     0.245 C 
HETATM   33  O6  UNL     1     -10.083 -11.358   3.184  1.00  0.00    -0.306 OA
ENDBRANCH  14  32
BRANCH  15  34
HETATM   34  O7  UNL     1      -5.380 -11.921   6.752  1.00  0.00    -0.389 OA
HETATM   35  H30 UNL     1      -4.647 -12.410   6.337  1.00  0.00     0.210 HD
ENDBRANCH  15  34
BRANCH  18  36
HETATM   36  C25 UNL     1      -5.653  -9.545   9.115  1.00  0.00    -0.045 A 
HETATM   37  C26 UNL     1      -6.567  -9.371  10.072  1.00  0.00     0.087 A 
HETATM   38  C27 UNL     1      -6.042  -9.987  11.289  1.00  0.00     0.283 A 
HETATM   39  O8  UNL     1      -6.623 -10.021  12.358  1.00  0.00    -0.260 OA
HETATM   40  O9  UNL     1      -4.820 -10.521  11.028  1.00  0.00    -0.314 OA
HETATM   41  C28 UNL     1      -4.492 -10.288   9.661  1.00  0.00     0.213 A 
ENDBRANCH  18  36
TORSDOF 8
ENDMDL
MODEL 5
REMARK minimizedAffinity -7.57773161
REMARK CNNscore 0.333368182
REMARK CNNaffinity 5.38214636
REMARK  8 active torsions:
REMARK  status: ('A' for Active; 'I' for Inactive)
REMARK    1  A    between atoms: C11_11  and  O1_12 
REMARK    2  A    between atoms: O1_12  and  C12_13 
REMARK    3  A    between atoms: C14_16  and  O3_17 
REMARK    4  A    between atoms: C15_18  and  O4_19 
REMARK    5  A    between atoms: C16_20  and  O5_21 
REMARK    6  A    between atoms: C19_24  and  C20_25 
REMARK    7  A    between atoms: C21_27  and  O7_28 
REMARK    8  A    between atoms: C24_31  and  C25_32 
ROOT
HETATM    1  C1  UNL     1       6.025  12.950  23.046  1.00  0.00     0.019 C 
HETATM    2  C2  UNL     1       5.189  13.986  22.267  1.00  0.00    -0.005 C 
HETATM    3  C3  UNL     1       3.703  13.841  22.690  1.00  0.00     0.013 C 
HETATM    4  C4  UNL     1       3.039  12.569  22.172  1.00  0.00     0.007 C 
HETATM    5  C5  UNL     1       3.104  12.467  20.636  1.00  0.00     0.012 C 
HETATM    6  C6  UNL     1       4.585  12.587  20.149  1.00  0.00     0.027 C 
HETATM    7  C7  UNL     1       4.663  12.539  18.604  1.00  0.00     0.012 C 
HETATM    8  C8  UNL     1       3.973  11.314  18.011  1.00  0.00     0.036 C 
HETATM    9  C9  UNL     1       2.559  11.229  18.528  1.00  0.00    -0.065 C 
HETATM   10  C10 UNL     1       1.521  11.308  17.671  1.00  0.00     0.009 C 
HETATM   11  C11 UNL     1       0.087  11.459  18.078  1.00  0.00     0.148 C 
HETATM   12  C17 UNL     1      -0.027  11.924  19.532  1.00  0.00     0.037 C 
HETATM   13  C18 UNL     1       0.884  11.094  20.434  1.00  0.00     0.024 C 
HETATM   14  C19 UNL     1       2.395  11.191  20.054  1.00  0.00     0.040 C 
HETATM   15  C21 UNL     1       5.328  13.826  20.726  1.00  0.00     0.070 C 
HETATM   16  C22 UNL     1       4.844  15.180  20.193  1.00  0.00     0.040 C 
HETATM   17  C23 UNL     1       5.398  16.208  21.178  1.00  0.00     0.013 C 
HETATM   18  C24 UNL     1       5.625  15.478  22.526  1.00  0.00     0.028 C 
ENDROOT
BRANCH  11  19
HETATM   19  O1  UNL     1      -0.515  10.176  17.925  1.00  0.00    -0.349 OA
BRANCH  19  20
HETATM   20  C12 UNL     1      -1.279  10.058  16.724  1.00  0.00     0.291 C 
HETATM   21  O2  UNL     1      -2.179  11.158  16.564  1.00  0.00    -0.356 OA
HETATM   22  C13 UNL     1      -3.480  10.892  17.098  1.00  0.00     0.205 C 
HETATM   23  C14 UNL     1      -4.174   9.822  16.246  1.00  0.00     0.173 C 
HETATM   24  C15 UNL     1      -3.197   8.703  15.839  1.00  0.00     0.182 C 
HETATM   25  C16 UNL     1      -1.983   8.683  16.765  1.00  0.00     0.204 C 
BRANCH  23  26
HETATM   26  O3  UNL     1      -4.697  10.445  15.060  1.00  0.00    -0.391 OA
HETATM   27  H20 UNL     1      -3.972  10.952  14.651  1.00  0.00     0.210 HD
ENDBRANCH  23  26
BRANCH  24  28
HETATM   28  O4  UNL     1      -3.853   7.428  15.901  1.00  0.00    -0.390 OA
HETATM   29  H22 UNL     1      -3.148   6.766  15.755  1.00  0.00     0.210 HD
ENDBRANCH  24  28
BRANCH  25  30
HETATM   30  O5  UNL     1      -1.089   7.627  16.370  1.00  0.00    -0.388 OA
HETATM   31  H24 UNL     1      -0.353   7.648  17.012  1.00  0.00     0.210 HD
ENDBRANCH  25  30
ENDBRANCH  19  20
ENDBRANCH  11  19
BRANCH  14  32
HETATM   32  C20 UNL     1       3.014   9.914  20.671  1.00  0.00     0.245 C 
HETATM   33  O6  UNL     1       4.165   9.780  21.070  1.00  0.00    -0.306 OA
ENDBRANCH  14  32
BRANCH  15  34
HETATM   34  O7  UNL     1       6.723  13.710  20.412  1.00  0.00    -0.389 OA
HETATM   35  H30 UNL     1       6.841  13.815  19.452  1.00  0.00     0.210 HD
ENDBRANCH  15  34
BRANCH  18  36
HETATM   36  C25 UNL     1       6.998  15.707  23.103  1.00  0.00    -0.045 A 
HETATM   37  C26 UNL     1       7.364  15.895  24.373  1.00  0.00     0.087 A 
HETATM   38  C27 UNL     1       8.816  16.059  24.385  1.00  0.00     0.283 A 
HETATM   39  O8  UNL     1       9.488  16.240  25.384  1.00  0.00    -0.260 OA
HETATM   40  O9  UNL     1       9.287  15.962  23.114  1.00  0.00    -0.314 OA
HETATM   41  C28 UNL     1       8.194  15.734  22.227  1.00  0.00     0.213 A 
ENDBRANCH  18  36
TORSDOF 8
ENDMDL
MODEL 6
REMARK minimizedAffinity -9.18451214
REMARK CNNscore 0.294729352
REMARK CNNaffinity 6.37874031
REMARK  8 active torsions:
REMARK  status: ('A' for Active; 'I' for Inactive)
REMARK    1  A    between atoms: C11_11  and  O1_12 
REMARK    2  A    between atoms: O1_12  and  C12_13 
REMARK    3  A    between atoms: C14_16  and  O3_17 
REMARK    4  A    between atoms: C15_18  and  O4_19 
REMARK    5  A    between atoms: C16_20  and  O5_21 
REMARK    6  A    between atoms: C19_24  and  C20_25 
REMARK    7  A    between atoms: C21_27  and  O7_28 
REMARK    8  A    between atoms: C24_31  and  C25_32 
ROOT
HETATM    1  C1  UNL     1      -4.920   8.366  12.897  1.00  0.00     0.019 C 
HETATM    2  C2  UNL     1      -4.077   7.707  14.008  1.00  0.00    -0.005 C 
HETATM    3  C3  UNL     1      -3.011   8.727  14.490  1.00  0.00     0.013 C 
HETATM    4  C4  UNL     1      -1.901   8.981  13.475  1.00  0.00     0.007 C 
HETATM    5  C5  UNL     1      -1.169   7.683  13.081  1.00  0.00     0.012 C 
HETATM    6  C6  UNL     1      -2.194   6.619  12.567  1.00  0.00     0.027 C 
HETATM    7  C7  UNL     1      -1.480   5.291  12.218  1.00  0.00     0.012 C 
HETATM    8  C8  UNL     1      -0.323   5.476  11.241  1.00  0.00     0.036 C 
HETATM    9  C9  UNL     1       0.622   6.526  11.769  1.00  0.00    -0.065 C 
HETATM   10  C10 UNL     1       1.897   6.200  12.063  1.00  0.00     0.009 C 
HETATM   11  C11 UNL     1       2.858   7.087  12.794  1.00  0.00     0.148 C 
HETATM   12  C17 UNL     1       2.123   8.215  13.521  1.00  0.00     0.037 C 
HETATM   13  C18 UNL     1       1.108   8.880  12.594  1.00  0.00     0.024 C 
HETATM   14  C19 UNL     1       0.011   7.902  12.067  1.00  0.00     0.040 C 
HETATM   15  C21 UNL     1      -3.391   6.394  13.534  1.00  0.00     0.070 C 
HETATM   16  C22 UNL     1      -3.038   5.695  14.853  1.00  0.00     0.040 C 
HETATM   17  C23 UNL     1      -4.230   5.963  15.769  1.00  0.00     0.013 C 
HETATM   18  C24 UNL     1      -4.919   7.255  15.261  1.00  0.00     0.028 C 
ENDROOT
BRANCH  11  19
HETATM   19  O1  UNL     1       3.737   7.628  11.811  1.00  0.00    -0.349 OA
BRANCH  19  20
HETATM   20  C12 UNL     1       4.669   8.567  12.352  1.00  0.00     0.291 C 
HETATM   21  O2  UNL     1       4.783   9.730  11.527  1.00  0.00    -0.356 OA
HETATM   22  C13 UNL     1       5.846   9.632  10.575  1.00  0.00     0.205 C 
HETATM   23  C14 UNL     1       7.193   9.663  11.308  1.00  0.00     0.173 C 
HETATM   24  C15 UNL     1       7.153   8.824  12.599  1.00  0.00     0.182 C 
HETATM   25  C16 UNL     1       6.006   7.818  12.553  1.00  0.00     0.204 C 
BRANCH  23  26
HETATM   26  O3  UNL     1       7.505  11.026  11.642  1.00  0.00    -0.391 OA
HETATM   27  H20 UNL     1       6.731  11.401  12.100  1.00  0.00     0.210 HD
ENDBRANCH  23  26
BRANCH  24  28
HETATM   28  O4  UNL     1       8.390   8.115  12.766  1.00  0.00    -0.390 OA
HETATM   29  H22 UNL     1       8.245   7.516  13.525  1.00  0.00     0.210 HD
ENDBRANCH  24  28
BRANCH  25  30
HETATM   30  O5  UNL     1       5.992   7.042  13.765  1.00  0.00    -0.388 OA
HETATM   31  H24 UNL     1       5.260   6.403  13.664  1.00  0.00     0.210 HD
ENDBRANCH  25  30
ENDBRANCH  19  20
ENDBRANCH  11  19
BRANCH  14  32
HETATM   32  C20 UNL     1      -0.515   8.593  10.786  1.00  0.00     0.245 C 
HETATM   33  O6  UNL     1       0.119   8.804   9.758  1.00  0.00    -0.306 OA
ENDBRANCH  14  32
BRANCH  15  34
HETATM   34  O7  UNL     1      -4.373   5.591  12.867  1.00  0.00    -0.389 OA
HETATM   35  H30 UNL     1      -4.020   4.692  12.748  1.00  0.00     0.210 HD
ENDBRANCH  15  34
BRANCH  18  36
HETATM   36  C25 UNL     1      -6.406   7.104  15.077  1.00  0.00    -0.045 A 
HETATM   37  C26 UNL     1      -7.371   8.021  15.171  1.00  0.00     0.087 A 
HETATM   38  C27 UNL     1      -8.637   7.349  14.889  1.00  0.00     0.283 A 
HETATM   39  O8  UNL     1      -9.727   7.892  14.880  1.00  0.00    -0.260 OA
HETATM   40  O9  UNL     1      -8.398   6.037  14.629  1.00  0.00    -0.314 OA
HETATM   41  C28 UNL     1      -6.997   5.790  14.724  1.00  0.00     0.213 A 
ENDBRANCH  18  36
TORSDOF 8
ENDMDL
MODEL 7
REMARK minimizedAffinity -9.10120487
REMARK CNNscore 0.274779648
REMARK CNNaffinity 6.53878546
REMARK  8 active torsions:
REMARK  status: ('A' for Active; 'I' for Inactive)
REMARK    1  A    between atoms: C11_11  and  O1_12 
REMARK    2  A    between atoms: O1_12  and  C12_13 
REMARK    3  A    between atoms: C14_16  and  O3_17 
REMARK    4  A    between atoms: C15_18  and  O4_19 
REMARK    5  A    between atoms: C16_20  and  O5_21 
REMARK    6  A    between atoms: C19_24  and  C20_25 
REMARK    7  A    between atoms: C21_27  and  O7_28 
REMARK    8  A    between atoms: C24_31  and  C25_32 
ROOT
HETATM    1  C1  UNL     1      -1.911   5.134  11.444  1.00  0.00     0.019 C 
HETATM    2  C2  UNL     1      -1.731   5.429  12.947  1.00  0.00    -0.005 C 
HETATM    3  C3  UNL     1      -2.576   4.409  13.755  1.00  0.00     0.013 C 
HETATM    4  C4  UNL     1      -4.081   4.640  13.651  1.00  0.00     0.007 C 
HETATM    5  C5  UNL     1      -4.482   6.055  14.110  1.00  0.00     0.012 C 
HETATM    6  C6  UNL     1      -3.673   7.131  13.315  1.00  0.00     0.027 C 
HETATM    7  C7  UNL     1      -4.026   8.557  13.802  1.00  0.00     0.012 C 
HETATM    8  C8  UNL     1      -5.525   8.842  13.771  1.00  0.00     0.036 C 
HETATM    9  C9  UNL     1      -6.261   7.767  14.530  1.00  0.00    -0.065 C 
HETATM   10  C10 UNL     1      -6.975   8.084  15.628  1.00  0.00     0.009 C 
HETATM   11  C11 UNL     1      -7.559   7.089  16.584  1.00  0.00     0.148 C 
HETATM   12  C17 UNL     1      -6.916   5.712  16.407  1.00  0.00     0.037 C 
HETATM   13  C18 UNL     1      -6.861   5.330  14.930  1.00  0.00     0.024 C 
HETATM   14  C19 UNL     1      -6.029   6.324  14.059  1.00  0.00     0.040 C 
HETATM   15  C21 UNL     1      -2.138   6.882  13.321  1.00  0.00     0.070 C 
HETATM   16  C22 UNL     1      -1.452   7.094  14.676  1.00  0.00     0.040 C 
HETATM   17  C23 UNL     1      -0.095   6.405  14.540  1.00  0.00     0.013 C 
HETATM   18  C24 UNL     1      -0.238   5.322  13.441  1.00  0.00     0.028 C 
ENDROOT
BRANCH  11  19
HETATM   19  O1  UNL     1      -8.953   7.019  16.294  1.00  0.00    -0.349 OA
BRANCH  19  20
HETATM   20  C12 UNL     1      -9.330   7.816  15.169  1.00  0.00     0.291 C 
HETATM   21  O2  UNL     1      -9.685   9.144  15.562  1.00  0.00    -0.356 OA
HETATM   22  C13 UNL     1     -11.089   9.296  15.797  1.00  0.00     0.205 C 
HETATM   23  C14 UNL     1     -11.846   9.173  14.469  1.00  0.00     0.173 C 
HETATM   24  C15 UNL     1     -11.267   8.048  13.590  1.00  0.00     0.182 C 
HETATM   25  C16 UNL     1     -10.463   7.063  14.436  1.00  0.00     0.204 C 
BRANCH  23  26
HETATM   26  O3  UNL     1     -11.745  10.421  13.763  1.00  0.00    -0.391 OA
HETATM   27  H20 UNL     1     -10.801  10.662  13.726  1.00  0.00     0.210 HD
ENDBRANCH  23  26
BRANCH  24  28
HETATM   28  O4  UNL     1     -12.327   7.341  12.931  1.00  0.00    -0.390 OA
HETATM   29  H22 UNL     1     -11.899   6.575  12.499  1.00  0.00     0.210 HD
ENDBRANCH  24  28
BRANCH  25  30
HETATM   30  O5  UNL     1      -9.938   6.019  13.596  1.00  0.00    -0.388 OA
HETATM   31  H24 UNL     1      -9.460   5.411  14.194  1.00  0.00     0.210 HD
ENDBRANCH  25  30
ENDBRANCH  19  20
ENDBRANCH  11  19
BRANCH  14  32
HETATM   32  C20 UNL     1      -6.559   6.091  12.624  1.00  0.00     0.245 C 
HETATM   33  O6  UNL     1      -7.550   5.441  12.308  1.00  0.00    -0.306 OA
ENDBRANCH  14  32
BRANCH  15  34
HETATM   34  O7  UNL     1      -1.526   7.775  12.381  1.00  0.00    -0.389 OA
HETATM   35  H30 UNL     1      -1.598   8.686  12.715  1.00  0.00     0.210 HD
ENDBRANCH  15  34
BRANCH  18  36
HETATM   36  C25 UNL     1       0.844   5.389  12.395  1.00  0.00    -0.045 A 
HETATM   37  C26 UNL     1       1.130   4.531  11.413  1.00  0.00     0.087 A 
HETATM   38  C27 UNL     1       2.268   5.077  10.678  1.00  0.00     0.283 A 
HETATM   39  O8  UNL     1       2.787   4.554   9.709  1.00  0.00    -0.260 OA
HETATM   40  O9  UNL     1       2.636   6.259  11.238  1.00  0.00    -0.314 OA
HETATM   41  C28 UNL     1       1.778   6.540  12.342  1.00  0.00     0.213 A 
ENDBRANCH  18  36
TORSDOF 8
ENDMDL
MODEL 8
REMARK minimizedAffinity -6.67723513
REMARK CNNscore 0.266110063
REMARK CNNaffinity 6.07053137
REMARK  8 active torsions:
REMARK  status: ('A' for Active; 'I' for Inactive)
REMARK    1  A    between atoms: C11_11  and  O1_12 
REMARK    2  A    between atoms: O1_12  and  C12_13 
REMARK    3  A    between atoms: C14_16  and  O3_17 
REMARK    4  A    between atoms: C15_18  and  O4_19 
REMARK    5  A    between atoms: C16_20  and  O5_21 
REMARK    6  A    between atoms: C19_24  and  C20_25 
REMARK    7  A    between atoms: C21_27  and  O7_28 
REMARK    8  A    between atoms: C24_31  and  C25_32 
ROOT
HETATM    1  C1  UNL     1     -11.002 -12.154  15.478  1.00  0.00     0.019 C 
HETATM    2  C2  UNL     1     -11.373 -10.912  14.642  1.00  0.00    -0.005 C 
HETATM    3  C3  UNL     1     -11.769 -11.377  13.216  1.00  0.00     0.013 C 
HETATM    4  C4  UNL     1     -10.591 -11.874  12.383  1.00  0.00     0.007 C 
HETATM    5  C5  UNL     1      -9.490 -10.805  12.243  1.00  0.00     0.012 C 
HETATM    6  C6  UNL     1      -9.035 -10.310  13.654  1.00  0.00     0.027 C 
HETATM    7  C7  UNL     1      -7.966  -9.198  13.530  1.00  0.00     0.012 C 
HETATM    8  C8  UNL     1      -6.777  -9.609  12.667  1.00  0.00     0.036 C 
HETATM    9  C9  UNL     1      -7.268 -10.100  11.328  1.00  0.00    -0.065 C 
HETATM   10  C10 UNL     1      -6.915  -9.452  10.200  1.00  0.00     0.009 C 
HETATM   11  C11 UNL     1      -7.510  -9.704   8.849  1.00  0.00     0.148 C 
HETATM   12  C17 UNL     1      -8.830 -10.470   8.961  1.00  0.00     0.037 C 
HETATM   13  C18 UNL     1      -8.680 -11.661   9.905  1.00  0.00     0.024 C 
HETATM   14  C19 UNL     1      -8.274 -11.260  11.357  1.00  0.00     0.040 C 
HETATM   15  C21 UNL     1     -10.216  -9.876  14.569  1.00  0.00     0.070 C 
HETATM   16  C22 UNL     1     -10.931  -8.589  14.139  1.00  0.00     0.040 C 
HETATM   17  C23 UNL     1     -12.255  -8.605  14.901  1.00  0.00     0.013 C 
HETATM   18  C24 UNL     1     -12.576 -10.084  15.235  1.00  0.00     0.028 C 
ENDROOT
BRANCH  11  19
HETATM   19  O1  UNL     1      -6.556 -10.476   8.123  1.00  0.00    -0.349 OA
BRANCH  19  20
HETATM   20  C12 UNL     1      -5.604  -9.672   7.423  1.00  0.00     0.291 C 
HETATM   21  O2  UNL     1      -5.940  -9.547   6.039  1.00  0.00    -0.356 OA
HETATM   22  C13 UNL     1      -5.304 -10.535   5.222  1.00  0.00     0.205 C 
HETATM   23  C14 UNL     1      -3.794 -10.268   5.180  1.00  0.00     0.173 C 
HETATM   24  C15 UNL     1      -3.254  -9.859   6.563  1.00  0.00     0.182 C 
HETATM   25  C16 UNL     1      -4.212 -10.298   7.668  1.00  0.00     0.204 C 
BRANCH  23  26
HETATM   26  O3  UNL     1      -3.539  -9.207   4.243  1.00  0.00    -0.391 OA
HETATM   27  H20 UNL     1      -4.125  -8.464   4.474  1.00  0.00     0.210 HD
ENDBRANCH  23  26
BRANCH  24  28
HETATM   28  O4  UNL     1      -1.971 -10.461   6.790  1.00  0.00    -0.390 OA
HETATM   29  H22 UNL     1      -1.753 -10.262   7.723  1.00  0.00     0.210 HD
ENDBRANCH  24  28
BRANCH  25  30
HETATM   30  O5  UNL     1      -3.685  -9.911   8.950  1.00  0.00    -0.388 OA
HETATM   31  H24 UNL     1      -4.323 -10.241   9.611  1.00  0.00     0.210 HD
ENDBRANCH  25  30
ENDBRANCH  19  20
ENDBRANCH  11  19
BRANCH  14  32
HETATM   32  C20 UNL     1      -7.651 -12.552  11.938  1.00  0.00     0.245 C 
HETATM   33  O6  UNL     1      -8.209 -13.635  12.071  1.00  0.00    -0.306 OA
ENDBRANCH  14  32
BRANCH  15  34
HETATM   34  O7  UNL     1      -9.714  -9.670  15.897  1.00  0.00    -0.389 OA
HETATM   35  H30 UNL     1      -9.139  -8.885  15.900  1.00  0.00     0.210 HD
ENDBRANCH  15  34
BRANCH  18  36
HETATM   36  C25 UNL     1     -12.921 -10.306  16.684  1.00  0.00    -0.045 A 
HETATM   37  C26 UNL     1     -13.683 -11.250  17.241  1.00  0.00     0.087 A 
HETATM   38  C27 UNL     1     -13.679 -11.015  18.683  1.00  0.00     0.283 A 
HETATM   39  O8  UNL     1     -14.268 -11.698  19.501  1.00  0.00    -0.260 OA
HETATM   40  O9  UNL     1     -12.907  -9.931  18.957  1.00  0.00    -0.314 OA
HETATM   41  C28 UNL     1     -12.379  -9.414  17.738  1.00  0.00     0.213 A 
ENDBRANCH  18  36
TORSDOF 8
ENDMDL
MODEL 9
REMARK minimizedAffinity -7.335392
REMARK CNNscore 0.247711197
REMARK CNNaffinity 5.96363115
REMARK  8 active torsions:
REMARK  status: ('A' for Active; 'I' for Inactive)
REMARK    1  A    between atoms: C11_11  and  O1_12 
REMARK    2  A    between atoms: O1_12  and  C12_13 
REMARK    3  A    between atoms: C14_16  and  O3_17 
REMARK    4  A    between atoms: C15_18  and  O4_19 
REMARK    5  A    between atoms: C16_20  and  O5_21 
REMARK    6  A    between atoms: C19_24  and  C20_25 
REMARK    7  A    between atoms: C21_27  and  O7_28 
REMARK    8  A    between atoms: C24_31  and  C25_32 
ROOT
HETATM    1  C1  UNL     1      -7.194 -12.110   2.770  1.00  0.00     0.019 C 
HETATM    2  C2  UNL     1      -6.332 -10.861   2.497  1.00  0.00    -0.005 C 
HETATM    3  C3  UNL     1      -7.256  -9.615   2.488  1.00  0.00     0.013 C 
HETATM    4  C4  UNL     1      -8.170  -9.538   1.269  1.00  0.00     0.007 C 
HETATM    5  C5  UNL     1      -7.376  -9.547  -0.051  1.00  0.00     0.012 C 
HETATM    6  C6  UNL     1      -6.437 -10.796  -0.109  1.00  0.00     0.027 C 
HETATM    7  C7  UNL     1      -5.593 -10.791  -1.406  1.00  0.00     0.012 C 
HETATM    8  C8  UNL     1      -6.442 -10.667  -2.668  1.00  0.00     0.036 C 
HETATM    9  C9  UNL     1      -7.344  -9.464  -2.554  1.00  0.00    -0.065 C 
HETATM   10  C10 UNL     1      -7.224  -8.445  -3.428  1.00  0.00     0.009 C 
HETATM   11  C11 UNL     1      -7.900  -7.115  -3.287  1.00  0.00     0.148 C 
HETATM   12  C17 UNL     1      -8.402  -6.900  -1.858  1.00  0.00     0.037 C 
HETATM   13  C18 UNL     1      -9.150  -8.134  -1.360  1.00  0.00     0.024 C 
HETATM   14  C19 UNL     1      -8.276  -9.427  -1.334  1.00  0.00     0.040 C 
HETATM   15  C21 UNL     1      -5.549 -10.962   1.157  1.00  0.00     0.070 C 
HETATM   16  C22 UNL     1      -4.448  -9.906   1.321  1.00  0.00     0.040 C 
HETATM   17  C23 UNL     1      -4.013 -10.018   2.782  1.00  0.00     0.013 C 
HETATM   18  C24 UNL     1      -5.203 -10.622   3.570  1.00  0.00     0.028 C 
ENDROOT
BRANCH  11  19
HETATM   19  O1  UNL     1      -8.999  -7.122  -4.196  1.00  0.00    -0.349 OA
BRANCH  19  20
HETATM   20  C12 UNL     1      -9.917  -6.050  -3.969  1.00  0.00     0.291 C 
HETATM   21  O2  UNL     1     -11.273  -6.503  -4.007  1.00  0.00    -0.356 OA
HETATM   22  C13 UNL     1     -11.863  -6.377  -5.305  1.00  0.00     0.205 C 
HETATM   23  C14 UNL     1     -12.044  -4.891  -5.641  1.00  0.00     0.173 C 
HETATM   24  C15 UNL     1     -10.826  -4.060  -5.198  1.00  0.00     0.182 C 
HETATM   25  C16 UNL     1      -9.602  -4.952  -5.011  1.00  0.00     0.204 C 
BRANCH  23  26
HETATM   26  O3  UNL     1     -13.217  -4.405  -4.968  1.00  0.00    -0.391 OA
HETATM   27  H20 UNL     1     -13.139  -4.651  -4.028  1.00  0.00     0.210 HD
ENDBRANCH  23  26
BRANCH  24  28
HETATM   28  O4  UNL     1     -10.528  -3.057  -6.181  1.00  0.00    -0.390 OA
HETATM   29  H22 UNL     1      -9.681  -2.659  -5.896  1.00  0.00     0.210 HD
ENDBRANCH  24  28
BRANCH  25  30
HETATM   30  O5  UNL     1      -8.476  -4.154  -4.603  1.00  0.00    -0.388 OA
HETATM   31  H24 UNL     1      -7.724  -4.773  -4.527  1.00  0.00     0.210 HD
ENDBRANCH  25  30
ENDBRANCH  19  20
ENDBRANCH  11  19
BRANCH  14  32
HETATM   32  C20 UNL     1      -9.312 -10.576  -1.362  1.00  0.00     0.245 C 
HETATM   33  O6  UNL     1     -10.491 -10.488  -1.689  1.00  0.00    -0.306 OA
ENDBRANCH  14  32
BRANCH  15  34
HETATM   34  O7  UNL     1      -4.912 -12.245   1.105  1.00  0.00    -0.389 OA
HETATM   35  H30 UNL     1      -4.260 -12.247   0.382  1.00  0.00     0.210 HD
ENDBRANCH  15  34
BRANCH  18  36
HETATM   36  C25 UNL     1      -4.811 -11.791   4.435  1.00  0.00    -0.045 A 
HETATM   37  C26 UNL     1      -3.927 -12.763   4.199  1.00  0.00     0.087 A 
HETATM   38  C27 UNL     1      -3.923 -13.638   5.369  1.00  0.00     0.283 A 
HETATM   39  O8  UNL     1      -3.223 -14.626   5.497  1.00  0.00    -0.260 OA
HETATM   40  O9  UNL     1      -4.807 -13.164   6.286  1.00  0.00    -0.314 OA
HETATM   41  C28 UNL     1      -5.420 -11.982   5.774  1.00  0.00     0.213 A 
ENDBRANCH  18  36
TORSDOF 8
ENDMDL
