MODEL 1
REMARK minimizedAffinity -7.44875574
REMARK CNNscore 0.59600246
REMARK CNNaffinity 6.92693663
REMARK  9 active torsions:
REMARK  status: ('A' for Active; 'I' for Inactive)
REMARK    1  A    between atoms: C2_2  and  O1_3 
REMARK    2  A    between atoms: O1_3  and  C3_4 
REMARK    3  A    between atoms: C3_4  and  C4_6 
REMARK    4  A    between atoms: C5_7  and  C6_8 
REMARK    5  A    between atoms: C22_26  and  C23_27 
REMARK    6  A    between atoms: C23_27  and  O5_28 
REMARK    7  A    between atoms: C28_34  and  C29_35 
REMARK    8  A    between atoms: C29_35  and  O7_36 
REMARK    9  A    between atoms: C37_46  and  O10_48 
ROOT
HETATM    1  C4  UNL     1     -16.535  45.286 -23.397  1.00  0.00     0.165 C 
HETATM    2  C5  UNL     1     -15.683  45.881 -24.250  1.00  0.00     0.053 C 
HETATM    3  C7  UNL     1     -15.492  45.312 -25.620  1.00  0.00    -0.002 C 
HETATM    4  C8  UNL     1     -14.379  45.695 -26.325  1.00  0.00    -0.066 C 
HETATM    5  C9  UNL     1     -14.286  45.807 -27.836  1.00  0.00     0.042 C 
HETATM    6  C10 UNL     1     -13.148  46.706 -28.321  1.00  0.00     0.083 C 
HETATM    7  C11 UNL     1     -11.828  46.162 -27.805  1.00  0.00     0.136 C 
HETATM    8  O4  UNL     1     -10.836  46.124 -28.532  1.00  0.00    -0.297 OA
HETATM    9  C12 UNL     1     -11.788  45.722 -26.356  1.00  0.00     0.092 C 
HETATM   10  C13 UNL     1     -13.089  46.174 -25.648  1.00  0.00     0.052 C 
HETATM   11  C14 UNL     1     -11.359  44.292 -26.010  1.00  0.00    -0.039 A 
HETATM   12  C15 UNL     1     -10.839  44.176 -24.688  1.00  0.00     0.022 A 
HETATM   13  C16 UNL     1     -10.362  42.960 -24.176  1.00  0.00    -0.008 A 
HETATM   14  C17 UNL     1     -10.390  41.848 -25.001  1.00  0.00     0.042 A 
HETATM   15  C18 UNL     1     -10.887  41.906 -26.305  1.00  0.00     0.038 A 
HETATM   16  C19 UNL     1     -11.401  43.127 -26.814  1.00  0.00    -0.049 A 
HETATM   17  C20 UNL     1     -11.901  43.066 -28.244  1.00  0.00     0.040 C 
HETATM   18  C21 UNL     1     -12.983  42.018 -28.568  1.00  0.00     0.013 C 
HETATM   19  C22 UNL     1     -14.222  42.039 -27.637  1.00  0.00     0.034 C 
HETATM   20  C24 UNL     1     -15.530  42.318 -28.415  1.00  0.00     0.182 C 
HETATM   21  O6  UNL     1     -15.925  43.709 -28.319  1.00  0.00    -0.349 OA
HETATM   22  C25 UNL     1     -16.910  43.895 -27.384  1.00  0.00     0.092 C 
HETATM   23  C26 UNL     1     -18.180  43.410 -27.686  1.00  0.00     0.021 C 
HETATM   24  C27 UNL     1     -19.113  43.174 -26.674  1.00  0.00     0.090 C 
HETATM   25  C28 UNL     1     -18.835  43.426 -25.356  1.00  0.00     0.034 C 
HETATM   26  C30 UNL     1     -17.601  44.062 -25.099  1.00  0.00     0.101 C 
HETATM   27  C31 UNL     1     -16.656  44.443 -26.109  1.00  0.00     0.044 C 
HETATM   28  O8  UNL     1     -17.319  44.214 -23.757  1.00  0.00    -0.302 OA
HETATM   29  O9  UNL     1     -20.292  42.616 -27.138  1.00  0.00    -0.341 OA
HETATM   30  C32 UNL     1     -20.234  43.016 -28.521  1.00  0.00     0.175 C 
HETATM   31  C33 UNL     1     -18.764  42.873 -28.948  1.00  0.00     0.079 C 
HETATM   32  C34 UNL     1     -18.580  43.553 -30.264  1.00  0.00    -0.019 C 
HETATM   33  C35 UNL     1     -19.588  43.576 -31.156  1.00  0.00    -0.027 C 
HETATM   34  C36 UNL     1     -20.964  42.968 -30.904  1.00  0.00     0.067 C 
HETATM   35  C37 UNL     1     -21.134  42.271 -29.517  1.00  0.00     0.085 C 
HETATM   36  C38 UNL     1     -22.593  42.279 -29.060  1.00  0.00     0.049 C 
HETATM   37  N1  UNL     1      -9.858  40.799 -24.287  1.00  0.00    -0.365 N 
HETATM   38  C39 UNL     1      -9.506  41.214 -23.030  1.00  0.00     0.089 A 
HETATM   39  C40 UNL     1      -9.808  42.554 -22.931  1.00  0.00     0.030 A 
HETATM   40  H39 UNL     1      -9.749  39.857 -24.641  1.00  0.00     0.165 HD
ENDROOT
BRANCH   1  41
HETATM   41  C3  UNL     1     -16.830  45.807 -22.043  1.00  0.00     0.318 C 
HETATM   42  O2  UNL     1     -16.043  45.747 -21.113  1.00  0.00    -0.257 OA
BRANCH  41  43
HETATM   43  O1  UNL     1     -18.076  46.349 -22.030  1.00  0.00    -0.316 OA
BRANCH  43  44
HETATM   44  C2  UNL     1     -18.847  46.087 -20.845  1.00  0.00     0.175 C 
HETATM   45  C1  UNL     1     -18.861  47.303 -19.934  1.00  0.00     0.034 C 
ENDBRANCH  43  44
ENDBRANCH  41  43
ENDBRANCH   1  41
BRANCH   2  46
HETATM   46  C6  UNL     1     -15.245  47.268 -23.871  1.00  0.00     0.273 C 
HETATM   47  O3  UNL     1     -15.718  48.288 -24.368  1.00  0.00    -0.301 OA
ENDBRANCH   2  46
BRANCH  25  48
HETATM   48  C29 UNL     1     -19.782  43.032 -24.263  1.00  0.00     0.208 C 
BRANCH  48  49
HETATM   49  O7  UNL     1     -20.240  44.200 -23.598  1.00  0.00    -0.396 OA
HETATM   50  H28 UNL     1     -19.471  44.563 -23.125  1.00  0.00     0.209 HD
ENDBRANCH  48  49
ENDBRANCH  25  48
BRANCH  19  51
HETATM   51  C23 UNL     1     -14.331  40.684 -26.912  1.00  0.00     0.170 C 
BRANCH  51  52
HETATM   52  O5  UNL     1     -14.182  40.851 -25.507  1.00  0.00    -0.400 OA
HETATM   53  H23 UNL     1     -13.300  41.238 -25.348  1.00  0.00     0.209 HD
ENDBRANCH  51  52
ENDBRANCH  19  51
BRANCH  35  54
HETATM   54  O10 UNL     1     -20.727  40.894 -29.631  1.00  0.00    -0.387 OA
HETATM   55  H38 UNL     1     -21.405  40.425 -30.138  1.00  0.00     0.210 HD
ENDBRANCH  35  54
TORSDOF 9
ENDMDL
MODEL 2
REMARK minimizedAffinity -8.37334538
REMARK CNNscore 0.334073037
REMARK CNNaffinity 6.81002569
REMARK  9 active torsions:
REMARK  status: ('A' for Active; 'I' for Inactive)
REMARK    1  A    between atoms: C2_2  and  O1_3 
REMARK    2  A    between atoms: O1_3  and  C3_4 
REMARK    3  A    between atoms: C3_4  and  C4_6 
REMARK    4  A    between atoms: C5_7  and  C6_8 
REMARK    5  A    between atoms: C22_26  and  C23_27 
REMARK    6  A    between atoms: C23_27  and  O5_28 
REMARK    7  A    between atoms: C28_34  and  C29_35 
REMARK    8  A    between atoms: C29_35  and  O7_36 
REMARK    9  A    between atoms: C37_46  and  O10_48 
ROOT
HETATM    1  C4  UNL     1      -9.933  42.708 -23.625  1.00  0.00     0.165 C 
HETATM    2  C5  UNL     1      -9.821  42.388 -24.926  1.00  0.00     0.053 C 
HETATM    3  C7  UNL     1      -9.538  43.462 -25.928  1.00  0.00    -0.002 C 
HETATM    4  C8  UNL     1      -9.790  43.190 -27.249  1.00  0.00    -0.066 C 
HETATM    5  C9  UNL     1      -9.036  43.773 -28.431  1.00  0.00     0.042 C 
HETATM    6  C10 UNL     1      -9.168  42.953 -29.715  1.00  0.00     0.083 C 
HETATM    7  C11 UNL     1     -10.635  42.851 -30.093  1.00  0.00     0.136 C 
HETATM    8  O4  UNL     1     -10.993  42.977 -31.264  1.00  0.00    -0.297 OA
HETATM    9  C12 UNL     1     -11.611  42.543 -28.976  1.00  0.00     0.092 C 
HETATM   10  C13 UNL     1     -10.822  42.150 -27.702  1.00  0.00     0.052 C 
HETATM   11  C14 UNL     1     -12.783  43.493 -28.710  1.00  0.00    -0.039 A 
HETATM   12  C15 UNL     1     -13.881  42.851 -28.067  1.00  0.00     0.022 A 
HETATM   13  C16 UNL     1     -15.068  43.529 -27.756  1.00  0.00    -0.008 A 
HETATM   14  C17 UNL     1     -15.168  44.866 -28.108  1.00  0.00     0.042 A 
HETATM   15  C18 UNL     1     -14.124  45.544 -28.741  1.00  0.00     0.038 A 
HETATM   16  C19 UNL     1     -12.909  44.868 -29.026  1.00  0.00    -0.049 A 
HETATM   17  C20 UNL     1     -11.857  45.707 -29.725  1.00  0.00     0.040 C 
HETATM   18  C21 UNL     1     -11.426  47.015 -29.034  1.00  0.00     0.013 C 
HETATM   19  C22 UNL     1     -11.004  46.870 -27.550  1.00  0.00     0.034 C 
HETATM   20  C24 UNL     1      -9.541  47.316 -27.314  1.00  0.00     0.182 C 
HETATM   21  O6  UNL     1      -8.635  46.186 -27.273  1.00  0.00    -0.349 OA
HETATM   22  C25 UNL     1      -8.316  45.835 -25.987  1.00  0.00     0.092 C 
HETATM   23  C26 UNL     1      -7.491  46.702 -25.274  1.00  0.00     0.021 C 
HETATM   24  C27 UNL     1      -7.452  46.662 -23.878  1.00  0.00     0.090 C 
HETATM   25  C28 UNL     1      -8.196  45.767 -23.155  1.00  0.00     0.034 C 
HETATM   26  C30 UNL     1      -8.900  44.803 -23.909  1.00  0.00     0.101 C 
HETATM   27  C31 UNL     1      -8.880  44.715 -25.341  1.00  0.00     0.044 C 
HETATM   28  O8  UNL     1      -9.709  43.980 -23.151  1.00  0.00    -0.302 OA
HETATM   29  O9  UNL     1      -6.644  47.642 -23.327  1.00  0.00    -0.341 OA
HETATM   30  C32 UNL     1      -5.792  47.930 -24.452  1.00  0.00     0.175 C 
HETATM   31  C33 UNL     1      -6.694  47.887 -25.696  1.00  0.00     0.079 C 
HETATM   32  C34 UNL     1      -5.829  47.875 -26.913  1.00  0.00    -0.019 C 
HETATM   33  C35 UNL     1      -4.647  48.518 -26.905  1.00  0.00    -0.027 C 
HETATM   34  C36 UNL     1      -4.086  49.257 -25.694  1.00  0.00     0.067 C 
HETATM   35  C37 UNL     1      -5.005  49.248 -24.431  1.00  0.00     0.085 C 
HETATM   36  C38 UNL     1      -4.190  49.388 -23.144  1.00  0.00     0.049 C 
HETATM   37  N1  UNL     1     -16.416  45.295 -27.721  1.00  0.00    -0.365 N 
HETATM   38  C39 UNL     1     -17.104  44.272 -27.125  1.00  0.00     0.089 A 
HETATM   39  C40 UNL     1     -16.291  43.160 -27.132  1.00  0.00     0.030 A 
HETATM   40  H39 UNL     1     -16.770  46.234 -27.855  1.00  0.00     0.165 HD
ENDROOT
BRANCH   1  41
HETATM   41  C3  UNL     1     -10.157  41.709 -22.556  1.00  0.00     0.318 C 
HETATM   42  O2  UNL     1     -11.077  40.909 -22.565  1.00  0.00    -0.257 OA
BRANCH  41  43
HETATM   43  O1  UNL     1      -9.187  41.834 -21.612  1.00  0.00    -0.316 OA
BRANCH  43  44
HETATM   44  C2  UNL     1      -7.915  41.259 -21.957  1.00  0.00     0.175 C 
HETATM   45  C1  UNL     1      -7.897  39.772 -21.648  1.00  0.00     0.034 C 
ENDBRANCH  43  44
ENDBRANCH  41  43
ENDBRANCH   1  41
BRANCH   2  46
HETATM   46  C6  UNL     1      -9.655  40.925 -25.225  1.00  0.00     0.273 C 
HETATM   47  O3  UNL     1      -8.572  40.344 -25.192  1.00  0.00    -0.301 OA
ENDBRANCH   2  46
BRANCH  25  48
HETATM   48  C29 UNL     1      -8.265  45.828 -21.659  1.00  0.00     0.208 C 
BRANCH  48  49
HETATM   49  O7  UNL     1      -8.673  47.129 -21.264  1.00  0.00    -0.396 OA
HETATM   50  H28 UNL     1      -7.938  47.726 -21.490  1.00  0.00     0.209 HD
ENDBRANCH  48  49
ENDBRANCH  25  48
BRANCH  19  51
HETATM   51  C23 UNL     1     -11.948  47.714 -26.671  1.00  0.00     0.170 C 
BRANCH  51  52
HETATM   52  O5  UNL     1     -11.533  49.074 -26.649  1.00  0.00    -0.400 OA
HETATM   53  H23 UNL     1     -10.630  49.102 -26.280  1.00  0.00     0.209 HD
ENDBRANCH  51  52
ENDBRANCH  19  51
BRANCH  35  54
HETATM   54  O10 UNL     1      -5.903  50.371 -24.496  1.00  0.00    -0.387 OA
HETATM   55  H38 UNL     1      -5.388  51.173 -24.323  1.00  0.00     0.210 HD
ENDBRANCH  35  54
TORSDOF 9
ENDMDL
MODEL 3
REMARK minimizedAffinity -6.94655704
REMARK CNNscore 0.323631853
REMARK CNNaffinity 6.88056326
REMARK  9 active torsions:
REMARK  status: ('A' for Active; 'I' for Inactive)
REMARK    1  A    between atoms: C2_2  and  O1_3 
REMARK    2  A    between atoms: O1_3  and  C3_4 
REMARK    3  A    between atoms: C3_4  and  C4_6 
REMARK    4  A    between atoms: C5_7  and  C6_8 
REMARK    5  A    between atoms: C22_26  and  C23_27 
REMARK    6  A    between atoms: C23_27  and  O5_28 
REMARK    7  A    between atoms: C28_34  and  C29_35 
REMARK    8  A    between atoms: C29_35  and  O7_36 
REMARK    9  A    between atoms: C37_46  and  O10_48 
ROOT
HETATM    1  C4  UNL     1      -0.186  50.261 -16.684  1.00  0.00     0.165 C 
HETATM    2  C5  UNL     1      -1.267  49.897 -15.972  1.00  0.00     0.053 C 
HETATM    3  C7  UNL     1      -1.125  49.610 -14.511  1.00  0.00    -0.002 C 
HETATM    4  C8  UNL     1      -2.126  48.901 -13.896  1.00  0.00    -0.066 C 
HETATM    5  C9  UNL     1      -2.543  49.041 -12.444  1.00  0.00     0.042 C 
HETATM    6  C10 UNL     1      -3.956  48.532 -12.154  1.00  0.00     0.083 C 
HETATM    7  C11 UNL     1      -4.046  47.064 -12.533  1.00  0.00     0.136 C 
HETATM    8  O4  UNL     1      -4.633  46.262 -11.807  1.00  0.00    -0.297 OA
HETATM    9  C12 UNL     1      -3.426  46.659 -13.855  1.00  0.00     0.092 C 
HETATM   10  C13 UNL     1      -3.043  47.931 -14.651  1.00  0.00     0.052 C 
HETATM   11  C14 UNL     1      -2.354  45.564 -13.884  1.00  0.00    -0.039 A 
HETATM   12  C15 UNL     1      -2.268  44.909 -15.147  1.00  0.00     0.022 A 
HETATM   13  C16 UNL     1      -1.372  43.856 -15.385  1.00  0.00    -0.008 A 
HETATM   14  C17 UNL     1      -0.562  43.440 -14.341  1.00  0.00     0.042 A 
HETATM   15  C18 UNL     1      -0.606  44.045 -13.083  1.00  0.00     0.038 A 
HETATM   16  C19 UNL     1      -1.487  45.133 -12.850  1.00  0.00    -0.049 A 
HETATM   17  C20 UNL     1      -1.452  45.697 -11.443  1.00  0.00     0.040 C 
HETATM   18  C21 UNL     1      -0.088  46.175 -10.911  1.00  0.00     0.013 C 
HETATM   19  C22 UNL     1       0.672  47.162 -11.833  1.00  0.00     0.034 C 
HETATM   20  C24 UNL     1       0.934  48.522 -11.142  1.00  0.00     0.182 C 
HETATM   21  O6  UNL     1      -0.040  49.520 -11.535  1.00  0.00    -0.349 OA
HETATM   22  C25 UNL     1       0.455  50.364 -12.495  1.00  0.00     0.092 C 
HETATM   23  C26 UNL     1       1.436  51.272 -12.105  1.00  0.00     0.021 C 
HETATM   24  C27 UNL     1       2.279  51.861 -13.050  1.00  0.00     0.090 C 
HETATM   25  C28 UNL     1       2.169  51.594 -14.389  1.00  0.00     0.034 C 
HETATM   26  C30 UNL     1       1.069  50.793 -14.767  1.00  0.00     0.101 C 
HETATM   27  C31 UNL     1       0.097  50.263 -13.856  1.00  0.00     0.044 C 
HETATM   28  O8  UNL     1       1.046  50.472 -16.110  1.00  0.00    -0.302 OA
HETATM   29  O9  UNL     1       3.248  52.673 -12.485  1.00  0.00    -0.341 OA
HETATM   30  C32 UNL     1       2.626  52.966 -11.220  1.00  0.00     0.175 C 
HETATM   31  C33 UNL     1       1.949  51.664 -10.762  1.00  0.00     0.079 C 
HETATM   32  C34 UNL     1       1.039  51.974  -9.620  1.00  0.00    -0.019 C 
HETATM   33  C35 UNL     1       1.351  52.962  -8.760  1.00  0.00    -0.027 C 
HETATM   34  C36 UNL     1       2.590  53.843  -8.886  1.00  0.00     0.067 C 
HETATM   35  C37 UNL     1       3.521  53.505 -10.094  1.00  0.00     0.085 C 
HETATM   36  C38 UNL     1       4.313  54.730 -10.552  1.00  0.00     0.049 C 
HETATM   37  N1  UNL     1       0.201  42.397 -14.812  1.00  0.00    -0.365 N 
HETATM   38  C39 UNL     1      -0.095  42.150 -16.126  1.00  0.00     0.089 A 
HETATM   39  C40 UNL     1      -1.071  43.042 -16.510  1.00  0.00     0.030 A 
HETATM   40  H39 UNL     1       0.886  41.890 -14.264  1.00  0.00     0.165 HD
ENDROOT
BRANCH   1  41
HETATM   41  C3  UNL     1      -0.238  50.617 -18.120  1.00  0.00     0.318 C 
HETATM   42  O2  UNL     1      -0.425  49.803 -19.009  1.00  0.00    -0.257 OA
BRANCH  41  43
HETATM   43  O1  UNL     1      -0.057  51.957 -18.259  1.00  0.00    -0.316 OA
BRANCH  43  44
HETATM   44  C2  UNL     1      -0.140  52.452 -19.607  1.00  0.00     0.175 C 
HETATM   45  C1  UNL     1       0.992  53.424 -19.893  1.00  0.00     0.034 C 
ENDBRANCH  43  44
ENDBRANCH  41  43
ENDBRANCH   1  41
BRANCH   2  46
HETATM   46  C6  UNL     1      -2.594  50.136 -16.635  1.00  0.00     0.273 C 
HETATM   47  O3  UNL     1      -3.260  51.157 -16.472  1.00  0.00    -0.301 OA
ENDBRANCH   2  46
BRANCH  25  48
HETATM   48  C29 UNL     1       3.169  52.110 -15.380  1.00  0.00     0.208 C 
BRANCH  48  49
HETATM   49  O7  UNL     1       2.549  53.086 -16.203  1.00  0.00    -0.396 OA
HETATM   50  H28 UNL     1       1.900  52.610 -16.750  1.00  0.00     0.209 HD
ENDBRANCH  48  49
ENDBRANCH  25  48
BRANCH  19  51
HETATM   51  C23 UNL     1       2.014  46.530 -12.253  1.00  0.00     0.170 C 
BRANCH  51  52
HETATM   52  O5  UNL     1       3.042  47.512 -12.294  1.00  0.00    -0.400 OA
HETATM   53  H23 UNL     1       2.779  48.188 -12.947  1.00  0.00     0.209 HD
ENDBRANCH  51  52
ENDBRANCH  19  51
BRANCH  35  54
HETATM   54  O10 UNL     1       4.473  52.505  -9.686  1.00  0.00    -0.387 OA
HETATM   55  H38 UNL     1       5.113  52.928  -9.095  1.00  0.00     0.210 HD
ENDBRANCH  35  54
TORSDOF 9
ENDMDL
MODEL 4
REMARK minimizedAffinity -6.88182688
REMARK CNNscore 0.32169801
REMARK CNNaffinity 6.34565687
REMARK  9 active torsions:
REMARK  status: ('A' for Active; 'I' for Inactive)
REMARK    1  A    between atoms: C2_2  and  O1_3 
REMARK    2  A    between atoms: O1_3  and  C3_4 
REMARK    3  A    between atoms: C3_4  and  C4_6 
REMARK    4  A    between atoms: C5_7  and  C6_8 
REMARK    5  A    between atoms: C22_26  and  C23_27 
REMARK    6  A    between atoms: C23_27  and  O5_28 
REMARK    7  A    between atoms: C28_34  and  C29_35 
REMARK    8  A    between atoms: C29_35  and  O7_36 
REMARK    9  A    between atoms: C37_46  and  O10_48 
ROOT
HETATM    1  C4  UNL     1     -13.698  41.030 -25.263  1.00  0.00     0.165 C 
HETATM    2  C5  UNL     1     -14.864  41.527 -25.712  1.00  0.00     0.053 C 
HETATM    3  C7  UNL     1     -14.978  42.989 -26.007  1.00  0.00    -0.002 C 
HETATM    4  C8  UNL     1     -16.236  43.529 -26.103  1.00  0.00    -0.066 C 
HETATM    5  C9  UNL     1     -16.627  44.706 -26.978  1.00  0.00     0.042 C 
HETATM    6  C10 UNL     1     -18.124  44.781 -27.280  1.00  0.00     0.083 C 
HETATM    7  C11 UNL     1     -18.893  44.885 -25.975  1.00  0.00     0.136 C 
HETATM    8  O4  UNL     1     -19.843  45.659 -25.864  1.00  0.00    -0.297 OA
HETATM    9  C12 UNL     1     -18.463  43.964 -24.851  1.00  0.00     0.092 C 
HETATM   10  C13 UNL     1     -17.457  42.922 -25.401  1.00  0.00     0.052 C 
HETATM   11  C14 UNL     1     -18.062  44.557 -23.496  1.00  0.00    -0.039 A 
HETATM   12  C15 UNL     1     -18.222  43.637 -22.421  1.00  0.00     0.022 A 
HETATM   13  C16 UNL     1     -17.941  43.982 -21.091  1.00  0.00    -0.008 A 
HETATM   14  C17 UNL     1     -17.507  45.272 -20.829  1.00  0.00     0.042 A 
HETATM   15  C18 UNL     1     -17.334  46.215 -21.845  1.00  0.00     0.038 A 
HETATM   16  C19 UNL     1     -17.586  45.857 -23.195  1.00  0.00    -0.049 A 
HETATM   17  C20 UNL     1     -17.374  46.969 -24.204  1.00  0.00     0.040 C 
HETATM   18  C21 UNL     1     -15.989  47.642 -24.228  1.00  0.00     0.013 C 
HETATM   19  C22 UNL     1     -14.785  46.672 -24.336  1.00  0.00     0.034 C 
HETATM   20  C24 UNL     1     -13.940  46.931 -25.606  1.00  0.00     0.182 C 
HETATM   21  O6  UNL     1     -14.275  46.007 -26.671  1.00  0.00    -0.349 OA
HETATM   22  C25 UNL     1     -13.369  44.982 -26.760  1.00  0.00     0.092 C 
HETATM   23  C26 UNL     1     -12.097  45.292 -27.238  1.00  0.00     0.021 C 
HETATM   24  C27 UNL     1     -11.013  44.450 -26.978  1.00  0.00     0.090 C 
HETATM   25  C28 UNL     1     -11.151  43.285 -26.269  1.00  0.00     0.034 C 
HETATM   26  C30 UNL     1     -12.473  42.923 -25.934  1.00  0.00     0.101 C 
HETATM   27  C31 UNL     1     -13.639  43.683 -26.282  1.00  0.00     0.044 C 
HETATM   28  O8  UNL     1     -12.561  41.795 -25.143  1.00  0.00    -0.302 OA
HETATM   29  O9  UNL     1      -9.811  44.946 -27.454  1.00  0.00    -0.341 OA
HETATM   30  C32 UNL     1     -10.294  45.852 -28.464  1.00  0.00     0.175 C 
HETATM   31  C33 UNL     1     -11.549  46.520 -27.879  1.00  0.00     0.079 C 
HETATM   32  C34 UNL     1     -12.266  47.235 -28.976  1.00  0.00    -0.019 C 
HETATM   33  C35 UNL     1     -11.570  47.780 -29.991  1.00  0.00    -0.027 C 
HETATM   34  C36 UNL     1     -10.053  47.691 -30.130  1.00  0.00     0.067 C 
HETATM   35  C37 UNL     1      -9.328  46.930 -28.975  1.00  0.00     0.085 C 
HETATM   36  C38 UNL     1      -8.010  46.315 -29.450  1.00  0.00     0.049 C 
HETATM   37  N1  UNL     1     -17.320  45.369 -19.470  1.00  0.00    -0.365 N 
HETATM   38  C39 UNL     1     -17.611  44.175 -18.867  1.00  0.00     0.089 A 
HETATM   39  C40 UNL     1     -18.001  43.292 -19.850  1.00  0.00     0.030 A 
HETATM   40  H39 UNL     1     -17.008  46.204 -18.989  1.00  0.00     0.165 HD
ENDROOT
BRANCH   1  41
HETATM   41  C3  UNL     1     -13.474  39.592 -24.996  1.00  0.00     0.318 C 
HETATM   42  O2  UNL     1     -13.817  39.037 -23.965  1.00  0.00    -0.257 OA
BRANCH  41  43
HETATM   43  O1  UNL     1     -12.855  39.026 -26.066  1.00  0.00    -0.316 OA
BRANCH  43  44
HETATM   44  C2  UNL     1     -11.693  38.237 -25.756  1.00  0.00     0.175 C 
HETATM   45  C1  UNL     1     -10.589  38.485 -26.770  1.00  0.00     0.034 C 
ENDBRANCH  43  44
ENDBRANCH  41  43
ENDBRANCH   1  41
BRANCH   2  46
HETATM   46  C6  UNL     1     -15.858  40.513 -26.202  1.00  0.00     0.273 C 
HETATM   47  O3  UNL     1     -16.627  39.903 -25.461  1.00  0.00    -0.301 OA
ENDBRANCH   2  46
BRANCH  25  48
HETATM   48  C29 UNL     1      -9.963  42.465 -25.866  1.00  0.00     0.208 C 
BRANCH  48  49
HETATM   49  O7  UNL     1      -9.094  43.261 -25.073  1.00  0.00    -0.396 OA
HETATM   50  H28 UNL     1      -8.724  43.936 -25.668  1.00  0.00     0.209 HD
ENDBRANCH  48  49
ENDBRANCH  25  48
BRANCH  19  51
HETATM   51  C23 UNL     1     -13.897  46.828 -23.085  1.00  0.00     0.170 C 
BRANCH  51  52
HETATM   52  O5  UNL     1     -14.481  47.741 -22.165  1.00  0.00    -0.400 OA
HETATM   53  H23 UNL     1     -14.566  48.602 -22.616  1.00  0.00     0.209 HD
ENDBRANCH  51  52
ENDBRANCH  19  51
BRANCH  35  54
HETATM   54  O10 UNL     1      -9.013  47.863 -27.924  1.00  0.00    -0.387 OA
HETATM   55  H38 UNL     1      -8.289  48.426 -28.234  1.00  0.00     0.210 HD
ENDBRANCH  35  54
TORSDOF 9
ENDMDL
MODEL 5
REMARK minimizedAffinity -7.55869675
REMARK CNNscore 0.316325784
REMARK CNNaffinity 6.81951284
REMARK  9 active torsions:
REMARK  status: ('A' for Active; 'I' for Inactive)
REMARK    1  A    between atoms: C2_2  and  O1_3 
REMARK    2  A    between atoms: O1_3  and  C3_4 
REMARK    3  A    between atoms: C3_4  and  C4_6 
REMARK    4  A    between atoms: C5_7  and  C6_8 
REMARK    5  A    between atoms: C22_26  and  C23_27 
REMARK    6  A    between atoms: C23_27  and  O5_28 
REMARK    7  A    between atoms: C28_34  and  C29_35 
REMARK    8  A    between atoms: C29_35  and  O7_36 
REMARK    9  A    between atoms: C37_46  and  O10_48 
ROOT
HETATM    1  C4  UNL     1     -10.351  46.440 -19.520  1.00  0.00     0.165 C 
HETATM    2  C5  UNL     1      -9.929  45.381 -20.232  1.00  0.00     0.053 C 
HETATM    3  C7  UNL     1      -8.861  45.562 -21.263  1.00  0.00    -0.002 C 
HETATM    4  C8  UNL     1      -8.710  44.582 -22.211  1.00  0.00    -0.066 C 
HETATM    5  C9  UNL     1      -7.406  44.203 -22.889  1.00  0.00     0.042 C 
HETATM    6  C10 UNL     1      -7.411  42.801 -23.501  1.00  0.00     0.083 C 
HETATM    7  C11 UNL     1      -8.525  42.710 -24.529  1.00  0.00     0.136 C 
HETATM    8  O4  UNL     1      -8.339  42.146 -25.608  1.00  0.00    -0.297 OA
HETATM    9  C12 UNL     1      -9.866  43.297 -24.142  1.00  0.00     0.092 C 
HETATM   10  C13 UNL     1      -9.852  43.651 -22.633  1.00  0.00     0.052 C 
HETATM   11  C14 UNL     1     -10.506  44.374 -25.025  1.00  0.00    -0.039 A 
HETATM   12  C15 UNL     1     -11.923  44.430 -24.888  1.00  0.00     0.022 A 
HETATM   13  C16 UNL     1     -12.711  45.324 -25.627  1.00  0.00    -0.008 A 
HETATM   14  C17 UNL     1     -12.076  46.165 -26.527  1.00  0.00     0.042 A 
HETATM   15  C18 UNL     1     -10.690  46.151 -26.701  1.00  0.00     0.038 A 
HETATM   16  C19 UNL     1      -9.888  45.270 -25.931  1.00  0.00    -0.049 A 
HETATM   17  C20 UNL     1      -8.401  45.339 -26.219  1.00  0.00     0.040 C 
HETATM   18  C21 UNL     1      -7.720  46.714 -26.080  1.00  0.00     0.013 C 
HETATM   19  C22 UNL     1      -7.974  47.443 -24.736  1.00  0.00     0.034 C 
HETATM   20  C24 UNL     1      -6.661  47.716 -23.965  1.00  0.00     0.182 C 
HETATM   21  O6  UNL     1      -6.431  46.726 -22.931  1.00  0.00    -0.349 OA
HETATM   22  C25 UNL     1      -6.789  47.191 -21.692  1.00  0.00     0.092 C 
HETATM   23  C26 UNL     1      -5.987  48.177 -21.122  1.00  0.00     0.021 C 
HETATM   24  C27 UNL     1      -6.477  48.992 -20.099  1.00  0.00     0.090 C 
HETATM   25  C28 UNL     1      -7.745  48.847 -19.599  1.00  0.00     0.034 C 
HETATM   26  C30 UNL     1      -8.476  47.743 -20.088  1.00  0.00     0.101 C 
HETATM   27  C31 UNL     1      -7.980  46.797 -21.046  1.00  0.00     0.044 C 
HETATM   28  O8  UNL     1      -9.777  47.686 -19.630  1.00  0.00    -0.302 OA
HETATM   29  O9  UNL     1      -5.581  49.971 -19.704  1.00  0.00    -0.341 OA
HETATM   30  C32 UNL     1      -4.348  49.381 -20.157  1.00  0.00     0.175 C 
HETATM   31  C33 UNL     1      -4.656  48.723 -21.511  1.00  0.00     0.079 C 
HETATM   32  C34 UNL     1      -3.511  47.842 -21.887  1.00  0.00    -0.019 C 
HETATM   33  C35 UNL     1      -2.260  48.171 -21.518  1.00  0.00    -0.027 C 
HETATM   34  C36 UNL     1      -1.911  49.401 -20.686  1.00  0.00     0.067 C 
HETATM   35  C37 UNL     1      -3.127  50.301 -20.298  1.00  0.00     0.085 C 
HETATM   36  C38 UNL     1      -2.862  51.074 -19.004  1.00  0.00     0.049 C 
HETATM   37  N1  UNL     1     -13.052  46.921 -27.134  1.00  0.00    -0.365 N 
HETATM   38  C39 UNL     1     -14.284  46.592 -26.634  1.00  0.00     0.089 A 
HETATM   39  C40 UNL     1     -14.104  45.600 -25.695  1.00  0.00     0.030 A 
HETATM   40  H39 UNL     1     -12.880  47.623 -27.843  1.00  0.00     0.165 HD
ENDROOT
BRANCH   1  41
HETATM   41  C3  UNL     1     -11.362  46.348 -18.443  1.00  0.00     0.318 C 
HETATM   42  O2  UNL     1     -11.083  46.142 -17.273  1.00  0.00    -0.257 OA
BRANCH  41  43
HETATM   43  O1  UNL     1     -12.601  46.538 -18.970  1.00  0.00    -0.316 OA
BRANCH  43  44
HETATM   44  C2  UNL     1     -13.207  47.807 -18.673  1.00  0.00     0.175 C 
HETATM   45  C1  UNL     1     -13.727  48.464 -19.941  1.00  0.00     0.034 C 
ENDBRANCH  43  44
ENDBRANCH  41  43
ENDBRANCH   1  41
BRANCH   2  46
HETATM   46  C6  UNL     1     -10.331  44.035 -19.697  1.00  0.00     0.273 C 
HETATM   47  O3  UNL     1     -11.441  43.537 -19.875  1.00  0.00    -0.301 OA
ENDBRANCH   2  46
BRANCH  25  48
HETATM   48  C29 UNL     1      -8.316  49.818 -18.610  1.00  0.00     0.208 C 
BRANCH  48  49
HETATM   49  O7  UNL     1      -8.670  49.121 -17.424  1.00  0.00    -0.396 OA
HETATM   50  H28 UNL     1      -9.424  48.551 -17.657  1.00  0.00     0.209 HD
ENDBRANCH  48  49
ENDBRANCH  25  48
BRANCH  19  51
HETATM   51  C23 UNL     1      -8.696  48.777 -25.014  1.00  0.00     0.170 C 
BRANCH  51  52
HETATM   52  O5  UNL     1      -8.015  49.857 -24.387  1.00  0.00    -0.400 OA
HETATM   53  H23 UNL     1      -8.006  49.683 -23.427  1.00  0.00     0.209 HD
ENDBRANCH  51  52
ENDBRANCH  19  51
BRANCH  35  54
HETATM   54  O10 UNL     1      -3.345  51.270 -21.340  1.00  0.00    -0.387 OA
HETATM   55  H38 UNL     1      -2.631  51.923 -21.293  1.00  0.00     0.210 HD
ENDBRANCH  35  54
TORSDOF 9
ENDMDL
MODEL 6
REMARK minimizedAffinity -8.73047924
REMARK CNNscore 0.305288017
REMARK CNNaffinity 6.56861305
REMARK  9 active torsions:
REMARK  status: ('A' for Active; 'I' for Inactive)
REMARK    1  A    between atoms: C2_2  and  O1_3 
REMARK    2  A    between atoms: O1_3  and  C3_4 
REMARK    3  A    between atoms: C3_4  and  C4_6 
REMARK    4  A    between atoms: C5_7  and  C6_8 
REMARK    5  A    between atoms: C22_26  and  C23_27 
REMARK    6  A    between atoms: C23_27  and  O5_28 
REMARK    7  A    between atoms: C28_34  and  C29_35 
REMARK    8  A    between atoms: C29_35  and  O7_36 
REMARK    9  A    between atoms: C37_46  and  O10_48 
ROOT
HETATM    1  C4  UNL     1      -8.694  46.504 -20.646  1.00  0.00     0.165 C 
HETATM    2  C5  UNL     1      -8.684  45.464 -21.498  1.00  0.00     0.053 C 
HETATM    3  C7  UNL     1      -8.336  45.691 -22.934  1.00  0.00    -0.002 C 
HETATM    4  C8  UNL     1      -8.683  44.720 -23.840  1.00  0.00    -0.066 C 
HETATM    5  C9  UNL     1      -7.930  44.394 -25.117  1.00  0.00     0.042 C 
HETATM    6  C10 UNL     1      -8.217  42.995 -25.665  1.00  0.00     0.083 C 
HETATM    7  C11 UNL     1      -9.704  42.864 -25.945  1.00  0.00     0.136 C 
HETATM    8  O4  UNL     1     -10.104  42.312 -26.970  1.00  0.00    -0.297 OA
HETATM    9  C12 UNL     1     -10.650  43.397 -24.888  1.00  0.00     0.092 C 
HETATM   10  C13 UNL     1      -9.845  43.746 -23.611  1.00  0.00     0.052 C 
HETATM   11  C14 UNL     1     -11.695  44.451 -25.270  1.00  0.00    -0.039 A 
HETATM   12  C15 UNL     1     -12.822  44.451 -24.398  1.00  0.00     0.022 A 
HETATM   13  C16 UNL     1     -13.910  45.317 -24.582  1.00  0.00    -0.008 A 
HETATM   14  C17 UNL     1     -13.879  46.185 -25.662  1.00  0.00     0.042 A 
HETATM   15  C18 UNL     1     -12.800  46.225 -26.548  1.00  0.00     0.038 A 
HETATM   16  C19 UNL     1     -11.684  45.374 -26.344  1.00  0.00    -0.049 A 
HETATM   17  C20 UNL     1     -10.582  45.502 -27.378  1.00  0.00     0.040 C 
HETATM   18  C21 UNL     1      -9.975  46.902 -27.591  1.00  0.00     0.013 C 
HETATM   19  C22 UNL     1      -9.497  47.617 -26.302  1.00  0.00     0.034 C 
HETATM   20  C24 UNL     1      -7.983  47.938 -26.341  1.00  0.00     0.182 C 
HETATM   21  O6  UNL     1      -7.207  46.954 -25.613  1.00  0.00    -0.349 OA
HETATM   22  C25 UNL     1      -6.864  47.400 -24.363  1.00  0.00     0.092 C 
HETATM   23  C26 UNL     1      -5.913  48.415 -24.284  1.00  0.00     0.021 C 
HETATM   24  C27 UNL     1      -5.807  49.207 -23.138  1.00  0.00     0.090 C 
HETATM   25  C28 UNL     1      -6.609  49.011 -22.044  1.00  0.00     0.034 C 
HETATM   26  C30 UNL     1      -7.452  47.880 -22.094  1.00  0.00     0.101 C 
HETATM   27  C31 UNL     1      -7.514  46.959 -23.191  1.00  0.00     0.044 C 
HETATM   28  O8  UNL     1      -8.307  47.771 -21.015  1.00  0.00    -0.302 OA
HETATM   29  O9  UNL     1      -4.870  50.218 -23.259  1.00  0.00    -0.341 OA
HETATM   30  C32 UNL     1      -4.050  49.678 -24.312  1.00  0.00     0.175 C 
HETATM   31  C33 UNL     1      -5.012  49.014 -25.309  1.00  0.00     0.079 C 
HETATM   32  C34 UNL     1      -4.217  48.179 -26.258  1.00  0.00    -0.019 C 
HETATM   33  C35 UNL     1      -2.972  48.555 -26.605  1.00  0.00    -0.027 C 
HETATM   34  C36 UNL     1      -2.273  49.796 -26.057  1.00  0.00     0.067 C 
HETATM   35  C37 UNL     1      -3.121  50.647 -25.060  1.00  0.00     0.085 C 
HETATM   36  C38 UNL     1      -2.232  51.425 -24.088  1.00  0.00     0.049 C 
HETATM   37  N1  UNL     1     -15.051  46.904 -25.638  1.00  0.00    -0.365 N 
HETATM   38  C39 UNL     1     -15.816  46.525 -24.567  1.00  0.00     0.089 A 
HETATM   39  C40 UNL     1     -15.133  45.539 -23.892  1.00  0.00     0.030 A 
HETATM   40  H39 UNL     1     -15.306  47.615 -26.313  1.00  0.00     0.165 HD
ENDROOT
BRANCH   1  41
HETATM   41  C3  UNL     1      -8.972  46.369 -19.198  1.00  0.00     0.318 C 
HETATM   42  O2  UNL     1      -9.972  45.831 -18.753  1.00  0.00    -0.257 OA
BRANCH  41  43
HETATM   43  O1  UNL     1      -7.951  46.920 -18.489  1.00  0.00    -0.316 OA
BRANCH  43  44
HETATM   44  C2  UNL     1      -8.348  47.769 -17.399  1.00  0.00     0.175 C 
HETATM   45  C1  UNL     1      -8.684  49.164 -17.899  1.00  0.00     0.034 C 
ENDBRANCH  43  44
ENDBRANCH  41  43
ENDBRANCH   1  41
BRANCH   2  46
HETATM   46  C6  UNL     1      -8.696  44.102 -20.863  1.00  0.00     0.273 C 
HETATM   47  O3  UNL     1      -7.685  43.425 -20.690  1.00  0.00    -0.301 OA
ENDBRANCH   2  46
BRANCH  25  48
HETATM   48  C29 UNL     1      -6.594  49.956 -20.880  1.00  0.00     0.208 C 
BRANCH  48  49
HETATM   49  O7  UNL     1      -5.805  51.090 -21.209  1.00  0.00    -0.396 OA
HETATM   50  H28 UNL     1      -4.887  50.775 -21.268  1.00  0.00     0.209 HD
ENDBRANCH  48  49
ENDBRANCH  25  48
BRANCH  19  51
HETATM   51  C23 UNL     1     -10.296  48.922 -26.121  1.00  0.00     0.170 C 
BRANCH  51  52
HETATM   52  O5  UNL     1      -9.422  50.019 -25.884  1.00  0.00    -0.400 OA
HETATM   53  H23 UNL     1      -8.920  49.826 -25.070  1.00  0.00     0.209 HD
ENDBRANCH  51  52
ENDBRANCH  19  51
BRANCH  35  54
HETATM   54  O10 UNL     1      -3.892  51.609 -25.803  1.00  0.00    -0.387 OA
HETATM   55  H38 UNL     1      -3.284  52.289 -26.128  1.00  0.00     0.210 HD
ENDBRANCH  35  54
TORSDOF 9
ENDMDL
MODEL 7
REMARK minimizedAffinity -6.66407061
REMARK CNNscore 0.270871162
REMARK CNNaffinity 6.76837349
REMARK  9 active torsions:
REMARK  status: ('A' for Active; 'I' for Inactive)
REMARK    1  A    between atoms: C2_2  and  O1_3 
REMARK    2  A    between atoms: O1_3  and  C3_4 
REMARK    3  A    between atoms: C3_4  and  C4_6 
REMARK    4  A    between atoms: C5_7  and  C6_8 
REMARK    5  A    between atoms: C22_26  and  C23_27 
REMARK    6  A    between atoms: C23_27  and  O5_28 
REMARK    7  A    between atoms: C28_34  and  C29_35 
REMARK    8  A    between atoms: C29_35  and  O7_36 
REMARK    9  A    between atoms: C37_46  and  O10_48 
ROOT
HETATM    1  C4  UNL     1      -3.767  44.955 -17.519  1.00  0.00     0.165 C 
HETATM    2  C5  UNL     1      -4.383  44.209 -18.453  1.00  0.00     0.053 C 
HETATM    3  C7  UNL     1      -4.983  44.875 -19.651  1.00  0.00    -0.002 C 
HETATM    4  C8  UNL     1      -5.903  44.169 -20.384  1.00  0.00    -0.066 C 
HETATM    5  C9  UNL     1      -6.139  44.310 -21.877  1.00  0.00     0.042 C 
HETATM    6  C10 UNL     1      -6.829  43.102 -22.512  1.00  0.00     0.083 C 
HETATM    7  C11 UNL     1      -8.173  42.885 -21.838  1.00  0.00     0.136 C 
HETATM    8  O4  UNL     1      -9.171  42.606 -22.503  1.00  0.00    -0.297 OA
HETATM    9  C12 UNL     1      -8.206  42.981 -20.327  1.00  0.00     0.092 C 
HETATM   10  C13 UNL     1      -6.755  43.043 -19.787  1.00  0.00     0.052 C 
HETATM   11  C14 UNL     1      -9.161  43.972 -19.651  1.00  0.00    -0.039 A 
HETATM   12  C15 UNL     1      -9.498  43.593 -18.320  1.00  0.00     0.022 A 
HETATM   13  C16 UNL     1     -10.381  44.343 -17.529  1.00  0.00    -0.008 A 
HETATM   14  C17 UNL     1     -10.948  45.480 -18.082  1.00  0.00     0.042 A 
HETATM   15  C18 UNL     1     -10.653  45.896 -19.383  1.00  0.00     0.038 A 
HETATM   16  C19 UNL     1      -9.735  45.157 -20.172  1.00  0.00    -0.049 A 
HETATM   17  C20 UNL     1      -9.507  45.702 -21.569  1.00  0.00     0.040 C 
HETATM   18  C21 UNL     1      -9.039  47.165 -21.687  1.00  0.00     0.013 C 
HETATM   19  C22 UNL     1      -7.800  47.532 -20.830  1.00  0.00     0.034 C 
HETATM   20  C24 UNL     1      -6.617  48.025 -21.697  1.00  0.00     0.182 C 
HETATM   21  O6  UNL     1      -5.650  46.971 -21.933  1.00  0.00    -0.349 OA
HETATM   22  C25 UNL     1      -4.567  47.079 -21.100  1.00  0.00     0.092 C 
HETATM   23  C26 UNL     1      -3.685  48.132 -21.330  1.00  0.00     0.021 C 
HETATM   24  C27 UNL     1      -2.819  48.571 -20.325  1.00  0.00     0.090 C 
HETATM   25  C28 UNL     1      -2.782  47.980 -19.089  1.00  0.00     0.034 C 
HETATM   26  C30 UNL     1      -3.574  46.821 -18.938  1.00  0.00     0.101 C 
HETATM   27  C31 UNL     1      -4.386  46.250 -19.973  1.00  0.00     0.044 C 
HETATM   28  O8  UNL     1      -3.580  46.311 -17.655  1.00  0.00    -0.302 OA
HETATM   29  O9  UNL     1      -2.072  49.677 -20.693  1.00  0.00    -0.341 OA
HETATM   30  C32 UNL     1      -2.136  49.558 -22.127  1.00  0.00     0.175 C 
HETATM   31  C33 UNL     1      -3.565  49.099 -22.458  1.00  0.00     0.079 C 
HETATM   32  C34 UNL     1      -3.610  48.667 -23.886  1.00  0.00    -0.019 C 
HETATM   33  C35 UNL     1      -2.821  49.268 -24.796  1.00  0.00    -0.027 C 
HETATM   34  C36 UNL     1      -1.823  50.373 -24.462  1.00  0.00     0.067 C 
HETATM   35  C37 UNL     1      -1.788  50.800 -22.961  1.00  0.00     0.085 C 
HETATM   36  C38 UNL     1      -0.422  51.367 -22.570  1.00  0.00     0.049 C 
HETATM   37  N1  UNL     1     -11.780  46.022 -17.131  1.00  0.00    -0.365 N 
HETATM   38  C39 UNL     1     -11.747  45.268 -15.989  1.00  0.00     0.089 A 
HETATM   39  C40 UNL     1     -10.885  44.216 -16.206  1.00  0.00     0.030 A 
HETATM   40  H39 UNL     1     -12.333  46.861 -17.258  1.00  0.00     0.165 HD
ENDROOT
BRANCH   1  41
HETATM   41  C3  UNL     1      -3.098  44.382 -16.330  1.00  0.00     0.318 C 
HETATM   42  O2  UNL     1      -3.663  44.196 -15.264  1.00  0.00    -0.257 OA
BRANCH  41  43
HETATM   43  O1  UNL     1      -1.803  44.103 -16.631  1.00  0.00    -0.316 OA
BRANCH  43  44
HETATM   44  C2  UNL     1      -1.036  43.517 -15.565  1.00  0.00     0.175 C 
HETATM   45  C1  UNL     1      -0.017  42.533 -16.114  1.00  0.00     0.034 C 
ENDBRANCH  43  44
ENDBRANCH  41  43
ENDBRANCH   1  41
BRANCH   2  46
HETATM   46  C6  UNL     1      -4.123  42.731 -18.382  1.00  0.00     0.273 C 
HETATM   47  O3  UNL     1      -3.204  42.174 -18.980  1.00  0.00    -0.301 OA
ENDBRANCH   2  46
BRANCH  25  48
HETATM   48  C29 UNL     1      -1.963  48.549 -17.970  1.00  0.00     0.208 C 
BRANCH  48  49
HETATM   49  O7  UNL     1      -2.831  49.077 -16.978  1.00  0.00    -0.396 OA
HETATM   50  H28 UNL     1      -3.258  49.855 -17.376  1.00  0.00     0.209 HD
ENDBRANCH  48  49
ENDBRANCH  25  48
BRANCH  19  51
HETATM   51  C23 UNL     1      -8.192  48.630 -19.821  1.00  0.00     0.170 C 
BRANCH  51  52
HETATM   52  O5  UNL     1      -7.150  49.589 -19.691  1.00  0.00    -0.400 OA
HETATM   53  H23 UNL     1      -6.355  49.120 -19.373  1.00  0.00     0.209 HD
ENDBRANCH  51  52
ENDBRANCH  19  51
BRANCH  35  54
HETATM   54  O10 UNL     1      -2.762  51.839 -22.746  1.00  0.00    -0.387 OA
HETATM   55  H38 UNL     1      -2.428  52.649 -23.158  1.00  0.00     0.210 HD
ENDBRANCH  35  54
TORSDOF 9
ENDMDL
MODEL 8
REMARK minimizedAffinity -7.2773509
REMARK CNNscore 0.264598221
REMARK CNNaffinity 5.9619422
REMARK  9 active torsions:
REMARK  status: ('A' for Active; 'I' for Inactive)
REMARK    1  A    between atoms: C2_2  and  O1_3 
REMARK    2  A    between atoms: O1_3  and  C3_4 
REMARK    3  A    between atoms: C3_4  and  C4_6 
REMARK    4  A    between atoms: C5_7  and  C6_8 
REMARK    5  A    between atoms: C22_26  and  C23_27 
REMARK    6  A    between atoms: C23_27  and  O5_28 
REMARK    7  A    between atoms: C28_34  and  C29_35 
REMARK    8  A    between atoms: C29_35  and  O7_36 
REMARK    9  A    between atoms: C37_46  and  O10_48 
ROOT
HETATM    1  C4  UNL     1     -13.164  45.640 -23.830  1.00  0.00     0.165 C 
HETATM    2  C5  UNL     1     -13.739  46.547 -23.023  1.00  0.00     0.053 C 
HETATM    3  C7  UNL     1     -13.016  47.010 -21.798  1.00  0.00    -0.002 C 
HETATM    4  C8  UNL     1     -13.746  47.633 -20.818  1.00  0.00    -0.066 C 
HETATM    5  C9  UNL     1     -13.227  48.705 -19.876  1.00  0.00     0.042 C 
HETATM    6  C10 UNL     1     -14.327  49.561 -19.248  1.00  0.00     0.083 C 
HETATM    7  C11 UNL     1     -15.275  48.665 -18.469  1.00  0.00     0.136 C 
HETATM    8  O4  UNL     1     -15.694  49.005 -17.363  1.00  0.00    -0.297 OA
HETATM    9  C12 UNL     1     -15.704  47.376 -19.139  1.00  0.00     0.092 C 
HETATM   10  C13 UNL     1     -15.248  47.392 -20.619  1.00  0.00     0.052 C 
HETATM   11  C14 UNL     1     -15.464  46.038 -18.431  1.00  0.00    -0.039 A 
HETATM   12  C15 UNL     1     -16.362  45.018 -18.858  1.00  0.00     0.022 A 
HETATM   13  C16 UNL     1     -16.337  43.724 -18.319  1.00  0.00    -0.008 A 
HETATM   14  C17 UNL     1     -15.410  43.449 -17.325  1.00  0.00     0.042 A 
HETATM   15  C18 UNL     1     -14.507  44.411 -16.869  1.00  0.00     0.038 A 
HETATM   16  C19 UNL     1     -14.509  45.712 -17.437  1.00  0.00    -0.049 A 
HETATM   17  C20 UNL     1     -13.492  46.670 -16.849  1.00  0.00     0.040 C 
HETATM   18  C21 UNL     1     -12.015  46.232 -16.876  1.00  0.00     0.013 C 
HETATM   19  C22 UNL     1     -11.487  45.773 -18.259  1.00  0.00     0.034 C 
HETATM   20  C24 UNL     1     -10.305  46.644 -18.749  1.00  0.00     0.182 C 
HETATM   21  O6  UNL     1     -10.739  47.657 -19.690  1.00  0.00    -0.349 OA
HETATM   22  C25 UNL     1     -10.488  47.289 -20.986  1.00  0.00     0.092 C 
HETATM   23  C26 UNL     1      -9.158  47.275 -21.401  1.00  0.00     0.021 C 
HETATM   24  C27 UNL     1      -8.767  46.538 -22.521  1.00  0.00     0.090 C 
HETATM   25  C28 UNL     1      -9.665  45.821 -23.268  1.00  0.00     0.034 C 
HETATM   26  C30 UNL     1     -11.023  45.981 -22.916  1.00  0.00     0.101 C 
HETATM   27  C31 UNL     1     -11.496  46.822 -21.856  1.00  0.00     0.044 C 
HETATM   28  O8  UNL     1     -11.885  45.173 -23.631  1.00  0.00    -0.302 OA
HETATM   29  O9  UNL     1      -7.401  46.566 -22.743  1.00  0.00    -0.341 OA
HETATM   30  C32 UNL     1      -7.055  47.770 -22.033  1.00  0.00     0.175 C 
HETATM   31  C33 UNL     1      -7.912  47.779 -20.757  1.00  0.00     0.079 C 
HETATM   32  C34 UNL     1      -7.827  49.133 -20.133  1.00  0.00    -0.019 C 
HETATM   33  C35 UNL     1      -6.697  49.855 -20.243  1.00  0.00    -0.027 C 
HETATM   34  C36 UNL     1      -5.462  49.395 -21.013  1.00  0.00     0.067 C 
HETATM   35  C37 UNL     1      -5.579  47.980 -21.664  1.00  0.00     0.085 C 
HETATM   36  C38 UNL     1      -4.676  47.851 -22.892  1.00  0.00     0.049 C 
HETATM   37  N1  UNL     1     -15.595  42.138 -16.951  1.00  0.00    -0.365 N 
HETATM   38  C39 UNL     1     -16.603  41.574 -17.686  1.00  0.00     0.089 A 
HETATM   39  C40 UNL     1     -17.084  42.537 -18.545  1.00  0.00     0.030 A 
HETATM   40  H39 UNL     1     -15.058  41.661 -16.237  1.00  0.00     0.165 HD
ENDROOT
BRANCH   1  41
HETATM   41  C3  UNL     1     -13.777  45.164 -25.090  1.00  0.00     0.318 C 
HETATM   42  O2  UNL     1     -14.671  44.334 -25.132  1.00  0.00    -0.257 OA
BRANCH  41  43
HETATM   43  O1  UNL     1     -13.198  45.800 -26.143  1.00  0.00    -0.316 OA
BRANCH  43  44
HETATM   44  C2  UNL     1     -14.097  46.547 -26.980  1.00  0.00     0.175 C 
HETATM   45  C1  UNL     1     -14.324  45.829 -28.300  1.00  0.00     0.034 C 
ENDBRANCH  43  44
ENDBRANCH  41  43
ENDBRANCH   1  41
BRANCH   2  46
HETATM   46  C6  UNL     1     -14.921  47.275 -23.599  1.00  0.00     0.273 C 
HETATM   47  O3  UNL     1     -16.070  46.836 -23.567  1.00  0.00    -0.301 OA
ENDBRANCH   2  46
BRANCH  25  48
HETATM   48  C29 UNL     1      -9.220  44.914 -24.375  1.00  0.00     0.208 C 
BRANCH  48  49
HETATM   49  O7  UNL     1      -8.447  45.658 -25.305  1.00  0.00    -0.396 OA
HETATM   50  H28 UNL     1      -9.061  46.275 -25.739  1.00  0.00     0.209 HD
ENDBRANCH  48  49
ENDBRANCH  25  48
BRANCH  19  51
HETATM   51  C23 UNL     1     -11.039  44.301 -18.166  1.00  0.00     0.170 C 
BRANCH  51  52
HETATM   52  O5  UNL     1     -10.465  43.872 -19.395  1.00  0.00    -0.400 OA
HETATM   53  H23 UNL     1     -11.147  43.964 -20.087  1.00  0.00     0.209 HD
ENDBRANCH  51  52
ENDBRANCH  19  51
BRANCH  35  54
HETATM   54  O10 UNL     1      -5.153  46.989 -20.711  1.00  0.00    -0.387 OA
HETATM   55  H38 UNL     1      -4.191  47.054 -20.624  1.00  0.00     0.210 HD
ENDBRANCH  35  54
TORSDOF 9
ENDMDL
MODEL 9
REMARK minimizedAffinity -7.79155922
REMARK CNNscore 0.260328442
REMARK CNNaffinity 6.3565774
REMARK  9 active torsions:
REMARK  status: ('A' for Active; 'I' for Inactive)
REMARK    1  A    between atoms: C2_2  and  O1_3 
REMARK    2  A    between atoms: O1_3  and  C3_4 
REMARK    3  A    between atoms: C3_4  and  C4_6 
REMARK    4  A    between atoms: C5_7  and  C6_8 
REMARK    5  A    between atoms: C22_26  and  C23_27 
REMARK    6  A    between atoms: C23_27  and  O5_28 
REMARK    7  A    between atoms: C28_34  and  C29_35 
REMARK    8  A    between atoms: C29_35  and  O7_36 
REMARK    9  A    between atoms: C37_46  and  O10_48 
ROOT
HETATM    1  C4  UNL     1      -9.157  44.434 -24.067  1.00  0.00     0.165 C 
HETATM    2  C5  UNL     1      -9.865  43.535 -24.773  1.00  0.00     0.053 C 
HETATM    3  C7  UNL     1     -10.421  43.919 -26.108  1.00  0.00    -0.002 C 
HETATM    4  C8  UNL     1     -11.424  43.143 -26.632  1.00  0.00    -0.066 C 
HETATM    5  C9  UNL     1     -11.678  42.908 -28.110  1.00  0.00     0.042 C 
HETATM    6  C10 UNL     1     -12.500  41.653 -28.405  1.00  0.00     0.083 C 
HETATM    7  C11 UNL     1     -13.844  41.761 -27.705  1.00  0.00     0.136 C 
HETATM    8  O4  UNL     1     -14.880  41.420 -28.277  1.00  0.00    -0.297 OA
HETATM    9  C12 UNL     1     -13.833  42.256 -26.274  1.00  0.00     0.092 C 
HETATM   10  C13 UNL     1     -12.372  42.308 -25.762  1.00  0.00     0.052 C 
HETATM   11  C14 UNL     1     -14.668  43.482 -25.890  1.00  0.00    -0.039 A 
HETATM   12  C15 UNL     1     -15.012  43.506 -24.507  1.00  0.00     0.022 A 
HETATM   13  C16 UNL     1     -15.797  44.525 -23.948  1.00  0.00    -0.008 A 
HETATM   14  C17 UNL     1     -16.260  45.527 -24.786  1.00  0.00     0.042 A 
HETATM   15  C18 UNL     1     -15.953  45.553 -26.148  1.00  0.00     0.038 A 
HETATM   16  C19 UNL     1     -15.132  44.541 -26.709  1.00  0.00    -0.049 A 
HETATM   17  C20 UNL     1     -14.881  44.671 -28.199  1.00  0.00     0.040 C 
HETATM   18  C21 UNL     1     -14.271  45.994 -28.698  1.00  0.00     0.013 C 
HETATM   19  C22 UNL     1     -12.984  46.446 -27.963  1.00  0.00     0.034 C 
HETATM   20  C24 UNL     1     -11.776  46.567 -28.923  1.00  0.00     0.182 C 
HETATM   21  O6  UNL     1     -10.926  45.396 -28.866  1.00  0.00    -0.349 OA
HETATM   22  C25 UNL     1      -9.819  45.607 -28.086  1.00  0.00     0.092 C 
HETATM   23  C26 UNL     1      -8.840  46.466 -28.583  1.00  0.00     0.021 C 
HETATM   24  C27 UNL     1      -7.913  47.063 -27.726  1.00  0.00     0.090 C 
HETATM   25  C28 UNL     1      -7.908  46.819 -26.377  1.00  0.00     0.034 C 
HETATM   26  C30 UNL     1      -8.808  45.829 -25.929  1.00  0.00     0.101 C 
HETATM   27  C31 UNL     1      -9.697  45.091 -26.779  1.00  0.00     0.044 C 
HETATM   28  O8  UNL     1      -8.837  45.679 -24.557  1.00  0.00    -0.302 OA
HETATM   29  O9  UNL     1      -7.067  47.949 -28.370  1.00  0.00    -0.341 OA
HETATM   30  C32 UNL     1      -7.174  47.464 -29.722  1.00  0.00     0.175 C 
HETATM   31  C33 UNL     1      -8.649  47.082 -29.926  1.00  0.00     0.079 C 
HETATM   32  C34 UNL     1      -8.770  46.296 -31.189  1.00  0.00    -0.019 C 
HETATM   33  C35 UNL     1      -7.945  46.551 -32.222  1.00  0.00    -0.027 C 
HETATM   34  C36 UNL     1      -6.834  47.596 -32.188  1.00  0.00     0.067 C 
HETATM   35  C37 UNL     1      -6.723  48.398 -30.853  1.00  0.00     0.085 C 
HETATM   36  C38 UNL     1      -5.298  48.905 -30.619  1.00  0.00     0.049 C 
HETATM   37  N1  UNL     1     -17.012  46.384 -24.016  1.00  0.00    -0.365 N 
HETATM   38  C39 UNL     1     -17.028  45.959 -22.715  1.00  0.00     0.089 A 
HETATM   39  C40 UNL     1     -16.282  44.804 -22.642  1.00  0.00     0.030 A 
HETATM   40  H39 UNL     1     -17.480  47.211 -24.365  1.00  0.00     0.165 HD
ENDROOT
BRANCH   1  41
HETATM   41  C3  UNL     1      -8.523  44.130 -22.765  1.00  0.00     0.318 C 
HETATM   42  O2  UNL     1      -9.151  43.966 -21.732  1.00  0.00    -0.257 OA
BRANCH  41  43
HETATM   43  O1  UNL     1      -7.175  44.059 -22.925  1.00  0.00    -0.316 OA
BRANCH  43  44
HETATM   44  C2  UNL     1      -6.398  44.622 -21.854  1.00  0.00     0.175 C 
HETATM   45  C1  UNL     1      -6.321  46.134 -21.982  1.00  0.00     0.034 C 
ENDBRANCH  43  44
ENDBRANCH  41  43
ENDBRANCH   1  41
BRANCH   2  46
HETATM   46  C6  UNL     1      -9.753  42.110 -24.312  1.00  0.00     0.273 C 
HETATM   47  O3  UNL     1      -8.984  41.292 -24.813  1.00  0.00    -0.301 OA
ENDBRANCH   2  46
BRANCH  25  48
HETATM   48  C29 UNL     1      -7.011  47.576 -25.444  1.00  0.00     0.208 C 
BRANCH  48  49
HETATM   49  O7  UNL     1      -5.867  48.023 -26.158  1.00  0.00    -0.396 OA
HETATM   50  H28 UNL     1      -5.357  47.225 -26.381  1.00  0.00     0.209 HD
ENDBRANCH  48  49
ENDBRANCH  25  48
BRANCH  19  51
HETATM   51  C23 UNL     1     -13.241  47.805 -27.283  1.00  0.00     0.170 C 
BRANCH  51  52
HETATM   52  O5  UNL     1     -12.103  48.651 -27.403  1.00  0.00    -0.400 OA
HETATM   53  H23 UNL     1     -11.354  48.202 -26.966  1.00  0.00     0.209 HD
ENDBRANCH  51  52
ENDBRANCH  19  51
BRANCH  35  54
HETATM   54  O10 UNL     1      -7.582  49.551 -30.926  1.00  0.00    -0.387 OA
HETATM   55  H38 UNL     1      -7.177  50.185 -31.537  1.00  0.00     0.210 HD
ENDBRANCH  35  54
TORSDOF 9
ENDMDL
