MODEL 1
REMARK minimizedAffinity -8.64006233
REMARK CNNscore 0.695087552
REMARK CNNaffinity 6.95083666
REMARK  10 active torsions:
REMARK  status: ('A' for Active; 'I' for Inactive)
REMARK    1  A    between atoms: O1_2  and  C2_3 
REMARK    2  A    between atoms: C2_3  and  C3_4 
REMARK    3  A    between atoms: C2_3  and  C26_35 
REMARK    4  A    between atoms: C3_4  and  C4_5 
REMARK    5  A    between atoms: C4_5  and  C5_6 
REMARK    6  A    between atoms: C5_6  and  C7_8 
REMARK    7  A    between atoms: C13_17  and  C14_18 
REMARK    8  A    between atoms: C14_18  and  O5_19 
REMARK    9  A    between atoms: C17_24  and  O8_25 
REMARK   10  A    between atoms: C30_39  and  O10_40 
ROOT
HETATM    1  C7  UNL     1      -1.477   4.343  11.592  1.00  0.00     0.135 C 
HETATM    2  O2  UNL     1      -2.247   5.048  12.588  1.00  0.00    -0.348 OA
HETATM    3  C8  UNL     1      -1.694   6.255  13.128  1.00  0.00     0.177 C 
HETATM    4  C9  UNL     1      -0.400   5.840  13.839  1.00  0.00     0.102 C 
HETATM    5  C10 UNL     1       0.560   5.104  12.907  1.00  0.00     0.143 C 
HETATM    6  O3  UNL     1       1.138   5.968  11.905  1.00  0.00    -0.315 OA
HETATM    7  C11 UNL     1       2.255   6.652  12.268  1.00  0.00     0.261 C 
HETATM    8  O4  UNL     1       2.724   6.649  13.402  1.00  0.00    -0.265 OA
HETATM    9  C12 UNL     1       2.923   7.359  11.111  1.00  0.00     0.145 C 
HETATM   10  C13 UNL     1       1.989   7.731   9.957  1.00  0.00     0.164 C 
HETATM   11  O6  UNL     1       1.068   8.717  10.453  1.00  0.00    -0.313 OA
HETATM   12  C15 UNL     1      -0.225   8.578  10.051  1.00  0.00     0.264 C 
HETATM   13  O7  UNL     1      -0.589   7.988   9.042  1.00  0.00    -0.265 OA
HETATM   14  C16 UNL     1      -1.149   9.275  11.016  1.00  0.00     0.179 C 
HETATM   15  C17 UNL     1      -1.174   8.546  12.371  1.00  0.00     0.177 C 
HETATM   16  O9  UNL     1      -1.479   7.184  12.069  1.00  0.00    -0.318 OA
HETATM   17  C18 UNL     1      -2.239   9.174  13.304  1.00  0.00     0.045 C 
HETATM   18  C19 UNL     1      -1.917  10.593  13.784  1.00  0.00     0.015 C 
HETATM   19  C20 UNL     1      -2.469   8.264  14.522  1.00  0.00     0.024 C 
HETATM   20  C21 UNL     1      -2.813   6.820  14.088  1.00  0.00     0.010 C 
HETATM   21  C22 UNL     1      -3.002   5.963  15.357  1.00  0.00     0.020 C 
HETATM   22  C23 UNL     1      -4.187   6.839  13.353  1.00  0.00     0.020 C 
HETATM   23  C24 UNL     1      -0.122   3.907  12.206  1.00  0.00     0.041 C 
HETATM   24  C25 UNL     1       0.886   3.305  11.215  1.00  0.00     0.015 C 
ENDROOT
BRANCH   1  25
HETATM   25  C5  UNL     1      -2.452   3.191  11.182  1.00  0.00     0.011 C 
HETATM   26  C6  UNL     1      -1.662   1.936  10.776  1.00  0.00     0.012 C 
BRANCH  25  27
HETATM   27  C4  UNL     1      -3.608   2.808  12.129  1.00  0.00     0.009 C 
BRANCH  27  28
HETATM   28  C3  UNL     1      -5.014   3.327  11.801  1.00  0.00     0.037 C 
BRANCH  28  29
HETATM   29  C2  UNL     1      -6.152   2.906  12.754  1.00  0.00     0.153 C 
BRANCH  29  30
HETATM   30  O1  UNL     1      -6.955   1.897  12.125  1.00  0.00    -0.386 OA
HETATM   31  C1  UNL     1      -6.262   1.204  11.093  1.00  0.00     0.202 C 
ENDBRANCH  29  30
BRANCH  29  32
HETATM   32  C26 UNL     1      -6.995   4.127  13.113  1.00  0.00    -0.027 A 
HETATM   33  C27 UNL     1      -7.824   4.720  12.146  1.00  0.00     0.010 A 
HETATM   34  C28 UNL     1      -8.635   5.808  12.478  1.00  0.00     0.003 A 
HETATM   35  C29 UNL     1      -8.626   6.317  13.777  1.00  0.00     0.036 A 
HETATM   36  C30 UNL     1      -7.805   5.735  14.735  1.00  0.00     0.066 A 
HETATM   37  C31 UNL     1      -6.999   4.645  14.422  1.00  0.00     0.046 A 
BRANCH  36  38
HETATM   38  O10 UNL     1      -7.820   6.272  15.986  1.00  0.00    -0.361 OA
HETATM   39  H45 UNL     1      -7.130   5.836  16.515  1.00  0.00     0.217 HD
ENDBRANCH  36  38
ENDBRANCH  29  32
ENDBRANCH  28  29
ENDBRANCH  27  28
ENDBRANCH  25  27
ENDBRANCH   1  25
BRANCH  15  40
HETATM   40  O8  UNL     1       0.120   8.686  12.939  1.00  0.00    -0.364 OA
HETATM   41  H25 UNL     1       0.077   8.846  13.892  1.00  0.00     0.213 HD
ENDBRANCH  15  40
BRANCH  10  42
HETATM   42  C14 UNL     1       2.776   8.337   8.794  1.00  0.00     0.197 C 
BRANCH  42  43
HETATM   43  O5  UNL     1       2.151   8.025   7.555  1.00  0.00    -0.398 OA
HETATM   44  H22 UNL     1       2.829   8.085   6.863  1.00  0.00     0.209 HD
ENDBRANCH  42  43
ENDBRANCH  10  42
TORSDOF 10
ENDMDL
MODEL 2
REMARK minimizedAffinity -7.61280012
REMARK CNNscore 0.639362395
REMARK CNNaffinity 7.0065341
REMARK  10 active torsions:
REMARK  status: ('A' for Active; 'I' for Inactive)
REMARK    1  A    between atoms: O1_2  and  C2_3 
REMARK    2  A    between atoms: C2_3  and  C3_4 
REMARK    3  A    between atoms: C2_3  and  C26_35 
REMARK    4  A    between atoms: C3_4  and  C4_5 
REMARK    5  A    between atoms: C4_5  and  C5_6 
REMARK    6  A    between atoms: C5_6  and  C7_8 
REMARK    7  A    between atoms: C13_17  and  C14_18 
REMARK    8  A    between atoms: C14_18  and  O5_19 
REMARK    9  A    between atoms: C17_24  and  O8_25 
REMARK   10  A    between atoms: C30_39  and  O10_40 
ROOT
HETATM    1  C7  UNL     1     -11.683   8.191  14.156  1.00  0.00     0.135 C 
HETATM    2  O2  UNL     1     -12.955   7.569  14.432  1.00  0.00    -0.348 OA
HETATM    3  C8  UNL     1     -14.008   8.398  14.941  1.00  0.00     0.177 C 
HETATM    4  C9  UNL     1     -13.511   8.919  16.295  1.00  0.00     0.102 C 
HETATM    5  C10 UNL     1     -12.175   9.650  16.178  1.00  0.00     0.143 C 
HETATM    6  O3  UNL     1     -12.288  10.915  15.493  1.00  0.00    -0.315 OA
HETATM    7  C11 UNL     1     -12.634  11.986  16.256  1.00  0.00     0.261 C 
HETATM    8  O4  UNL     1     -12.942  11.914  17.442  1.00  0.00    -0.265 OA
HETATM    9  C12 UNL     1     -12.520  13.302  15.522  1.00  0.00     0.145 C 
HETATM   10  C13 UNL     1     -12.673  13.208  14.001  1.00  0.00     0.164 C 
HETATM   11  O6  UNL     1     -14.025  12.801  13.732  1.00  0.00    -0.313 OA
HETATM   12  C15 UNL     1     -14.183  11.883  12.740  1.00  0.00     0.264 C 
HETATM   13  O7  UNL     1     -13.391  11.690  11.826  1.00  0.00    -0.265 OA
HETATM   14  C16 UNL     1     -15.488  11.148  12.911  1.00  0.00     0.179 C 
HETATM   15  C17 UNL     1     -15.445  10.244  14.155  1.00  0.00     0.177 C 
HETATM   16  O9  UNL     1     -14.277   9.437  14.004  1.00  0.00    -0.318 OA
HETATM   17  C18 UNL     1     -16.727   9.378  14.238  1.00  0.00     0.045 C 
HETATM   18  C19 UNL     1     -18.012  10.158  14.533  1.00  0.00     0.015 C 
HETATM   19  C20 UNL     1     -16.546   8.275  15.295  1.00  0.00     0.024 C 
HETATM   20  C21 UNL     1     -15.266   7.448  15.030  1.00  0.00     0.010 C 
HETATM   21  C22 UNL     1     -15.136   6.384  16.140  1.00  0.00     0.020 C 
HETATM   22  C23 UNL     1     -15.447   6.675  13.689  1.00  0.00     0.020 C 
HETATM   23  C24 UNL     1     -11.108   8.786  15.466  1.00  0.00     0.041 C 
HETATM   24  C25 UNL     1      -9.844   9.644  15.300  1.00  0.00     0.015 C 
ENDROOT
BRANCH   1  25
HETATM   25  C5  UNL     1     -10.877   7.013  13.519  1.00  0.00     0.011 C 
HETATM   26  C6  UNL     1     -10.599   7.293  12.033  1.00  0.00     0.012 C 
BRANCH  25  27
HETATM   27  C4  UNL     1      -9.593   6.515  14.214  1.00  0.00     0.009 C 
BRANCH  27  28
HETATM   28  C3  UNL     1      -8.580   5.720  13.379  1.00  0.00     0.037 C 
BRANCH  28  29
HETATM   29  C2  UNL     1      -7.439   5.021  14.148  1.00  0.00     0.153 C 
BRANCH  29  30
HETATM   30  O1  UNL     1      -6.607   6.009  14.773  1.00  0.00    -0.386 OA
HETATM   31  C1  UNL     1      -6.648   5.946  16.194  1.00  0.00     0.202 C 
ENDBRANCH  29  30
BRANCH  29  32
HETATM   32  C26 UNL     1      -6.630   4.157  13.185  1.00  0.00    -0.027 A 
HETATM   33  C27 UNL     1      -5.339   4.556  12.795  1.00  0.00     0.010 A 
HETATM   34  C28 UNL     1      -4.572   3.748  11.952  1.00  0.00     0.003 A 
HETATM   35  C29 UNL     1      -5.083   2.537  11.487  1.00  0.00     0.036 A 
HETATM   36  C30 UNL     1      -6.360   2.141  11.867  1.00  0.00     0.066 A 
HETATM   37  C31 UNL     1      -7.132   2.930  12.714  1.00  0.00     0.046 A 
BRANCH  36  38
HETATM   38  O10 UNL     1      -6.823   0.957  11.380  1.00  0.00    -0.361 OA
HETATM   39  H45 UNL     1      -7.754   0.861  11.641  1.00  0.00     0.217 HD
ENDBRANCH  36  38
ENDBRANCH  29  32
ENDBRANCH  28  29
ENDBRANCH  27  28
ENDBRANCH  25  27
ENDBRANCH   1  25
BRANCH  15  40
HETATM   40  O8  UNL     1     -15.357  11.100  15.285  1.00  0.00    -0.364 OA
HETATM   41  H25 UNL     1     -15.903  10.782  16.017  1.00  0.00     0.213 HD
ENDBRANCH  15  40
BRANCH  10  42
HETATM   42  C14 UNL     1     -12.430  14.567  13.345  1.00  0.00     0.197 C 
BRANCH  42  43
HETATM   43  O5  UNL     1     -12.002  14.400  11.999  1.00  0.00    -0.398 OA
HETATM   44  H22 UNL     1     -11.517  15.202  11.745  1.00  0.00     0.209 HD
ENDBRANCH  42  43
ENDBRANCH  10  42
TORSDOF 10
ENDMDL
MODEL 3
REMARK minimizedAffinity -8.0650959
REMARK CNNscore 0.602468669
REMARK CNNaffinity 6.96812677
REMARK  10 active torsions:
REMARK  status: ('A' for Active; 'I' for Inactive)
REMARK    1  A    between atoms: O1_2  and  C2_3 
REMARK    2  A    between atoms: C2_3  and  C3_4 
REMARK    3  A    between atoms: C2_3  and  C26_35 
REMARK    4  A    between atoms: C3_4  and  C4_5 
REMARK    5  A    between atoms: C4_5  and  C5_6 
REMARK    6  A    between atoms: C5_6  and  C7_8 
REMARK    7  A    between atoms: C13_17  and  C14_18 
REMARK    8  A    between atoms: C14_18  and  O5_19 
REMARK    9  A    between atoms: C17_24  and  O8_25 
REMARK   10  A    between atoms: C30_39  and  O10_40 
ROOT
HETATM    1  C7  UNL     1     -10.915   8.351  14.791  1.00  0.00     0.135 C 
HETATM    2  O2  UNL     1     -10.873   9.090  16.028  1.00  0.00    -0.348 OA
HETATM    3  C8  UNL     1     -12.067   9.769  16.442  1.00  0.00     0.177 C 
HETATM    4  C9  UNL     1     -12.350  10.814  15.356  1.00  0.00     0.102 C 
HETATM    5  C10 UNL     1     -12.466  10.188  13.968  1.00  0.00     0.143 C 
HETATM    6  O3  UNL     1     -13.660   9.392  13.811  1.00  0.00    -0.315 OA
HETATM    7  C11 UNL     1     -14.785  10.058  13.439  1.00  0.00     0.261 C 
HETATM    8  O4  UNL     1     -14.857  11.278  13.330  1.00  0.00    -0.265 OA
HETATM    9  C12 UNL     1     -15.931   9.138  13.084  1.00  0.00     0.145 C 
HETATM   10  C13 UNL     1     -15.894   7.768  13.768  1.00  0.00     0.164 C 
HETATM   11  O6  UNL     1     -16.076   7.988  15.176  1.00  0.00    -0.313 OA
HETATM   12  C15 UNL     1     -15.295   7.237  16.000  1.00  0.00     0.264 C 
HETATM   13  O7  UNL     1     -14.785   6.165  15.704  1.00  0.00    -0.265 OA
HETATM   14  C16 UNL     1     -15.164   7.906  17.345  1.00  0.00     0.179 C 
HETATM   15  C17 UNL     1     -14.333   9.196  17.234  1.00  0.00     0.177 C 
HETATM   16  O9  UNL     1     -13.116   8.816  16.592  1.00  0.00    -0.318 OA
HETATM   17  C18 UNL     1     -14.072   9.793  18.639  1.00  0.00     0.045 C 
HETATM   18  C19 UNL     1     -15.314  10.348  19.344  1.00  0.00     0.015 C 
HETATM   19  C20 UNL     1     -13.002  10.894  18.549  1.00  0.00     0.024 C 
HETATM   20  C21 UNL     1     -11.719  10.376  17.858  1.00  0.00     0.010 C 
HETATM   21  C22 UNL     1     -10.707  11.538  17.778  1.00  0.00     0.020 C 
HETATM   22  C23 UNL     1     -11.076   9.284  18.764  1.00  0.00     0.020 C 
HETATM   23  C24 UNL     1     -11.233   9.320  13.624  1.00  0.00     0.041 C 
HETATM   24  C25 UNL     1     -11.494   8.651  12.266  1.00  0.00     0.015 C 
ENDROOT
BRANCH   1  25
HETATM   25  C5  UNL     1      -9.504   7.679  14.766  1.00  0.00     0.011 C 
HETATM   26  C6  UNL     1      -8.942   7.555  16.192  1.00  0.00     0.012 C 
BRANCH  25  27
HETATM   27  C4  UNL     1      -9.313   6.352  14.003  1.00  0.00     0.009 C 
BRANCH  27  28
HETATM   28  C3  UNL     1      -7.977   6.117  13.284  1.00  0.00     0.037 C 
BRANCH  28  29
HETATM   29  C2  UNL     1      -6.934   5.249  14.020  1.00  0.00     0.153 C 
BRANCH  29  30
HETATM   30  O1  UNL     1      -5.751   6.024  14.263  1.00  0.00    -0.386 OA
HETATM   31  C1  UNL     1      -5.814   7.323  13.685  1.00  0.00     0.202 C 
ENDBRANCH  29  30
BRANCH  29  32
HETATM   32  C26 UNL     1      -6.614   4.016  13.180  1.00  0.00    -0.027 A 
HETATM   33  C27 UNL     1      -7.507   2.931  13.151  1.00  0.00     0.010 A 
HETATM   34  C28 UNL     1      -7.245   1.819  12.347  1.00  0.00     0.003 A 
HETATM   35  C29 UNL     1      -6.091   1.776  11.566  1.00  0.00     0.036 A 
HETATM   36  C30 UNL     1      -5.204   2.845  11.594  1.00  0.00     0.066 A 
HETATM   37  C31 UNL     1      -5.455   3.963  12.382  1.00  0.00     0.046 A 
BRANCH  36  38
HETATM   38  O10 UNL     1      -4.084   2.754  10.825  1.00  0.00    -0.361 OA
HETATM   39  H45 UNL     1      -3.514   3.516  11.023  1.00  0.00     0.217 HD
ENDBRANCH  36  38
ENDBRANCH  29  32
ENDBRANCH  28  29
ENDBRANCH  27  28
ENDBRANCH  25  27
ENDBRANCH   1  25
BRANCH  15  40
HETATM   40  O8  UNL     1     -15.088  10.106  16.447  1.00  0.00    -0.364 OA
HETATM   41  H25 UNL     1     -15.029  11.008  16.789  1.00  0.00     0.213 HD
ENDBRANCH  15  40
BRANCH  10  42
HETATM   42  C14 UNL     1     -17.027   6.876  13.259  1.00  0.00     0.197 C 
BRANCH  42  43
HETATM   43  O5  UNL     1     -16.692   6.318  11.995  1.00  0.00    -0.398 OA
HETATM   44  H22 UNL     1     -17.523   6.087  11.548  1.00  0.00     0.209 HD
ENDBRANCH  42  43
ENDBRANCH  10  42
TORSDOF 10
ENDMDL
MODEL 4
REMARK minimizedAffinity -7.06026125
REMARK CNNscore 0.575887501
REMARK CNNaffinity 7.07275009
REMARK  10 active torsions:
REMARK  status: ('A' for Active; 'I' for Inactive)
REMARK    1  A    between atoms: O1_2  and  C2_3 
REMARK    2  A    between atoms: C2_3  and  C3_4 
REMARK    3  A    between atoms: C2_3  and  C26_35 
REMARK    4  A    between atoms: C3_4  and  C4_5 
REMARK    5  A    between atoms: C4_5  and  C5_6 
REMARK    6  A    between atoms: C5_6  and  C7_8 
REMARK    7  A    between atoms: C13_17  and  C14_18 
REMARK    8  A    between atoms: C14_18  and  O5_19 
REMARK    9  A    between atoms: C17_24  and  O8_25 
REMARK   10  A    between atoms: C30_39  and  O10_40 
ROOT
HETATM    1  C7  UNL     1     -12.849   8.284  15.325  1.00  0.00     0.135 C 
HETATM    2  O2  UNL     1     -12.545   9.616  14.862  1.00  0.00    -0.348 OA
HETATM    3  C8  UNL     1     -12.858  10.713  15.731  1.00  0.00     0.177 C 
HETATM    4  C9  UNL     1     -14.382  10.684  15.906  1.00  0.00     0.102 C 
HETATM    5  C10 UNL     1     -14.877   9.340  16.434  1.00  0.00     0.143 C 
HETATM    6  O3  UNL     1     -14.502   9.107  17.808  1.00  0.00    -0.315 OA
HETATM    7  C11 UNL     1     -15.334   9.614  18.756  1.00  0.00     0.261 C 
HETATM    8  O4  UNL     1     -16.304  10.324  18.510  1.00  0.00    -0.265 OA
HETATM    9  C12 UNL     1     -15.000   9.147  20.154  1.00  0.00     0.145 C 
HETATM   10  C13 UNL     1     -13.534   8.763  20.372  1.00  0.00     0.164 C 
HETATM   11  O6  UNL     1     -12.753   9.961  20.234  1.00  0.00    -0.313 OA
HETATM   12  C15 UNL     1     -11.580   9.831  19.554  1.00  0.00     0.264 C 
HETATM   13  O7  UNL     1     -10.957   8.786  19.418  1.00  0.00    -0.265 OA
HETATM   14  C16 UNL     1     -11.144  11.166  19.007  1.00  0.00     0.179 C 
HETATM   15  C17 UNL     1     -12.091  11.634  17.888  1.00  0.00     0.177 C 
HETATM   16  O9  UNL     1     -12.149  10.554  16.956  1.00  0.00    -0.318 OA
HETATM   17  C18 UNL     1     -11.550  12.926  17.227  1.00  0.00     0.045 C 
HETATM   18  C19 UNL     1     -11.581  14.168  18.124  1.00  0.00     0.015 C 
HETATM   19  C20 UNL     1     -12.326  13.214  15.931  1.00  0.00     0.024 C 
HETATM   20  C21 UNL     1     -12.311  11.992  14.984  1.00  0.00     0.010 C 
HETATM   21  C22 UNL     1     -13.128  12.344  13.723  1.00  0.00     0.020 C 
HETATM   22  C23 UNL     1     -10.845  11.749  14.513  1.00  0.00     0.020 C 
HETATM   23  C24 UNL     1     -14.375   8.162  15.568  1.00  0.00     0.041 C 
HETATM   24  C25 UNL     1     -14.831   6.857  16.240  1.00  0.00     0.015 C 
ENDROOT
BRANCH   1  25
HETATM   25  C5  UNL     1     -12.259   7.399  14.179  1.00  0.00     0.011 C 
HETATM   26  C6  UNL     1     -13.275   7.253  13.035  1.00  0.00     0.012 C 
BRANCH  25  27
HETATM   27  C4  UNL     1     -10.864   7.732  13.611  1.00  0.00     0.009 C 
BRANCH  27  28
HETATM   28  C3  UNL     1      -9.907   6.568  13.318  1.00  0.00     0.037 C 
BRANCH  28  29
HETATM   29  C2  UNL     1      -8.860   6.237  14.404  1.00  0.00     0.153 C 
BRANCH  29  30
HETATM   30  O1  UNL     1      -8.387   7.454  14.999  1.00  0.00    -0.386 OA
HETATM   31  C1  UNL     1      -8.512   7.460  16.417  1.00  0.00     0.202 C 
ENDBRANCH  29  30
BRANCH  29  32
HETATM   32  C26 UNL     1      -7.710   5.452  13.780  1.00  0.00    -0.027 A 
HETATM   33  C27 UNL     1      -6.419   6.007  13.736  1.00  0.00     0.010 A 
HETATM   34  C28 UNL     1      -5.350   5.276  13.212  1.00  0.00     0.003 A 
HETATM   35  C29 UNL     1      -5.557   3.987  12.723  1.00  0.00     0.036 A 
HETATM   36  C30 UNL     1      -6.832   3.435  12.761  1.00  0.00     0.066 A 
HETATM   37  C31 UNL     1      -7.905   4.147  13.290  1.00  0.00     0.046 A 
BRANCH  36  38
HETATM   38  O10 UNL     1      -6.990   2.178  12.263  1.00  0.00    -0.361 OA
HETATM   39  H45 UNL     1      -7.938   1.967  12.260  1.00  0.00     0.217 HD
ENDBRANCH  36  38
ENDBRANCH  29  32
ENDBRANCH  28  29
ENDBRANCH  27  28
ENDBRANCH  25  27
ENDBRANCH   1  25
BRANCH  15  40
HETATM   40  O8  UNL     1     -13.352  11.882  18.493  1.00  0.00    -0.364 OA
HETATM   41  H25 UNL     1     -13.773  12.673  18.129  1.00  0.00     0.213 HD
ENDBRANCH  15  40
BRANCH  10  42
HETATM   42  C14 UNL     1     -13.322   8.200  21.778  1.00  0.00     0.197 C 
BRANCH  42  43
HETATM   43  O5  UNL     1     -11.988   8.433  22.211  1.00  0.00    -0.398 OA
HETATM   44  H22 UNL     1     -11.784   7.774  22.895  1.00  0.00     0.209 HD
ENDBRANCH  42  43
ENDBRANCH  10  42
TORSDOF 10
ENDMDL
MODEL 5
REMARK minimizedAffinity -8.06112194
REMARK CNNscore 0.572652161
REMARK CNNaffinity 6.6252079
REMARK  10 active torsions:
REMARK  status: ('A' for Active; 'I' for Inactive)
REMARK    1  A    between atoms: O1_2  and  C2_3 
REMARK    2  A    between atoms: C2_3  and  C3_4 
REMARK    3  A    between atoms: C2_3  and  C26_35 
REMARK    4  A    between atoms: C3_4  and  C4_5 
REMARK    5  A    between atoms: C4_5  and  C5_6 
REMARK    6  A    between atoms: C5_6  and  C7_8 
REMARK    7  A    between atoms: C13_17  and  C14_18 
REMARK    8  A    between atoms: C14_18  and  O5_19 
REMARK    9  A    between atoms: C17_24  and  O8_25 
REMARK   10  A    between atoms: C30_39  and  O10_40 
ROOT
HETATM    1  C7  UNL     1     -11.389   9.106  14.438  1.00  0.00     0.135 C 
HETATM    2  O2  UNL     1     -11.821  10.440  14.776  1.00  0.00    -0.348 OA
HETATM    3  C8  UNL     1     -13.210  10.754  14.611  1.00  0.00     0.177 C 
HETATM    4  C9  UNL     1     -13.495  10.606  13.111  1.00  0.00     0.102 C 
HETATM    5  C10 UNL     1     -13.126   9.220  12.587  1.00  0.00     0.143 C 
HETATM    6  O3  UNL     1     -14.009   8.186  13.072  1.00  0.00    -0.315 OA
HETATM    7  C11 UNL     1     -15.151   7.984  12.363  1.00  0.00     0.261 C 
HETATM    8  O4  UNL     1     -15.505   8.682  11.418  1.00  0.00    -0.265 OA
HETATM    9  C12 UNL     1     -15.911   6.752  12.796  1.00  0.00     0.145 C 
HETATM   10  C13 UNL     1     -15.683   6.332  14.251  1.00  0.00     0.164 C 
HETATM   11  O6  UNL     1     -16.233   7.364  15.086  1.00  0.00    -0.313 OA
HETATM   12  C15 UNL     1     -15.495   7.698  16.180  1.00  0.00     0.264 C 
HETATM   13  O7  UNL     1     -14.675   6.972  16.725  1.00  0.00    -0.265 OA
HETATM   14  C16 UNL     1     -15.850   9.088  16.643  1.00  0.00     0.179 C 
HETATM   15  C17 UNL     1     -15.374  10.140  15.627  1.00  0.00     0.177 C 
HETATM   16  O9  UNL     1     -13.987   9.874  15.419  1.00  0.00    -0.318 OA
HETATM   17  C18 UNL     1     -15.602  11.569  16.180  1.00  0.00     0.045 C 
HETATM   18  C19 UNL     1     -17.072  11.983  16.306  1.00  0.00     0.015 C 
HETATM   19  C20 UNL     1     -14.858  12.593  15.306  1.00  0.00     0.024 C 
HETATM   20  C21 UNL     1     -13.363  12.226  15.161  1.00  0.00     0.010 C 
HETATM   21  C22 UNL     1     -12.689  13.277  14.254  1.00  0.00     0.020 C 
HETATM   22  C23 UNL     1     -12.686  12.345  16.560  1.00  0.00     0.020 C 
HETATM   23  C24 UNL     1     -11.668   8.842  12.937  1.00  0.00     0.041 C 
HETATM   24  C25 UNL     1     -11.432   7.398  12.468  1.00  0.00     0.015 C 
ENDROOT
BRANCH   1  25
HETATM   25  C5  UNL     1      -9.886   9.133  14.866  1.00  0.00     0.011 C 
HETATM   26  C6  UNL     1      -9.595  10.371  15.731  1.00  0.00     0.012 C 
BRANCH  25  27
HETATM   27  C4  UNL     1      -9.262   7.878  15.510  1.00  0.00     0.009 C 
BRANCH  27  28
HETATM   28  C3  UNL     1      -8.614   6.837  14.586  1.00  0.00     0.037 C 
BRANCH  28  29
HETATM   29  C2  UNL     1      -7.364   6.110  15.124  1.00  0.00     0.153 C 
BRANCH  29  30
HETATM   30  O1  UNL     1      -6.319   7.065  15.361  1.00  0.00    -0.386 OA
HETATM   31  C1  UNL     1      -6.243   8.062  14.349  1.00  0.00     0.202 C 
ENDBRANCH  29  30
BRANCH  29  32
HETATM   32  C26 UNL     1      -6.917   5.052  14.120  1.00  0.00    -0.027 A 
HETATM   33  C27 UNL     1      -5.655   5.148  13.509  1.00  0.00     0.010 A 
HETATM   34  C28 UNL     1      -5.218   4.158  12.624  1.00  0.00     0.003 A 
HETATM   35  C29 UNL     1      -6.035   3.065  12.339  1.00  0.00     0.036 A 
HETATM   36  C30 UNL     1      -7.286   2.968  12.938  1.00  0.00     0.066 A 
HETATM   37  C31 UNL     1      -7.730   3.940  13.828  1.00  0.00     0.046 A 
BRANCH  36  38
HETATM   38  O10 UNL     1      -8.054   1.890  12.621  1.00  0.00    -0.361 OA
HETATM   39  H45 UNL     1      -8.929   2.007  13.027  1.00  0.00     0.217 HD
ENDBRANCH  36  38
ENDBRANCH  29  32
ENDBRANCH  28  29
ENDBRANCH  27  28
ENDBRANCH  25  27
ENDBRANCH   1  25
BRANCH  15  40
HETATM   40  O8  UNL     1     -16.135   9.944  14.443  1.00  0.00    -0.364 OA
HETATM   41  H25 UNL     1     -16.389  10.785  14.039  1.00  0.00     0.213 HD
ENDBRANCH  15  40
BRANCH  10  42
HETATM   42  C14 UNL     1     -16.404   5.018  14.557  1.00  0.00     0.197 C 
BRANCH  42  43
HETATM   43  O5  UNL     1     -15.475   3.942  14.612  1.00  0.00    -0.398 OA
HETATM   44  H22 UNL     1     -15.966   3.124  14.435  1.00  0.00     0.209 HD
ENDBRANCH  42  43
ENDBRANCH  10  42
TORSDOF 10
ENDMDL
MODEL 6
REMARK minimizedAffinity -9.05393219
REMARK CNNscore 0.446976453
REMARK CNNaffinity 6.27240705
REMARK  10 active torsions:
REMARK  status: ('A' for Active; 'I' for Inactive)
REMARK    1  A    between atoms: O1_2  and  C2_3 
REMARK    2  A    between atoms: C2_3  and  C3_4 
REMARK    3  A    between atoms: C2_3  and  C26_35 
REMARK    4  A    between atoms: C3_4  and  C4_5 
REMARK    5  A    between atoms: C4_5  and  C5_6 
REMARK    6  A    between atoms: C5_6  and  C7_8 
REMARK    7  A    between atoms: C13_17  and  C14_18 
REMARK    8  A    between atoms: C14_18  and  O5_19 
REMARK    9  A    between atoms: C17_24  and  O8_25 
REMARK   10  A    between atoms: C30_39  and  O10_40 
ROOT
HETATM    1  C7  UNL     1      -2.570   6.998  13.219  1.00  0.00     0.135 C 
HETATM    2  O2  UNL     1      -1.532   6.894  12.223  1.00  0.00    -0.348 OA
HETATM    3  C8  UNL     1      -0.470   7.857  12.262  1.00  0.00     0.177 C 
HETATM    4  C9  UNL     1      -1.133   9.218  12.013  1.00  0.00     0.102 C 
HETATM    5  C10 UNL     1      -2.246   9.511  13.017  1.00  0.00     0.143 C 
HETATM    6  O3  UNL     1      -1.746   9.759  14.348  1.00  0.00    -0.315 OA
HETATM    7  C11 UNL     1      -1.369  11.036  14.623  1.00  0.00     0.261 C 
HETATM    8  O4  UNL     1      -1.340  11.938  13.791  1.00  0.00    -0.265 OA
HETATM    9  C12 UNL     1      -1.068  11.266  16.086  1.00  0.00     0.145 C 
HETATM   10  C13 UNL     1      -0.617  10.021  16.855  1.00  0.00     0.164 C 
HETATM   11  O6  UNL     1       0.656   9.625  16.318  1.00  0.00    -0.313 OA
HETATM   12  C15 UNL     1       0.840   8.287  16.150  1.00  0.00     0.264 C 
HETATM   13  O7  UNL     1       0.238   7.411  16.758  1.00  0.00    -0.265 OA
HETATM   14  C16 UNL     1       1.911   8.033  15.121  1.00  0.00     0.179 C 
HETATM   15  C17 UNL     1       1.431   8.449  13.720  1.00  0.00     0.177 C 
HETATM   16  O9  UNL     1       0.188   7.776  13.523  1.00  0.00    -0.318 OA
HETATM   17  C18 UNL     1       2.473   8.044  12.648  1.00  0.00     0.045 C 
HETATM   18  C19 UNL     1       3.792   8.820  12.707  1.00  0.00     0.015 C 
HETATM   19  C20 UNL     1       1.861   8.184  11.244  1.00  0.00     0.024 C 
HETATM   20  C21 UNL     1       0.532   7.403  11.129  1.00  0.00     0.010 C 
HETATM   21  C22 UNL     1      -0.035   7.612   9.709  1.00  0.00     0.020 C 
HETATM   22  C23 UNL     1       0.840   5.881  11.268  1.00  0.00     0.020 C 
HETATM   23  C24 UNL     1      -3.284   8.366  13.074  1.00  0.00     0.041 C 
HETATM   24  C25 UNL     1      -4.293   8.702  14.183  1.00  0.00     0.015 C 
ENDROOT
BRANCH   1  25
HETATM   25  C5  UNL     1      -3.436   5.732  12.919  1.00  0.00     0.011 C 
HETATM   26  C6  UNL     1      -2.535   4.519  12.634  1.00  0.00     0.012 C 
BRANCH  25  27
HETATM   27  C4  UNL     1      -4.561   5.338  13.898  1.00  0.00     0.009 C 
BRANCH  27  28
HETATM   28  C3  UNL     1      -5.957   5.935  13.672  1.00  0.00     0.037 C 
BRANCH  28  29
HETATM   29  C2  UNL     1      -7.136   4.941  13.594  1.00  0.00     0.153 C 
BRANCH  29  30
HETATM   30  O1  UNL     1      -7.499   4.525  14.918  1.00  0.00    -0.386 OA
HETATM   31  C1  UNL     1      -7.307   5.546  15.890  1.00  0.00     0.202 C 
ENDBRANCH  29  30
BRANCH  29  32
HETATM   32  C26 UNL     1      -6.736   3.744  12.737  1.00  0.00    -0.027 A 
HETATM   33  C27 UNL     1      -7.138   2.448  13.105  1.00  0.00     0.010 A 
HETATM   34  C28 UNL     1      -6.818   1.351  12.300  1.00  0.00     0.003 A 
HETATM   35  C29 UNL     1      -6.093   1.535  11.123  1.00  0.00     0.036 A 
HETATM   36  C30 UNL     1      -5.691   2.814  10.758  1.00  0.00     0.066 A 
HETATM   37  C31 UNL     1      -6.010   3.917  11.544  1.00  0.00     0.046 A 
BRANCH  36  38
HETATM   38  O10 UNL     1      -4.975   2.944   9.607  1.00  0.00    -0.361 OA
HETATM   39  H45 UNL     1      -4.677   3.866   9.535  1.00  0.00     0.217 HD
ENDBRANCH  36  38
ENDBRANCH  29  32
ENDBRANCH  28  29
ENDBRANCH  27  28
ENDBRANCH  25  27
ENDBRANCH   1  25
BRANCH  15  40
HETATM   40  O8  UNL     1       1.273   9.861  13.740  1.00  0.00    -0.364 OA
HETATM   41  H25 UNL     1       1.578  10.267  12.918  1.00  0.00     0.213 HD
ENDBRANCH  15  40
BRANCH  10  42
HETATM   42  C14 UNL     1      -0.446  10.332  18.342  1.00  0.00     0.197 C 
BRANCH  42  43
HETATM   43  O5  UNL     1       0.165  11.605  18.517  1.00  0.00    -0.398 OA
HETATM   44  H22 UNL     1       0.585  11.609  19.392  1.00  0.00     0.209 HD
ENDBRANCH  42  43
ENDBRANCH  10  42
TORSDOF 10
ENDMDL
MODEL 7
REMARK minimizedAffinity -6.79167032
REMARK CNNscore 0.442095011
REMARK CNNaffinity 6.07054758
REMARK  10 active torsions:
REMARK  status: ('A' for Active; 'I' for Inactive)
REMARK    1  A    between atoms: O1_2  and  C2_3 
REMARK    2  A    between atoms: C2_3  and  C3_4 
REMARK    3  A    between atoms: C2_3  and  C26_35 
REMARK    4  A    between atoms: C3_4  and  C4_5 
REMARK    5  A    between atoms: C4_5  and  C5_6 
REMARK    6  A    between atoms: C5_6  and  C7_8 
REMARK    7  A    between atoms: C13_17  and  C14_18 
REMARK    8  A    between atoms: C14_18  and  O5_19 
REMARK    9  A    between atoms: C17_24  and  O8_25 
REMARK   10  A    between atoms: C30_39  and  O10_40 
ROOT
HETATM    1  C7  UNL     1       0.697  13.823  18.285  1.00  0.00     0.135 C 
HETATM    2  O2  UNL     1      -0.335  14.753  18.669  1.00  0.00    -0.348 OA
HETATM    3  C8  UNL     1      -1.639  14.578  18.098  1.00  0.00     0.177 C 
HETATM    4  C9  UNL     1      -1.462  14.774  16.587  1.00  0.00     0.102 C 
HETATM    5  C10 UNL     1      -0.417  13.827  16.001  1.00  0.00     0.143 C 
HETATM    6  O3  UNL     1      -0.855  12.452  15.986  1.00  0.00    -0.315 OA
HETATM    7  C11 UNL     1      -1.591  12.063  14.910  1.00  0.00     0.261 C 
HETATM    8  O4  UNL     1      -1.973  12.826  14.028  1.00  0.00    -0.265 OA
HETATM    9  C12 UNL     1      -1.825  10.571  14.856  1.00  0.00     0.145 C 
HETATM   10  C13 UNL     1      -1.795   9.864  16.214  1.00  0.00     0.164 C 
HETATM   11  O6  UNL     1      -2.919  10.343  16.970  1.00  0.00    -0.313 OA
HETATM   12  C15 UNL     1      -2.686  10.592  18.288  1.00  0.00     0.264 C 
HETATM   13  O7  UNL     1      -1.790  10.087  18.952  1.00  0.00    -0.265 OA
HETATM   14  C16 UNL     1      -3.705  11.565  18.823  1.00  0.00     0.179 C 
HETATM   15  C17 UNL     1      -3.500  12.962  18.212  1.00  0.00     0.177 C 
HETATM   16  O9  UNL     1      -2.129  13.286  18.443  1.00  0.00    -0.318 OA
HETATM   17  C18 UNL     1      -4.448  13.989  18.879  1.00  0.00     0.045 C 
HETATM   18  C19 UNL     1      -5.934  13.790  18.568  1.00  0.00     0.015 C 
HETATM   19  C20 UNL     1      -4.032  15.417  18.486  1.00  0.00     0.024 C 
HETATM   20  C21 UNL     1      -2.539  15.672  18.796  1.00  0.00     0.010 C 
HETATM   21  C22 UNL     1      -2.188  17.108  18.352  1.00  0.00     0.020 C 
HETATM   22  C23 UNL     1      -2.338  15.621  20.341  1.00  0.00     0.020 C 
HETATM   23  C24 UNL     1       0.930  13.917  16.755  1.00  0.00     0.041 C 
HETATM   24  C25 UNL     1       1.871  12.856  16.166  1.00  0.00     0.015 C 
ENDROOT
BRANCH   1  25
HETATM   25  C5  UNL     1       1.890  14.266  19.193  1.00  0.00     0.011 C 
HETATM   26  C6  UNL     1       1.565  15.595  19.896  1.00  0.00     0.012 C 
BRANCH  25  27
HETATM   27  C4  UNL     1       2.483  13.263  20.203  1.00  0.00     0.009 C 
BRANCH  27  28
HETATM   28  C3  UNL     1       3.255  12.055  19.654  1.00  0.00     0.037 C 
BRANCH  28  29
HETATM   29  C2  UNL     1       4.390  11.495  20.537  1.00  0.00     0.153 C 
BRANCH  29  30
HETATM   30  O1  UNL     1       5.290  10.724  19.729  1.00  0.00    -0.386 OA
HETATM   31  C1  UNL     1       6.293  11.519  19.107  1.00  0.00     0.202 C 
ENDBRANCH  29  30
BRANCH  29  32
HETATM   32  C26 UNL     1       3.793  10.642  21.653  1.00  0.00    -0.027 A 
HETATM   33  C27 UNL     1       3.973  11.012  22.997  1.00  0.00     0.010 A 
HETATM   34  C28 UNL     1       3.389  10.264  24.023  1.00  0.00     0.003 A 
HETATM   35  C29 UNL     1       2.623   9.139  23.720  1.00  0.00     0.036 A 
HETATM   36  C30 UNL     1       2.446   8.767  22.392  1.00  0.00     0.066 A 
HETATM   37  C31 UNL     1       3.013   9.507  21.359  1.00  0.00     0.046 A 
BRANCH  36  38
HETATM   38  O10 UNL     1       1.701   7.655  22.144  1.00  0.00    -0.361 OA
HETATM   39  H45 UNL     1       1.750   7.460  21.193  1.00  0.00     0.217 HD
ENDBRANCH  36  38
ENDBRANCH  29  32
ENDBRANCH  28  29
ENDBRANCH  27  28
ENDBRANCH  25  27
ENDBRANCH   1  25
BRANCH  15  40
HETATM   40  O8  UNL     1      -3.793  12.852  16.826  1.00  0.00    -0.364 OA
HETATM   41  H25 UNL     1      -4.279  13.623  16.501  1.00  0.00     0.213 HD
ENDBRANCH  15  40
BRANCH  10  42
HETATM   42  C14 UNL     1      -1.929   8.350  16.042  1.00  0.00     0.197 C 
BRANCH  42  43
HETATM   43  O5  UNL     1      -0.811   7.684  16.614  1.00  0.00    -0.398 OA
HETATM   44  H22 UNL     1      -0.734   6.818  16.182  1.00  0.00     0.209 HD
ENDBRANCH  42  43
ENDBRANCH  10  42
TORSDOF 10
ENDMDL
MODEL 8
REMARK minimizedAffinity -6.43621874
REMARK CNNscore 0.435700148
REMARK CNNaffinity 6.43505669
REMARK  10 active torsions:
REMARK  status: ('A' for Active; 'I' for Inactive)
REMARK    1  A    between atoms: O1_2  and  C2_3 
REMARK    2  A    between atoms: C2_3  and  C3_4 
REMARK    3  A    between atoms: C2_3  and  C26_35 
REMARK    4  A    between atoms: C3_4  and  C4_5 
REMARK    5  A    between atoms: C4_5  and  C5_6 
REMARK    6  A    between atoms: C5_6  and  C7_8 
REMARK    7  A    between atoms: C13_17  and  C14_18 
REMARK    8  A    between atoms: C14_18  and  O5_19 
REMARK    9  A    between atoms: C17_24  and  O8_25 
REMARK   10  A    between atoms: C30_39  and  O10_40 
ROOT
HETATM    1  C7  UNL     1     -11.884   9.201  15.063  1.00  0.00     0.135 C 
HETATM    2  O2  UNL     1     -12.437  10.519  14.869  1.00  0.00    -0.348 OA
HETATM    3  C8  UNL     1     -13.785  10.614  14.388  1.00  0.00     0.177 C 
HETATM    4  C9  UNL     1     -13.777   9.970  12.996  1.00  0.00     0.102 C 
HETATM    5  C10 UNL     1     -13.250   8.538  13.024  1.00  0.00     0.143 C 
HETATM    6  O3  UNL     1     -14.155   7.622  13.675  1.00  0.00    -0.315 OA
HETATM    7  C11 UNL     1     -15.134   7.085  12.898  1.00  0.00     0.261 C 
HETATM    8  O4  UNL     1     -15.339   7.407  11.733  1.00  0.00    -0.265 OA
HETATM    9  C12 UNL     1     -15.900   5.978  13.586  1.00  0.00     0.145 C 
HETATM   10  C13 UNL     1     -15.926   6.065  15.114  1.00  0.00     0.164 C 
HETATM   11  O6  UNL     1     -16.672   7.243  15.463  1.00  0.00    -0.313 OA
HETATM   12  C15 UNL     1     -16.169   7.982  16.490  1.00  0.00     0.264 C 
HETATM   13  O7  UNL     1     -15.430   7.557  17.368  1.00  0.00    -0.265 OA
HETATM   14  C16 UNL     1     -16.672   9.401  16.406  1.00  0.00     0.179 C 
HETATM   15  C17 UNL     1     -16.067  10.123  15.189  1.00  0.00     0.177 C 
HETATM   16  O9  UNL     1     -14.654   9.956  15.306  1.00  0.00    -0.318 OA
HETATM   17  C18 UNL     1     -16.465  11.620  15.197  1.00  0.00     0.045 C 
HETATM   18  C19 UNL     1     -17.951  11.893  14.942  1.00  0.00     0.015 C 
HETATM   19  C20 UNL     1     -15.622  12.390  14.166  1.00  0.00     0.024 C 
HETATM   20  C21 UNL     1     -14.110  12.159  14.391  1.00  0.00     0.010 C 
HETATM   21  C22 UNL     1     -13.332  12.936  13.309  1.00  0.00     0.020 C 
HETATM   22  C23 UNL     1     -13.713  12.785  15.762  1.00  0.00     0.020 C 
HETATM   23  C24 UNL     1     -11.865   8.448  13.708  1.00  0.00     0.041 C 
HETATM   24  C25 UNL     1     -11.475   6.965  13.785  1.00  0.00     0.015 C 
ENDROOT
BRANCH   1  25
HETATM   25  C5  UNL     1     -10.491   9.523  15.693  1.00  0.00     0.011 C 
HETATM   26  C6  UNL     1     -10.398   8.947  17.116  1.00  0.00     0.012 C 
BRANCH  25  27
HETATM   27  C4  UNL     1      -9.209   9.191  14.902  1.00  0.00     0.009 C 
BRANCH  27  28
HETATM   28  C3  UNL     1      -8.294   8.081  15.440  1.00  0.00     0.037 C 
BRANCH  28  29
HETATM   29  C2  UNL     1      -7.317   7.436  14.435  1.00  0.00     0.153 C 
BRANCH  29  30
HETATM   30  O1  UNL     1      -7.116   6.058  14.779  1.00  0.00    -0.386 OA
HETATM   31  C1  UNL     1      -7.310   5.801  16.165  1.00  0.00     0.202 C 
ENDBRANCH  29  30
BRANCH  29  32
HETATM   32  C26 UNL     1      -5.995   8.199  14.448  1.00  0.00    -0.027 A 
HETATM   33  C27 UNL     1      -5.647   8.987  15.559  1.00  0.00     0.010 A 
HETATM   34  C28 UNL     1      -4.418   9.650  15.601  1.00  0.00     0.003 A 
HETATM   35  C29 UNL     1      -3.525   9.536  14.536  1.00  0.00     0.036 A 
HETATM   36  C30 UNL     1      -3.866   8.761  13.434  1.00  0.00     0.066 A 
HETATM   37  C31 UNL     1      -5.083   8.087  13.382  1.00  0.00     0.046 A 
BRANCH  36  38
HETATM   38  O10 UNL     1      -2.969   8.687  12.413  1.00  0.00    -0.361 OA
HETATM   39  H45 UNL     1      -3.381   8.203  11.678  1.00  0.00     0.217 HD
ENDBRANCH  36  38
ENDBRANCH  29  32
ENDBRANCH  28  29
ENDBRANCH  27  28
ENDBRANCH  25  27
ENDBRANCH   1  25
BRANCH  15  40
HETATM   40  O8  UNL     1     -16.584   9.484  14.031  1.00  0.00    -0.364 OA
HETATM   41  H25 UNL     1     -16.799  10.122  13.337  1.00  0.00     0.213 HD
ENDBRANCH  15  40
BRANCH  10  42
HETATM   42  C14 UNL     1     -16.626   4.846  15.717  1.00  0.00     0.197 C 
BRANCH  42  43
HETATM   43  O5  UNL     1     -17.436   4.205  14.739  1.00  0.00    -0.398 OA
HETATM   44  H22 UNL     1     -18.120   3.702  15.211  1.00  0.00     0.209 HD
ENDBRANCH  42  43
ENDBRANCH  10  42
TORSDOF 10
ENDMDL
MODEL 9
REMARK minimizedAffinity -7.67756176
REMARK CNNscore 0.33149302
REMARK CNNaffinity 6.34560013
REMARK  10 active torsions:
REMARK  status: ('A' for Active; 'I' for Inactive)
REMARK    1  A    between atoms: O1_2  and  C2_3 
REMARK    2  A    between atoms: C2_3  and  C3_4 
REMARK    3  A    between atoms: C2_3  and  C26_35 
REMARK    4  A    between atoms: C3_4  and  C4_5 
REMARK    5  A    between atoms: C4_5  and  C5_6 
REMARK    6  A    between atoms: C5_6  and  C7_8 
REMARK    7  A    between atoms: C13_17  and  C14_18 
REMARK    8  A    between atoms: C14_18  and  O5_19 
REMARK    9  A    between atoms: C17_24  and  O8_25 
REMARK   10  A    between atoms: C30_39  and  O10_40 
ROOT
HETATM    1  C7  UNL     1     -11.323   8.554  14.621  1.00  0.00     0.135 C 
HETATM    2  O2  UNL     1     -11.621   9.830  15.224  1.00  0.00    -0.348 OA
HETATM    3  C8  UNL     1     -12.955  10.339  15.087  1.00  0.00     0.177 C 
HETATM    4  C9  UNL     1     -13.170  10.543  13.582  1.00  0.00     0.102 C 
HETATM    5  C10 UNL     1     -12.931   9.263  12.785  1.00  0.00     0.143 C 
HETATM    6  O3  UNL     1     -13.950   8.266  13.010  1.00  0.00    -0.315 OA
HETATM    7  C11 UNL     1     -15.066   8.357  12.239  1.00  0.00     0.261 C 
HETATM    8  O4  UNL     1     -15.286   9.275  11.456  1.00  0.00    -0.265 OA
HETATM    9  C12 UNL     1     -15.983   7.163  12.375  1.00  0.00     0.145 C 
HETATM   10  C13 UNL     1     -15.884   6.424  13.712  1.00  0.00     0.164 C 
HETATM   11  O6  UNL     1     -16.360   7.317  14.732  1.00  0.00    -0.313 OA
HETATM   12  C15 UNL     1     -15.653   7.323  15.895  1.00  0.00     0.264 C 
HETATM   13  O7  UNL     1     -14.950   6.404  16.296  1.00  0.00    -0.265 OA
HETATM   14  C16 UNL     1     -15.874   8.618  16.634  1.00  0.00     0.179 C 
HETATM   15  C17 UNL     1     -15.227   9.793  15.881  1.00  0.00     0.177 C 
HETATM   16  O9  UNL     1     -13.869   9.410  15.664  1.00  0.00    -0.318 OA
HETATM   17  C18 UNL     1     -15.324  11.092  16.720  1.00  0.00     0.045 C 
HETATM   18  C19 UNL     1     -16.743  11.645  16.887  1.00  0.00     0.015 C 
HETATM   19  C20 UNL     1     -14.422  12.177  16.110  1.00  0.00     0.024 C 
HETATM   20  C21 UNL     1     -12.972  11.670  15.936  1.00  0.00     0.010 C 
HETATM   21  C22 UNL     1     -12.135  12.798  15.296  1.00  0.00     0.020 C 
HETATM   22  C23 UNL     1     -12.366  11.411  17.348  1.00  0.00     0.020 C 
HETATM   23  C24 UNL     1     -11.546   8.646  13.090  1.00  0.00     0.041 C 
HETATM   24  C25 UNL     1     -11.448   7.315  12.330  1.00  0.00     0.015 C 
ENDROOT
BRANCH   1  25
HETATM   25  C5  UNL     1      -9.853   8.308  15.091  1.00  0.00     0.011 C 
HETATM   26  C6  UNL     1      -9.707   8.626  16.589  1.00  0.00     0.012 C 
BRANCH  25  27
HETATM   27  C4  UNL     1      -9.171   6.964  14.765  1.00  0.00     0.009 C 
BRANCH  27  28
HETATM   28  C3  UNL     1      -7.640   6.938  14.651  1.00  0.00     0.037 C 
BRANCH  28  29
HETATM   29  C2  UNL     1      -7.025   5.814  13.791  1.00  0.00     0.153 C 
BRANCH  29  30
HETATM   30  O1  UNL     1      -7.704   4.579  14.061  1.00  0.00    -0.386 OA
HETATM   31  C1  UNL     1      -8.183   3.943  12.882  1.00  0.00     0.202 C 
ENDBRANCH  29  30
BRANCH  29  32
HETATM   32  C26 UNL     1      -5.535   5.694  14.099  1.00  0.00    -0.027 A 
HETATM   33  C27 UNL     1      -4.699   4.943  13.255  1.00  0.00     0.010 A 
HETATM   34  C28 UNL     1      -3.325   4.869  13.502  1.00  0.00     0.003 A 
HETATM   35  C29 UNL     1      -2.773   5.539  14.593  1.00  0.00     0.036 A 
HETATM   36  C30 UNL     1      -3.597   6.280  15.432  1.00  0.00     0.066 A 
HETATM   37  C31 UNL     1      -4.965   6.372  15.194  1.00  0.00     0.046 A 
BRANCH  36  38
HETATM   38  O10 UNL     1      -3.016   6.908  16.491  1.00  0.00    -0.361 OA
HETATM   39  H45 UNL     1      -3.718   7.295  17.040  1.00  0.00     0.217 HD
ENDBRANCH  36  38
ENDBRANCH  29  32
ENDBRANCH  28  29
ENDBRANCH  27  28
ENDBRANCH  25  27
ENDBRANCH   1  25
BRANCH  15  40
HETATM   40  O8  UNL     1     -15.938   9.944  14.660  1.00  0.00    -0.364 OA
HETATM   41  H25 UNL     1     -16.073  10.875  14.438  1.00  0.00     0.213 HD
ENDBRANCH  15  40
BRANCH  10  42
HETATM   42  C14 UNL     1     -16.764   5.173  13.707  1.00  0.00     0.197 C 
BRANCH  42  43
HETATM   43  O5  UNL     1     -16.186   4.155  14.516  1.00  0.00    -0.398 OA
HETATM   44  H22 UNL     1     -16.536   3.303  14.208  1.00  0.00     0.209 HD
ENDBRANCH  42  43
ENDBRANCH  10  42
TORSDOF 10
ENDMDL
