MODEL 1
REMARK minimizedAffinity -8.71183872
REMARK CNNscore 0.445867598
REMARK CNNaffinity 7.92636251
REMARK  15 active torsions:
REMARK  status: ('A' for Active; 'I' for Inactive)
REMARK    1  A    between atoms: C2_2  and  C3_3 
REMARK    2  A    between atoms: C3_3  and  C4_4 
REMARK    3  A    between atoms: C4_4  and  O1_5 
REMARK    4  A    between atoms: C4_4  and  C5_6 
REMARK    5  A    between atoms: C5_6  and  C6_7 
REMARK    6  A    between atoms: C6_7  and  O2_8 
REMARK    7  A    between atoms: C6_7  and  C7_9 
REMARK    8  A    between atoms: C7_9  and  C8_10 
REMARK    9  A    between atoms: C8_10  and  C9_12 
REMARK   10  A    between atoms: C9_12  and  C10_13 
REMARK   11  A    between atoms: C10_13  and  C11_14 
REMARK   12  A    between atoms: C25_29  and  O5_30 
REMARK   13  A    between atoms: C29_34  and  C30_35 
REMARK   14  A    between atoms: C30_35  and  N1_36 
REMARK   15  A    between atoms: C30_35  and  N2_37 
ROOT
HETATM    1  C11 UNL     1       0.728  52.504 -18.396  1.00  0.00    -0.055 A 
HETATM    2  C12 UNL     1       1.695  52.950 -19.299  1.00  0.00     0.010 A 
HETATM    3  C13 UNL     1       1.442  52.931 -20.667  1.00  0.00     0.041 A 
HETATM    4  C14 UNL     1       0.238  52.427 -21.168  1.00  0.00     0.120 A 
HETATM    5  O4  UNL     1       0.141  52.586 -22.537  1.00  0.00    -0.258 OA
HETATM    6  C15 UNL     1      -0.804  51.865 -23.100  1.00  0.00     0.061 C 
HETATM    7  C16 UNL     1      -1.705  51.131 -23.372  1.00  0.00    -0.064 C 
HETATM    8  C17 UNL     1      -2.792  50.158 -23.217  1.00  0.00     0.044 C 
HETATM    9  C18 UNL     1      -3.027  49.452 -24.567  1.00  0.00     0.024 C 
HETATM   10  C19 UNL     1      -3.854  50.438 -25.396  1.00  0.00     0.002 C 
HETATM   11  C20 UNL     1      -4.559  51.352 -24.399  1.00  0.00     0.002 C 
HETATM   12  C21 UNL     1      -4.135  50.880 -23.005  1.00  0.00     0.024 C 
HETATM   13  C22 UNL     1      -2.377  49.185 -22.041  1.00  0.00     0.135 C 
HETATM   14  C23 UNL     1      -3.405  48.095 -21.908  1.00  0.00    -0.093 C 
HETATM   15  C24 UNL     1      -4.389  47.396 -21.873  1.00  0.00    -0.069 C 
HETATM   16  C25 UNL     1      -5.757  46.839 -21.991  1.00  0.00     0.230 C 
HETATM   17  C26 UNL     1      -6.132  45.704 -21.053  1.00  0.00    -0.011 A 
HETATM   18  C27 UNL     1      -5.941  44.404 -21.582  1.00  0.00     0.012 A 
HETATM   19  C28 UNL     1      -6.391  43.262 -20.917  1.00  0.00     0.012 A 
HETATM   20  C29 UNL     1      -7.052  43.367 -19.693  1.00  0.00     0.004 A 
HETATM   21  C31 UNL     1      -7.178  44.641 -19.121  1.00  0.00     0.019 A 
HETATM   22  C32 UNL     1      -6.731  45.819 -19.766  1.00  0.00    -0.043 A 
HETATM   23  C33 UNL     1      -6.894  47.107 -18.963  1.00  0.00     0.080 C 
HETATM   24  C34 UNL     1      -5.638  47.434 -18.224  1.00  0.00    -0.025 C 
HETATM   25  C35 UNL     1      -5.041  46.765 -17.206  1.00  0.00     0.096 C 
HETATM   26  N3  UNL     1      -3.678  47.060 -17.005  1.00  0.00    -0.364 N 
ATOM     27  H3  UNL     1      -3.034  46.688 -16.306  1.00  0.00     0.165 HD
HETATM   28  C36 UNL     1      -3.457  47.927 -17.936  1.00  0.00     0.060 C 
HETATM   29  C37 UNL     1      -2.290  48.598 -18.513  1.00  0.00     0.123 C 
HETATM   30  N4  UNL     1      -2.699  49.336 -19.495  1.00  0.00    -0.335 N 
HETATM   31  C38 UNL     1      -4.204  49.270 -19.492  1.00  0.00     0.107 C 
HETATM   32  C39 UNL     1      -4.636  48.305 -18.686  1.00  0.00     0.015 C 
HETATM   33  C40 UNL     1      -1.940  49.899 -20.643  1.00  0.00     0.251 C 
HETATM   34  O6  UNL     1      -1.910  51.341 -20.684  1.00  0.00    -0.321 OA
HETATM   35  C41 UNL     1      -0.702  51.874 -20.276  1.00  0.00     0.106 A 
HETATM   36  C42 UNL     1      -0.463  51.956 -18.894  1.00  0.00     0.047 A 
ENDROOT
BRANCH   1  37
HETATM   37  C10 UNL     1       0.955  52.681 -16.907  1.00  0.00     0.046 C 
BRANCH  37  38
HETATM   38  C9  UNL     1       1.360  51.382 -16.210  1.00  0.00     0.083 C 
BRANCH  38  39
HETATM   39  C8  UNL     1       2.370  51.584 -15.094  1.00  0.00     0.129 C 
HETATM   40  O3  UNL     1       3.398  52.234 -15.284  1.00  0.00    -0.298 OA
BRANCH  39  41
HETATM   41  C7  UNL     1       2.092  50.908 -13.765  1.00  0.00     0.110 C 
BRANCH  41  42
HETATM   42  C6  UNL     1       1.677  51.923 -12.696  1.00  0.00     0.127 C 
BRANCH  42  43
HETATM   43  C5  UNL     1       2.892  52.608 -12.061  1.00  0.00     0.063 C 
BRANCH  43  44
HETATM   44  C4  UNL     1       2.943  52.500 -10.526  1.00  0.00     0.120 C 
BRANCH  44  45
HETATM   45  C3  UNL     1       3.528  53.739  -9.831  1.00  0.00     0.031 C 
BRANCH  45  46
HETATM   46  C2  UNL     1       4.032  54.831 -10.792  1.00  0.00    -0.002 C 
HETATM   47  C1  UNL     1       3.201  56.106 -10.782  1.00  0.00     0.005 C 
ENDBRANCH  45  46
ENDBRANCH  44  45
BRANCH  44  48
HETATM   48  O1  UNL     1       3.747  51.360 -10.220  1.00  0.00    -0.395 OA
HETATM   49  H9  UNL     1       3.257  50.561 -10.481  1.00  0.00     0.210 HD
ENDBRANCH  44  48
ENDBRANCH  43  44
ENDBRANCH  42  43
BRANCH  42  50
HETATM   50  O2  UNL     1       0.882  52.912 -13.357  1.00  0.00    -0.395 OA
HETATM   51  H13 UNL     1      -0.055  52.676 -13.231  1.00  0.00     0.210 HD
ENDBRANCH  42  50
ENDBRANCH  41  42
ENDBRANCH  39  41
ENDBRANCH  38  39
ENDBRANCH  37  38
ENDBRANCH   1  37
BRANCH  16  52
HETATM   52  O5  UNL     1      -6.657  47.942 -21.858  1.00  0.00    -0.379 OA
HETATM   53  H32 UNL     1      -6.892  48.197 -22.770  1.00  0.00     0.211 HD
ENDBRANCH  16  52
BRANCH  20  54
HETATM   54  C30 UNL     1      -7.585  42.124 -19.015  1.00  0.00     0.479 C 
BRANCH  54  55
HETATM   55  N1  UNL     1      -7.591  40.966 -19.879  1.00  0.00     0.116 N 
HETATM   56  H36 UNL     1      -6.628  40.648 -19.980  1.00  0.00     0.316 HD
HETATM   57  H37 UNL     1      -8.078  40.233 -19.366  1.00  0.00     0.316 HD
ENDBRANCH  54  55
BRANCH  54  58
HETATM   58  N2  UNL     1      -8.965  42.247 -18.654  1.00  0.00     0.116 N 
HETATM   59  H38 UNL     1      -9.500  42.318 -19.515  1.00  0.00     0.316 HD
HETATM   60  H39 UNL     1      -9.106  43.118 -18.149  1.00  0.00     0.316 HD
ENDBRANCH  54  58
ENDBRANCH  20  54
TORSDOF 15
ENDMDL
MODEL 2
REMARK minimizedAffinity -7.81923628
REMARK CNNscore 0.403378755
REMARK CNNaffinity 7.12226534
REMARK  15 active torsions:
REMARK  status: ('A' for Active; 'I' for Inactive)
REMARK    1  A    between atoms: C2_2  and  C3_3 
REMARK    2  A    between atoms: C3_3  and  C4_4 
REMARK    3  A    between atoms: C4_4  and  O1_5 
REMARK    4  A    between atoms: C4_4  and  C5_6 
REMARK    5  A    between atoms: C5_6  and  C6_7 
REMARK    6  A    between atoms: C6_7  and  O2_8 
REMARK    7  A    between atoms: C6_7  and  C7_9 
REMARK    8  A    between atoms: C7_9  and  C8_10 
REMARK    9  A    between atoms: C8_10  and  C9_12 
REMARK   10  A    between atoms: C9_12  and  C10_13 
REMARK   11  A    between atoms: C10_13  and  C11_14 
REMARK   12  A    between atoms: C25_29  and  O5_30 
REMARK   13  A    between atoms: C29_34  and  C30_35 
REMARK   14  A    between atoms: C30_35  and  N1_36 
REMARK   15  A    between atoms: C30_35  and  N2_37 
ROOT
HETATM    1  C11 UNL     1      -1.069  54.836  -4.167  1.00  0.00    -0.055 A 
HETATM    2  C12 UNL     1       0.025  55.123  -3.349  1.00  0.00     0.010 A 
HETATM    3  C13 UNL     1       1.269  55.400  -3.908  1.00  0.00     0.041 A 
HETATM    4  C14 UNL     1       1.460  55.354  -5.292  1.00  0.00     0.120 A 
HETATM    5  O4  UNL     1       2.733  55.754  -5.651  1.00  0.00    -0.258 OA
HETATM    6  C15 UNL     1       3.072  55.438  -6.882  1.00  0.00     0.061 C 
HETATM    7  C16 UNL     1       3.145  55.050  -8.009  1.00  0.00    -0.064 C 
HETATM    8  C17 UNL     1       2.779  54.421  -9.282  1.00  0.00     0.044 C 
HETATM    9  C18 UNL     1       4.065  54.042 -10.041  1.00  0.00     0.024 C 
HETATM   10  C19 UNL     1       4.554  55.344 -10.677  1.00  0.00     0.002 C 
HETATM   11  C20 UNL     1       3.331  56.250 -10.796  1.00  0.00     0.002 C 
HETATM   12  C21 UNL     1       2.150  55.456 -10.232  1.00  0.00     0.024 C 
HETATM   13  C22 UNL     1       1.844  53.193  -8.938  1.00  0.00     0.135 C 
HETATM   14  C23 UNL     1       1.523  52.439 -10.201  1.00  0.00    -0.093 C 
HETATM   15  C24 UNL     1       1.277  52.059 -11.319  1.00  0.00    -0.069 C 
HETATM   16  C25 UNL     1       1.061  51.949 -12.781  1.00  0.00     0.230 C 
HETATM   17  C26 UNL     1       0.150  50.834 -13.270  1.00  0.00    -0.011 A 
HETATM   18  C27 UNL     1       0.815  49.638 -13.636  1.00  0.00     0.012 A 
HETATM   19  C28 UNL     1       0.146  48.582 -14.261  1.00  0.00     0.012 A 
HETATM   20  C29 UNL     1      -1.216  48.675 -14.546  1.00  0.00     0.004 A 
HETATM   21  C31 UNL     1      -1.902  49.821 -14.118  1.00  0.00     0.019 A 
HETATM   22  C32 UNL     1      -1.256  50.907 -13.480  1.00  0.00    -0.043 A 
HETATM   23  C33 UNL     1      -2.175  52.039 -13.028  1.00  0.00     0.080 C 
HETATM   24  C34 UNL     1      -2.566  51.864 -11.597  1.00  0.00    -0.025 C 
HETATM   25  C35 UNL     1      -3.324  50.896 -11.025  1.00  0.00     0.096 C 
HETATM   26  N3  UNL     1      -3.168  50.748  -9.632  1.00  0.00    -0.364 N 
ATOM     27  H3  UNL     1      -3.631  50.098  -8.998  1.00  0.00     0.165 HD
HETATM   28  C36 UNL     1      -2.285  51.653  -9.370  1.00  0.00     0.060 C 
HETATM   29  C37 UNL     1      -1.467  52.042  -8.219  1.00  0.00     0.123 C 
HETATM   30  N4  UNL     1      -0.697  53.015  -8.587  1.00  0.00    -0.335 N 
HETATM   31  C38 UNL     1      -1.106  53.387  -9.989  1.00  0.00     0.107 C 
HETATM   32  C39 UNL     1      -1.919  52.472 -10.506  1.00  0.00     0.015 C 
HETATM   33  C40 UNL     1       0.565  53.513  -7.980  1.00  0.00     0.251 C 
HETATM   34  O6  UNL     1       0.496  54.872  -7.498  1.00  0.00    -0.321 OA
HETATM   35  C41 UNL     1       0.393  54.959  -6.123  1.00  0.00     0.106 A 
HETATM   36  C42 UNL     1      -0.874  54.743  -5.553  1.00  0.00     0.047 A 
ENDROOT
BRANCH   1  37
HETATM   37  C10 UNL     1      -2.448  54.696  -3.553  1.00  0.00     0.046 C 
BRANCH  37  38
HETATM   38  C9  UNL     1      -2.800  55.849  -2.613  1.00  0.00     0.083 C 
BRANCH  38  39
HETATM   39  C8  UNL     1      -4.293  56.082  -2.474  1.00  0.00     0.129 C 
HETATM   40  O3  UNL     1      -4.738  57.209  -2.256  1.00  0.00    -0.298 OA
BRANCH  39  41
HETATM   41  C7  UNL     1      -5.204  54.871  -2.554  1.00  0.00     0.110 C 
BRANCH  41  42
HETATM   42  C6  UNL     1      -6.533  55.122  -1.836  1.00  0.00     0.127 C 
BRANCH  42  43
HETATM   43  C5  UNL     1      -7.401  53.859  -1.791  1.00  0.00     0.063 C 
BRANCH  43  44
HETATM   44  C4  UNL     1      -8.912  54.139  -1.695  1.00  0.00     0.120 C 
BRANCH  44  45
HETATM   45  C3  UNL     1      -9.792  52.900  -1.919  1.00  0.00     0.031 C 
BRANCH  45  46
HETATM   46  C2  UNL     1     -10.634  52.940  -3.208  1.00  0.00    -0.002 C 
HETATM   47  C1  UNL     1     -12.138  52.959  -2.972  1.00  0.00     0.005 C 
ENDBRANCH  45  46
ENDBRANCH  44  45
BRANCH  44  48
HETATM   48  O1  UNL     1      -9.212  55.120  -2.688  1.00  0.00    -0.395 OA
HETATM   49  H9  UNL     1      -8.814  55.965  -2.414  1.00  0.00     0.210 HD
ENDBRANCH  44  48
ENDBRANCH  43  44
ENDBRANCH  42  43
BRANCH  42  50
HETATM   50  O2  UNL     1      -6.209  55.509  -0.497  1.00  0.00    -0.395 OA
HETATM   51  H13 UNL     1      -6.218  56.482  -0.457  1.00  0.00     0.210 HD
ENDBRANCH  42  50
ENDBRANCH  41  42
ENDBRANCH  39  41
ENDBRANCH  38  39
ENDBRANCH  37  38
ENDBRANCH   1  37
BRANCH  16  52
HETATM   52  O5  UNL     1       0.598  53.227 -13.221  1.00  0.00    -0.379 OA
HETATM   53  H32 UNL     1       1.387  53.684 -13.569  1.00  0.00     0.211 HD
ENDBRANCH  16  52
BRANCH  20  54
HETATM   54  C30 UNL     1      -1.911  47.546 -15.275  1.00  0.00     0.479 C 
BRANCH  54  55
HETATM   55  N1  UNL     1      -1.309  46.256 -15.028  1.00  0.00     0.116 N 
HETATM   56  H36 UNL     1      -1.564  45.969 -14.084  1.00  0.00     0.316 HD
HETATM   57  H37 UNL     1      -1.771  45.603 -15.657  1.00  0.00     0.316 HD
ENDBRANCH  54  55
BRANCH  54  58
HETATM   58  N2  UNL     1      -1.806  47.667 -16.698  1.00  0.00     0.116 N 
HETATM   59  H38 UNL     1      -0.825  47.565 -16.941  1.00  0.00     0.316 HD
HETATM   60  H39 UNL     1      -2.080  48.607 -16.978  1.00  0.00     0.316 HD
ENDBRANCH  54  58
ENDBRANCH  20  54
TORSDOF 15
ENDMDL
MODEL 3
REMARK minimizedAffinity -7.82643557
REMARK CNNscore 0.402803272
REMARK CNNaffinity 7.59730101
REMARK  15 active torsions:
REMARK  status: ('A' for Active; 'I' for Inactive)
REMARK    1  A    between atoms: C2_2  and  C3_3 
REMARK    2  A    between atoms: C3_3  and  C4_4 
REMARK    3  A    between atoms: C4_4  and  O1_5 
REMARK    4  A    between atoms: C4_4  and  C5_6 
REMARK    5  A    between atoms: C5_6  and  C6_7 
REMARK    6  A    between atoms: C6_7  and  O2_8 
REMARK    7  A    between atoms: C6_7  and  C7_9 
REMARK    8  A    between atoms: C7_9  and  C8_10 
REMARK    9  A    between atoms: C8_10  and  C9_12 
REMARK   10  A    between atoms: C9_12  and  C10_13 
REMARK   11  A    between atoms: C10_13  and  C11_14 
REMARK   12  A    between atoms: C25_29  and  O5_30 
REMARK   13  A    between atoms: C29_34  and  C30_35 
REMARK   14  A    between atoms: C30_35  and  N1_36 
REMARK   15  A    between atoms: C30_35  and  N2_37 
ROOT
HETATM    1  C11 UNL     1       0.690  52.113 -17.702  1.00  0.00    -0.055 A 
HETATM    2  C12 UNL     1       1.602  52.724 -18.565  1.00  0.00     0.010 A 
HETATM    3  C13 UNL     1       1.271  52.940 -19.900  1.00  0.00     0.041 A 
HETATM    4  C14 UNL     1       0.044  52.513 -20.414  1.00  0.00     0.120 A 
HETATM    5  O4  UNL     1      -0.131  52.907 -21.727  1.00  0.00    -0.258 OA
HETATM    6  C15 UNL     1      -1.103  52.281 -22.354  1.00  0.00     0.061 C 
HETATM    7  C16 UNL     1      -2.014  51.592 -22.701  1.00  0.00    -0.064 C 
HETATM    8  C17 UNL     1      -3.086  50.591 -22.660  1.00  0.00     0.044 C 
HETATM    9  C18 UNL     1      -3.393  50.128 -24.097  1.00  0.00     0.024 C 
HETATM   10  C19 UNL     1      -4.270  51.230 -24.694  1.00  0.00     0.002 C 
HETATM   11  C20 UNL     1      -4.922  51.946 -23.515  1.00  0.00     0.002 C 
HETATM   12  C21 UNL     1      -4.418  51.245 -22.251  1.00  0.00     0.024 C 
HETATM   13  C22 UNL     1      -2.600  49.434 -21.696  1.00  0.00     0.135 C 
HETATM   14  C23 UNL     1      -3.613  48.322 -21.700  1.00  0.00    -0.093 C 
HETATM   15  C24 UNL     1      -4.589  47.614 -21.733  1.00  0.00    -0.069 C 
HETATM   16  C25 UNL     1      -5.959  47.065 -21.872  1.00  0.00     0.230 C 
HETATM   17  C26 UNL     1      -6.274  45.779 -21.127  1.00  0.00    -0.011 A 
HETATM   18  C27 UNL     1      -6.107  44.593 -21.885  1.00  0.00     0.012 A 
HETATM   19  C28 UNL     1      -6.513  43.346 -21.406  1.00  0.00     0.012 A 
HETATM   20  C29 UNL     1      -7.104  43.227 -20.149  1.00  0.00     0.004 A 
HETATM   21  C31 UNL     1      -7.204  44.380 -19.356  1.00  0.00     0.019 A 
HETATM   22  C32 UNL     1      -6.800  45.658 -19.810  1.00  0.00    -0.043 A 
HETATM   23  C33 UNL     1      -6.925  46.784 -18.785  1.00  0.00     0.080 C 
HETATM   24  C34 UNL     1      -5.630  46.996 -18.070  1.00  0.00    -0.025 C 
HETATM   25  C35 UNL     1      -4.973  46.169 -17.219  1.00  0.00     0.096 C 
HETATM   26  N3  UNL     1      -3.602  46.445 -17.045  1.00  0.00    -0.364 N 
ATOM     27  H3  UNL     1      -2.918  45.966 -16.459  1.00  0.00     0.165 HD
HETATM   28  C36 UNL     1      -3.439  47.464 -17.821  1.00  0.00     0.060 C 
HETATM   29  C37 UNL     1      -2.310  48.243 -18.334  1.00  0.00     0.123 C 
HETATM   30  N4  UNL     1      -2.777  49.134 -19.149  1.00  0.00    -0.335 N 
HETATM   31  C38 UNL     1      -4.280  49.046 -19.075  1.00  0.00     0.107 C 
HETATM   32  C39 UNL     1      -4.660  47.949 -18.428  1.00  0.00     0.015 C 
HETATM   33  C40 UNL     1      -2.088  49.899 -20.221  1.00  0.00     0.251 C 
HETATM   34  O6  UNL     1      -2.068  51.327 -20.010  1.00  0.00    -0.321 OA
HETATM   35  C41 UNL     1      -0.842  51.799 -19.583  1.00  0.00     0.106 A 
HETATM   36  C42 UNL     1      -0.525  51.642 -18.222  1.00  0.00     0.047 A 
ENDROOT
BRANCH   1  37
HETATM   37  C10 UNL     1       1.000  52.031 -16.221  1.00  0.00     0.046 C 
BRANCH  37  38
HETATM   38  C9  UNL     1       0.573  50.702 -15.597  1.00  0.00     0.083 C 
BRANCH  38  39
HETATM   39  C8  UNL     1       1.615  50.109 -14.666  1.00  0.00     0.129 C 
HETATM   40  O3  UNL     1       1.517  48.948 -14.267  1.00  0.00    -0.298 OA
BRANCH  39  41
HETATM   41  C7  UNL     1       2.739  51.016 -14.201  1.00  0.00     0.110 C 
BRANCH  41  42
HETATM   42  C6  UNL     1       2.688  51.239 -12.687  1.00  0.00     0.127 C 
BRANCH  42  43
HETATM   43  C5  UNL     1       3.819  50.498 -11.965  1.00  0.00     0.063 C 
BRANCH  43  44
HETATM   44  C4  UNL     1       3.371  49.208 -11.253  1.00  0.00     0.120 C 
BRANCH  44  45
HETATM   45  C3  UNL     1       4.205  48.857 -10.012  1.00  0.00     0.031 C 
BRANCH  45  46
HETATM   46  C2  UNL     1       4.973  50.045  -9.402  1.00  0.00    -0.002 C 
HETATM   47  C1  UNL     1       4.539  50.413  -7.991  1.00  0.00     0.005 C 
ENDBRANCH  45  46
ENDBRANCH  44  45
BRANCH  44  48
HETATM   48  O1  UNL     1       3.478  48.153 -12.210  1.00  0.00    -0.395 OA
HETATM   49  H9  UNL     1       2.790  48.281 -12.886  1.00  0.00     0.210 HD
ENDBRANCH  44  48
ENDBRANCH  43  44
ENDBRANCH  42  43
BRANCH  42  50
HETATM   50  O2  UNL     1       2.847  52.645 -12.474  1.00  0.00    -0.395 OA
HETATM   51  H13 UNL     1       1.959  53.033 -12.373  1.00  0.00     0.210 HD
ENDBRANCH  42  50
ENDBRANCH  41  42
ENDBRANCH  39  41
ENDBRANCH  38  39
ENDBRANCH  37  38
ENDBRANCH   1  37
BRANCH  16  52
HETATM   52  O5  UNL     1      -6.855  48.114 -21.499  1.00  0.00    -0.379 OA
HETATM   53  H32 UNL     1      -7.144  48.521 -22.337  1.00  0.00     0.211 HD
ENDBRANCH  16  52
BRANCH  20  54
HETATM   54  C30 UNL     1      -7.591  41.876 -19.670  1.00  0.00     0.479 C 
BRANCH  54  55
HETATM   55  N1  UNL     1      -8.220  41.099 -20.712  1.00  0.00     0.116 N 
HETATM   56  H36 UNL     1      -7.486  40.753 -21.329  1.00  0.00     0.316 HD
HETATM   57  H37 UNL     1      -8.614  40.279 -20.255  1.00  0.00     0.316 HD
ENDBRANCH  54  55
BRANCH  54  58
HETATM   58  N2  UNL     1      -8.635  41.986 -18.695  1.00  0.00     0.116 N 
HETATM   59  H38 UNL     1      -9.439  42.401 -19.156  1.00  0.00     0.316 HD
HETATM   60  H39 UNL     1      -8.348  42.635 -17.966  1.00  0.00     0.316 HD
ENDBRANCH  54  58
ENDBRANCH  20  54
TORSDOF 15
ENDMDL
MODEL 4
REMARK minimizedAffinity -7.91130829
REMARK CNNscore 0.305514097
REMARK CNNaffinity 7.55582952
REMARK  15 active torsions:
REMARK  status: ('A' for Active; 'I' for Inactive)
REMARK    1  A    between atoms: C2_2  and  C3_3 
REMARK    2  A    between atoms: C3_3  and  C4_4 
REMARK    3  A    between atoms: C4_4  and  O1_5 
REMARK    4  A    between atoms: C4_4  and  C5_6 
REMARK    5  A    between atoms: C5_6  and  C6_7 
REMARK    6  A    between atoms: C6_7  and  O2_8 
REMARK    7  A    between atoms: C6_7  and  C7_9 
REMARK    8  A    between atoms: C7_9  and  C8_10 
REMARK    9  A    between atoms: C8_10  and  C9_12 
REMARK   10  A    between atoms: C9_12  and  C10_13 
REMARK   11  A    between atoms: C10_13  and  C11_14 
REMARK   12  A    between atoms: C25_29  and  O5_30 
REMARK   13  A    between atoms: C29_34  and  C30_35 
REMARK   14  A    between atoms: C30_35  and  N1_36 
REMARK   15  A    between atoms: C30_35  and  N2_37 
ROOT
HETATM    1  C11 UNL     1       0.715  52.449 -18.163  1.00  0.00    -0.055 A 
HETATM    2  C12 UNL     1       1.656  52.963 -19.059  1.00  0.00     0.010 A 
HETATM    3  C13 UNL     1       1.366  53.036 -20.418  1.00  0.00     0.041 A 
HETATM    4  C14 UNL     1       0.153  52.558 -20.921  1.00  0.00     0.120 A 
HETATM    5  O4  UNL     1       0.019  52.810 -22.273  1.00  0.00    -0.258 OA
HETATM    6  C15 UNL     1      -0.937  52.121 -22.859  1.00  0.00     0.061 C 
HETATM    7  C16 UNL     1      -1.840  51.400 -23.157  1.00  0.00    -0.064 C 
HETATM    8  C17 UNL     1      -2.917  50.411 -23.042  1.00  0.00     0.044 C 
HETATM    9  C18 UNL     1      -3.183  49.797 -24.431  1.00  0.00     0.024 C 
HETATM   10  C19 UNL     1      -4.036  50.831 -25.168  1.00  0.00     0.002 C 
HETATM   11  C20 UNL     1      -4.720  51.670 -24.093  1.00  0.00     0.002 C 
HETATM   12  C21 UNL     1      -4.258  51.107 -22.746  1.00  0.00     0.024 C 
HETATM   13  C22 UNL     1      -2.465  49.363 -21.947  1.00  0.00     0.135 C 
HETATM   14  C23 UNL     1      -3.483  48.258 -21.862  1.00  0.00    -0.093 C 
HETATM   15  C24 UNL     1      -4.461  47.552 -21.850  1.00  0.00    -0.069 C 
HETATM   16  C25 UNL     1      -5.829  46.994 -21.971  1.00  0.00     0.230 C 
HETATM   17  C26 UNL     1      -6.172  45.794 -21.103  1.00  0.00    -0.011 A 
HETATM   18  C27 UNL     1      -5.988  44.535 -21.724  1.00  0.00     0.012 A 
HETATM   19  C28 UNL     1      -6.414  43.346 -21.128  1.00  0.00     0.012 A 
HETATM   20  C29 UNL     1      -7.043  43.363 -19.883  1.00  0.00     0.004 A 
HETATM   21  C31 UNL     1      -7.161  44.594 -19.222  1.00  0.00     0.019 A 
HETATM   22  C32 UNL     1      -6.738  45.816 -19.797  1.00  0.00    -0.043 A 
HETATM   23  C33 UNL     1      -6.888  47.045 -18.902  1.00  0.00     0.080 C 
HETATM   24  C34 UNL     1      -5.615  47.330 -18.175  1.00  0.00    -0.025 C 
HETATM   25  C35 UNL     1      -4.987  46.598 -17.221  1.00  0.00     0.096 C 
HETATM   26  N3  UNL     1      -3.621  46.889 -17.036  1.00  0.00    -0.364 N 
ATOM     27  H3  UNL     1      -2.957  46.475 -16.381  1.00  0.00     0.165 HD
HETATM   28  C36 UNL     1      -3.430  47.819 -17.911  1.00  0.00     0.060 C 
HETATM   29  C37 UNL     1      -2.283  48.537 -18.470  1.00  0.00     0.123 C 
HETATM   30  N4  UNL     1      -2.721  49.337 -19.389  1.00  0.00    -0.335 N 
HETATM   31  C38 UNL     1      -4.225  49.259 -19.351  1.00  0.00     0.107 C 
HETATM   32  C39 UNL     1      -4.630  48.239 -18.603  1.00  0.00     0.015 C 
HETATM   33  C40 UNL     1      -1.996  49.983 -20.514  1.00  0.00     0.251 C 
HETATM   34  O6  UNL     1      -1.976  51.425 -20.457  1.00  0.00    -0.321 OA
HETATM   35  C41 UNL     1      -0.761  51.938 -20.045  1.00  0.00     0.106 A 
HETATM   36  C42 UNL     1      -0.486  51.927 -18.667  1.00  0.00     0.047 A 
ENDROOT
BRANCH   1  37
HETATM   37  C10 UNL     1       0.980  52.525 -16.673  1.00  0.00     0.046 C 
BRANCH  37  38
HETATM   38  C9  UNL     1       1.535  51.221 -16.101  1.00  0.00     0.083 C 
BRANCH  38  39
HETATM   39  C8  UNL     1       2.017  51.346 -14.667  1.00  0.00     0.129 C 
HETATM   40  O3  UNL     1       3.122  51.826 -14.411  1.00  0.00    -0.298 OA
BRANCH  39  41
HETATM   41  C7  UNL     1       1.115  50.805 -13.573  1.00  0.00     0.110 C 
BRANCH  41  42
HETATM   42  C6  UNL     1       0.382  49.540 -14.027  1.00  0.00     0.127 C 
BRANCH  42  43
HETATM   43  C5  UNL     1       1.040  48.272 -13.470  1.00  0.00     0.063 C 
BRANCH  43  44
HETATM   44  C4  UNL     1       2.160  47.703 -14.359  1.00  0.00     0.120 C 
BRANCH  44  45
HETATM   45  C3  UNL     1       2.060  46.189 -14.600  1.00  0.00     0.031 C 
BRANCH  45  46
HETATM   46  C2  UNL     1       3.026  45.342 -13.751  1.00  0.00    -0.002 C 
HETATM   47  C1  UNL     1       2.414  44.785 -12.474  1.00  0.00     0.005 C 
ENDBRANCH  45  46
ENDBRANCH  44  45
BRANCH  44  48
HETATM   48  O1  UNL     1       3.394  47.998 -13.704  1.00  0.00    -0.395 OA
HETATM   49  H9  UNL     1       3.543  48.959 -13.749  1.00  0.00     0.210 HD
ENDBRANCH  44  48
ENDBRANCH  43  44
ENDBRANCH  42  43
BRANCH  42  50
HETATM   50  O2  UNL     1      -0.951  49.632 -13.516  1.00  0.00    -0.395 OA
HETATM   51  H13 UNL     1      -1.518  49.989 -14.223  1.00  0.00     0.210 HD
ENDBRANCH  42  50
ENDBRANCH  41  42
ENDBRANCH  39  41
ENDBRANCH  38  39
ENDBRANCH  37  38
ENDBRANCH   1  37
BRANCH  16  52
HETATM   52  O5  UNL     1      -6.731  48.077 -21.739  1.00  0.00    -0.379 OA
HETATM   53  H32 UNL     1      -6.992  48.393 -22.625  1.00  0.00     0.211 HD
ENDBRANCH  16  52
BRANCH  20  54
HETATM   54  C30 UNL     1      -7.551  42.072 -19.278  1.00  0.00     0.479 C 
BRANCH  54  55
HETATM   55  N1  UNL     1      -7.638  40.994 -20.236  1.00  0.00     0.116 N 
HETATM   56  H36 UNL     1      -6.691  40.674 -20.432  1.00  0.00     0.316 HD
HETATM   57  H37 UNL     1      -8.102  40.225 -19.755  1.00  0.00     0.316 HD
ENDBRANCH  54  55
BRANCH  54  58
HETATM   58  N2  UNL     1      -8.900  42.180 -18.812  1.00  0.00     0.116 N 
HETATM   59  H38 UNL     1      -9.491  42.334 -19.623  1.00  0.00     0.316 HD
HETATM   60  H39 UNL     1      -8.989  43.007 -18.225  1.00  0.00     0.316 HD
ENDBRANCH  54  58
ENDBRANCH  20  54
TORSDOF 15
ENDMDL
MODEL 5
REMARK minimizedAffinity -9.99229622
REMARK CNNscore 0.28750968
REMARK CNNaffinity 8.00798416
REMARK  15 active torsions:
REMARK  status: ('A' for Active; 'I' for Inactive)
REMARK    1  A    between atoms: C2_2  and  C3_3 
REMARK    2  A    between atoms: C3_3  and  C4_4 
REMARK    3  A    between atoms: C4_4  and  O1_5 
REMARK    4  A    between atoms: C4_4  and  C5_6 
REMARK    5  A    between atoms: C5_6  and  C6_7 
REMARK    6  A    between atoms: C6_7  and  O2_8 
REMARK    7  A    between atoms: C6_7  and  C7_9 
REMARK    8  A    between atoms: C7_9  and  C8_10 
REMARK    9  A    between atoms: C8_10  and  C9_12 
REMARK   10  A    between atoms: C9_12  and  C10_13 
REMARK   11  A    between atoms: C10_13  and  C11_14 
REMARK   12  A    between atoms: C25_29  and  O5_30 
REMARK   13  A    between atoms: C29_34  and  C30_35 
REMARK   14  A    between atoms: C30_35  and  N1_36 
REMARK   15  A    between atoms: C30_35  and  N2_37 
ROOT
HETATM    1  C11 UNL     1       0.465  52.678 -22.240  1.00  0.00    -0.055 A 
HETATM    2  C12 UNL     1       0.934  53.851 -21.644  1.00  0.00     0.010 A 
HETATM    3  C13 UNL     1       1.152  53.903 -20.270  1.00  0.00     0.041 A 
HETATM    4  C14 UNL     1       0.866  52.804 -19.455  1.00  0.00     0.120 A 
HETATM    5  O4  UNL     1       1.242  53.022 -18.144  1.00  0.00    -0.258 OA
HETATM    6  C15 UNL     1       0.723  52.172 -17.284  1.00  0.00     0.061 C 
HETATM    7  C16 UNL     1       0.143  51.300 -16.712  1.00  0.00    -0.064 C 
HETATM    8  C17 UNL     1      -0.716  50.136 -16.470  1.00  0.00     0.044 C 
HETATM    9  C18 UNL     1      -1.177  50.150 -15.000  1.00  0.00     0.024 C 
HETATM   10  C19 UNL     1       0.008  49.602 -14.203  1.00  0.00     0.002 C 
HETATM   11  C20 UNL     1       0.832  48.766 -15.178  1.00  0.00     0.002 C 
HETATM   12  C21 UNL     1       0.109  48.837 -16.526  1.00  0.00     0.024 C 
HETATM   13  C22 UNL     1      -1.896  50.208 -17.521  1.00  0.00     0.135 C 
HETATM   14  C23 UNL     1      -2.874  49.097 -17.251  1.00  0.00    -0.093 C 
HETATM   15  C24 UNL     1      -3.457  48.080 -16.963  1.00  0.00    -0.069 C 
HETATM   16  C25 UNL     1      -3.835  46.733 -16.474  1.00  0.00     0.230 C 
HETATM   17  C26 UNL     1      -5.052  46.077 -17.106  1.00  0.00    -0.011 A 
HETATM   18  C27 UNL     1      -6.269  46.282 -16.411  1.00  0.00     0.012 A 
HETATM   19  C28 UNL     1      -7.443  45.612 -16.763  1.00  0.00     0.012 A 
HETATM   20  C29 UNL     1      -7.453  44.708 -17.825  1.00  0.00     0.004 A 
HETATM   21  C31 UNL     1      -6.275  44.556 -18.571  1.00  0.00     0.019 A 
HETATM   22  C32 UNL     1      -5.069  45.221 -18.244  1.00  0.00    -0.043 A 
HETATM   23  C33 UNL     1      -3.909  44.982 -19.207  1.00  0.00     0.080 C 
HETATM   24  C34 UNL     1      -3.839  46.067 -20.232  1.00  0.00    -0.025 C 
HETATM   25  C35 UNL     1      -4.717  46.374 -21.219  1.00  0.00     0.096 C 
HETATM   26  N3  UNL     1      -4.608  47.678 -21.742  1.00  0.00    -0.364 N 
ATOM     27  H3  UNL     1      -5.151  48.123 -22.482  1.00  0.00     0.165 HD
HETATM   28  C36 UNL     1      -3.639  48.162 -21.039  1.00  0.00     0.060 C 
HETATM   29  C37 UNL     1      -3.020  49.474 -20.838  1.00  0.00     0.123 C 
HETATM   30  N4  UNL     1      -2.101  49.348 -19.935  1.00  0.00    -0.335 N 
HETATM   31  C38 UNL     1      -2.001  47.878 -19.619  1.00  0.00     0.107 C 
HETATM   32  C39 UNL     1      -3.023  47.209 -20.141  1.00  0.00     0.015 C 
HETATM   33  C40 UNL     1      -1.457  50.380 -19.081  1.00  0.00     0.251 C 
HETATM   34  O6  UNL     1      -0.038  50.526 -19.296  1.00  0.00    -0.321 OA
HETATM   35  C41 UNL     1       0.291  51.652 -20.027  1.00  0.00     0.106 A 
HETATM   36  C42 UNL     1       0.134  51.587 -21.423  1.00  0.00     0.047 A 
ENDROOT
BRANCH   1  37
HETATM   37  C10 UNL     1       0.386  52.585 -23.751  1.00  0.00     0.046 C 
BRANCH  37  38
HETATM   38  C9  UNL     1      -1.051  52.532 -24.269  1.00  0.00     0.083 C 
BRANCH  38  39
HETATM   39  C8  UNL     1      -1.439  51.179 -24.838  1.00  0.00     0.129 C 
HETATM   40  O3  UNL     1      -1.909  50.301 -24.114  1.00  0.00    -0.298 OA
BRANCH  39  41
HETATM   41  C7  UNL     1      -1.169  50.933 -26.311  1.00  0.00     0.110 C 
BRANCH  41  42
HETATM   42  C6  UNL     1      -2.205  51.634 -27.194  1.00  0.00     0.127 C 
BRANCH  42  43
HETATM   43  C5  UNL     1      -1.741  53.036 -27.608  1.00  0.00     0.063 C 
BRANCH  43  44
HETATM   44  C4  UNL     1      -0.252  53.118 -27.991  1.00  0.00     0.120 C 
BRANCH  44  45
HETATM   45  C3  UNL     1       0.483  51.771 -27.932  1.00  0.00     0.031 C 
BRANCH  45  46
HETATM   46  C2  UNL     1       2.008  51.883 -27.751  1.00  0.00    -0.002 C 
HETATM   47  C1  UNL     1       2.537  51.232 -26.481  1.00  0.00     0.005 C 
ENDBRANCH  45  46
ENDBRANCH  44  45
BRANCH  44  48
HETATM   48  O1  UNL     1       0.357  54.031 -27.077  1.00  0.00    -0.395 OA
HETATM   49  H9  UNL     1       0.029  54.926 -27.274  1.00  0.00     0.210 HD
ENDBRANCH  44  48
ENDBRANCH  43  44
ENDBRANCH  42  43
BRANCH  42  50
HETATM   50  O2  UNL     1      -2.353  50.831 -28.369  1.00  0.00    -0.395 OA
HETATM   51  H13 UNL     1      -3.128  50.255 -28.240  1.00  0.00     0.210 HD
ENDBRANCH  42  50
ENDBRANCH  41  42
ENDBRANCH  39  41
ENDBRANCH  38  39
ENDBRANCH  37  38
ENDBRANCH   1  37
BRANCH  16  52
HETATM   52  O5  UNL     1      -2.674  45.912 -16.610  1.00  0.00    -0.379 OA
HETATM   53  H32 UNL     1      -2.258  45.902 -15.727  1.00  0.00     0.211 HD
ENDBRANCH  16  52
BRANCH  20  54
HETATM   54  C30 UNL     1      -8.719  43.948 -18.156  1.00  0.00     0.479 C 
BRANCH  54  55
HETATM   55  N1  UNL     1      -9.157  43.085 -17.084  1.00  0.00     0.116 N 
HETATM   56  H36 UNL     1      -9.555  43.673 -16.352  1.00  0.00     0.316 HD
HETATM   57  H37 UNL     1      -9.931  42.539 -17.458  1.00  0.00     0.316 HD
ENDBRANCH  54  55
BRANCH  54  58
HETATM   58  N2  UNL     1      -8.537  43.028 -19.238  1.00  0.00     0.116 N 
HETATM   59  H38 UNL     1      -7.884  42.315 -18.925  1.00  0.00     0.316 HD
HETATM   60  H39 UNL     1      -8.095  43.507 -20.018  1.00  0.00     0.316 HD
ENDBRANCH  54  58
ENDBRANCH  20  54
TORSDOF 15
ENDMDL
MODEL 6
REMARK minimizedAffinity -11.318965
REMARK CNNscore 0.287314236
REMARK CNNaffinity 7.8589406
REMARK  15 active torsions:
REMARK  status: ('A' for Active; 'I' for Inactive)
REMARK    1  A    between atoms: C2_2  and  C3_3 
REMARK    2  A    between atoms: C3_3  and  C4_4 
REMARK    3  A    between atoms: C4_4  and  O1_5 
REMARK    4  A    between atoms: C4_4  and  C5_6 
REMARK    5  A    between atoms: C5_6  and  C6_7 
REMARK    6  A    between atoms: C6_7  and  O2_8 
REMARK    7  A    between atoms: C6_7  and  C7_9 
REMARK    8  A    between atoms: C7_9  and  C8_10 
REMARK    9  A    between atoms: C8_10  and  C9_12 
REMARK   10  A    between atoms: C9_12  and  C10_13 
REMARK   11  A    between atoms: C10_13  and  C11_14 
REMARK   12  A    between atoms: C25_29  and  O5_30 
REMARK   13  A    between atoms: C29_34  and  C30_35 
REMARK   14  A    between atoms: C30_35  and  N1_36 
REMARK   15  A    between atoms: C30_35  and  N2_37 
ROOT
HETATM    1  C11 UNL     1       0.670  53.481 -23.756  1.00  0.00    -0.055 A 
HETATM    2  C12 UNL     1       1.334  54.447 -22.996  1.00  0.00     0.010 A 
HETATM    3  C13 UNL     1       1.417  54.320 -21.613  1.00  0.00     0.041 A 
HETATM    4  C14 UNL     1       0.802  53.252 -20.952  1.00  0.00     0.120 A 
HETATM    5  O4  UNL     1       1.083  53.254 -19.599  1.00  0.00    -0.258 OA
HETATM    6  C15 UNL     1       0.296  52.479 -18.883  1.00  0.00     0.061 C 
HETATM    7  C16 UNL     1      -0.525  51.724 -18.459  1.00  0.00    -0.064 C 
HETATM    8  C17 UNL     1      -1.650  50.783 -18.418  1.00  0.00     0.044 C 
HETATM    9  C18 UNL     1      -2.243  50.775 -16.996  1.00  0.00     0.024 C 
HETATM   10  C19 UNL     1      -1.305  49.888 -16.175  1.00  0.00     0.002 C 
HETATM   11  C20 UNL     1      -0.601  48.970 -17.171  1.00  0.00     0.002 C 
HETATM   12  C21 UNL     1      -1.147  49.335 -18.555  1.00  0.00     0.024 C 
HETATM   13  C22 UNL     1      -2.668  51.233 -19.542  1.00  0.00     0.135 C 
HETATM   14  C23 UNL     1      -3.899  50.370 -19.476  1.00  0.00    -0.093 C 
HETATM   15  C24 UNL     1      -4.727  49.501 -19.351  1.00  0.00    -0.069 C 
HETATM   16  C25 UNL     1      -5.454  48.246 -19.047  1.00  0.00     0.230 C 
HETATM   17  C26 UNL     1      -6.719  47.963 -19.842  1.00  0.00    -0.011 A 
HETATM   18  C27 UNL     1      -7.920  48.390 -19.225  1.00  0.00     0.012 A 
HETATM   19  C28 UNL     1      -9.175  48.057 -19.740  1.00  0.00     0.012 A 
HETATM   20  C29 UNL     1      -9.285  47.282 -20.895  1.00  0.00     0.004 A 
HETATM   21  C31 UNL     1      -8.104  46.920 -21.559  1.00  0.00     0.019 A 
HETATM   22  C32 UNL     1      -6.817  47.243 -21.066  1.00  0.00    -0.043 A 
HETATM   23  C33 UNL     1      -5.651  46.820 -21.957  1.00  0.00     0.080 C 
HETATM   24  C34 UNL     1      -5.229  47.945 -22.845  1.00  0.00    -0.025 C 
HETATM   25  C35 UNL     1      -5.906  48.543 -23.857  1.00  0.00     0.096 C 
HETATM   26  N3  UNL     1      -5.445  49.824 -24.219  1.00  0.00    -0.364 N 
ATOM     27  H3  UNL     1      -5.792  50.452 -24.945  1.00  0.00     0.165 HD
HETATM   28  C36 UNL     1      -4.468  49.995 -23.393  1.00  0.00     0.060 C 
HETATM   29  C37 UNL     1      -3.586  51.095 -22.998  1.00  0.00     0.123 C 
HETATM   30  N4  UNL     1      -2.818  50.670 -22.046  1.00  0.00    -0.335 N 
HETATM   31  C38 UNL     1      -3.094  49.197 -21.891  1.00  0.00     0.107 C 
HETATM   32  C39 UNL     1      -4.184  48.844 -22.563  1.00  0.00     0.015 C 
HETATM   33  C40 UNL     1      -2.044  51.435 -21.034  1.00  0.00     0.251 C 
HETATM   34  O6  UNL     1      -0.615  51.254 -21.121  1.00  0.00    -0.321 OA
HETATM   35  C41 UNL     1       0.038  52.330 -21.693  1.00  0.00     0.106 A 
HETATM   36  C42 UNL     1       0.014  52.432 -23.094  1.00  0.00     0.047 A 
ENDROOT
BRANCH   1  37
HETATM   37  C10 UNL     1       0.727  53.547 -25.269  1.00  0.00     0.046 C 
BRANCH  37  38
HETATM   38  C9  UNL     1       0.748  52.166 -25.924  1.00  0.00     0.083 C 
BRANCH  38  39
HETATM   39  C8  UNL     1       0.267  52.172 -27.364  1.00  0.00     0.129 C 
HETATM   40  O3  UNL     1       0.816  51.474 -28.216  1.00  0.00    -0.298 OA
BRANCH  39  41
HETATM   41  C7  UNL     1      -0.869  53.112 -27.720  1.00  0.00     0.110 C 
BRANCH  41  42
HETATM   42  C6  UNL     1      -2.232  52.478 -27.430  1.00  0.00     0.127 C 
BRANCH  42  43
HETATM   43  C5  UNL     1      -2.145  50.949 -27.366  1.00  0.00     0.063 C 
BRANCH  43  44
HETATM   44  C4  UNL     1      -3.427  50.227 -27.818  1.00  0.00     0.120 C 
BRANCH  44  45
HETATM   45  C3  UNL     1      -3.442  48.723 -27.506  1.00  0.00     0.031 C 
BRANCH  45  46
HETATM   46  C2  UNL     1      -4.842  48.138 -27.247  1.00  0.00    -0.002 C 
HETATM   47  C1  UNL     1      -5.614  47.781 -28.509  1.00  0.00     0.005 C 
ENDBRANCH  45  46
ENDBRANCH  44  45
BRANCH  44  48
HETATM   48  O1  UNL     1      -3.531  50.419 -29.230  1.00  0.00    -0.395 OA
HETATM   49  H9  UNL     1      -3.735  51.356 -29.397  1.00  0.00     0.210 HD
ENDBRANCH  44  48
ENDBRANCH  43  44
ENDBRANCH  42  43
BRANCH  42  50
HETATM   50  O2  UNL     1      -2.651  52.971 -26.154  1.00  0.00    -0.395 OA
HETATM   51  H13 UNL     1      -3.244  53.728 -26.306  1.00  0.00     0.210 HD
ENDBRANCH  42  50
ENDBRANCH  41  42
ENDBRANCH  39  41
ENDBRANCH  38  39
ENDBRANCH  37  38
ENDBRANCH   1  37
BRANCH  16  52
HETATM   52  O5  UNL     1      -4.507  47.185 -19.183  1.00  0.00    -0.379 OA
HETATM   53  H32 UNL     1      -4.197  46.995 -18.278  1.00  0.00     0.211 HD
ENDBRANCH  16  52
BRANCH  20  54
HETATM   54  C30 UNL     1     -10.652  46.882 -21.406  1.00  0.00     0.479 C 
BRANCH  54  55
HETATM   55  N1  UNL     1     -11.684  46.980 -20.400  1.00  0.00     0.116 N 
HETATM   56  H36 UNL     1     -11.889  47.969 -20.260  1.00  0.00     0.316 HD
HETATM   57  H37 UNL     1     -12.521  46.574 -20.813  1.00  0.00     0.316 HD
ENDBRANCH  54  55
BRANCH  54  58
HETATM   58  N2  UNL     1     -10.714  45.501 -21.777  1.00  0.00     0.116 N 
HETATM   59  H38 UNL     1     -10.585  44.952 -20.932  1.00  0.00     0.316 HD
HETATM   60  H39 UNL     1      -9.932  45.280 -22.390  1.00  0.00     0.316 HD
ENDBRANCH  54  58
ENDBRANCH  20  54
TORSDOF 15
ENDMDL
MODEL 7
REMARK minimizedAffinity -9.45020294
REMARK CNNscore 0.20568569
REMARK CNNaffinity 6.87349129
REMARK  15 active torsions:
REMARK  status: ('A' for Active; 'I' for Inactive)
REMARK    1  A    between atoms: C2_2  and  C3_3 
REMARK    2  A    between atoms: C3_3  and  C4_4 
REMARK    3  A    between atoms: C4_4  and  O1_5 
REMARK    4  A    between atoms: C4_4  and  C5_6 
REMARK    5  A    between atoms: C5_6  and  C6_7 
REMARK    6  A    between atoms: C6_7  and  O2_8 
REMARK    7  A    between atoms: C6_7  and  C7_9 
REMARK    8  A    between atoms: C7_9  and  C8_10 
REMARK    9  A    between atoms: C8_10  and  C9_12 
REMARK   10  A    between atoms: C9_12  and  C10_13 
REMARK   11  A    between atoms: C10_13  and  C11_14 
REMARK   12  A    between atoms: C25_29  and  O5_30 
REMARK   13  A    between atoms: C29_34  and  C30_35 
REMARK   14  A    between atoms: C30_35  and  N1_36 
REMARK   15  A    between atoms: C30_35  and  N2_37 
ROOT
HETATM    1  C11 UNL     1      -4.971  48.181 -27.297  1.00  0.00    -0.055 A 
HETATM    2  C12 UNL     1      -5.387  48.441 -25.990  1.00  0.00     0.010 A 
HETATM    3  C13 UNL     1      -6.543  47.848 -25.488  1.00  0.00     0.041 A 
HETATM    4  C14 UNL     1      -7.332  47.021 -26.292  1.00  0.00     0.120 A 
HETATM    5  O4  UNL     1      -8.375  46.457 -25.583  1.00  0.00    -0.258 OA
HETATM    6  C15 UNL     1      -9.319  45.932 -26.336  1.00  0.00     0.061 C 
HETATM    7  C16 UNL     1     -10.026  45.534 -27.210  1.00  0.00    -0.064 C 
HETATM    8  C17 UNL     1     -10.533  45.243 -28.556  1.00  0.00     0.044 C 
HETATM    9  C18 UNL     1     -12.059  45.040 -28.483  1.00  0.00     0.024 C 
HETATM   10  C19 UNL     1     -12.249  43.614 -27.963  1.00  0.00     0.002 C 
HETATM   11  C20 UNL     1     -10.968  42.858 -28.304  1.00  0.00     0.002 C 
HETATM   12  C21 UNL     1     -10.055  43.856 -29.023  1.00  0.00     0.024 C 
HETATM   13  C22 UNL     1     -10.082  46.440 -29.487  1.00  0.00     0.135 C 
HETATM   14  C23 UNL     1     -10.668  46.252 -30.861  1.00  0.00    -0.093 C 
HETATM   15  C24 UNL     1     -11.109  45.860 -31.913  1.00  0.00    -0.069 C 
HETATM   16  C25 UNL     1     -11.627  45.043 -33.036  1.00  0.00     0.230 C 
HETATM   17  C26 UNL     1     -11.524  45.633 -34.433  1.00  0.00    -0.011 A 
HETATM   18  C27 UNL     1     -12.678  46.328 -34.874  1.00  0.00     0.012 A 
HETATM   19  C28 UNL     1     -12.810  46.781 -36.188  1.00  0.00     0.012 A 
HETATM   20  C29 UNL     1     -11.796  46.561 -37.120  1.00  0.00     0.004 A 
HETATM   21  C31 UNL     1     -10.616  45.945 -36.677  1.00  0.00     0.019 A 
HETATM   22  C32 UNL     1     -10.449  45.476 -35.352  1.00  0.00    -0.043 A 
HETATM   23  C33 UNL     1      -9.074  44.890 -35.036  1.00  0.00     0.080 C 
HETATM   24  C34 UNL     1      -8.185  45.925 -34.428  1.00  0.00    -0.025 C 
HETATM   25  C35 UNL     1      -7.678  47.056 -34.981  1.00  0.00     0.096 C 
HETATM   26  N3  UNL     1      -7.240  48.033 -34.065  1.00  0.00    -0.364 N 
ATOM     27  H3  UNL     1      -6.826  48.947 -34.248  1.00  0.00     0.165 HD
HETATM   28  C36 UNL     1      -7.500  47.468 -32.934  1.00  0.00     0.060 C 
HETATM   29  C37 UNL     1      -7.505  47.860 -31.523  1.00  0.00     0.123 C 
HETATM   30  N4  UNL     1      -7.928  46.853 -30.829  1.00  0.00    -0.335 N 
HETATM   31  C38 UNL     1      -8.080  45.699 -31.787  1.00  0.00     0.107 C 
HETATM   32  C39 UNL     1      -7.995  46.113 -33.047  1.00  0.00     0.015 C 
HETATM   33  C40 UNL     1      -8.496  46.812 -29.456  1.00  0.00     0.251 C 
HETATM   34  O6  UNL     1      -7.714  46.049 -28.514  1.00  0.00    -0.321 OA
HETATM   35  C41 UNL     1      -6.984  46.837 -27.644  1.00  0.00     0.106 A 
HETATM   36  C42 UNL     1      -5.783  47.388 -28.122  1.00  0.00     0.047 A 
ENDROOT
BRANCH   1  37
HETATM   37  C10 UNL     1      -3.631  48.703 -27.774  1.00  0.00     0.046 C 
BRANCH  37  38
HETATM   38  C9  UNL     1      -3.536  50.228 -27.729  1.00  0.00     0.083 C 
BRANCH  38  39
HETATM   39  C8  UNL     1      -2.345  50.738 -26.939  1.00  0.00     0.129 C 
HETATM   40  O3  UNL     1      -1.518  49.956 -26.470  1.00  0.00    -0.298 OA
BRANCH  39  41
HETATM   41  C7  UNL     1      -2.248  52.233 -26.699  1.00  0.00     0.110 C 
BRANCH  41  42
HETATM   42  C6  UNL     1      -1.172  52.873 -27.582  1.00  0.00     0.127 C 
BRANCH  42  43
HETATM   43  C5  UNL     1      -0.125  53.620 -26.748  1.00  0.00     0.063 C 
BRANCH  43  44
HETATM   44  C4  UNL     1       0.509  52.772 -25.629  1.00  0.00     0.120 C 
BRANCH  44  45
HETATM   45  C3  UNL     1       0.684  53.522 -24.300  1.00  0.00     0.031 C 
BRANCH  45  46
HETATM   46  C2  UNL     1       0.323  52.698 -23.050  1.00  0.00    -0.002 C 
HETATM   47  C1  UNL     1      -0.673  51.577 -23.306  1.00  0.00     0.005 C 
ENDBRANCH  45  46
ENDBRANCH  44  45
BRANCH  44  48
HETATM   48  O1  UNL     1       1.786  52.350 -26.108  1.00  0.00    -0.395 OA
HETATM   49  H9  UNL     1       1.647  51.704 -26.822  1.00  0.00     0.210 HD
ENDBRANCH  44  48
ENDBRANCH  43  44
ENDBRANCH  42  43
BRANCH  42  50
HETATM   50  O2  UNL     1      -0.529  51.805 -28.283  1.00  0.00    -0.395 OA
HETATM   51  H13 UNL     1      -0.943  51.733 -29.162  1.00  0.00     0.210 HD
ENDBRANCH  42  50
ENDBRANCH  41  42
ENDBRANCH  39  41
ENDBRANCH  38  39
ENDBRANCH  37  38
ENDBRANCH   1  37
BRANCH  16  52
HETATM   52  O5  UNL     1     -10.966  43.779 -32.956  1.00  0.00    -0.379 OA
HETATM   53  H32 UNL     1     -11.590  43.188 -32.495  1.00  0.00     0.211 HD
ENDBRANCH  16  52
BRANCH  20  54
HETATM   54  C30 UNL     1     -11.981  47.008 -38.555  1.00  0.00     0.479 C 
BRANCH  54  55
HETATM   55  N1  UNL     1     -12.647  48.284 -38.668  1.00  0.00     0.116 N 
HETATM   56  H36 UNL     1     -11.982  49.008 -38.399  1.00  0.00     0.316 HD
HETATM   57  H37 UNL     1     -12.827  48.422 -39.661  1.00  0.00     0.316 HD
ENDBRANCH  54  55
BRANCH  54  58
HETATM   58  N2  UNL     1     -12.850  46.139 -39.290  1.00  0.00     0.116 N 
HETATM   59  H38 UNL     1     -13.775  46.213 -38.876  1.00  0.00     0.316 HD
HETATM   60  H39 UNL     1     -12.550  45.175 -39.164  1.00  0.00     0.316 HD
ENDBRANCH  54  58
ENDBRANCH  20  54
TORSDOF 15
ENDMDL
MODEL 8
REMARK minimizedAffinity -10.7222462
REMARK CNNscore 0.192773119
REMARK CNNaffinity 7.63213968
REMARK  15 active torsions:
REMARK  status: ('A' for Active; 'I' for Inactive)
REMARK    1  A    between atoms: C2_2  and  C3_3 
REMARK    2  A    between atoms: C3_3  and  C4_4 
REMARK    3  A    between atoms: C4_4  and  O1_5 
REMARK    4  A    between atoms: C4_4  and  C5_6 
REMARK    5  A    between atoms: C5_6  and  C6_7 
REMARK    6  A    between atoms: C6_7  and  O2_8 
REMARK    7  A    between atoms: C6_7  and  C7_9 
REMARK    8  A    between atoms: C7_9  and  C8_10 
REMARK    9  A    between atoms: C8_10  and  C9_12 
REMARK   10  A    between atoms: C9_12  and  C10_13 
REMARK   11  A    between atoms: C10_13  and  C11_14 
REMARK   12  A    between atoms: C25_29  and  O5_30 
REMARK   13  A    between atoms: C29_34  and  C30_35 
REMARK   14  A    between atoms: C30_35  and  N1_36 
REMARK   15  A    between atoms: C30_35  and  N2_37 
ROOT
HETATM    1  C11 UNL     1      -0.187  51.598 -25.287  1.00  0.00    -0.055 A 
HETATM    2  C12 UNL     1       0.555  52.713 -24.892  1.00  0.00     0.010 A 
HETATM    3  C13 UNL     1       0.716  53.009 -23.542  1.00  0.00     0.041 A 
HETATM    4  C14 UNL     1       0.106  52.226 -22.557  1.00  0.00     0.120 A 
HETATM    5  O4  UNL     1       0.467  52.625 -21.285  1.00  0.00    -0.258 OA
HETATM    6  C15 UNL     1      -0.301  52.145 -20.330  1.00  0.00     0.061 C 
HETATM    7  C16 UNL     1      -1.121  51.598 -19.657  1.00  0.00    -0.064 C 
HETATM    8  C17 UNL     1      -2.274  50.774 -19.277  1.00  0.00     0.044 C 
HETATM    9  C18 UNL     1      -2.780  51.229 -17.895  1.00  0.00     0.024 C 
HETATM   10  C19 UNL     1      -1.825  50.586 -16.887  1.00  0.00     0.002 C 
HETATM   11  C20 UNL     1      -1.215  49.374 -17.586  1.00  0.00     0.002 C 
HETATM   12  C21 UNL     1      -1.830  49.328 -18.987  1.00  0.00     0.024 C 
HETATM   13  C22 UNL     1      -3.341  50.912 -20.437  1.00  0.00     0.135 C 
HETATM   14  C23 UNL     1      -4.595  50.174 -20.052  1.00  0.00    -0.093 C 
HETATM   15  C24 UNL     1      -5.444  49.429 -19.628  1.00  0.00    -0.069 C 
HETATM   16  C25 UNL     1      -6.194  48.364 -18.921  1.00  0.00     0.230 C 
HETATM   17  C26 UNL     1      -7.513  47.918 -19.531  1.00  0.00    -0.011 A 
HETATM   18  C27 UNL     1      -8.660  48.573 -19.019  1.00  0.00     0.012 A 
HETATM   19  C28 UNL     1      -9.954  48.164 -19.348  1.00  0.00     0.012 A 
HETATM   20  C29 UNL     1     -10.160  47.082 -20.203  1.00  0.00     0.004 A 
HETATM   21  C31 UNL     1      -9.035  46.475 -20.779  1.00  0.00     0.019 A 
HETATM   22  C32 UNL     1      -7.710  46.866 -20.469  1.00  0.00    -0.043 A 
HETATM   23  C33 UNL     1      -6.615  46.133 -21.241  1.00  0.00     0.080 C 
HETATM   24  C34 UNL     1      -6.208  46.911 -22.450  1.00  0.00    -0.025 C 
HETATM   25  C35 UNL     1      -6.924  47.207 -23.563  1.00  0.00     0.096 C 
HETATM   26  N3  UNL     1      -6.442  48.292 -24.322  1.00  0.00    -0.364 N 
ATOM     27  H3  UNL     1      -6.810  48.687 -25.188  1.00  0.00     0.165 HD
HETATM   28  C36 UNL     1      -5.411  48.656 -23.634  1.00  0.00     0.060 C 
HETATM   29  C37 UNL     1      -4.470  49.778 -23.637  1.00  0.00     0.123 C 
HETATM   30  N4  UNL     1      -3.661  49.623 -22.638  1.00  0.00    -0.335 N 
HETATM   31  C38 UNL     1      -3.977  48.283 -22.026  1.00  0.00     0.107 C 
HETATM   32  C39 UNL     1      -5.118  47.798 -22.506  1.00  0.00     0.015 C 
HETATM   33  C40 UNL     1      -2.801  50.619 -21.946  1.00  0.00     0.251 C 
HETATM   34  O6  UNL     1      -1.387  50.347 -22.040  1.00  0.00    -0.321 OA
HETATM   35  C41 UNL     1      -0.733  51.163 -22.943  1.00  0.00     0.106 A 
HETATM   36  C42 UNL     1      -0.838  50.835 -24.306  1.00  0.00     0.047 A 
ENDROOT
BRANCH   1  37
HETATM   37  C10 UNL     1      -0.219  51.198 -26.749  1.00  0.00     0.046 C 
BRANCH  37  38
HETATM   38  C9  UNL     1      -1.318  51.911 -27.536  1.00  0.00     0.083 C 
BRANCH  38  39
HETATM   39  C8  UNL     1      -2.648  51.963 -26.805  1.00  0.00     0.129 C 
HETATM   40  O3  UNL     1      -3.042  53.006 -26.283  1.00  0.00    -0.298 OA
BRANCH  39  41
HETATM   41  C7  UNL     1      -3.438  50.672 -26.693  1.00  0.00     0.110 C 
BRANCH  41  42
HETATM   42  C6  UNL     1      -3.201  49.763 -27.903  1.00  0.00     0.127 C 
BRANCH  42  43
HETATM   43  C5  UNL     1      -3.932  48.424 -27.758  1.00  0.00     0.063 C 
BRANCH  43  44
HETATM   44  C4  UNL     1      -5.197  48.302 -28.628  1.00  0.00     0.120 C 
BRANCH  44  45
HETATM   45  C3  UNL     1      -6.286  47.402 -28.024  1.00  0.00     0.031 C 
BRANCH  45  46
HETATM   46  C2  UNL     1      -7.134  46.642 -29.061  1.00  0.00    -0.002 C 
HETATM   47  C1  UNL     1      -7.154  45.133 -28.868  1.00  0.00     0.005 C 
ENDBRANCH  45  46
ENDBRANCH  44  45
BRANCH  44  48
HETATM   48  O1  UNL     1      -4.781  47.765 -29.884  1.00  0.00    -0.395 OA
HETATM   49  H9  UNL     1      -4.259  48.442 -30.349  1.00  0.00     0.210 HD
ENDBRANCH  44  48
ENDBRANCH  43  44
ENDBRANCH  42  43
BRANCH  42  50
HETATM   50  O2  UNL     1      -3.721  50.454 -29.043  1.00  0.00    -0.395 OA
HETATM   51  H13 UNL     1      -2.980  50.913 -29.477  1.00  0.00     0.210 HD
ENDBRANCH  42  50
ENDBRANCH  41  42
ENDBRANCH  39  41
ENDBRANCH  38  39
ENDBRANCH  37  38
ENDBRANCH   1  37
BRANCH  16  52
HETATM   52  O5  UNL     1      -5.294  47.265 -18.770  1.00  0.00    -0.379 OA
HETATM   53  H32 UNL     1      -4.937  47.344 -17.865  1.00  0.00     0.211 HD
ENDBRANCH  16  52
BRANCH  20  54
HETATM   54  C30 UNL     1     -11.569  46.616 -20.503  1.00  0.00     0.479 C 
BRANCH  54  55
HETATM   55  N1  UNL     1     -12.566  47.630 -20.250  1.00  0.00     0.116 N 
HETATM   56  H36 UNL     1     -12.504  48.322 -20.996  1.00  0.00     0.316 HD
HETATM   57  H37 UNL     1     -13.469  47.173 -20.364  1.00  0.00     0.316 HD
ENDBRANCH  54  55
BRANCH  54  58
HETATM   58  N2  UNL     1     -11.986  45.551 -19.643  1.00  0.00     0.116 N 
HETATM   59  H38 UNL     1     -12.034  45.923 -18.699  1.00  0.00     0.316 HD
HETATM   60  H39 UNL     1     -11.274  44.824 -19.635  1.00  0.00     0.316 HD
ENDBRANCH  54  58
ENDBRANCH  20  54
TORSDOF 15
ENDMDL
MODEL 9
REMARK minimizedAffinity -9.88622856
REMARK CNNscore 0.169601113
REMARK CNNaffinity 7.36769724
REMARK  15 active torsions:
REMARK  status: ('A' for Active; 'I' for Inactive)
REMARK    1  A    between atoms: C2_2  and  C3_3 
REMARK    2  A    between atoms: C3_3  and  C4_4 
REMARK    3  A    between atoms: C4_4  and  O1_5 
REMARK    4  A    between atoms: C4_4  and  C5_6 
REMARK    5  A    between atoms: C5_6  and  C6_7 
REMARK    6  A    between atoms: C6_7  and  O2_8 
REMARK    7  A    between atoms: C6_7  and  C7_9 
REMARK    8  A    between atoms: C7_9  and  C8_10 
REMARK    9  A    between atoms: C8_10  and  C9_12 
REMARK   10  A    between atoms: C9_12  and  C10_13 
REMARK   11  A    between atoms: C10_13  and  C11_14 
REMARK   12  A    between atoms: C25_29  and  O5_30 
REMARK   13  A    between atoms: C29_34  and  C30_35 
REMARK   14  A    between atoms: C30_35  and  N1_36 
REMARK   15  A    between atoms: C30_35  and  N2_37 
ROOT
HETATM    1  C11 UNL     1      -0.777  51.748 -22.816  1.00  0.00    -0.055 A 
HETATM    2  C12 UNL     1       0.145  52.279 -21.911  1.00  0.00     0.010 A 
HETATM    3  C13 UNL     1       0.266  51.741 -20.633  1.00  0.00     0.041 A 
HETATM    4  C14 UNL     1      -0.559  50.693 -20.214  1.00  0.00     0.120 A 
HETATM    5  O4  UNL     1      -0.216  50.239 -18.955  1.00  0.00    -0.258 OA
HETATM    6  C15 UNL     1      -1.132  49.486 -18.384  1.00  0.00     0.061 C 
HETATM    7  C16 UNL     1      -2.092  48.844 -18.082  1.00  0.00    -0.064 C 
HETATM    8  C17 UNL     1      -3.412  48.209 -18.160  1.00  0.00     0.044 C 
HETATM    9  C18 UNL     1      -3.913  47.922 -16.731  1.00  0.00     0.024 C 
HETATM   10  C19 UNL     1      -3.183  46.648 -16.299  1.00  0.00     0.002 C 
HETATM   11  C20 UNL     1      -2.783  45.926 -17.583  1.00  0.00     0.002 C 
HETATM   12  C21 UNL     1      -3.293  46.788 -18.740  1.00  0.00     0.024 C 
HETATM   13  C22 UNL     1      -4.344  49.181 -18.990  1.00  0.00     0.135 C 
HETATM   14  C23 UNL     1      -5.745  48.634 -19.009  1.00  0.00    -0.093 C 
HETATM   15  C24 UNL     1      -6.756  47.975 -19.023  1.00  0.00    -0.069 C 
HETATM   16  C25 UNL     1      -7.756  46.882 -18.982  1.00  0.00     0.230 C 
HETATM   17  C26 UNL     1      -9.091  47.131 -19.665  1.00  0.00    -0.011 A 
HETATM   18  C27 UNL     1     -10.114  47.619 -18.815  1.00  0.00     0.012 A 
HETATM   19  C28 UNL     1     -11.437  47.739 -19.246  1.00  0.00     0.012 A 
HETATM   20  C29 UNL     1     -11.797  47.378 -20.544  1.00  0.00     0.004 A 
HETATM   21  C31 UNL     1     -10.780  46.969 -21.419  1.00  0.00     0.019 A 
HETATM   22  C32 UNL     1      -9.429  46.839 -21.016  1.00  0.00    -0.043 A 
HETATM   23  C33 UNL     1      -8.453  46.443 -22.123  1.00  0.00     0.080 C 
HETATM   24  C34 UNL     1      -7.811  47.652 -22.720  1.00  0.00    -0.025 C 
HETATM   25  C35 UNL     1      -8.371  48.654 -23.444  1.00  0.00     0.096 C 
HETATM   26  N3  UNL     1      -7.625  49.848 -23.502  1.00  0.00    -0.364 N 
ATOM     27  H3  UNL     1      -7.843  50.720 -23.984  1.00  0.00     0.165 HD
HETATM   28  C36 UNL     1      -6.594  49.549 -22.784  1.00  0.00     0.060 C 
HETATM   29  C37 UNL     1      -5.447  50.261 -22.218  1.00  0.00     0.123 C 
HETATM   30  N4  UNL     1      -4.760  49.418 -21.516  1.00  0.00    -0.335 N 
HETATM   31  C38 UNL     1      -5.385  48.064 -21.730  1.00  0.00     0.107 C 
HETATM   32  C39 UNL     1      -6.563  48.173 -22.335  1.00  0.00     0.015 C 
HETATM   33  C40 UNL     1      -3.768  49.662 -20.436  1.00  0.00     0.251 C 
HETATM   34  O6  UNL     1      -2.435  49.200 -20.741  1.00  0.00    -0.321 OA
HETATM   35  C41 UNL     1      -1.566  50.220 -21.077  1.00  0.00     0.106 A 
HETATM   36  C42 UNL     1      -1.638  50.727 -22.386  1.00  0.00     0.047 A 
ENDROOT
BRANCH   1  37
HETATM   37  C10 UNL     1      -0.785  52.237 -24.251  1.00  0.00     0.046 C 
BRANCH  37  38
HETATM   38  C9  UNL     1       0.456  53.057 -24.606  1.00  0.00     0.083 C 
BRANCH  38  39
HETATM   39  C8  UNL     1       0.530  53.436 -26.073  1.00  0.00     0.129 C 
HETATM   40  O3  UNL     1       0.132  54.534 -26.463  1.00  0.00    -0.298 OA
BRANCH  39  41
HETATM   41  C7  UNL     1       1.054  52.392 -27.042  1.00  0.00     0.110 C 
BRANCH  41  42
HETATM   42  C6  UNL     1      -0.053  51.883 -27.970  1.00  0.00     0.127 C 
BRANCH  42  43
HETATM   43  C5  UNL     1      -1.037  50.969 -27.231  1.00  0.00     0.063 C 
BRANCH  43  44
HETATM   44  C4  UNL     1      -2.514  51.368 -27.401  1.00  0.00     0.120 C 
BRANCH  44  45
HETATM   45  C3  UNL     1      -3.424  50.898 -26.256  1.00  0.00     0.031 C 
BRANCH  45  46
HETATM   46  C2  UNL     1      -3.014  49.554 -25.625  1.00  0.00    -0.002 C 
HETATM   47  C1  UNL     1      -3.787  48.354 -26.153  1.00  0.00     0.005 C 
ENDBRANCH  45  46
ENDBRANCH  44  45
BRANCH  44  48
HETATM   48  O1  UNL     1      -2.958  50.789 -28.628  1.00  0.00    -0.395 OA
HETATM   49  H9  UNL     1      -2.519  51.253 -29.362  1.00  0.00     0.210 HD
ENDBRANCH  44  48
ENDBRANCH  43  44
ENDBRANCH  42  43
BRANCH  42  50
HETATM   50  O2  UNL     1      -0.757  53.037 -28.439  1.00  0.00    -0.395 OA
HETATM   51  H13 UNL     1      -0.393  53.274 -29.311  1.00  0.00     0.210 HD
ENDBRANCH  42  50
ENDBRANCH  41  42
ENDBRANCH  39  41
ENDBRANCH  38  39
ENDBRANCH  37  38
ENDBRANCH   1  37
BRANCH  16  52
HETATM   52  O5  UNL     1      -7.111  45.722 -19.512  1.00  0.00    -0.379 OA
HETATM   53  H32 UNL     1      -6.811  45.213 -18.736  1.00  0.00     0.211 HD
ENDBRANCH  16  52
BRANCH  20  54
HETATM   54  C30 UNL     1     -13.246  47.460 -20.975  1.00  0.00     0.479 C 
BRANCH  54  55
HETATM   55  N1  UNL     1     -14.118  46.619 -20.189  1.00  0.00     0.116 N 
HETATM   56  H36 UNL     1     -14.236  47.059 -19.277  1.00  0.00     0.316 HD
HETATM   57  H37 UNL     1     -15.030  46.657 -20.640  1.00  0.00     0.316 HD
ENDBRANCH  54  55
BRANCH  54  58
HETATM   58  N2  UNL     1     -13.450  46.961 -22.301  1.00  0.00     0.116 N 
HETATM   59  H38 UNL     1     -13.241  45.967 -22.289  1.00  0.00     0.316 HD
HETATM   60  H39 UNL     1     -12.778  47.393 -22.931  1.00  0.00     0.316 HD
ENDBRANCH  54  58
ENDBRANCH  20  54
TORSDOF 15
ENDMDL
