MODEL 1
REMARK minimizedAffinity -9.46133232
REMARK CNNscore 0.484025657
REMARK CNNaffinity 7.4141674
REMARK  12 active torsions:
REMARK  status: ('A' for Active; 'I' for Inactive)
REMARK    1  A    between atoms: O1_2  and  C2_3 
REMARK    2  A    between atoms: C2_3  and  C3_4 
REMARK    3  A    between atoms: C2_3  and  C7_8 
REMARK    4  A    between atoms: C7_8  and  C8_9 
REMARK    5  A    between atoms: C8_9  and  C10_11 
REMARK    6  A    between atoms: C28_30  and  O3_31 
REMARK    7  A    between atoms: O3_31  and  C29_32 
REMARK    8  A    between atoms: C30_34  and  C31_35 
REMARK    9  A    between atoms: C31_35  and  O5_36 
REMARK   10  A    between atoms: C32_37  and  O6_38 
REMARK   11  A    between atoms: C33_39  and  O7_40 
REMARK   12  A    between atoms: C34_41  and  O8_42 
ROOT
HETATM    1  C10 UNL     1      -4.854   6.742  15.295  1.00  0.00    -0.002 C 
HETATM    2  C11 UNL     1      -5.122   5.365  14.607  1.00  0.00     0.006 C 
HETATM    3  C12 UNL     1      -4.106   5.201  13.464  1.00  0.00     0.011 C 
HETATM    4  C13 UNL     1      -3.047   6.290  13.718  1.00  0.00    -0.029 C 
HETATM    5  C14 UNL     1      -2.078   5.695  14.791  1.00  0.00     0.016 C 
HETATM    6  C15 UNL     1      -2.255   6.753  12.455  1.00  0.00     0.028 C 
HETATM    7  C16 UNL     1      -1.435   5.643  11.822  1.00  0.00    -0.021 C 
HETATM    8  C17 UNL     1      -0.155   5.830  11.453  1.00  0.00     0.008 C 
HETATM    9  C18 UNL     1       0.544   7.168  11.676  1.00  0.00     0.092 C 
HETATM   10  O2  UNL     1      -0.076   8.038  10.700  1.00  0.00    -0.374 OA
HETATM   11  C19 UNL     1      -1.142   8.753  11.336  1.00  0.00     0.179 C 
HETATM   12  C20 UNL     1      -1.405   8.082  12.705  1.00  0.00    -0.004 C 
HETATM   13  C21 UNL     1      -2.103   9.109  13.636  1.00  0.00     0.014 C 
HETATM   14  C22 UNL     1      -3.001   8.562  14.759  1.00  0.00     0.011 C 
HETATM   15  C23 UNL     1      -3.951   7.469  14.242  1.00  0.00    -0.032 C 
HETATM   16  C24 UNL     1      -4.869   8.085  13.139  1.00  0.00     0.016 C 
HETATM   17  C25 UNL     1       0.054   7.691  13.057  1.00  0.00     0.036 C 
HETATM   18  C26 UNL     1       0.957   8.782  13.627  1.00  0.00     0.011 C 
HETATM   19  C27 UNL     1       2.397   8.291  13.794  1.00  0.00     0.033 C 
HETATM   20  C28 UNL     1       2.785   7.119  12.877  1.00  0.00     0.136 C 
HETATM   21  C35 UNL     1       2.110   7.218  11.480  1.00  0.00     0.014 C 
HETATM   22  C36 UNL     1       2.572   8.517  10.752  1.00  0.00     0.021 C 
HETATM   23  C37 UNL     1       2.630   6.062  10.590  1.00  0.00     0.021 C 
ENDROOT
BRANCH  20  24
HETATM   24  O3  UNL     1       4.210   7.088  12.709  1.00  0.00    -0.352 OA
BRANCH  24  25
HETATM   25  C29 UNL     1       4.916   8.111  13.425  1.00  0.00     0.292 C 
HETATM   26  O4  UNL     1       5.560   9.011  12.529  1.00  0.00    -0.348 OA
HETATM   27  C30 UNL     1       6.923   8.704  12.209  1.00  0.00     0.179 C 
HETATM   28  C32 UNL     1       7.812   8.721  13.473  1.00  0.00     0.180 C 
HETATM   29  C33 UNL     1       7.084   8.242  14.739  1.00  0.00     0.183 C 
HETATM   30  C34 UNL     1       5.863   7.393  14.423  1.00  0.00     0.204 C 
BRANCH  27  31
HETATM   31  C31 UNL     1       7.032   7.420  11.364  1.00  0.00     0.198 C 
BRANCH  31  32
HETATM   32  O5  UNL     1       5.987   7.329  10.404  1.00  0.00    -0.398 OA
HETATM   33  H48 UNL     1       6.025   6.435  10.025  1.00  0.00     0.209 HD
ENDBRANCH  31  32
ENDBRANCH  27  31
BRANCH  28  34
HETATM   34  O6  UNL     1       8.282  10.065  13.706  1.00  0.00    -0.390 OA
HETATM   35  H50 UNL     1       7.887  10.326  14.569  1.00  0.00     0.210 HD
ENDBRANCH  28  34
BRANCH  29  36
HETATM   36  O7  UNL     1       6.690   9.379  15.545  1.00  0.00    -0.390 OA
HETATM   37  H52 UNL     1       5.936   9.066  16.089  1.00  0.00     0.210 HD
ENDBRANCH  29  36
BRANCH  30  38
HETATM   38  O8  UNL     1       5.168   7.124  15.660  1.00  0.00    -0.388 OA
HETATM   39  H54 UNL     1       5.510   6.276  16.000  1.00  0.00     0.210 HD
ENDBRANCH  30  38
ENDBRANCH  24  25
ENDBRANCH  20  24
BRANCH   1  40
HETATM   40  C8  UNL     1      -6.183   7.419  15.755  1.00  0.00    -0.011 C 
HETATM   41  C9  UNL     1      -7.141   6.427  16.423  1.00  0.00     0.010 C 
BRANCH  40  42
HETATM   42  C7  UNL     1      -6.930   8.108  14.575  1.00  0.00     0.040 C 
BRANCH  42  43
HETATM   43  C2  UNL     1      -8.321   7.486  14.316  1.00  0.00     0.144 C 
BRANCH  43  44
HETATM   44  O1  UNL     1      -9.187   7.773  15.413  1.00  0.00    -0.387 OA
HETATM   45  C1  UNL     1     -10.552   7.484  15.143  1.00  0.00     0.202 C 
ENDBRANCH  43  44
BRANCH  43  46
HETATM   46  C3  UNL     1      -8.191   5.998  14.072  1.00  0.00     0.007 C 
HETATM   47  C4  UNL     1      -8.375   5.293  12.935  1.00  0.00    -0.089 C 
HETATM   48  C5  UNL     1      -8.838   5.868  11.624  1.00  0.00     0.042 C 
HETATM   49  C6  UNL     1      -8.128   3.806  12.905  1.00  0.00     0.042 C 
ENDBRANCH  43  46
ENDBRANCH  42  43
ENDBRANCH  40  42
ENDBRANCH   1  40
TORSDOF 12
ENDMDL
MODEL 2
REMARK minimizedAffinity -9.12661934
REMARK CNNscore 0.470546901
REMARK CNNaffinity 7.55606699
REMARK  12 active torsions:
REMARK  status: ('A' for Active; 'I' for Inactive)
REMARK    1  A    between atoms: O1_2  and  C2_3 
REMARK    2  A    between atoms: C2_3  and  C3_4 
REMARK    3  A    between atoms: C2_3  and  C7_8 
REMARK    4  A    between atoms: C7_8  and  C8_9 
REMARK    5  A    between atoms: C8_9  and  C10_11 
REMARK    6  A    between atoms: C28_30  and  O3_31 
REMARK    7  A    between atoms: O3_31  and  C29_32 
REMARK    8  A    between atoms: C30_34  and  C31_35 
REMARK    9  A    between atoms: C31_35  and  O5_36 
REMARK   10  A    between atoms: C32_37  and  O6_38 
REMARK   11  A    between atoms: C33_39  and  O7_40 
REMARK   12  A    between atoms: C34_41  and  O8_42 
ROOT
HETATM    1  C10 UNL     1      -4.936   6.353  15.142  1.00  0.00    -0.002 C 
HETATM    2  C11 UNL     1      -5.092   5.033  14.320  1.00  0.00     0.006 C 
HETATM    3  C12 UNL     1      -4.023   5.034  13.214  1.00  0.00     0.011 C 
HETATM    4  C13 UNL     1      -3.042   6.153  13.615  1.00  0.00    -0.029 C 
HETATM    5  C14 UNL     1      -2.083   5.516  14.673  1.00  0.00     0.016 C 
HETATM    6  C15 UNL     1      -2.229   6.776  12.437  1.00  0.00     0.028 C 
HETATM    7  C16 UNL     1      -1.319   5.778  11.743  1.00  0.00    -0.021 C 
HETATM    8  C17 UNL     1      -0.039   6.070  11.452  1.00  0.00     0.008 C 
HETATM    9  C18 UNL     1       0.568   7.420  11.828  1.00  0.00     0.092 C 
HETATM   10  O2  UNL     1      -0.063   8.341  10.907  1.00  0.00    -0.374 OA
HETATM   11  C19 UNL     1      -1.195   8.932  11.556  1.00  0.00     0.179 C 
HETATM   12  C20 UNL     1      -1.472   8.122  12.845  1.00  0.00    -0.004 C 
HETATM   13  C21 UNL     1      -2.268   9.017  13.832  1.00  0.00     0.014 C 
HETATM   14  C22 UNL     1      -3.176   8.316  14.859  1.00  0.00     0.011 C 
HETATM   15  C23 UNL     1      -4.036   7.225  14.201  1.00  0.00    -0.032 C 
HETATM   16  C24 UNL     1      -4.945   7.889  13.118  1.00  0.00     0.016 C 
HETATM   17  C25 UNL     1      -0.008   7.782  13.226  1.00  0.00     0.036 C 
HETATM   18  C26 UNL     1       0.804   8.865  13.934  1.00  0.00     0.011 C 
HETATM   19  C27 UNL     1       2.263   8.442  14.122  1.00  0.00     0.033 C 
HETATM   20  C28 UNL     1       2.758   7.384  13.121  1.00  0.00     0.136 C 
HETATM   21  C35 UNL     1       2.136   7.576  11.709  1.00  0.00     0.014 C 
HETATM   22  C36 UNL     1       2.547   8.961  11.124  1.00  0.00     0.021 C 
HETATM   23  C37 UNL     1       2.759   6.540  10.742  1.00  0.00     0.021 C 
ENDROOT
BRANCH  20  24
HETATM   24  O3  UNL     1       4.188   7.450  13.015  1.00  0.00    -0.352 OA
BRANCH  24  25
HETATM   25  C29 UNL     1       4.812   8.340  13.951  1.00  0.00     0.292 C 
HETATM   26  O4  UNL     1       5.379   9.466  13.287  1.00  0.00    -0.348 OA
HETATM   27  C30 UNL     1       6.761   9.346  12.924  1.00  0.00     0.179 C 
HETATM   28  C32 UNL     1       7.651   9.151  14.173  1.00  0.00     0.180 C 
HETATM   29  C33 UNL     1       6.969   8.346  15.290  1.00  0.00     0.183 C 
HETATM   30  C34 UNL     1       5.819   7.495  14.776  1.00  0.00     0.204 C 
BRANCH  27  31
HETATM   31  C31 UNL     1       6.968   8.296  11.816  1.00  0.00     0.198 C 
BRANCH  31  32
HETATM   32  O5  UNL     1       8.023   7.396  12.132  1.00  0.00    -0.398 OA
HETATM   33  H48 UNL     1       8.200   6.872  11.333  1.00  0.00     0.209 HD
ENDBRANCH  31  32
ENDBRANCH  27  31
BRANCH  28  34
HETATM   34  O6  UNL     1       8.013  10.442  14.706  1.00  0.00    -0.390 OA
HETATM   35  H50 UNL     1       7.602  10.472  15.600  1.00  0.00     0.210 HD
ENDBRANCH  28  34
BRANCH  29  36
HETATM   36  O7  UNL     1       6.490   9.238  16.323  1.00  0.00    -0.390 OA
HETATM   37  H52 UNL     1       5.766   8.753  16.774  1.00  0.00     0.210 HD
ENDBRANCH  29  36
BRANCH  30  38
HETATM   38  O8  UNL     1       5.154   6.902  15.913  1.00  0.00    -0.388 OA
HETATM   39  H54 UNL     1       5.564   6.030  16.060  1.00  0.00     0.210 HD
ENDBRANCH  30  38
ENDBRANCH  24  25
ENDBRANCH  20  24
BRANCH   1  40
HETATM   40  C8  UNL     1      -6.321   6.908  15.600  1.00  0.00    -0.011 C 
HETATM   41  C9  UNL     1      -7.113   5.888  16.425  1.00  0.00     0.010 C 
BRANCH  40  42
HETATM   42  C7  UNL     1      -7.200   7.360  14.396  1.00  0.00     0.040 C 
BRANCH  42  43
HETATM   43  C2  UNL     1      -8.361   6.378  14.115  1.00  0.00     0.144 C 
BRANCH  43  44
HETATM   44  O1  UNL     1      -8.100   5.659  12.911  1.00  0.00    -0.387 OA
HETATM   45  C1  UNL     1      -8.370   4.267  13.017  1.00  0.00     0.202 C 
ENDBRANCH  43  44
BRANCH  43  46
HETATM   46  C3  UNL     1      -9.675   7.126  14.055  1.00  0.00     0.007 C 
HETATM   47  C4  UNL     1     -10.235   7.956  14.961  1.00  0.00    -0.089 C 
HETATM   48  C5  UNL     1      -9.666   8.270  16.317  1.00  0.00     0.042 C 
HETATM   49  C6  UNL     1     -11.540   8.650  14.664  1.00  0.00     0.042 C 
ENDBRANCH  43  46
ENDBRANCH  42  43
ENDBRANCH  40  42
ENDBRANCH   1  40
TORSDOF 12
ENDMDL
MODEL 3
REMARK minimizedAffinity -9.66804028
REMARK CNNscore 0.44647035
REMARK CNNaffinity 7.48236275
REMARK  12 active torsions:
REMARK  status: ('A' for Active; 'I' for Inactive)
REMARK    1  A    between atoms: O1_2  and  C2_3 
REMARK    2  A    between atoms: C2_3  and  C3_4 
REMARK    3  A    between atoms: C2_3  and  C7_8 
REMARK    4  A    between atoms: C7_8  and  C8_9 
REMARK    5  A    between atoms: C8_9  and  C10_11 
REMARK    6  A    between atoms: C28_30  and  O3_31 
REMARK    7  A    between atoms: O3_31  and  C29_32 
REMARK    8  A    between atoms: C30_34  and  C31_35 
REMARK    9  A    between atoms: C31_35  and  O5_36 
REMARK   10  A    between atoms: C32_37  and  O6_38 
REMARK   11  A    between atoms: C33_39  and  O7_40 
REMARK   12  A    between atoms: C34_41  and  O8_42 
ROOT
HETATM    1  C10 UNL     1      -5.821   6.992  13.916  1.00  0.00    -0.002 C 
HETATM    2  C11 UNL     1      -6.107   8.476  14.311  1.00  0.00     0.006 C 
HETATM    3  C12 UNL     1      -4.771   9.128  14.706  1.00  0.00     0.011 C 
HETATM    4  C13 UNL     1      -3.691   8.150  14.203  1.00  0.00    -0.029 C 
HETATM    5  C14 UNL     1      -3.507   8.469  12.683  1.00  0.00     0.016 C 
HETATM    6  C15 UNL     1      -2.325   8.226  14.953  1.00  0.00     0.028 C 
HETATM    7  C16 UNL     1      -1.637   9.573  14.809  1.00  0.00    -0.021 C 
HETATM    8  C17 UNL     1      -0.331   9.672  14.506  1.00  0.00     0.008 C 
HETATM    9  C18 UNL     1       0.522   8.428  14.269  1.00  0.00     0.092 C 
HETATM   10  O2  UNL     1       0.665   7.861  15.593  1.00  0.00    -0.374 OA
HETATM   11  C19 UNL     1      -0.339   6.855  15.771  1.00  0.00     0.179 C 
HETATM   12  C20 UNL     1      -1.358   7.001  14.615  1.00  0.00    -0.004 C 
HETATM   13  C21 UNL     1      -2.098   5.649  14.431  1.00  0.00     0.014 C 
HETATM   14  C22 UNL     1      -3.515   5.685  13.831  1.00  0.00     0.011 C 
HETATM   15  C23 UNL     1      -4.383   6.765  14.496  1.00  0.00    -0.032 C 
HETATM   16  C24 UNL     1      -4.506   6.442  16.019  1.00  0.00     0.016 C 
HETATM   17  C25 UNL     1      -0.377   7.425  13.491  1.00  0.00     0.036 C 
HETATM   18  C26 UNL     1       0.427   6.323  12.807  1.00  0.00     0.011 C 
HETATM   19  C27 UNL     1       1.449   6.899  11.823  1.00  0.00     0.033 C 
HETATM   20  C28 UNL     1       1.879   8.346  12.120  1.00  0.00     0.136 C 
HETATM   21  C35 UNL     1       1.959   8.633  13.646  1.00  0.00     0.014 C 
HETATM   22  C36 UNL     1       3.026   7.711  14.310  1.00  0.00     0.021 C 
HETATM   23  C37 UNL     1       2.494  10.070  13.858  1.00  0.00     0.021 C 
ENDROOT
BRANCH  20  24
HETATM   24  O3  UNL     1       3.161   8.600  11.528  1.00  0.00    -0.352 OA
BRANCH  24  25
HETATM   25  C29 UNL     1       4.206   7.723  11.973  1.00  0.00     0.292 C 
HETATM   26  O4  UNL     1       5.265   8.455  12.582  1.00  0.00    -0.348 OA
HETATM   27  C30 UNL     1       6.345   8.827  11.716  1.00  0.00     0.179 C 
HETATM   28  C32 UNL     1       7.038   7.581  11.119  1.00  0.00     0.180 C 
HETATM   29  C33 UNL     1       6.073   6.412  10.860  1.00  0.00     0.183 C 
HETATM   30  C34 UNL     1       4.626   6.864  10.750  1.00  0.00     0.204 C 
BRANCH  27  31
HETATM   31  C31 UNL     1       5.905   9.877  10.678  1.00  0.00     0.198 C 
BRANCH  31  32
HETATM   32  O5  UNL     1       6.060  11.203  11.169  1.00  0.00    -0.398 OA
HETATM   33  H48 UNL     1       5.621  11.795  10.536  1.00  0.00     0.209 HD
ENDBRANCH  31  32
ENDBRANCH  27  31
BRANCH  28  34
HETATM   34  O6  UNL     1       8.062   7.125  12.026  1.00  0.00    -0.390 OA
HETATM   35  H50 UNL     1       7.769   6.230  12.311  1.00  0.00     0.210 HD
ENDBRANCH  28  34
BRANCH  29  36
HETATM   36  O7  UNL     1       6.197   5.425  11.911  1.00  0.00    -0.390 OA
HETATM   37  H52 UNL     1       5.344   4.939  11.916  1.00  0.00     0.210 HD
ENDBRANCH  29  36
BRANCH  30  38
HETATM   38  O8  UNL     1       3.792   5.688  10.661  1.00  0.00    -0.388 OA
HETATM   39  H54 UNL     1       3.669   5.498   9.712  1.00  0.00     0.210 HD
ENDBRANCH  30  38
ENDBRANCH  24  25
ENDBRANCH  20  24
BRANCH   1  40
HETATM   40  C8  UNL     1      -6.980   6.048  14.365  1.00  0.00    -0.011 C 
HETATM   41  C9  UNL     1      -7.338   6.228  15.844  1.00  0.00     0.010 C 
BRANCH  40  42
HETATM   42  C7  UNL     1      -6.646   4.547  14.116  1.00  0.00     0.040 C 
BRANCH  42  43
HETATM   43  C2  UNL     1      -6.574   4.203  12.611  1.00  0.00     0.144 C 
BRANCH  43  44
HETATM   44  O1  UNL     1      -7.893   4.101  12.078  1.00  0.00    -0.387 OA
HETATM   45  C1  UNL     1      -8.535   5.360  11.919  1.00  0.00     0.202 C 
ENDBRANCH  43  44
BRANCH  43  46
HETATM   46  C3  UNL     1      -5.779   2.932  12.403  1.00  0.00     0.007 C 
HETATM   47  C4  UNL     1      -4.698   2.711  11.624  1.00  0.00    -0.089 C 
HETATM   48  C5  UNL     1      -4.072   3.721  10.702  1.00  0.00     0.042 C 
HETATM   49  C6  UNL     1      -4.021   1.365  11.615  1.00  0.00     0.042 C 
ENDBRANCH  43  46
ENDBRANCH  42  43
ENDBRANCH  40  42
ENDBRANCH   1  40
TORSDOF 12
ENDMDL
MODEL 4
REMARK minimizedAffinity -7.41248131
REMARK CNNscore 0.333658993
REMARK CNNaffinity 6.54643774
REMARK  12 active torsions:
REMARK  status: ('A' for Active; 'I' for Inactive)
REMARK    1  A    between atoms: O1_2  and  C2_3 
REMARK    2  A    between atoms: C2_3  and  C3_4 
REMARK    3  A    between atoms: C2_3  and  C7_8 
REMARK    4  A    between atoms: C7_8  and  C8_9 
REMARK    5  A    between atoms: C8_9  and  C10_11 
REMARK    6  A    between atoms: C28_30  and  O3_31 
REMARK    7  A    between atoms: O3_31  and  C29_32 
REMARK    8  A    between atoms: C30_34  and  C31_35 
REMARK    9  A    between atoms: C31_35  and  O5_36 
REMARK   10  A    between atoms: C32_37  and  O6_38 
REMARK   11  A    between atoms: C33_39  and  O7_40 
REMARK   12  A    between atoms: C34_41  and  O8_42 
ROOT
HETATM    1  C10 UNL     1      -0.050   7.080  12.121  1.00  0.00    -0.002 C 
HETATM    2  C11 UNL     1      -1.225   6.123  12.502  1.00  0.00     0.006 C 
HETATM    3  C12 UNL     1      -1.840   6.629  13.818  1.00  0.00     0.011 C 
HETATM    4  C13 UNL     1      -1.270   8.049  14.000  1.00  0.00    -0.029 C 
HETATM    5  C14 UNL     1      -2.162   8.979  13.116  1.00  0.00     0.016 C 
HETATM    6  C15 UNL     1      -1.227   8.563  15.474  1.00  0.00     0.028 C 
HETATM    7  C16 UNL     1      -2.603   8.680  16.108  1.00  0.00    -0.021 C 
HETATM    8  C17 UNL     1      -2.972   9.772  16.800  1.00  0.00     0.008 C 
HETATM    9  C18 UNL     1      -2.028  10.961  16.963  1.00  0.00     0.092 C 
HETATM   10  O2  UNL     1      -1.024  10.470  17.882  1.00  0.00    -0.374 OA
HETATM   11  C19 UNL     1       0.091   9.986  17.125  1.00  0.00     0.179 C 
HETATM   12  C20 UNL     1      -0.354   9.888  15.646  1.00  0.00    -0.004 C 
HETATM   13  C21 UNL     1       0.909   9.930  14.744  1.00  0.00     0.014 C 
HETATM   14  C22 UNL     1       0.826   9.252  13.365  1.00  0.00     0.011 C 
HETATM   15  C23 UNL     1       0.197   7.852  13.462  1.00  0.00    -0.032 C 
HETATM   16  C24 UNL     1       1.087   6.965  14.390  1.00  0.00     0.016 C 
HETATM   17  C25 UNL     1      -1.292  11.122  15.602  1.00  0.00     0.036 C 
HETATM   18  C26 UNL     1      -0.642  12.494  15.444  1.00  0.00     0.011 C 
HETATM   19  C27 UNL     1      -1.671  13.622  15.558  1.00  0.00     0.033 C 
HETATM   20  C28 UNL     1      -2.939  13.255  16.349  1.00  0.00     0.136 C 
HETATM   21  C35 UNL     1      -2.633  12.302  17.539  1.00  0.00     0.014 C 
HETATM   22  C36 UNL     1      -1.670  12.997  18.548  1.00  0.00     0.021 C 
HETATM   23  C37 UNL     1      -3.937  12.065  18.338  1.00  0.00     0.021 C 
ENDROOT
BRANCH  20  24
HETATM   24  O3  UNL     1      -3.558  14.448  16.851  1.00  0.00    -0.352 OA
BRANCH  24  25
HETATM   25  C29 UNL     1      -4.847  14.731  16.288  1.00  0.00     0.292 C 
HETATM   26  O4  UNL     1      -4.742  15.051  14.904  1.00  0.00    -0.348 OA
HETATM   27  C30 UNL     1      -4.623  16.445  14.592  1.00  0.00     0.179 C 
HETATM   28  C32 UNL     1      -5.864  17.233  15.073  1.00  0.00     0.180 C 
HETATM   29  C33 UNL     1      -6.476  16.677  16.369  1.00  0.00     0.183 C 
HETATM   30  C34 UNL     1      -5.490  15.838  17.166  1.00  0.00     0.204 C 
BRANCH  27  31
HETATM   31  C31 UNL     1      -3.274  17.019  15.065  1.00  0.00     0.198 C 
BRANCH  31  32
HETATM   32  O5  UNL     1      -3.416  18.329  15.601  1.00  0.00    -0.398 OA
HETATM   33  H48 UNL     1      -2.521  18.684  15.728  1.00  0.00     0.209 HD
ENDBRANCH  31  32
ENDBRANCH  27  31
BRANCH  28  34
HETATM   34  O6  UNL     1      -6.876  17.199  14.047  1.00  0.00    -0.390 OA
HETATM   35  H50 UNL     1      -7.630  16.711  14.450  1.00  0.00     0.210 HD
ENDBRANCH  28  34
BRANCH  29  36
HETATM   36  O7  UNL     1      -7.650  15.888  16.064  1.00  0.00    -0.390 OA
HETATM   37  H52 UNL     1      -7.757  15.273  16.821  1.00  0.00     0.210 HD
ENDBRANCH  29  36
BRANCH  30  38
HETATM   38  O8  UNL     1      -6.198  15.241  18.274  1.00  0.00    -0.388 OA
HETATM   39  H54 UNL     1      -6.100  15.846  19.033  1.00  0.00     0.210 HD
ENDBRANCH  30  38
ENDBRANCH  24  25
ENDBRANCH  20  24
BRANCH   1  40
HETATM   40  C8  UNL     1       1.130   6.300  11.463  1.00  0.00    -0.011 C 
HETATM   41  C9  UNL     1       0.958   4.781  11.574  1.00  0.00     0.010 C 
BRANCH  40  42
HETATM   42  C7  UNL     1       2.507   6.688  12.080  1.00  0.00     0.040 C 
BRANCH  42  43
HETATM   43  C2  UNL     1       3.663   6.559  11.062  1.00  0.00     0.144 C 
BRANCH  43  44
HETATM   44  O1  UNL     1       4.914   6.676  11.739  1.00  0.00    -0.387 OA
HETATM   45  C1  UNL     1       6.014   6.199  10.975  1.00  0.00     0.202 C 
ENDBRANCH  43  44
BRANCH  43  46
HETATM   46  C3  UNL     1       3.513   7.593   9.967  1.00  0.00     0.007 C 
HETATM   47  C4  UNL     1       3.054   7.451   8.706  1.00  0.00    -0.089 C 
HETATM   48  C5  UNL     1       2.639   6.149   8.076  1.00  0.00     0.042 C 
HETATM   49  C6  UNL     1       2.933   8.644   7.793  1.00  0.00     0.042 C 
ENDBRANCH  43  46
ENDBRANCH  42  43
ENDBRANCH  40  42
ENDBRANCH   1  40
TORSDOF 12
ENDMDL
MODEL 5
REMARK minimizedAffinity -7.18858099
REMARK CNNscore 0.266563863
REMARK CNNaffinity 5.84170389
REMARK  12 active torsions:
REMARK  status: ('A' for Active; 'I' for Inactive)
REMARK    1  A    between atoms: O1_2  and  C2_3 
REMARK    2  A    between atoms: C2_3  and  C3_4 
REMARK    3  A    between atoms: C2_3  and  C7_8 
REMARK    4  A    between atoms: C7_8  and  C8_9 
REMARK    5  A    between atoms: C8_9  and  C10_11 
REMARK    6  A    between atoms: C28_30  and  O3_31 
REMARK    7  A    between atoms: O3_31  and  C29_32 
REMARK    8  A    between atoms: C30_34  and  C31_35 
REMARK    9  A    between atoms: C31_35  and  O5_36 
REMARK   10  A    between atoms: C32_37  and  O6_38 
REMARK   11  A    between atoms: C33_39  and  O7_40 
REMARK   12  A    between atoms: C34_41  and  O8_42 
ROOT
HETATM    1  C10 UNL     1       5.307  11.954  19.506  1.00  0.00    -0.002 C 
HETATM    2  C11 UNL     1       4.986  11.160  20.813  1.00  0.00     0.006 C 
HETATM    3  C12 UNL     1       3.458  11.110  20.974  1.00  0.00     0.011 C 
HETATM    4  C13 UNL     1       2.902  11.549  19.606  1.00  0.00    -0.029 C 
HETATM    5  C14 UNL     1       2.943  10.273  18.703  1.00  0.00     0.016 C 
HETATM    6  C15 UNL     1       1.465  12.157  19.637  1.00  0.00     0.028 C 
HETATM    7  C16 UNL     1       0.409  11.175  20.117  1.00  0.00    -0.021 C 
HETATM    8  C17 UNL     1      -0.759  11.020  19.471  1.00  0.00     0.008 C 
HETATM    9  C18 UNL     1      -1.073  11.811  18.203  1.00  0.00     0.092 C 
HETATM   10  O2  UNL     1      -1.290  13.156  18.692  1.00  0.00    -0.374 OA
HETATM   11  C19 UNL     1      -0.067  13.890  18.569  1.00  0.00     0.179 C 
HETATM   12  C20 UNL     1       1.061  12.875  18.269  1.00  0.00    -0.004 C 
HETATM   13  C21 UNL     1       2.235  13.624  17.583  1.00  0.00     0.014 C 
HETATM   14  C22 UNL     1       3.649  13.038  17.743  1.00  0.00     0.011 C 
HETATM   15  C23 UNL     1       3.942  12.662  19.204  1.00  0.00    -0.032 C 
HETATM   16  C24 UNL     1       3.845  13.950  20.083  1.00  0.00     0.016 C 
HETATM   17  C25 UNL     1       0.254  11.881  17.394  1.00  0.00     0.036 C 
HETATM   18  C26 UNL     1       0.031  12.252  15.930  1.00  0.00     0.011 C 
HETATM   19  C27 UNL     1      -0.895  11.254  15.230  1.00  0.00     0.033 C 
HETATM   20  C28 UNL     1      -1.840  10.488  16.172  1.00  0.00     0.136 C 
HETATM   21  C35 UNL     1      -2.330  11.369  17.356  1.00  0.00     0.014 C 
HETATM   22  C36 UNL     1      -3.138  12.588  16.819  1.00  0.00     0.021 C 
HETATM   23  C37 UNL     1      -3.350  10.559  18.193  1.00  0.00     0.021 C 
ENDROOT
BRANCH  20  24
HETATM   24  O3  UNL     1      -2.978  10.017  15.436  1.00  0.00    -0.352 OA
BRANCH  24  25
HETATM   25  C29 UNL     1      -2.768   8.776  14.746  1.00  0.00     0.292 C 
HETATM   26  O4  UNL     1      -3.739   8.590  13.720  1.00  0.00    -0.348 OA
HETATM   27  C30 UNL     1      -4.908   7.849  14.094  1.00  0.00     0.179 C 
HETATM   28  C32 UNL     1      -4.541   6.414  14.538  1.00  0.00     0.180 C 
HETATM   29  C33 UNL     1      -3.184   6.324  15.254  1.00  0.00     0.183 C 
HETATM   30  C34 UNL     1      -2.737   7.660  15.824  1.00  0.00     0.204 C 
BRANCH  27  31
HETATM   31  C31 UNL     1      -5.779   8.629  15.097  1.00  0.00     0.198 C 
BRANCH  31  32
HETATM   32  O5  UNL     1      -6.286   7.786  16.124  1.00  0.00    -0.398 OA
HETATM   33  H48 UNL     1      -6.944   8.303  16.618  1.00  0.00     0.209 HD
ENDBRANCH  31  32
ENDBRANCH  27  31
BRANCH  28  34
HETATM   34  O6  UNL     1      -4.496   5.555  13.380  1.00  0.00    -0.390 OA
HETATM   35  H50 UNL     1      -3.560   5.257  13.321  1.00  0.00     0.210 HD
ENDBRANCH  28  34
BRANCH  29  36
HETATM   36  O7  UNL     1      -2.176   5.820  14.346  1.00  0.00    -0.390 OA
HETATM   37  H52 UNL     1      -1.320   6.141  14.701  1.00  0.00     0.210 HD
ENDBRANCH  29  36
BRANCH  30  38
HETATM   38  O8  UNL     1      -1.395   7.505  16.337  1.00  0.00    -0.388 OA
HETATM   39  H54 UNL     1      -1.477   7.276  17.282  1.00  0.00     0.210 HD
ENDBRANCH  30  38
ENDBRANCH  24  25
ENDBRANCH  20  24
BRANCH   1  40
HETATM   40  C8  UNL     1       6.595  12.821  19.666  1.00  0.00    -0.011 C 
HETATM   41  C9  UNL     1       7.658  12.484  18.615  1.00  0.00     0.010 C 
BRANCH  40  42
HETATM   42  C7  UNL     1       7.232  12.671  21.080  1.00  0.00     0.040 C 
BRANCH  42  43
HETATM   43  C2  UNL     1       8.777  12.697  21.033  1.00  0.00     0.144 C 
BRANCH  43  44
HETATM   44  O1  UNL     1       9.302  11.811  22.020  1.00  0.00    -0.387 OA
HETATM   45  C1  UNL     1       8.418  11.599  23.113  1.00  0.00     0.202 C 
ENDBRANCH  43  44
BRANCH  43  46
HETATM   46  C3  UNL     1       9.281  14.112  21.216  1.00  0.00     0.007 C 
HETATM   47  C4  UNL     1       8.893  15.057  22.098  1.00  0.00    -0.089 C 
HETATM   48  C5  UNL     1       7.771  14.909  23.089  1.00  0.00     0.042 C 
HETATM   49  C6  UNL     1       9.583  16.396  22.144  1.00  0.00     0.042 C 
ENDBRANCH  43  46
ENDBRANCH  42  43
ENDBRANCH  40  42
ENDBRANCH   1  40
TORSDOF 12
ENDMDL
MODEL 6
REMARK minimizedAffinity -8.45242214
REMARK CNNscore 0.231108367
REMARK CNNaffinity 6.59675741
REMARK  12 active torsions:
REMARK  status: ('A' for Active; 'I' for Inactive)
REMARK    1  A    between atoms: O1_2  and  C2_3 
REMARK    2  A    between atoms: C2_3  and  C3_4 
REMARK    3  A    between atoms: C2_3  and  C7_8 
REMARK    4  A    between atoms: C7_8  and  C8_9 
REMARK    5  A    between atoms: C8_9  and  C10_11 
REMARK    6  A    between atoms: C28_30  and  O3_31 
REMARK    7  A    between atoms: O3_31  and  C29_32 
REMARK    8  A    between atoms: C30_34  and  C31_35 
REMARK    9  A    between atoms: C31_35  and  O5_36 
REMARK   10  A    between atoms: C32_37  and  O6_38 
REMARK   11  A    between atoms: C33_39  and  O7_40 
REMARK   12  A    between atoms: C34_41  and  O8_42 
ROOT
HETATM    1  C10 UNL     1      -0.383   6.494  11.730  1.00  0.00    -0.002 C 
HETATM    2  C11 UNL     1      -1.425   5.507  12.347  1.00  0.00     0.006 C 
HETATM    3  C12 UNL     1      -1.803   6.028  13.744  1.00  0.00     0.011 C 
HETATM    4  C13 UNL     1      -1.269   7.473  13.784  1.00  0.00    -0.029 C 
HETATM    5  C14 UNL     1      -2.348   8.344  13.063  1.00  0.00     0.016 C 
HETATM    6  C15 UNL     1      -0.971   8.031  15.211  1.00  0.00     0.028 C 
HETATM    7  C16 UNL     1      -2.207   8.117  16.090  1.00  0.00    -0.021 C 
HETATM    8  C17 UNL     1      -2.485   9.214  16.815  1.00  0.00     0.008 C 
HETATM    9  C18 UNL     1      -1.578  10.442  16.771  1.00  0.00     0.092 C 
HETATM   10  O2  UNL     1      -0.400  10.015  17.495  1.00  0.00    -0.374 OA
HETATM   11  C19 UNL     1       0.573   9.550  16.553  1.00  0.00     0.179 C 
HETATM   12  C20 UNL     1      -0.137   9.392  15.186  1.00  0.00    -0.004 C 
HETATM   13  C21 UNL     1       0.932   9.454  14.062  1.00  0.00     0.014 C 
HETATM   14  C22 UNL     1       0.620   8.732  12.739  1.00  0.00     0.011 C 
HETATM   15  C23 UNL     1       0.079   7.314  12.983  1.00  0.00    -0.032 C 
HETATM   16  C24 UNL     1       1.163   6.488  13.747  1.00  0.00     0.016 C 
HETATM   17  C25 UNL     1      -1.117  10.589  15.293  1.00  0.00     0.036 C 
HETATM   18  C26 UNL     1      -0.565  11.979  14.985  1.00  0.00     0.011 C 
HETATM   19  C27 UNL     1      -1.601  13.071  15.265  1.00  0.00     0.033 C 
HETATM   20  C28 UNL     1      -2.681  12.682  16.289  1.00  0.00     0.136 C 
HETATM   21  C35 UNL     1      -2.119  11.776  17.421  1.00  0.00     0.014 C 
HETATM   22  C36 UNL     1      -1.013  12.535  18.215  1.00  0.00     0.021 C 
HETATM   23  C37 UNL     1      -3.239  11.515  18.457  1.00  0.00     0.021 C 
ENDROOT
BRANCH  20  24
HETATM   24  O3  UNL     1      -3.244  13.866  16.872  1.00  0.00    -0.352 OA
BRANCH  24  25
HETATM   25  C29 UNL     1      -4.659  14.009  16.680  1.00  0.00     0.292 C 
HETATM   26  O4  UNL     1      -5.000  13.911  15.301  1.00  0.00    -0.348 OA
HETATM   27  C30 UNL     1      -5.073  15.151  14.586  1.00  0.00     0.179 C 
HETATM   28  C32 UNL     1      -6.157  16.078  15.183  1.00  0.00     0.180 C 
HETATM   29  C33 UNL     1      -6.309  15.937  16.706  1.00  0.00     0.183 C 
HETATM   30  C34 UNL     1      -5.075  15.339  17.362  1.00  0.00     0.204 C 
BRANCH  27  31
HETATM   31  C31 UNL     1      -3.684  15.801  14.434  1.00  0.00     0.198 C 
BRANCH  31  32
HETATM   32  O5  UNL     1      -3.552  16.483  13.193  1.00  0.00    -0.398 OA
HETATM   33  H48 UNL     1      -2.616  16.726  13.099  1.00  0.00     0.209 HD
ENDBRANCH  31  32
ENDBRANCH  27  31
BRANCH  28  34
HETATM   34  O6  UNL     1      -7.429  15.775  14.574  1.00  0.00    -0.390 OA
HETATM   35  H50 UNL     1      -7.991  15.446  15.312  1.00  0.00     0.210 HD
ENDBRANCH  28  34
BRANCH  29  36
HETATM   36  O7  UNL     1      -7.467  15.126  17.016  1.00  0.00    -0.390 OA
HETATM   37  H52 UNL     1      -7.298  14.760  17.910  1.00  0.00     0.210 HD
ENDBRANCH  29  36
BRANCH  30  38
HETATM   38  O8  UNL     1      -5.373  15.108  18.756  1.00  0.00    -0.388 OA
HETATM   39  H54 UNL     1      -5.088  15.904  19.244  1.00  0.00     0.210 HD
ENDBRANCH  30  38
ENDBRANCH  24  25
ENDBRANCH  20  24
BRANCH   1  40
HETATM   40  C8  UNL     1       0.685   5.739  10.879  1.00  0.00    -0.011 C 
HETATM   41  C9  UNL     1       0.959   4.327  11.409  1.00  0.00     0.010 C 
BRANCH  40  42
HETATM   42  C7  UNL     1       2.035   6.512  10.809  1.00  0.00     0.040 C 
BRANCH  42  43
HETATM   43  C2  UNL     1       3.013   5.893   9.785  1.00  0.00     0.144 C 
BRANCH  43  44
HETATM   44  O1  UNL     1       4.307   6.472   9.946  1.00  0.00    -0.387 OA
HETATM   45  C1  UNL     1       4.611   6.803  11.295  1.00  0.00     0.202 C 
ENDBRANCH  43  44
BRANCH  43  46
HETATM   46  C3  UNL     1       2.483   6.074   8.379  1.00  0.00     0.007 C 
HETATM   47  C4  UNL     1       2.354   7.201   7.646  1.00  0.00    -0.089 C 
HETATM   48  C5  UNL     1       2.667   8.590   8.131  1.00  0.00     0.042 C 
HETATM   49  C6  UNL     1       1.851   7.141   6.227  1.00  0.00     0.042 C 
ENDBRANCH  43  46
ENDBRANCH  42  43
ENDBRANCH  40  42
ENDBRANCH   1  40
TORSDOF 12
ENDMDL
MODEL 7
REMARK minimizedAffinity -7.95761871
REMARK CNNscore 0.228411078
REMARK CNNaffinity 6.51725388
REMARK  12 active torsions:
REMARK  status: ('A' for Active; 'I' for Inactive)
REMARK    1  A    between atoms: O1_2  and  C2_3 
REMARK    2  A    between atoms: C2_3  and  C3_4 
REMARK    3  A    between atoms: C2_3  and  C7_8 
REMARK    4  A    between atoms: C7_8  and  C8_9 
REMARK    5  A    between atoms: C8_9  and  C10_11 
REMARK    6  A    between atoms: C28_30  and  O3_31 
REMARK    7  A    between atoms: O3_31  and  C29_32 
REMARK    8  A    between atoms: C30_34  and  C31_35 
REMARK    9  A    between atoms: C31_35  and  O5_36 
REMARK   10  A    between atoms: C32_37  and  O6_38 
REMARK   11  A    between atoms: C33_39  and  O7_40 
REMARK   12  A    between atoms: C34_41  and  O8_42 
ROOT
HETATM    1  C10 UNL     1      -0.373   6.427  11.703  1.00  0.00    -0.002 C 
HETATM    2  C11 UNL     1      -1.517   5.501  12.229  1.00  0.00     0.006 C 
HETATM    3  C12 UNL     1      -1.991   6.058  13.582  1.00  0.00     0.011 C 
HETATM    4  C13 UNL     1      -1.388   7.473  13.660  1.00  0.00    -0.029 C 
HETATM    5  C14 UNL     1      -2.352   8.390  12.838  1.00  0.00     0.016 C 
HETATM    6  C15 UNL     1      -1.192   8.032  15.105  1.00  0.00     0.028 C 
HETATM    7  C16 UNL     1      -2.496   8.191  15.868  1.00  0.00    -0.021 C 
HETATM    8  C17 UNL     1      -2.780   9.310  16.557  1.00  0.00     0.008 C 
HETATM    9  C18 UNL     1      -1.810  10.489  16.587  1.00  0.00     0.092 C 
HETATM   10  O2  UNL     1      -0.726  10.011  17.418  1.00  0.00    -0.374 OA
HETATM   11  C19 UNL     1       0.302   9.486  16.570  1.00  0.00     0.179 C 
HETATM   12  C20 UNL     1      -0.289   9.349  15.146  1.00  0.00    -0.004 C 
HETATM   13  C21 UNL     1       0.879   9.343  14.123  1.00  0.00     0.014 C 
HETATM   14  C22 UNL     1       0.650   8.623  12.782  1.00  0.00     0.011 C 
HETATM   15  C23 UNL     1       0.016   7.237  12.986  1.00  0.00    -0.032 C 
HETATM   16  C24 UNL     1       0.982   6.366  13.851  1.00  0.00     0.016 C 
HETATM   17  C25 UNL     1      -1.211  10.595  15.155  1.00  0.00     0.036 C 
HETATM   18  C26 UNL     1      -0.563  11.952  14.889  1.00  0.00     0.011 C 
HETATM   19  C27 UNL     1      -1.561  13.098  15.067  1.00  0.00     0.033 C 
HETATM   20  C28 UNL     1      -2.748  12.776  15.991  1.00  0.00     0.136 C 
HETATM   21  C35 UNL     1      -2.338  11.856  17.175  1.00  0.00     0.014 C 
HETATM   22  C36 UNL     1      -1.270  12.567  18.062  1.00  0.00     0.021 C 
HETATM   23  C37 UNL     1      -3.559  11.665  18.108  1.00  0.00     0.021 C 
ENDROOT
BRANCH  20  24
HETATM   24  O3  UNL     1      -3.299  13.994  16.513  1.00  0.00    -0.352 OA
BRANCH  24  25
HETATM   25  C29 UNL     1      -2.805  15.187  15.885  1.00  0.00     0.292 C 
HETATM   26  O4  UNL     1      -2.223  16.066  16.843  1.00  0.00    -0.348 OA
HETATM   27  C30 UNL     1      -3.097  17.064  17.386  1.00  0.00     0.179 C 
HETATM   28  C32 UNL     1      -3.629  18.003  16.279  1.00  0.00     0.180 C 
HETATM   29  C33 UNL     1      -3.840  17.298  14.930  1.00  0.00     0.183 C 
HETATM   30  C34 UNL     1      -3.982  15.792  15.075  1.00  0.00     0.204 C 
BRANCH  27  31
HETATM   31  C31 UNL     1      -4.187  16.439  18.278  1.00  0.00     0.198 C 
BRANCH  31  32
HETATM   32  O5  UNL     1      -3.634  15.562  19.252  1.00  0.00    -0.398 OA
HETATM   33  H48 UNL     1      -4.377  15.090  19.664  1.00  0.00     0.209 HD
ENDBRANCH  31  32
ENDBRANCH  27  31
BRANCH  28  34
HETATM   34  O6  UNL     1      -2.694  19.083  16.081  1.00  0.00    -0.390 OA
HETATM   35  H50 UNL     1      -2.369  18.971  15.158  1.00  0.00     0.210 HD
ENDBRANCH  28  34
BRANCH  29  36
HETATM   36  O7  UNL     1      -2.743  17.600  14.036  1.00  0.00    -0.390 OA
HETATM   37  H52 UNL     1      -2.722  16.862  13.389  1.00  0.00     0.210 HD
ENDBRANCH  29  36
BRANCH  30  38
HETATM   38  O8  UNL     1      -4.022  15.213  13.753  1.00  0.00    -0.388 OA
HETATM   39  H54 UNL     1      -4.962  15.147  13.499  1.00  0.00     0.210 HD
ENDBRANCH  30  38
ENDBRANCH  24  25
ENDBRANCH  20  24
BRANCH   1  40
HETATM   40  C8  UNL     1       0.726   5.608  10.957  1.00  0.00    -0.011 C 
HETATM   41  C9  UNL     1       0.850   4.177  11.492  1.00  0.00     0.010 C 
BRANCH  40  42
HETATM   42  C7  UNL     1       2.124   6.290  11.040  1.00  0.00     0.040 C 
BRANCH  42  43
HETATM   43  C2  UNL     1       3.117   5.722   9.999  1.00  0.00     0.144 C 
BRANCH  43  44
HETATM   44  O1  UNL     1       4.391   6.343  10.162  1.00  0.00    -0.387 OA
HETATM   45  C1  UNL     1       4.540   7.000  11.414  1.00  0.00     0.202 C 
ENDBRANCH  43  44
BRANCH  43  46
HETATM   46  C3  UNL     1       2.571   5.909   8.600  1.00  0.00     0.007 C 
HETATM   47  C4  UNL     1       2.446   7.037   7.868  1.00  0.00    -0.089 C 
HETATM   48  C5  UNL     1       2.781   8.423   8.348  1.00  0.00     0.042 C 
HETATM   49  C6  UNL     1       1.925   6.982   6.455  1.00  0.00     0.042 C 
ENDBRANCH  43  46
ENDBRANCH  42  43
ENDBRANCH  40  42
ENDBRANCH   1  40
TORSDOF 12
ENDMDL
MODEL 8
REMARK minimizedAffinity -7.32424736
REMARK CNNscore 0.200057596
REMARK CNNaffinity 6.79880953
REMARK  12 active torsions:
REMARK  status: ('A' for Active; 'I' for Inactive)
REMARK    1  A    between atoms: O1_2  and  C2_3 
REMARK    2  A    between atoms: C2_3  and  C3_4 
REMARK    3  A    between atoms: C2_3  and  C7_8 
REMARK    4  A    between atoms: C7_8  and  C8_9 
REMARK    5  A    between atoms: C8_9  and  C10_11 
REMARK    6  A    between atoms: C28_30  and  O3_31 
REMARK    7  A    between atoms: O3_31  and  C29_32 
REMARK    8  A    between atoms: C30_34  and  C31_35 
REMARK    9  A    between atoms: C31_35  and  O5_36 
REMARK   10  A    between atoms: C32_37  and  O6_38 
REMARK   11  A    between atoms: C33_39  and  O7_40 
REMARK   12  A    between atoms: C34_41  and  O8_42 
ROOT
HETATM    1  C10 UNL     1      -6.216   6.328  15.330  1.00  0.00    -0.002 C 
HETATM    2  C11 UNL     1      -5.898   7.749  15.896  1.00  0.00     0.006 C 
HETATM    3  C12 UNL     1      -7.084   8.669  15.562  1.00  0.00     0.011 C 
HETATM    4  C13 UNL     1      -8.216   7.714  15.135  1.00  0.00    -0.029 C 
HETATM    5  C14 UNL     1      -8.863   7.204  16.464  1.00  0.00     0.016 C 
HETATM    6  C15 UNL     1      -9.296   8.342  14.199  1.00  0.00     0.028 C 
HETATM    7  C16 UNL     1     -10.060   9.483  14.848  1.00  0.00    -0.021 C 
HETATM    8  C17 UNL     1     -11.400   9.567  14.780  1.00  0.00     0.008 C 
HETATM    9  C18 UNL     1     -12.223   8.500  14.060  1.00  0.00     0.092 C 
HETATM   10  O2  UNL     1     -11.934   8.739  12.662  1.00  0.00    -0.374 OA
HETATM   11  C19 UNL     1     -10.876   7.864  12.258  1.00  0.00     0.179 C 
HETATM   12  C20 UNL     1     -10.259   7.252  13.539  1.00  0.00    -0.004 C 
HETATM   13  C21 UNL     1      -9.542   5.927  13.162  1.00  0.00     0.014 C 
HETATM   14  C22 UNL     1      -8.375   5.467  14.053  1.00  0.00     0.011 C 
HETATM   15  C23 UNL     1      -7.401   6.620  14.348  1.00  0.00    -0.032 C 
HETATM   16  C24 UNL     1      -6.811   7.136  12.996  1.00  0.00     0.016 C 
HETATM   17  C25 UNL     1     -11.551   7.137  14.389  1.00  0.00     0.036 C 
HETATM   18  C26 UNL     1     -12.468   5.948  14.115  1.00  0.00     0.011 C 
HETATM   19  C27 UNL     1     -13.765   6.039  14.924  1.00  0.00     0.033 C 
HETATM   20  C28 UNL     1     -14.157   7.465  15.348  1.00  0.00     0.136 C 
HETATM   21  C35 UNL     1     -13.789   8.521  14.267  1.00  0.00     0.014 C 
HETATM   22  C36 UNL     1     -14.561   8.227  12.945  1.00  0.00     0.021 C 
HETATM   23  C37 UNL     1     -14.305   9.907  14.724  1.00  0.00     0.021 C 
ENDROOT
BRANCH  20  24
HETATM   24  O3  UNL     1     -15.568   7.524  15.599  1.00  0.00    -0.352 OA
BRANCH  24  25
HETATM   25  C29 UNL     1     -16.015   6.690  16.678  1.00  0.00     0.292 C 
HETATM   26  O4  UNL     1     -17.331   6.203  16.436  1.00  0.00    -0.348 OA
HETATM   27  C30 UNL     1     -18.398   6.986  16.987  1.00  0.00     0.179 C 
HETATM   28  C32 UNL     1     -18.296   7.063  18.528  1.00  0.00     0.180 C 
HETATM   29  C33 UNL     1     -16.849   7.073  19.045  1.00  0.00     0.183 C 
HETATM   30  C34 UNL     1     -15.854   7.514  17.983  1.00  0.00     0.204 C 
BRANCH  27  31
HETATM   31  C31 UNL     1     -18.524   8.350  16.282  1.00  0.00     0.198 C 
BRANCH  31  32
HETATM   32  O5  UNL     1     -18.963   9.367  17.173  1.00  0.00    -0.398 OA
HETATM   33  H48 UNL     1     -19.170  10.149  16.634  1.00  0.00     0.209 HD
ENDBRANCH  31  32
ENDBRANCH  27  31
BRANCH  28  34
HETATM   34  O6  UNL     1     -18.973   5.929  19.107  1.00  0.00    -0.390 OA
HETATM   35  H50 UNL     1     -18.267   5.421  19.569  1.00  0.00     0.210 HD
ENDBRANCH  28  34
BRANCH  29  36
HETATM   36  O7  UNL     1     -16.488   5.760  19.534  1.00  0.00    -0.390 OA
HETATM   37  H52 UNL     1     -15.509   5.719  19.479  1.00  0.00     0.210 HD
ENDBRANCH  29  36
BRANCH  30  38
HETATM   38  O8  UNL     1     -14.522   7.343  18.515  1.00  0.00    -0.388 OA
HETATM   39  H54 UNL     1     -14.267   8.192  18.922  1.00  0.00     0.210 HD
ENDBRANCH  30  38
ENDBRANCH  24  25
ENDBRANCH  20  24
BRANCH   1  40
HETATM   40  C8  UNL     1      -4.931   5.629  14.787  1.00  0.00    -0.011 C 
HETATM   41  C9  UNL     1      -3.647   6.273  15.321  1.00  0.00     0.010 C 
BRANCH  40  42
HETATM   42  C7  UNL     1      -4.875   5.630  13.231  1.00  0.00     0.040 C 
BRANCH  42  43
HETATM   43  C2  UNL     1      -4.130   4.398  12.669  1.00  0.00     0.144 C 
BRANCH  43  44
HETATM   44  O1  UNL     1      -3.132   4.821  11.742  1.00  0.00    -0.387 OA
HETATM   45  C1  UNL     1      -1.807   4.538  12.172  1.00  0.00     0.202 C 
ENDBRANCH  43  44
BRANCH  43  46
HETATM   46  C3  UNL     1      -5.113   3.434  12.041  1.00  0.00     0.007 C 
HETATM   47  C4  UNL     1      -4.938   2.150  11.663  1.00  0.00    -0.089 C 
HETATM   48  C5  UNL     1      -3.638   1.396  11.731  1.00  0.00     0.042 C 
HETATM   49  C6  UNL     1      -6.087   1.348  11.108  1.00  0.00     0.042 C 
ENDBRANCH  43  46
ENDBRANCH  42  43
ENDBRANCH  40  42
ENDBRANCH   1  40
TORSDOF 12
ENDMDL
MODEL 9
REMARK minimizedAffinity -7.43726206
REMARK CNNscore 0.188132808
REMARK CNNaffinity 5.74607468
REMARK  12 active torsions:
REMARK  status: ('A' for Active; 'I' for Inactive)
REMARK    1  A    between atoms: O1_2  and  C2_3 
REMARK    2  A    between atoms: C2_3  and  C3_4 
REMARK    3  A    between atoms: C2_3  and  C7_8 
REMARK    4  A    between atoms: C7_8  and  C8_9 
REMARK    5  A    between atoms: C8_9  and  C10_11 
REMARK    6  A    between atoms: C28_30  and  O3_31 
REMARK    7  A    between atoms: O3_31  and  C29_32 
REMARK    8  A    between atoms: C30_34  and  C31_35 
REMARK    9  A    between atoms: C31_35  and  O5_36 
REMARK   10  A    between atoms: C32_37  and  O6_38 
REMARK   11  A    between atoms: C33_39  and  O7_40 
REMARK   12  A    between atoms: C34_41  and  O8_42 
ROOT
HETATM    1  C10 UNL     1       4.717  12.086  20.966  1.00  0.00    -0.002 C 
HETATM    2  C11 UNL     1       3.782  11.913  22.205  1.00  0.00     0.006 C 
HETATM    3  C12 UNL     1       2.326  11.993  21.715  1.00  0.00     0.011 C 
HETATM    4  C13 UNL     1       2.417  11.851  20.183  1.00  0.00    -0.029 C 
HETATM    5  C14 UNL     1       2.526  10.317  19.906  1.00  0.00     0.016 C 
HETATM    6  C15 UNL     1       1.227  12.474  19.387  1.00  0.00     0.028 C 
HETATM    7  C16 UNL     1      -0.108  11.819  19.696  1.00  0.00    -0.021 C 
HETATM    8  C17 UNL     1      -0.960  11.457  18.722  1.00  0.00     0.008 C 
HETATM    9  C18 UNL     1      -0.615  11.669  17.250  1.00  0.00     0.092 C 
HETATM   10  O2  UNL     1      -0.717  13.103  17.084  1.00  0.00    -0.374 OA
HETATM   11  C19 UNL     1       0.589  13.674  17.232  1.00  0.00     0.179 C 
HETATM   12  C20 UNL     1       1.514  12.581  17.820  1.00  0.00    -0.004 C 
HETATM   13  C21 UNL     1       2.985  12.936  17.473  1.00  0.00     0.014 C 
HETATM   14  C22 UNL     1       4.087  12.413  18.410  1.00  0.00     0.011 C 
HETATM   15  C23 UNL     1       3.737  12.660  19.887  1.00  0.00    -0.032 C 
HETATM   16  C24 UNL     1       3.589  14.198  20.117  1.00  0.00     0.016 C 
HETATM   17  C25 UNL     1       0.900  11.348  17.108  1.00  0.00     0.036 C 
HETATM   18  C26 UNL     1       1.314  11.093  15.660  1.00  0.00     0.011 C 
HETATM   19  C27 UNL     1       0.528   9.933  15.045  1.00  0.00     0.033 C 
HETATM   20  C28 UNL     1      -0.833   9.658  15.708  1.00  0.00     0.136 C 
HETATM   21  C35 UNL     1      -1.533  10.966  16.173  1.00  0.00     0.014 C 
HETATM   22  C36 UNL     1      -1.817  11.888  14.949  1.00  0.00     0.021 C 
HETATM   23  C37 UNL     1      -2.933  10.613  16.733  1.00  0.00     0.021 C 
ENDROOT
BRANCH  20  24
HETATM   24  O3  UNL     1      -1.690   8.971  14.784  1.00  0.00    -0.352 OA
BRANCH  24  25
HETATM   25  C29 UNL     1      -1.095   7.822  14.164  1.00  0.00     0.292 C 
HETATM   26  O4  UNL     1      -1.674   7.573  12.887  1.00  0.00    -0.348 OA
HETATM   27  C30 UNL     1      -2.773   6.652  12.868  1.00  0.00     0.179 C 
HETATM   28  C32 UNL     1      -2.339   5.255  13.370  1.00  0.00     0.180 C 
HETATM   29  C33 UNL     1      -1.262   5.306  14.465  1.00  0.00     0.183 C 
HETATM   30  C34 UNL     1      -1.216   6.650  15.175  1.00  0.00     0.204 C 
BRANCH  27  31
HETATM   31  C31 UNL     1      -4.013   7.233  13.574  1.00  0.00     0.198 C 
BRANCH  31  32
HETATM   32  O5  UNL     1      -4.694   6.247  14.340  1.00  0.00    -0.398 OA
HETATM   33  H48 UNL     1      -5.538   6.638  14.621  1.00  0.00     0.209 HD
ENDBRANCH  31  32
ENDBRANCH  27  31
BRANCH  28  34
HETATM   34  O6  UNL     1      -1.819   4.492  12.262  1.00  0.00    -0.390 OA
HETATM   35  H50 UNL     1      -0.874   4.332  12.486  1.00  0.00     0.210 HD
ENDBRANCH  28  34
BRANCH  29  36
HETATM   36  O7  UNL     1       0.037   5.012  13.897  1.00  0.00    -0.390 OA
HETATM   37  H52 UNL     1       0.688   5.424  14.504  1.00  0.00     0.210 HD
ENDBRANCH  29  36
BRANCH  30  38
HETATM   38  O8  UNL     1      -0.082   6.649  16.069  1.00  0.00    -0.388 OA
HETATM   39  H54 UNL     1      -0.406   6.346  16.938  1.00  0.00     0.210 HD
ENDBRANCH  30  38
ENDBRANCH  24  25
ENDBRANCH  20  24
BRANCH   1  40
HETATM   40  C8  UNL     1       6.004  12.891  21.330  1.00  0.00    -0.011 C 
HETATM   41  C9  UNL     1       6.894  13.150  20.109  1.00  0.00     0.010 C 
BRANCH  40  42
HETATM   42  C7  UNL     1       6.855  12.176  22.421  1.00  0.00     0.040 C 
BRANCH  42  43
HETATM   43  C2  UNL     1       8.139  12.962  22.772  1.00  0.00     0.144 C 
BRANCH  43  44
HETATM   44  O1  UNL     1       7.951  14.345  22.478  1.00  0.00    -0.387 OA
HETATM   45  C1  UNL     1       8.052  15.183  23.622  1.00  0.00     0.202 C 
ENDBRANCH  43  44
BRANCH  43  46
HETATM   46  C3  UNL     1       9.326  12.382  22.032  1.00  0.00     0.007 C 
HETATM   47  C4  UNL     1      10.114  12.946  21.092  1.00  0.00    -0.089 C 
HETATM   48  C5  UNL     1       9.919  14.319  20.508  1.00  0.00     0.042 C 
HETATM   49  C6  UNL     1      11.293  12.197  20.527  1.00  0.00     0.042 C 
ENDBRANCH  43  46
ENDBRANCH  42  43
ENDBRANCH  40  42
ENDBRANCH   1  40
TORSDOF 12
ENDMDL
