MODEL 1
REMARK minimizedAffinity -7.54979563
REMARK CNNscore 0.673450708
REMARK CNNaffinity 6.94741011
REMARK  5 active torsions:
REMARK  status: ('A' for Active; 'I' for Inactive)
REMARK    1  A    between atoms: C2_2  and  C25_28 
REMARK    2  A    between atoms: C3_3  and  C4_4 
REMARK    3  A    between atoms: C4_4  and  C6_6 
REMARK    4  A    between atoms: C20_20  and  O1_21 
REMARK    5  A    between atoms: C25_28  and  C27_30 
ROOT
HETATM    1  C6  UNL     1       3.971  55.226  -8.040  1.00  0.00     0.001 C 
HETATM    2  C7  UNL     1       3.219  56.344  -7.258  1.00  0.00     0.006 C 
HETATM    3  C8  UNL     1       1.714  56.114  -7.474  1.00  0.00     0.009 C 
HETATM    4  C9  UNL     1       1.654  54.807  -8.258  1.00  0.00     0.036 C 
HETATM    5  C10 UNL     1       2.929  54.817  -9.139  1.00  0.00    -0.033 C 
HETATM    6  C11 UNL     1       2.905  55.845 -10.290  1.00  0.00     0.016 C 
HETATM    7  C12 UNL     1       3.087  53.392  -9.706  1.00  0.00     0.010 C 
HETATM    8  C13 UNL     1       1.848  52.933 -10.495  1.00  0.00     0.010 C 
HETATM    9  C14 UNL     1       0.545  53.029  -9.677  1.00  0.00     0.039 C 
HETATM   10  C15 UNL     1       0.348  54.403  -8.949  1.00  0.00     0.123 C 
HETATM   11  C16 UNL     1      -0.330  55.434  -9.812  1.00  0.00     0.014 C 
HETATM   12  C17 UNL     1      -1.535  55.042 -10.257  1.00  0.00     0.014 C 
HETATM   13  C18 UNL     1      -1.891  53.611  -9.896  1.00  0.00     0.124 C 
HETATM   14  C19 UNL     1      -3.314  53.242 -10.335  1.00  0.00     0.078 C 
HETATM   15  C20 UNL     1      -3.612  51.739 -10.274  1.00  0.00     0.121 C 
HETATM   16  C21 UNL     1      -2.529  50.911  -9.589  1.00  0.00     0.033 C 
HETATM   17  C22 UNL     1      -1.142  51.144 -10.192  1.00  0.00     0.015 C 
HETATM   18  C23 UNL     1      -0.785  52.642 -10.454  1.00  0.00     0.001 C 
HETATM   19  C24 UNL     1      -0.645  52.817 -11.991  1.00  0.00     0.019 C 
HETATM   20  O2  UNL     1      -1.849  53.515  -8.444  1.00  0.00    -0.223 OA
HETATM   21  O3  UNL     1      -0.623  54.158  -7.892  1.00  0.00    -0.224 OA
ENDROOT
BRANCH   1  22
HETATM   22  C4  UNL     1       5.401  55.661  -8.459  1.00  0.00     0.009 C 
HETATM   23  C5  UNL     1       5.906  54.992  -9.742  1.00  0.00     0.014 C 
BRANCH  22  24
HETATM   24  C3  UNL     1       6.494  55.538  -7.401  1.00  0.00    -0.019 C 
HETATM   25  C2  UNL     1       6.865  56.351  -6.388  1.00  0.00    -0.083 C 
HETATM   26  C1  UNL     1       6.170  57.646  -6.055  1.00  0.00     0.043 C 
BRANCH  25  27
HETATM   27  C25 UNL     1       8.046  56.005  -5.462  1.00  0.00     0.013 C 
HETATM   28  C26 UNL     1       7.761  54.741  -4.621  1.00  0.00     0.015 C 
BRANCH  27  29
HETATM   29  C27 UNL     1       8.484  57.210  -4.568  1.00  0.00    -0.015 C 
HETATM   30  C28 UNL     1       9.736  57.913  -5.108  1.00  0.00     0.010 C 
HETATM   31  C29 UNL     1       7.374  58.255  -4.400  1.00  0.00     0.010 C 
ENDBRANCH  27  29
ENDBRANCH  25  27
ENDBRANCH  22  24
ENDBRANCH   1  22
BRANCH  15  32
HETATM   32  O1  UNL     1      -3.792  51.272 -11.616  1.00  0.00    -0.395 OA
HETATM   33  H28 UNL     1      -3.885  50.302 -11.587  1.00  0.00     0.210 HD
ENDBRANCH  15  32
TORSDOF 5
ENDMDL
MODEL 2
REMARK minimizedAffinity -6.82553911
REMARK CNNscore 0.528682947
REMARK CNNaffinity 6.95159149
REMARK  5 active torsions:
REMARK  status: ('A' for Active; 'I' for Inactive)
REMARK    1  A    between atoms: C2_2  and  C25_28 
REMARK    2  A    between atoms: C3_3  and  C4_4 
REMARK    3  A    between atoms: C4_4  and  C6_6 
REMARK    4  A    between atoms: C20_20  and  O1_21 
REMARK    5  A    between atoms: C25_28  and  C27_30 
ROOT
HETATM    1  C6  UNL     1       1.294  53.284  -8.646  1.00  0.00     0.001 C 
HETATM    2  C7  UNL     1      -0.211  53.244  -8.243  1.00  0.00     0.006 C 
HETATM    3  C8  UNL     1      -0.956  52.475  -9.348  1.00  0.00     0.009 C 
HETATM    4  C9  UNL     1       0.159  51.992 -10.270  1.00  0.00     0.036 C 
HETATM    5  C10 UNL     1       1.236  53.105 -10.203  1.00  0.00    -0.033 C 
HETATM    6  C11 UNL     1       0.837  54.425 -10.897  1.00  0.00     0.016 C 
HETATM    7  C12 UNL     1       2.510  52.529 -10.853  1.00  0.00     0.010 C 
HETATM    8  C13 UNL     1       2.268  52.051 -12.296  1.00  0.00     0.010 C 
HETATM    9  C14 UNL     1       1.117  51.030 -12.406  1.00  0.00     0.039 C 
HETATM   10  C15 UNL     1      -0.193  51.465 -11.664  1.00  0.00     0.123 C 
HETATM   11  C16 UNL     1      -1.100  52.309 -12.520  1.00  0.00     0.014 C 
HETATM   12  C17 UNL     1      -1.469  51.703 -13.659  1.00  0.00     0.014 C 
HETATM   13  C18 UNL     1      -0.799  50.361 -13.890  1.00  0.00     0.124 C 
HETATM   14  C19 UNL     1      -1.326  49.661 -15.149  1.00  0.00     0.078 C 
HETATM   15  C20 UNL     1      -0.477  48.464 -15.595  1.00  0.00     0.121 C 
HETATM   16  C21 UNL     1       0.601  48.051 -14.597  1.00  0.00     0.033 C 
HETATM   17  C22 UNL     1       1.511  49.217 -14.200  1.00  0.00     0.015 C 
HETATM   18  C23 UNL     1       0.763  50.550 -13.877  1.00  0.00     0.001 C 
HETATM   19  C24 UNL     1       1.187  51.584 -14.956  1.00  0.00     0.019 C 
HETATM   20  O2  UNL     1      -1.135  49.515 -12.754  1.00  0.00    -0.223 OA
HETATM   21  O3  UNL     1      -0.961  50.243 -11.464  1.00  0.00    -0.224 OA
ENDROOT
BRANCH   1  22
HETATM   22  C4  UNL     1       2.033  54.505  -8.037  1.00  0.00     0.009 C 
HETATM   23  C5  UNL     1       1.441  55.859  -8.442  1.00  0.00     0.014 C 
BRANCH  22  24
HETATM   24  C3  UNL     1       3.543  54.568  -8.247  1.00  0.00    -0.019 C 
HETATM   25  C2  UNL     1       4.303  55.249  -9.133  1.00  0.00    -0.083 C 
HETATM   26  C1  UNL     1       3.744  56.202 -10.158  1.00  0.00     0.043 C 
BRANCH  25  27
HETATM   27  C25 UNL     1       5.837  55.112  -9.158  1.00  0.00     0.013 C 
HETATM   28  C26 UNL     1       6.276  53.650  -9.389  1.00  0.00     0.015 C 
BRANCH  27  29
HETATM   29  C27 UNL     1       6.517  55.729  -7.894  1.00  0.00    -0.015 C 
HETATM   30  C28 UNL     1       5.646  56.799  -7.224  1.00  0.00     0.010 C 
HETATM   31  C29 UNL     1       6.881  54.671  -6.844  1.00  0.00     0.010 C 
ENDBRANCH  27  29
ENDBRANCH  25  27
ENDBRANCH  22  24
ENDBRANCH   1  22
BRANCH  15  32
HETATM   32  O1  UNL     1       0.134  48.800 -16.846  1.00  0.00    -0.395 OA
HETATM   33  H28 UNL     1       0.749  48.082 -17.083  1.00  0.00     0.210 HD
ENDBRANCH  15  32
TORSDOF 5
ENDMDL
MODEL 3
REMARK minimizedAffinity -7.26931429
REMARK CNNscore 0.512475848
REMARK CNNaffinity 6.05200529
REMARK  5 active torsions:
REMARK  status: ('A' for Active; 'I' for Inactive)
REMARK    1  A    between atoms: C2_2  and  C25_28 
REMARK    2  A    between atoms: C3_3  and  C4_4 
REMARK    3  A    between atoms: C4_4  and  C6_6 
REMARK    4  A    between atoms: C20_20  and  O1_21 
REMARK    5  A    between atoms: C25_28  and  C27_30 
ROOT
HETATM    1  C6  UNL     1       4.142  56.744  -8.595  1.00  0.00     0.001 C 
HETATM    2  C7  UNL     1       3.274  57.623  -7.645  1.00  0.00     0.006 C 
HETATM    3  C8  UNL     1       4.101  57.864  -6.370  1.00  0.00     0.009 C 
HETATM    4  C9  UNL     1       5.452  57.230  -6.686  1.00  0.00     0.036 C 
HETATM    5  C10 UNL     1       5.116  56.023  -7.600  1.00  0.00    -0.033 C 
HETATM    6  C11 UNL     1       4.409  54.854  -6.882  1.00  0.00     0.016 C 
HETATM    7  C12 UNL     1       6.450  55.543  -8.207  1.00  0.00     0.010 C 
HETATM    8  C13 UNL     1       7.487  55.178  -7.130  1.00  0.00     0.010 C 
HETATM    9  C14 UNL     1       7.750  56.325  -6.134  1.00  0.00     0.039 C 
HETATM   10  C15 UNL     1       6.447  56.973  -5.551  1.00  0.00     0.123 C 
HETATM   11  C16 UNL     1       5.936  56.265  -4.324  1.00  0.00     0.014 C 
HETATM   12  C17 UNL     1       6.835  56.214  -3.329  1.00  0.00     0.014 C 
HETATM   13  C18 UNL     1       8.199  56.769  -3.700  1.00  0.00     0.124 C 
HETATM   14  C19 UNL     1       9.161  56.783  -2.505  1.00  0.00     0.078 C 
HETATM   15  C20 UNL     1      10.624  57.039  -2.889  1.00  0.00     0.121 C 
HETATM   16  C21 UNL     1      10.829  57.446  -4.345  1.00  0.00     0.033 C 
HETATM   17  C22 UNL     1      10.198  56.456  -5.327  1.00  0.00     0.015 C 
HETATM   18  C23 UNL     1       8.755  55.991  -4.951  1.00  0.00     0.001 C 
HETATM   19  C24 UNL     1       8.828  54.470  -4.647  1.00  0.00     0.019 C 
HETATM   20  O2  UNL     1       8.000  58.150  -4.111  1.00  0.00    -0.223 OA
HETATM   21  O3  UNL     1       6.845  58.279  -5.044  1.00  0.00    -0.224 OA
ENDROOT
BRANCH   1  22
HETATM   22  C4  UNL     1       3.277  55.903  -9.571  1.00  0.00     0.009 C 
HETATM   23  C5  UNL     1       3.293  56.413 -11.017  1.00  0.00     0.014 C 
BRANCH  22  24
HETATM   24  C3  UNL     1       1.824  55.665  -9.171  1.00  0.00    -0.019 C 
HETATM   25  C2  UNL     1       0.867  54.860  -9.684  1.00  0.00    -0.083 C 
HETATM   26  C1  UNL     1       1.093  53.921 -10.840  1.00  0.00     0.043 C 
BRANCH  25  27
HETATM   27  C25 UNL     1      -0.560  54.828  -9.105  1.00  0.00     0.013 C 
HETATM   28  C26 UNL     1      -0.548  54.732  -7.563  1.00  0.00     0.015 C 
BRANCH  27  29
HETATM   29  C27 UNL     1      -1.446  53.713  -9.748  1.00  0.00    -0.015 C 
HETATM   30  C28 UNL     1      -1.940  52.691  -8.716  1.00  0.00     0.010 C 
HETATM   31  C29 UNL     1      -2.663  54.282 -10.489  1.00  0.00     0.010 C 
ENDBRANCH  27  29
ENDBRANCH  25  27
ENDBRANCH  22  24
ENDBRANCH   1  22
BRANCH  15  32
HETATM   32  O1  UNL     1      11.364  55.843  -2.619  1.00  0.00    -0.395 OA
HETATM   33  H28 UNL     1      12.272  55.970  -2.952  1.00  0.00     0.210 HD
ENDBRANCH  15  32
TORSDOF 5
ENDMDL
MODEL 4
REMARK minimizedAffinity -6.92530155
REMARK CNNscore 0.499263316
REMARK CNNaffinity 6.66652918
REMARK  5 active torsions:
REMARK  status: ('A' for Active; 'I' for Inactive)
REMARK    1  A    between atoms: C2_2  and  C25_28 
REMARK    2  A    between atoms: C3_3  and  C4_4 
REMARK    3  A    between atoms: C4_4  and  C6_6 
REMARK    4  A    between atoms: C20_20  and  O1_21 
REMARK    5  A    between atoms: C25_28  and  C27_30 
ROOT
HETATM    1  C6  UNL     1       0.121  54.430 -10.765  1.00  0.00     0.001 C 
HETATM    2  C7  UNL     1      -1.033  55.063  -9.931  1.00  0.00     0.006 C 
HETATM    3  C8  UNL     1      -0.399  55.665  -8.666  1.00  0.00     0.009 C 
HETATM    4  C9  UNL     1       1.099  55.473  -8.880  1.00  0.00     0.036 C 
HETATM    5  C10 UNL     1       1.215  54.147  -9.677  1.00  0.00    -0.033 C 
HETATM    6  C11 UNL     1       0.874  52.880  -8.864  1.00  0.00     0.016 C 
HETATM    7  C12 UNL     1       2.664  54.069 -10.197  1.00  0.00     0.010 C 
HETATM    8  C13 UNL     1       3.700  54.149  -9.061  1.00  0.00     0.010 C 
HETATM    9  C14 UNL     1       3.529  55.402  -8.178  1.00  0.00     0.039 C 
HETATM   10  C15 UNL     1       2.057  55.647  -7.699  1.00  0.00     0.123 C 
HETATM   11  C16 UNL     1       1.726  54.921  -6.421  1.00  0.00     0.014 C 
HETATM   12  C17 UNL     1       2.537  55.247  -5.402  1.00  0.00     0.014 C 
HETATM   13  C18 UNL     1       3.675  56.175  -5.790  1.00  0.00     0.124 C 
HETATM   14  C19 UNL     1       4.513  56.600  -4.578  1.00  0.00     0.078 C 
HETATM   15  C20 UNL     1       5.839  57.276  -4.946  1.00  0.00     0.121 C 
HETATM   16  C21 UNL     1       5.989  57.600  -6.429  1.00  0.00     0.033 C 
HETATM   17  C22 UNL     1       5.760  56.378  -7.323  1.00  0.00     0.015 C 
HETATM   18  C23 UNL     1       4.518  55.511  -6.941  1.00  0.00     0.001 C 
HETATM   19  C24 UNL     1       5.051  54.126  -6.485  1.00  0.00     0.019 C 
HETATM   20  O2  UNL     1       3.074  57.379  -6.343  1.00  0.00    -0.223 OA
HETATM   21  O3  UNL     1       1.993  57.050  -7.315  1.00  0.00    -0.224 OA
ENDROOT
BRANCH   1  22
HETATM   22  C4  UNL     1      -0.376  53.275 -11.675  1.00  0.00     0.009 C 
HETATM   23  C5  UNL     1      -1.011  52.108 -10.911  1.00  0.00     0.014 C 
BRANCH  22  24
HETATM   24  C3  UNL     1       0.631  52.699 -12.666  1.00  0.00    -0.019 C 
HETATM   25  C2  UNL     1       0.478  51.906 -13.750  1.00  0.00    -0.083 C 
HETATM   26  C1  UNL     1      -0.858  51.427 -14.257  1.00  0.00     0.043 C 
BRANCH  25  27
HETATM   27  C25 UNL     1       1.684  51.428 -14.580  1.00  0.00     0.013 C 
HETATM   28  C26 UNL     1       2.931  51.202 -13.698  1.00  0.00     0.015 C 
BRANCH  27  29
HETATM   29  C27 UNL     1       1.993  52.369 -15.790  1.00  0.00    -0.015 C 
HETATM   30  C28 UNL     1       3.494  52.458 -16.092  1.00  0.00     0.010 C 
HETATM   31  C29 UNL     1       1.264  51.941 -17.070  1.00  0.00     0.010 C 
ENDBRANCH  27  29
ENDBRANCH  25  27
ENDBRANCH  22  24
ENDBRANCH   1  22
BRANCH  15  32
HETATM   32  O1  UNL     1       6.903  56.408  -4.537  1.00  0.00    -0.395 OA
HETATM   33  H28 UNL     1       7.741  56.789  -4.857  1.00  0.00     0.210 HD
ENDBRANCH  15  32
TORSDOF 5
ENDMDL
MODEL 5
REMARK minimizedAffinity -6.81126785
REMARK CNNscore 0.453073919
REMARK CNNaffinity 6.2852726
REMARK  5 active torsions:
REMARK  status: ('A' for Active; 'I' for Inactive)
REMARK    1  A    between atoms: C2_2  and  C25_28 
REMARK    2  A    between atoms: C3_3  and  C4_4 
REMARK    3  A    between atoms: C4_4  and  C6_6 
REMARK    4  A    between atoms: C20_20  and  O1_21 
REMARK    5  A    between atoms: C25_28  and  C27_30 
ROOT
HETATM    1  C6  UNL     1       1.407  54.748  -9.750  1.00  0.00     0.001 C 
HETATM    2  C7  UNL     1       2.111  55.641 -10.815  1.00  0.00     0.006 C 
HETATM    3  C8  UNL     1       3.499  56.004 -10.257  1.00  0.00     0.009 C 
HETATM    4  C9  UNL     1       3.590  55.205  -8.961  1.00  0.00     0.036 C 
HETATM    5  C10 UNL     1       2.137  55.159  -8.423  1.00  0.00    -0.033 C 
HETATM    6  C11 UNL     1       1.607  56.508  -7.894  1.00  0.00     0.016 C 
HETATM    7  C12 UNL     1       2.114  54.103  -7.299  1.00  0.00     0.010 C 
HETATM    8  C13 UNL     1       3.130  54.412  -6.184  1.00  0.00     0.010 C 
HETATM    9  C14 UNL     1       4.568  54.582  -6.711  1.00  0.00     0.039 C 
HETATM   10  C15 UNL     1       4.685  55.542  -7.945  1.00  0.00     0.123 C 
HETATM   11  C16 UNL     1       4.850  56.987  -7.552  1.00  0.00     0.014 C 
HETATM   12  C17 UNL     1       5.922  57.205  -6.774  1.00  0.00     0.014 C 
HETATM   13  C18 UNL     1       6.655  55.941  -6.364  1.00  0.00     0.124 C 
HETATM   14  C19 UNL     1       7.927  56.245  -5.563  1.00  0.00     0.078 C 
HETATM   15  C20 UNL     1       8.532  55.019  -4.868  1.00  0.00     0.121 C 
HETATM   16  C21 UNL     1       7.896  53.692  -5.270  1.00  0.00     0.033 C 
HETATM   17  C22 UNL     1       6.375  53.692  -5.097  1.00  0.00     0.015 C 
HETATM   18  C23 UNL     1       5.657  54.975  -5.624  1.00  0.00     0.001 C 
HETATM   19  C24 UNL     1       5.034  55.689  -4.394  1.00  0.00     0.019 C 
HETATM   20  O2  UNL     1       7.067  55.271  -7.588  1.00  0.00    -0.223 OA
HETATM   21  O3  UNL     1       5.956  55.219  -8.580  1.00  0.00    -0.224 OA
ENDROOT
BRANCH   1  22
HETATM   22  C4  UNL     1      -0.140  54.837  -9.837  1.00  0.00     0.009 C 
HETATM   23  C5  UNL     1      -0.749  55.955  -8.984  1.00  0.00     0.014 C 
BRANCH  22  24
HETATM   24  C3  UNL     1      -0.918  53.555  -9.561  1.00  0.00    -0.019 C 
HETATM   25  C2  UNL     1      -2.199  53.205  -9.812  1.00  0.00    -0.083 C 
HETATM   26  C1  UNL     1      -3.187  54.093 -10.523  1.00  0.00     0.043 C 
BRANCH  25  27
HETATM   27  C25 UNL     1      -2.760  51.832  -9.396  1.00  0.00     0.013 C 
HETATM   28  C26 UNL     1      -1.723  51.009  -8.601  1.00  0.00     0.015 C 
BRANCH  27  29
HETATM   29  C27 UNL     1      -3.338  51.025 -10.603  1.00  0.00    -0.015 C 
HETATM   30  C28 UNL     1      -2.551  49.738 -10.877  1.00  0.00     0.010 C 
HETATM   31  C29 UNL     1      -4.816  50.660 -10.415  1.00  0.00     0.010 C 
ENDBRANCH  27  29
ENDBRANCH  25  27
ENDBRANCH  22  24
ENDBRANCH   1  22
BRANCH  15  32
HETATM   32  O1  UNL     1       8.397  55.203  -3.455  1.00  0.00    -0.395 OA
HETATM   33  H28 UNL     1       8.691  54.385  -3.015  1.00  0.00     0.210 HD
ENDBRANCH  15  32
TORSDOF 5
ENDMDL
MODEL 6
REMARK minimizedAffinity -6.99927664
REMARK CNNscore 0.414371759
REMARK CNNaffinity 6.00064802
REMARK  5 active torsions:
REMARK  status: ('A' for Active; 'I' for Inactive)
REMARK    1  A    between atoms: C2_2  and  C25_28 
REMARK    2  A    between atoms: C3_3  and  C4_4 
REMARK    3  A    between atoms: C4_4  and  C6_6 
REMARK    4  A    between atoms: C20_20  and  O1_21 
REMARK    5  A    between atoms: C25_28  and  C27_30 
ROOT
HETATM    1  C6  UNL     1       6.453  55.885  -5.864  1.00  0.00     0.001 C 
HETATM    2  C7  UNL     1       6.150  57.393  -6.113  1.00  0.00     0.006 C 
HETATM    3  C8  UNL     1       4.935  57.462  -7.055  1.00  0.00     0.009 C 
HETATM    4  C9  UNL     1       4.509  56.005  -7.206  1.00  0.00     0.036 C 
HETATM    5  C10 UNL     1       5.830  55.197  -7.128  1.00  0.00    -0.033 C 
HETATM    6  C11 UNL     1       6.752  55.357  -8.356  1.00  0.00     0.016 C 
HETATM    7  C12 UNL     1       5.435  53.717  -6.952  1.00  0.00     0.010 C 
HETATM    8  C13 UNL     1       4.521  53.215  -8.084  1.00  0.00     0.010 C 
HETATM    9  C14 UNL     1       3.254  54.077  -8.261  1.00  0.00     0.039 C 
HETATM   10  C15 UNL     1       3.535  55.618  -8.322  1.00  0.00     0.123 C 
HETATM   11  C16 UNL     1       3.843  56.104  -9.714  1.00  0.00     0.014 C 
HETATM   12  C17 UNL     1       2.864  55.841 -10.595  1.00  0.00     0.014 C 
HETATM   13  C18 UNL     1       1.727  55.011 -10.026  1.00  0.00     0.124 C 
HETATM   14  C19 UNL     1       0.588  54.823 -11.036  1.00  0.00     0.078 C 
HETATM   15  C20 UNL     1      -0.430  53.751 -10.630  1.00  0.00     0.121 C 
HETATM   16  C21 UNL     1      -0.254  53.222  -9.210  1.00  0.00     0.033 C 
HETATM   17  C22 UNL     1       1.167  52.720  -8.942  1.00  0.00     0.015 C 
HETATM   18  C23 UNL     1       2.302  53.660  -9.460  1.00  0.00     0.001 C 
HETATM   19  C24 UNL     1       3.058  52.890 -10.577  1.00  0.00     0.019 C 
HETATM   20  O2  UNL     1       1.184  55.749  -8.896  1.00  0.00    -0.223 OA
HETATM   21  O3  UNL     1       2.268  56.265  -8.012  1.00  0.00    -0.224 OA
ENDROOT
BRANCH   1  22
HETATM   22  C4  UNL     1       7.943  55.636  -5.506  1.00  0.00     0.009 C 
HETATM   23  C5  UNL     1       8.150  54.671  -4.334  1.00  0.00     0.014 C 
BRANCH  22  24
HETATM   24  C3  UNL     1       8.805  56.870  -5.259  1.00  0.00    -0.019 C 
HETATM   25  C2  UNL     1      10.138  57.021  -5.096  1.00  0.00    -0.083 C 
HETATM   26  C1  UNL     1      11.126  55.887  -5.175  1.00  0.00     0.043 C 
BRANCH  25  27
HETATM   27  C25 UNL     1      10.770  58.399  -4.822  1.00  0.00     0.013 C 
HETATM   28  C26 UNL     1      11.940  58.302  -3.819  1.00  0.00     0.015 C 
BRANCH  27  29
HETATM   29  C27 UNL     1       9.717  59.468  -4.383  1.00  0.00    -0.015 C 
HETATM   30  C28 UNL     1      10.104  60.166  -3.073  1.00  0.00     0.010 C 
HETATM   31  C29 UNL     1       9.483  60.541  -5.455  1.00  0.00     0.010 C 
ENDBRANCH  27  29
ENDBRANCH  25  27
ENDBRANCH  22  24
ENDBRANCH   1  22
BRANCH  15  32
HETATM   32  O1  UNL     1      -0.321  52.667 -11.559  1.00  0.00    -0.395 OA
HETATM   33  H28 UNL     1      -0.896  51.944 -11.248  1.00  0.00     0.210 HD
ENDBRANCH  15  32
TORSDOF 5
ENDMDL
MODEL 7
REMARK minimizedAffinity -7.49904823
REMARK CNNscore 0.40546301
REMARK CNNaffinity 6.17727518
REMARK  5 active torsions:
REMARK  status: ('A' for Active; 'I' for Inactive)
REMARK    1  A    between atoms: C2_2  and  C25_28 
REMARK    2  A    between atoms: C3_3  and  C4_4 
REMARK    3  A    between atoms: C4_4  and  C6_6 
REMARK    4  A    between atoms: C20_20  and  O1_21 
REMARK    5  A    between atoms: C25_28  and  C27_30 
ROOT
HETATM    1  C6  UNL     1      -0.655  54.843  -8.346  1.00  0.00     0.001 C 
HETATM    2  C7  UNL     1      -1.154  55.633  -9.593  1.00  0.00     0.006 C 
HETATM    3  C8  UNL     1      -2.029  54.673 -10.418  1.00  0.00     0.009 C 
HETATM    4  C9  UNL     1      -2.105  53.418  -9.554  1.00  0.00     0.036 C 
HETATM    5  C10 UNL     1      -0.736  53.354  -8.830  1.00  0.00    -0.033 C 
HETATM    6  C11 UNL     1       0.457  53.003  -9.746  1.00  0.00     0.016 C 
HETATM    7  C12 UNL     1      -0.874  52.299  -7.713  1.00  0.00     0.010 C 
HETATM    8  C13 UNL     1      -1.302  50.923  -8.255  1.00  0.00     0.010 C 
HETATM    9  C14 UNL     1      -2.602  50.981  -9.083  1.00  0.00     0.039 C 
HETATM   10  C15 UNL     1      -2.616  52.112 -10.169  1.00  0.00     0.123 C 
HETATM   11  C16 UNL     1      -2.013  51.676 -11.479  1.00  0.00     0.014 C 
HETATM   12  C17 UNL     1      -2.621  50.603 -12.011  1.00  0.00     0.014 C 
HETATM   13  C18 UNL     1      -3.693  49.998 -11.123  1.00  0.00     0.124 C 
HETATM   14  C19 UNL     1      -4.428  48.841 -11.813  1.00  0.00     0.078 C 
HETATM   15  C20 UNL     1      -5.296  48.005 -10.866  1.00  0.00     0.121 C 
HETATM   16  C21 UNL     1      -5.446  48.593  -9.466  1.00  0.00     0.033 C 
HETATM   17  C22 UNL     1      -4.098  48.896  -8.808  1.00  0.00     0.015 C 
HETATM   18  C23 UNL     1      -3.063  49.609  -9.735  1.00  0.00     0.001 C 
HETATM   19  C24 UNL     1      -1.879  48.625  -9.941  1.00  0.00     0.019 C 
HETATM   20  O2  UNL     1      -4.675  51.041 -10.868  1.00  0.00    -0.223 OA
HETATM   21  O3  UNL     1      -4.018  52.328 -10.500  1.00  0.00    -0.224 OA
ENDROOT
BRANCH   1  22
HETATM   22  C4  UNL     1       0.684  55.402  -7.794  1.00  0.00     0.009 C 
HETATM   23  C5  UNL     1       0.533  56.697  -6.987  1.00  0.00     0.014 C 
BRANCH  22  24
HETATM   24  C3  UNL     1       1.812  55.602  -8.800  1.00  0.00    -0.019 C 
HETATM   25  C2  UNL     1       3.124  55.887  -8.641  1.00  0.00    -0.083 C 
HETATM   26  C1  UNL     1       3.792  56.036  -7.299  1.00  0.00     0.043 C 
BRANCH  25  27
HETATM   27  C25 UNL     1       4.064  56.074  -9.846  1.00  0.00     0.013 C 
HETATM   28  C26 UNL     1       3.291  56.502 -11.112  1.00  0.00     0.015 C 
BRANCH  27  29
HETATM   29  C27 UNL     1       4.961  54.822 -10.110  1.00  0.00    -0.015 C 
HETATM   30  C28 UNL     1       6.330  54.928  -9.425  1.00  0.00     0.010 C 
HETATM   31  C29 UNL     1       4.295  53.514  -9.664  1.00  0.00     0.010 C 
ENDBRANCH  27  29
ENDBRANCH  25  27
ENDBRANCH  22  24
ENDBRANCH   1  22
BRANCH  15  32
HETATM   32  O1  UNL     1      -4.714  46.699 -10.774  1.00  0.00    -0.395 OA
HETATM   33  H28 UNL     1      -5.205  46.197 -10.099  1.00  0.00     0.210 HD
ENDBRANCH  15  32
TORSDOF 5
ENDMDL
MODEL 8
REMARK minimizedAffinity -8.97361946
REMARK CNNscore 0.356705755
REMARK CNNaffinity 6.74560165
REMARK  5 active torsions:
REMARK  status: ('A' for Active; 'I' for Inactive)
REMARK    1  A    between atoms: C2_2  and  C25_28 
REMARK    2  A    between atoms: C3_3  and  C4_4 
REMARK    3  A    between atoms: C4_4  and  C6_6 
REMARK    4  A    between atoms: C20_20  and  O1_21 
REMARK    5  A    between atoms: C25_28  and  C27_30 
ROOT
HETATM    1  C6  UNL     1      -2.838  50.953 -23.668  1.00  0.00     0.001 C 
HETATM    2  C7  UNL     1      -4.173  51.704 -23.382  1.00  0.00     0.006 C 
HETATM    3  C8  UNL     1      -4.361  51.729 -21.855  1.00  0.00     0.009 C 
HETATM    4  C9  UNL     1      -3.074  51.111 -21.319  1.00  0.00     0.036 C 
HETATM    5  C10 UNL     1      -2.665  50.064 -22.387  1.00  0.00    -0.033 C 
HETATM    6  C11 UNL     1      -3.579  48.821 -22.447  1.00  0.00     0.016 C 
HETATM    7  C12 UNL     1      -1.218  49.641 -22.062  1.00  0.00     0.010 C 
HETATM    8  C13 UNL     1      -1.075  49.090 -20.632  1.00  0.00     0.010 C 
HETATM    9  C14 UNL     1      -1.587  50.068 -19.556  1.00  0.00     0.039 C 
HETATM   10  C15 UNL     1      -3.008  50.660 -19.858  1.00  0.00     0.123 C 
HETATM   11  C16 UNL     1      -4.126  49.792 -19.346  1.00  0.00     0.014 C 
HETATM   12  C17 UNL     1      -4.060  49.567 -18.023  1.00  0.00     0.014 C 
HETATM   13  C18 UNL     1      -2.815  50.132 -17.363  1.00  0.00     0.124 C 
HETATM   14  C19 UNL     1      -2.832  49.941 -15.841  1.00  0.00     0.078 C 
HETATM   15  C20 UNL     1      -1.481  50.209 -15.167  1.00  0.00     0.121 C 
HETATM   16  C21 UNL     1      -0.430  50.822 -16.087  1.00  0.00     0.033 C 
HETATM   17  C22 UNL     1      -0.222  50.008 -17.367  1.00  0.00     0.015 C 
HETATM   18  C23 UNL     1      -1.538  49.534 -18.062  1.00  0.00     0.001 C 
HETATM   19  C24 UNL     1      -1.562  47.983 -17.987  1.00  0.00     0.019 C 
HETATM   20  O2  UNL     1      -2.809  51.564 -17.618  1.00  0.00    -0.223 OA
HETATM   21  O3  UNL     1      -3.117  51.864 -19.045  1.00  0.00    -0.224 OA
ENDROOT
BRANCH   1  22
HETATM   22  C4  UNL     1      -2.825  50.291 -25.072  1.00  0.00     0.009 C 
HETATM   23  C5  UNL     1      -3.369  48.859 -25.092  1.00  0.00     0.014 C 
BRANCH  22  24
HETATM   24  C3  UNL     1      -1.497  50.302 -25.823  1.00  0.00    -0.019 C 
HETATM   25  C2  UNL     1      -0.377  51.041 -25.665  1.00  0.00    -0.083 C 
HETATM   26  C1  UNL     1      -0.198  52.070 -24.579  1.00  0.00     0.043 C 
BRANCH  25  27
HETATM   27  C25 UNL     1       0.840  50.877 -26.596  1.00  0.00     0.013 C 
HETATM   28  C26 UNL     1       2.152  51.297 -25.898  1.00  0.00     0.015 C 
BRANCH  27  29
HETATM   29  C27 UNL     1       0.653  51.605 -27.966  1.00  0.00    -0.015 C 
HETATM   30  C28 UNL     1      -0.233  52.852 -27.850  1.00  0.00     0.010 C 
HETATM   31  C29 UNL     1       1.987  52.014 -28.604  1.00  0.00     0.010 C 
ENDBRANCH  27  29
ENDBRANCH  25  27
ENDBRANCH  22  24
ENDBRANCH   1  22
BRANCH  15  32
HETATM   32  O1  UNL     1      -0.994  48.966 -14.649  1.00  0.00    -0.395 OA
HETATM   33  H28 UNL     1      -0.093  49.114 -14.307  1.00  0.00     0.210 HD
ENDBRANCH  15  32
TORSDOF 5
ENDMDL
MODEL 9
REMARK minimizedAffinity -8.79475212
REMARK CNNscore 0.303882748
REMARK CNNaffinity 6.76053667
REMARK  5 active torsions:
REMARK  status: ('A' for Active; 'I' for Inactive)
REMARK    1  A    between atoms: C2_2  and  C25_28 
REMARK    2  A    between atoms: C3_3  and  C4_4 
REMARK    3  A    between atoms: C4_4  and  C6_6 
REMARK    4  A    between atoms: C20_20  and  O1_21 
REMARK    5  A    between atoms: C25_28  and  C27_30 
ROOT
HETATM    1  C6  UNL     1      -0.004  51.494 -20.623  1.00  0.00     0.001 C 
HETATM    2  C7  UNL     1       0.439  52.891 -20.095  1.00  0.00     0.006 C 
HETATM    3  C8  UNL     1       0.618  52.764 -18.572  1.00  0.00     0.009 C 
HETATM    4  C9  UNL     1       0.400  51.278 -18.302  1.00  0.00     0.036 C 
HETATM    5  C10 UNL     1      -0.651  50.837 -19.354  1.00  0.00    -0.033 C 
HETATM    6  C11 UNL     1      -2.072  51.387 -19.109  1.00  0.00     0.016 C 
HETATM    7  C12 UNL     1      -0.671  49.295 -19.341  1.00  0.00     0.010 C 
HETATM    8  C13 UNL     1      -0.980  48.724 -17.945  1.00  0.00     0.010 C 
HETATM    9  C14 UNL     1      -0.020  49.244 -16.857  1.00  0.00     0.039 C 
HETATM   10  C15 UNL     1       0.172  50.800 -16.866  1.00  0.00     0.123 C 
HETATM   11  C16 UNL     1      -0.862  51.524 -16.046  1.00  0.00     0.014 C 
HETATM   12  C17 UNL     1      -0.890  51.133 -14.762  1.00  0.00     0.014 C 
HETATM   13  C18 UNL     1       0.036  49.971 -14.450  1.00  0.00     0.124 C 
HETATM   14  C19 UNL     1       0.047  49.627 -12.955  1.00  0.00     0.078 C 
HETATM   15  C20 UNL     1       0.715  48.284 -12.633  1.00  0.00     0.121 C 
HETATM   16  C21 UNL     1       1.435  47.640 -13.814  1.00  0.00     0.033 C 
HETATM   17  C22 UNL     1       0.533  47.493 -15.042  1.00  0.00     0.015 C 
HETATM   18  C23 UNL     1      -0.327  48.753 -15.378  1.00  0.00     0.001 C 
HETATM   19  C24 UNL     1      -1.816  48.356 -15.184  1.00  0.00     0.019 C 
HETATM   20  O2  UNL     1       1.383  50.391 -14.807  1.00  0.00    -0.223 OA
HETATM   21  O3  UNL     1       1.411  51.051 -16.143  1.00  0.00    -0.224 OA
ENDROOT
BRANCH   1  22
HETATM   22  C4  UNL     1      -0.821  51.595 -21.939  1.00  0.00     0.009 C 
HETATM   23  C5  UNL     1      -1.618  50.330 -22.277  1.00  0.00     0.014 C 
BRANCH  22  24
HETATM   24  C3  UNL     1      -0.059  52.021 -23.190  1.00  0.00    -0.019 C 
HETATM   25  C2  UNL     1      -0.476  52.360 -24.430  1.00  0.00    -0.083 C 
HETATM   26  C1  UNL     1      -1.925  52.427 -24.837  1.00  0.00     0.043 C 
BRANCH  25  27
HETATM   27  C25 UNL     1       0.519  52.727 -25.547  1.00  0.00     0.013 C 
HETATM   28  C26 UNL     1      -0.021  53.865 -26.440  1.00  0.00     0.015 C 
BRANCH  27  29
HETATM   29  C27 UNL     1       0.962  51.488 -26.391  1.00  0.00    -0.015 C 
HETATM   30  C28 UNL     1       0.568  51.616 -27.868  1.00  0.00     0.010 C 
HETATM   31  C29 UNL     1       2.472  51.230 -26.311  1.00  0.00     0.010 C 
ENDBRANCH  27  29
ENDBRANCH  25  27
ENDBRANCH  22  24
ENDBRANCH   1  22
BRANCH  15  32
HETATM   32  O1  UNL     1      -0.298  47.395 -12.150  1.00  0.00    -0.395 OA
HETATM   33  H28 UNL     1       0.104  46.514 -12.036  1.00  0.00     0.210 HD
ENDBRANCH  15  32
TORSDOF 5
ENDMDL
