MODEL 1
REMARK minimizedAffinity -8.33613014
REMARK CNNscore 0.768864632
REMARK CNNaffinity 5.55440283
REMARK  11 active torsions:
REMARK  status: ('A' for Active; 'I' for Inactive)
REMARK    1  A    between atoms: C2_2  and  O1_3 
REMARK    2  A    between atoms: C2_2  and  C3_4 
REMARK    3  A    between atoms: C4_5  and  C5_6 
REMARK    4  A    between atoms: C5_6  and  O2_7 
REMARK    5  A    between atoms: C9_11  and  O3_12 
REMARK    6  A    between atoms: O3_12  and  C10_13 
REMARK    7  A    between atoms: C11_15  and  C12_16 
REMARK    8  A    between atoms: C12_16  and  O5_17 
REMARK    9  A    between atoms: C13_18  and  O6_19 
REMARK   10  A    between atoms: C14_20  and  O7_21 
REMARK   11  A    between atoms: C15_22  and  O8_23 
ROOT
HETATM    1  C5  UNL     1      -3.696   6.430  14.721  1.00  0.00     0.086 C 
HETATM    2  C6  UNL     1      -3.387   5.170  13.850  1.00  0.00     0.023 C 
HETATM    3  C7  UNL     1      -4.386   4.882  12.720  1.00  0.00     0.013 C 
HETATM    4  C8  UNL     1      -1.950   5.223  13.276  1.00  0.00     0.039 C 
HETATM    5  C9  UNL     1      -1.383   6.639  13.107  1.00  0.00     0.126 C 
HETATM    6  C16 UNL     1      -2.485   7.639  12.766  1.00  0.00     0.044 C 
HETATM    7  C17 UNL     1      -3.558   7.777  13.887  1.00  0.00    -0.010 C 
HETATM    8  C18 UNL     1      -3.127   8.957  14.799  1.00  0.00     0.018 C 
HETATM    9  C19 UNL     1      -4.886   8.204  13.219  1.00  0.00     0.018 C 
ENDROOT
BRANCH   5  10
HETATM   10  O3  UNL     1      -0.447   6.605  12.022  1.00  0.00    -0.353 OA
BRANCH  10  11
HETATM   11  C10 UNL     1       0.121   7.893  11.746  1.00  0.00     0.292 C 
HETATM   12  O4  UNL     1       0.781   7.869  10.475  1.00  0.00    -0.348 OA
HETATM   13  C11 UNL     1       2.188   7.557  10.512  1.00  0.00     0.179 C 
HETATM   14  C13 UNL     1       2.539   6.606  11.658  1.00  0.00     0.180 C 
HETATM   15  C14 UNL     1       2.232   7.289  13.005  1.00  0.00     0.183 C 
HETATM   16  C15 UNL     1       1.042   8.260  12.928  1.00  0.00     0.204 C 
BRANCH  13  17
HETATM   17  C12 UNL     1       2.554   6.967   9.143  1.00  0.00     0.198 C 
BRANCH  17  18
HETATM   18  O5  UNL     1       2.421   5.542   9.175  1.00  0.00    -0.398 OA
HETATM   19  H20 UNL     1       2.835   5.265  10.017  1.00  0.00     0.209 HD
ENDBRANCH  17  18
ENDBRANCH  13  17
BRANCH  14  20
HETATM   20  O6  UNL     1       3.912   6.211  11.631  1.00  0.00    -0.390 OA
HETATM   21  H22 UNL     1       4.068   5.699  12.448  1.00  0.00     0.210 HD
ENDBRANCH  14  20
BRANCH  15  22
HETATM   22  O7  UNL     1       1.995   6.269  13.991  1.00  0.00    -0.390 OA
HETATM   23  H24 UNL     1       1.172   5.812  13.730  1.00  0.00     0.210 HD
ENDBRANCH  15  22
BRANCH  16  24
HETATM   24  O8  UNL     1       1.511   9.608  12.787  1.00  0.00    -0.388 OA
HETATM   25  H26 UNL     1       1.970   9.844  13.613  1.00  0.00     0.210 HD
ENDBRANCH  16  24
ENDBRANCH  10  11
ENDBRANCH   5  10
BRANCH   1  26
HETATM   26  C4  UNL     1      -4.963   6.379  15.561  1.00  0.00     0.010 C 
HETATM   27  C3  UNL     1      -6.131   5.776  15.281  1.00  0.00     0.003 C 
BRANCH  27  28
HETATM   28  C2  UNL     1      -7.313   5.762  16.202  1.00  0.00     0.136 C 
HETATM   29  C1  UNL     1      -8.252   6.927  15.928  1.00  0.00     0.043 C 
BRANCH  28  30
HETATM   30  O1  UNL     1      -8.017   4.549  15.968  1.00  0.00    -0.392 OA
HETATM   31  H5  UNL     1      -7.404   3.826  16.189  1.00  0.00     0.210 HD
ENDBRANCH  28  30
ENDBRANCH  27  28
ENDBRANCH   1  26
BRANCH   1  32
HETATM   32  O2  UNL     1      -2.657   6.438  15.726  1.00  0.00    -0.385 OA
HETATM   33  H8  UNL     1      -2.801   5.662  16.297  1.00  0.00     0.211 HD
ENDBRANCH   1  32
TORSDOF 11
ENDMDL
MODEL 2
REMARK minimizedAffinity -6.14518642
REMARK CNNscore 0.59761107
REMARK CNNaffinity 4.50902367
REMARK  11 active torsions:
REMARK  status: ('A' for Active; 'I' for Inactive)
REMARK    1  A    between atoms: C2_2  and  O1_3 
REMARK    2  A    between atoms: C2_2  and  C3_4 
REMARK    3  A    between atoms: C4_5  and  C5_6 
REMARK    4  A    between atoms: C5_6  and  O2_7 
REMARK    5  A    between atoms: C9_11  and  O3_12 
REMARK    6  A    between atoms: O3_12  and  C10_13 
REMARK    7  A    between atoms: C11_15  and  C12_16 
REMARK    8  A    between atoms: C12_16  and  O5_17 
REMARK    9  A    between atoms: C13_18  and  O6_19 
REMARK   10  A    between atoms: C14_20  and  O7_21 
REMARK   11  A    between atoms: C15_22  and  O8_23 
ROOT
HETATM    1  C5  UNL     1      -3.446   6.510  13.312  1.00  0.00     0.086 C 
HETATM    2  C6  UNL     1      -3.887   7.962  12.936  1.00  0.00     0.023 C 
HETATM    3  C7  UNL     1      -5.074   8.523  13.731  1.00  0.00     0.013 C 
HETATM    4  C8  UNL     1      -2.694   8.948  13.013  1.00  0.00     0.039 C 
HETATM    5  C9  UNL     1      -1.583   8.529  13.985  1.00  0.00     0.126 C 
HETATM    6  C16 UNL     1      -2.150   7.768  15.181  1.00  0.00     0.044 C 
HETATM    7  C17 UNL     1      -2.849   6.433  14.784  1.00  0.00    -0.010 C 
HETATM    8  C18 UNL     1      -1.789   5.304  14.898  1.00  0.00     0.018 C 
HETATM    9  C19 UNL     1      -3.927   6.130  15.850  1.00  0.00     0.018 C 
ENDROOT
BRANCH   5  10
HETATM   10  O3  UNL     1      -0.952   9.724  14.463  1.00  0.00    -0.353 OA
BRANCH  10  11
HETATM   11  C10 UNL     1      -0.423   9.573  15.788  1.00  0.00     0.292 C 
HETATM   12  O4  UNL     1      -0.750  10.725  16.574  1.00  0.00    -0.348 OA
HETATM   13  C11 UNL     1       0.244  11.770  16.588  1.00  0.00     0.179 C 
HETATM   14  C13 UNL     1       1.022  11.844  15.274  1.00  0.00     0.180 C 
HETATM   15  C14 UNL     1       1.805  10.533  15.064  1.00  0.00     0.183 C 
HETATM   16  C15 UNL     1       1.091   9.307  15.659  1.00  0.00     0.204 C 
BRANCH  13  17
HETATM   17  C12 UNL     1      -0.489  13.083  16.898  1.00  0.00     0.198 C 
BRANCH  17  18
HETATM   18  O5  UNL     1      -1.657  13.195  16.078  1.00  0.00    -0.398 OA
HETATM   19  H20 UNL     1      -1.367  12.929  15.182  1.00  0.00     0.209 HD
ENDBRANCH  17  18
ENDBRANCH  13  17
BRANCH  14  20
HETATM   20  O6  UNL     1       1.932  12.947  15.246  1.00  0.00    -0.390 OA
HETATM   21  H22 UNL     1       2.454  12.853  14.426  1.00  0.00     0.210 HD
ENDBRANCH  14  20
BRANCH  15  22
HETATM   22  O7  UNL     1       2.031  10.357  13.655  1.00  0.00    -0.390 OA
HETATM   23  H24 UNL     1       1.156  10.213  13.245  1.00  0.00     0.210 HD
ENDBRANCH  15  22
BRANCH  16  24
HETATM   24  O8  UNL     1       1.645   8.986  16.942  1.00  0.00    -0.388 OA
HETATM   25  H26 UNL     1       2.562   8.692  16.797  1.00  0.00     0.210 HD
ENDBRANCH  16  24
ENDBRANCH  10  11
ENDBRANCH   5  10
BRANCH   1  26
HETATM   26  C4  UNL     1      -4.445   5.402  13.018  1.00  0.00     0.010 C 
HETATM   27  C3  UNL     1      -5.751   5.346  13.330  1.00  0.00     0.003 C 
BRANCH  27  28
HETATM   28  C2  UNL     1      -6.657   4.210  12.961  1.00  0.00     0.136 C 
HETATM   29  C1  UNL     1      -8.022   4.705  12.508  1.00  0.00     0.043 C 
BRANCH  28  30
HETATM   30  O1  UNL     1      -6.046   3.517  11.881  1.00  0.00    -0.392 OA
HETATM   31  H5  UNL     1      -5.196   3.180  12.213  1.00  0.00     0.210 HD
ENDBRANCH  28  30
ENDBRANCH  27  28
ENDBRANCH   1  26
BRANCH   1  32
HETATM   32  O2  UNL     1      -2.370   6.211  12.395  1.00  0.00    -0.385 OA
HETATM   33  H8  UNL     1      -2.756   6.163  11.502  1.00  0.00     0.211 HD
ENDBRANCH   1  32
TORSDOF 11
ENDMDL
MODEL 3
REMARK minimizedAffinity -7.43407679
REMARK CNNscore 0.589533091
REMARK CNNaffinity 5.2760253
REMARK  11 active torsions:
REMARK  status: ('A' for Active; 'I' for Inactive)
REMARK    1  A    between atoms: C2_2  and  O1_3 
REMARK    2  A    between atoms: C2_2  and  C3_4 
REMARK    3  A    between atoms: C4_5  and  C5_6 
REMARK    4  A    between atoms: C5_6  and  O2_7 
REMARK    5  A    between atoms: C9_11  and  O3_12 
REMARK    6  A    between atoms: O3_12  and  C10_13 
REMARK    7  A    between atoms: C11_15  and  C12_16 
REMARK    8  A    between atoms: C12_16  and  O5_17 
REMARK    9  A    between atoms: C13_18  and  O6_19 
REMARK   10  A    between atoms: C14_20  and  O7_21 
REMARK   11  A    between atoms: C15_22  and  O8_23 
ROOT
HETATM    1  C5  UNL     1      -6.467   5.954  13.772  1.00  0.00     0.086 C 
HETATM    2  C6  UNL     1      -7.382   4.908  13.057  1.00  0.00     0.023 C 
HETATM    3  C7  UNL     1      -7.561   3.571  13.789  1.00  0.00     0.013 C 
HETATM    4  C8  UNL     1      -8.769   5.510  12.723  1.00  0.00     0.039 C 
HETATM    5  C9  UNL     1      -9.203   6.658  13.645  1.00  0.00     0.126 C 
HETATM    6  C16 UNL     1      -8.665   6.466  15.060  1.00  0.00     0.044 C 
HETATM    7  C17 UNL     1      -7.109   6.473  15.132  1.00  0.00    -0.010 C 
HETATM    8  C18 UNL     1      -6.665   7.929  15.439  1.00  0.00     0.018 C 
HETATM    9  C19 UNL     1      -6.689   5.621  16.352  1.00  0.00     0.018 C 
ENDROOT
BRANCH   5  10
HETATM   10  O3  UNL     1     -10.636   6.653  13.698  1.00  0.00    -0.353 OA
BRANCH  10  11
HETATM   11  C10 UNL     1     -11.213   7.804  13.064  1.00  0.00     0.292 C 
HETATM   12  O4  UNL     1     -10.685   8.997  13.655  1.00  0.00    -0.348 OA
HETATM   13  C11 UNL     1     -11.456   9.545  14.743  1.00  0.00     0.179 C 
HETATM   14  C13 UNL     1     -12.176   8.460  15.545  1.00  0.00     0.180 C 
HETATM   15  C14 UNL     1     -13.195   7.741  14.638  1.00  0.00     0.183 C 
HETATM   16  C15 UNL     1     -12.747   7.674  13.168  1.00  0.00     0.204 C 
BRANCH  13  17
HETATM   17  C12 UNL     1     -10.488  10.358  15.615  1.00  0.00     0.198 C 
BRANCH  17  18
HETATM   18  O5  UNL     1      -9.177  10.333  15.041  1.00  0.00    -0.398 OA
HETATM   19  H20 UNL     1      -9.029   9.401  14.783  1.00  0.00     0.209 HD
ENDBRANCH  17  18
ENDBRANCH  13  17
BRANCH  14  20
HETATM   20  O6  UNL     1     -12.853   8.991  16.687  1.00  0.00    -0.390 OA
HETATM   21  H22 UNL     1     -13.366   8.254  17.071  1.00  0.00     0.210 HD
ENDBRANCH  14  20
BRANCH  15  22
HETATM   22  O7  UNL     1     -13.421   6.421  15.163  1.00  0.00    -0.390 OA
HETATM   23  H24 UNL     1     -12.582   5.931  15.062  1.00  0.00     0.210 HD
ENDBRANCH  15  22
BRANCH  16  24
HETATM   24  O8  UNL     1     -13.381   8.713  12.410  1.00  0.00    -0.388 OA
HETATM   25  H26 UNL     1     -14.334   8.516  12.387  1.00  0.00     0.210 HD
ENDBRANCH  16  24
ENDBRANCH  10  11
ENDBRANCH   5  10
BRANCH   1  26
HETATM   26  C4  UNL     1      -4.998   5.587  13.911  1.00  0.00     0.010 C 
HETATM   27  C3  UNL     1      -4.179   5.044  12.993  1.00  0.00     0.003 C 
BRANCH  27  28
HETATM   28  C2  UNL     1      -2.728   4.750  13.229  1.00  0.00     0.136 C 
HETATM   29  C1  UNL     1      -1.944   4.716  11.926  1.00  0.00     0.043 C 
BRANCH  28  30
HETATM   30  O1  UNL     1      -2.212   5.796  14.041  1.00  0.00    -0.392 OA
HETATM   31  H5  UNL     1      -2.705   5.766  14.879  1.00  0.00     0.210 HD
ENDBRANCH  28  30
ENDBRANCH  27  28
ENDBRANCH   1  26
BRANCH   1  32
HETATM   32  O2  UNL     1      -6.422   7.076  12.862  1.00  0.00    -0.385 OA
HETATM   33  H8  UNL     1      -5.943   6.784  12.067  1.00  0.00     0.211 HD
ENDBRANCH   1  32
TORSDOF 11
ENDMDL
MODEL 4
REMARK minimizedAffinity -7.77310276
REMARK CNNscore 0.579454243
REMARK CNNaffinity 5.10643959
REMARK  11 active torsions:
REMARK  status: ('A' for Active; 'I' for Inactive)
REMARK    1  A    between atoms: C2_2  and  O1_3 
REMARK    2  A    between atoms: C2_2  and  C3_4 
REMARK    3  A    between atoms: C4_5  and  C5_6 
REMARK    4  A    between atoms: C5_6  and  O2_7 
REMARK    5  A    between atoms: C9_11  and  O3_12 
REMARK    6  A    between atoms: O3_12  and  C10_13 
REMARK    7  A    between atoms: C11_15  and  C12_16 
REMARK    8  A    between atoms: C12_16  and  O5_17 
REMARK    9  A    between atoms: C13_18  and  O6_19 
REMARK   10  A    between atoms: C14_20  and  O7_21 
REMARK   11  A    between atoms: C15_22  and  O8_23 
ROOT
HETATM    1  C5  UNL     1      -4.715   6.371  14.588  1.00  0.00     0.086 C 
HETATM    2  C6  UNL     1      -3.619   5.379  14.081  1.00  0.00     0.023 C 
HETATM    3  C7  UNL     1      -3.415   5.336  12.560  1.00  0.00     0.013 C 
HETATM    4  C8  UNL     1      -2.262   5.635  14.782  1.00  0.00     0.039 C 
HETATM    5  C9  UNL     1      -2.064   7.072  15.282  1.00  0.00     0.126 C 
HETATM    6  C16 UNL     1      -2.766   8.077  14.372  1.00  0.00     0.044 C 
HETATM    7  C17 UNL     1      -4.312   7.887  14.325  1.00  0.00    -0.010 C 
HETATM    8  C18 UNL     1      -4.927   8.824  15.400  1.00  0.00     0.018 C 
HETATM    9  C19 UNL     1      -4.810   8.407  12.956  1.00  0.00     0.018 C 
ENDROOT
BRANCH   5  10
HETATM   10  O3  UNL     1      -0.657   7.347  15.264  1.00  0.00    -0.353 OA
BRANCH  10  11
HETATM   11  C10 UNL     1      -0.311   8.377  14.328  1.00  0.00     0.292 C 
HETATM   12  O4  UNL     1       0.310   7.795  13.176  1.00  0.00    -0.348 OA
HETATM   13  C11 UNL     1       1.750   7.723  13.217  1.00  0.00     0.179 C 
HETATM   14  C13 UNL     1       2.279   7.537  14.639  1.00  0.00     0.180 C 
HETATM   15  C14 UNL     1       1.903   8.764  15.493  1.00  0.00     0.183 C 
HETATM   16  C15 UNL     1       0.571   9.405  15.068  1.00  0.00     0.204 C 
BRANCH  13  17
HETATM   17  C12 UNL     1       2.169   6.571  12.292  1.00  0.00     0.198 C 
BRANCH  17  18
HETATM   18  O5  UNL     1       3.561   6.679  11.979  1.00  0.00    -0.398 OA
HETATM   19  H20 UNL     1       3.705   7.625  11.773  1.00  0.00     0.209 HD
ENDBRANCH  17  18
ENDBRANCH  13  17
BRANCH  14  20
HETATM   20  O6  UNL     1       3.697   7.358  14.670  1.00  0.00    -0.390 OA
HETATM   21  H22 UNL     1       3.955   7.354  15.612  1.00  0.00     0.210 HD
ENDBRANCH  14  20
BRANCH  15  22
HETATM   22  O7  UNL     1       1.859   8.364  16.873  1.00  0.00    -0.390 OA
HETATM   23  H24 UNL     1       1.113   7.740  16.961  1.00  0.00     0.210 HD
ENDBRANCH  15  22
BRANCH  16  24
HETATM   24  O8  UNL     1       0.813  10.541  14.228  1.00  0.00    -0.388 OA
HETATM   25  H26 UNL     1       1.250  11.219  14.774  1.00  0.00     0.210 HD
ENDBRANCH  16  24
ENDBRANCH  10  11
ENDBRANCH   5  10
BRANCH   1  26
HETATM   26  C4  UNL     1      -6.149   6.060  14.188  1.00  0.00     0.010 C 
HETATM   27  C3  UNL     1      -6.688   4.874  13.858  1.00  0.00     0.003 C 
BRANCH  27  28
HETATM   28  C2  UNL     1      -8.132   4.674  13.507  1.00  0.00     0.136 C 
HETATM   29  C1  UNL     1      -8.494   5.367  12.203  1.00  0.00     0.043 C 
BRANCH  28  30
HETATM   30  O1  UNL     1      -8.339   3.277  13.351  1.00  0.00    -0.392 OA
HETATM   31  H5  UNL     1      -8.138   2.869  14.211  1.00  0.00     0.210 HD
ENDBRANCH  28  30
ENDBRANCH  27  28
ENDBRANCH   1  26
BRANCH   1  32
HETATM   32  O2  UNL     1      -4.743   6.177  16.020  1.00  0.00    -0.385 OA
HETATM   33  H8  UNL     1      -5.082   5.279  16.183  1.00  0.00     0.211 HD
ENDBRANCH   1  32
TORSDOF 11
ENDMDL
MODEL 5
REMARK minimizedAffinity -6.52863312
REMARK CNNscore 0.539527118
REMARK CNNaffinity 4.94896078
REMARK  11 active torsions:
REMARK  status: ('A' for Active; 'I' for Inactive)
REMARK    1  A    between atoms: C2_2  and  O1_3 
REMARK    2  A    between atoms: C2_2  and  C3_4 
REMARK    3  A    between atoms: C4_5  and  C5_6 
REMARK    4  A    between atoms: C5_6  and  O2_7 
REMARK    5  A    between atoms: C9_11  and  O3_12 
REMARK    6  A    between atoms: O3_12  and  C10_13 
REMARK    7  A    between atoms: C11_15  and  C12_16 
REMARK    8  A    between atoms: C12_16  and  O5_17 
REMARK    9  A    between atoms: C13_18  and  O6_19 
REMARK   10  A    between atoms: C14_20  and  O7_21 
REMARK   11  A    between atoms: C15_22  and  O8_23 
ROOT
HETATM    1  C5  UNL     1      -5.221   6.309  14.790  1.00  0.00     0.086 C 
HETATM    2  C6  UNL     1      -3.753   5.813  14.591  1.00  0.00     0.023 C 
HETATM    3  C7  UNL     1      -3.258   5.766  13.139  1.00  0.00     0.013 C 
HETATM    4  C8  UNL     1      -2.762   6.632  15.454  1.00  0.00     0.039 C 
HETATM    5  C9  UNL     1      -3.232   8.055  15.786  1.00  0.00     0.126 C 
HETATM    6  C16 UNL     1      -4.076   8.638  14.656  1.00  0.00     0.044 C 
HETATM    7  C17 UNL     1      -5.389   7.841  14.396  1.00  0.00    -0.010 C 
HETATM    8  C18 UNL     1      -6.512   8.513  15.231  1.00  0.00     0.018 C 
HETATM    9  C19 UNL     1      -5.773   8.036  12.911  1.00  0.00     0.018 C 
ENDROOT
BRANCH   5  10
HETATM   10  O3  UNL     1      -2.064   8.871  15.950  1.00  0.00    -0.353 OA
BRANCH  10  11
HETATM   11  C10 UNL     1      -2.310  10.023  16.768  1.00  0.00     0.292 C 
HETATM   12  O4  UNL     1      -2.442  11.185  15.939  1.00  0.00    -0.348 OA
HETATM   13  C11 UNL     1      -1.228  11.933  15.722  1.00  0.00     0.179 C 
HETATM   14  C13 UNL     1       0.011  11.036  15.719  1.00  0.00     0.180 C 
HETATM   15  C14 UNL     1       0.174  10.379  17.104  1.00  0.00     0.183 C 
HETATM   16  C15 UNL     1      -1.170  10.113  17.803  1.00  0.00     0.204 C 
BRANCH  13  17
HETATM   17  C12 UNL     1      -1.396  12.686  14.395  1.00  0.00     0.198 C 
BRANCH  17  18
HETATM   18  O5  UNL     1      -0.351  13.652  14.247  1.00  0.00    -0.398 OA
HETATM   19  H20 UNL     1      -0.282  14.091  15.119  1.00  0.00     0.209 HD
ENDBRANCH  17  18
ENDBRANCH  13  17
BRANCH  14  20
HETATM   20  O6  UNL     1       1.201  11.759  15.397  1.00  0.00    -0.390 OA
HETATM   21  H22 UNL     1       1.944  11.138  15.522  1.00  0.00     0.210 HD
ENDBRANCH  14  20
BRANCH  15  22
HETATM   22  O7  UNL     1       0.916   9.158  16.945  1.00  0.00    -0.390 OA
HETATM   23  H24 UNL     1       0.352   8.551  16.427  1.00  0.00     0.210 HD
ENDBRANCH  15  22
BRANCH  16  24
HETATM   24  O8  UNL     1      -1.448  11.152  18.752  1.00  0.00    -0.388 OA
HETATM   25  H26 UNL     1      -0.783  11.085  19.460  1.00  0.00     0.210 HD
ENDBRANCH  16  24
ENDBRANCH  10  11
ENDBRANCH   5  10
BRANCH   1  26
HETATM   26  C4  UNL     1      -6.318   5.425  14.217  1.00  0.00     0.010 C 
HETATM   27  C3  UNL     1      -6.245   4.552  13.199  1.00  0.00     0.003 C 
BRANCH  27  28
HETATM   28  C2  UNL     1      -7.389   3.702  12.734  1.00  0.00     0.136 C 
HETATM   29  C1  UNL     1      -6.939   2.287  12.403  1.00  0.00     0.043 C 
BRANCH  28  30
HETATM   30  O1  UNL     1      -8.329   3.641  13.798  1.00  0.00    -0.392 OA
HETATM   31  H5  UNL     1      -8.626   4.553  13.958  1.00  0.00     0.210 HD
ENDBRANCH  28  30
ENDBRANCH  27  28
ENDBRANCH   1  26
BRANCH   1  32
HETATM   32  O2  UNL     1      -5.449   6.204  16.213  1.00  0.00    -0.385 OA
HETATM   33  H8  UNL     1      -5.442   5.257  16.438  1.00  0.00     0.211 HD
ENDBRANCH   1  32
TORSDOF 11
ENDMDL
MODEL 6
REMARK minimizedAffinity -8.70213699
REMARK CNNscore 0.517689288
REMARK CNNaffinity 5.11122131
REMARK  11 active torsions:
REMARK  status: ('A' for Active; 'I' for Inactive)
REMARK    1  A    between atoms: C2_2  and  O1_3 
REMARK    2  A    between atoms: C2_2  and  C3_4 
REMARK    3  A    between atoms: C4_5  and  C5_6 
REMARK    4  A    between atoms: C5_6  and  O2_7 
REMARK    5  A    between atoms: C9_11  and  O3_12 
REMARK    6  A    between atoms: O3_12  and  C10_13 
REMARK    7  A    between atoms: C11_15  and  C12_16 
REMARK    8  A    between atoms: C12_16  and  O5_17 
REMARK    9  A    between atoms: C13_18  and  O6_19 
REMARK   10  A    between atoms: C14_20  and  O7_21 
REMARK   11  A    between atoms: C15_22  and  O8_23 
ROOT
HETATM    1  C5  UNL     1      -3.536   6.379  14.640  1.00  0.00     0.086 C 
HETATM    2  C6  UNL     1      -3.334   5.124  13.731  1.00  0.00     0.023 C 
HETATM    3  C7  UNL     1      -4.391   4.919  12.636  1.00  0.00     0.013 C 
HETATM    4  C8  UNL     1      -1.920   5.110  13.099  1.00  0.00     0.039 C 
HETATM    5  C9  UNL     1      -1.281   6.497  12.938  1.00  0.00     0.126 C 
HETATM    6  C16 UNL     1      -2.337   7.564  12.664  1.00  0.00     0.044 C 
HETATM    7  C17 UNL     1      -3.355   7.735  13.830  1.00  0.00    -0.010 C 
HETATM    8  C18 UNL     1      -2.822   8.868  14.749  1.00  0.00     0.018 C 
HETATM    9  C19 UNL     1      -4.682   8.251  13.227  1.00  0.00     0.018 C 
ENDROOT
BRANCH   5  10
HETATM   10  O3  UNL     1      -0.392   6.436  11.815  1.00  0.00    -0.353 OA
BRANCH  10  11
HETATM   11  C10 UNL     1       0.692   7.369  11.922  1.00  0.00     0.292 C 
HETATM   12  O4  UNL     1       0.700   8.235  10.781  1.00  0.00    -0.348 OA
HETATM   13  C11 UNL     1       1.532   7.809   9.684  1.00  0.00     0.179 C 
HETATM   14  C13 UNL     1       1.617   6.285   9.581  1.00  0.00     0.180 C 
HETATM   15  C14 UNL     1       2.286   5.720  10.849  1.00  0.00     0.183 C 
HETATM   16  C15 UNL     1       1.991   6.557  12.106  1.00  0.00     0.204 C 
BRANCH  13  17
HETATM   17  C12 UNL     1       0.954   8.441   8.410  1.00  0.00     0.198 C 
BRANCH  17  18
HETATM   18  O5  UNL     1      -0.265   9.127   8.716  1.00  0.00    -0.398 OA
HETATM   19  H20 UNL     1      -0.762   8.517   9.298  1.00  0.00     0.209 HD
ENDBRANCH  17  18
ENDBRANCH  13  17
BRANCH  14  20
HETATM   20  O6  UNL     1       2.352   5.861   8.430  1.00  0.00    -0.390 OA
HETATM   21  H22 UNL     1       2.444   4.892   8.504  1.00  0.00     0.210 HD
ENDBRANCH  14  20
BRANCH  15  22
HETATM   22  O7  UNL     1       1.851   4.361  11.027  1.00  0.00    -0.390 OA
HETATM   23  H24 UNL     1       0.894   4.395  11.224  1.00  0.00     0.210 HD
ENDBRANCH  15  22
BRANCH  16  24
HETATM   24  O8  UNL     1       3.088   7.438  12.382  1.00  0.00    -0.388 OA
HETATM   25  H26 UNL     1       3.851   6.885  12.627  1.00  0.00     0.210 HD
ENDBRANCH  16  24
ENDBRANCH  10  11
ENDBRANCH   5  10
BRANCH   1  26
HETATM   26  C4  UNL     1      -4.770   6.378  15.530  1.00  0.00     0.010 C 
HETATM   27  C3  UNL     1      -5.994   5.891  15.265  1.00  0.00     0.003 C 
BRANCH  27  28
HETATM   28  C2  UNL     1      -7.138   5.916  16.235  1.00  0.00     0.136 C 
HETATM   29  C1  UNL     1      -8.006   7.150  16.047  1.00  0.00     0.043 C 
BRANCH  28  30
HETATM   30  O1  UNL     1      -7.929   4.763  15.983  1.00  0.00    -0.392 OA
HETATM   31  H5  UNL     1      -7.359   3.993  16.150  1.00  0.00     0.210 HD
ENDBRANCH  28  30
ENDBRANCH  27  28
ENDBRANCH   1  26
BRANCH   1  32
HETATM   32  O2  UNL     1      -2.460   6.305  15.602  1.00  0.00    -0.385 OA
HETATM   33  H8  UNL     1      -2.625   5.525  16.161  1.00  0.00     0.211 HD
ENDBRANCH   1  32
TORSDOF 11
ENDMDL
MODEL 7
REMARK minimizedAffinity -6.53212738
REMARK CNNscore 0.492130697
REMARK CNNaffinity 4.98025703
REMARK  11 active torsions:
REMARK  status: ('A' for Active; 'I' for Inactive)
REMARK    1  A    between atoms: C2_2  and  O1_3 
REMARK    2  A    between atoms: C2_2  and  C3_4 
REMARK    3  A    between atoms: C4_5  and  C5_6 
REMARK    4  A    between atoms: C5_6  and  O2_7 
REMARK    5  A    between atoms: C9_11  and  O3_12 
REMARK    6  A    between atoms: O3_12  and  C10_13 
REMARK    7  A    between atoms: C11_15  and  C12_16 
REMARK    8  A    between atoms: C12_16  and  O5_17 
REMARK    9  A    between atoms: C13_18  and  O6_19 
REMARK   10  A    between atoms: C14_20  and  O7_21 
REMARK   11  A    between atoms: C15_22  and  O8_23 
ROOT
HETATM    1  C5  UNL     1      -1.117  14.851   1.838  1.00  0.00     0.086 C 
HETATM    2  C6  UNL     1      -0.202  16.090   1.571  1.00  0.00     0.023 C 
HETATM    3  C7  UNL     1      -0.023  17.050   2.755  1.00  0.00     0.013 C 
HETATM    4  C8  UNL     1       1.185  15.658   1.034  1.00  0.00     0.039 C 
HETATM    5  C9  UNL     1       1.619  14.247   1.454  1.00  0.00     0.126 C 
HETATM    6  C16 UNL     1       1.081  13.889   2.837  1.00  0.00     0.044 C 
HETATM    7  C17 UNL     1      -0.475  13.856   2.901  1.00  0.00    -0.010 C 
HETATM    8  C18 UNL     1      -0.919  12.392   2.634  1.00  0.00     0.018 C 
HETATM    9  C19 UNL     1      -0.895  14.183   4.352  1.00  0.00     0.018 C 
ENDROOT
BRANCH   5  10
HETATM   10  O3  UNL     1       3.052  14.231   1.504  1.00  0.00    -0.353 OA
BRANCH  10  11
HETATM   11  C10 UNL     1       3.643  15.191   0.616  1.00  0.00     0.292 C 
HETATM   12  O4  UNL     1       3.864  14.591  -0.666  1.00  0.00    -0.348 OA
HETATM   13  C11 UNL     1       5.169  14.009  -0.862  1.00  0.00     0.179 C 
HETATM   14  C13 UNL     1       5.754  13.452   0.437  1.00  0.00     0.180 C 
HETATM   15  C14 UNL     1       5.963  14.602   1.442  1.00  0.00     0.183 C 
HETATM   16  C15 UNL     1       4.923  15.726   1.292  1.00  0.00     0.204 C 
BRANCH  13  17
HETATM   17  C12 UNL     1       5.019  12.923  -1.937  1.00  0.00     0.198 C 
BRANCH  17  18
HETATM   18  O5  UNL     1       5.869  11.813  -1.631  1.00  0.00    -0.398 OA
HETATM   19  H20 UNL     1       6.725  12.210  -1.371  1.00  0.00     0.209 HD
ENDBRANCH  17  18
ENDBRANCH  13  17
BRANCH  14  20
HETATM   20  O6  UNL     1       6.998  12.779   0.225  1.00  0.00    -0.390 OA
HETATM   21  H22 UNL     1       7.344  12.554   1.109  1.00  0.00     0.210 HD
ENDBRANCH  14  20
BRANCH  15  22
HETATM   22  O7  UNL     1       5.936  14.056   2.772  1.00  0.00    -0.390 OA
HETATM   23  H24 UNL     1       5.027  13.731   2.924  1.00  0.00     0.210 HD
ENDBRANCH  15  22
BRANCH  16  24
HETATM   24  O8  UNL     1       5.470  16.807   0.525  1.00  0.00    -0.388 OA
HETATM   25  H26 UNL     1       6.187  17.203   1.050  1.00  0.00     0.210 HD
ENDBRANCH  16  24
ENDBRANCH  10  11
ENDBRANCH   5  10
BRANCH   1  26
HETATM   26  C4  UNL     1      -2.586  15.138   2.106  1.00  0.00     0.010 C 
HETATM   27  C3  UNL     1      -3.533  15.539   1.240  1.00  0.00     0.003 C 
BRANCH  27  28
HETATM   28  C2  UNL     1      -4.969  15.764   1.608  1.00  0.00     0.136 C 
HETATM   29  C1  UNL     1      -5.404  17.193   1.320  1.00  0.00     0.043 C 
BRANCH  28  30
HETATM   30  O1  UNL     1      -5.751  14.883   0.814  1.00  0.00    -0.392 OA
HETATM   31  H5  UNL     1      -5.477  13.980   1.050  1.00  0.00     0.210 HD
ENDBRANCH  28  30
ENDBRANCH  27  28
ENDBRANCH   1  26
BRANCH   1  32
HETATM   32  O2  UNL     1      -1.162  14.156   0.572  1.00  0.00    -0.385 OA
HETATM   33  H8  UNL     1      -1.642  14.727  -0.055  1.00  0.00     0.211 HD
ENDBRANCH   1  32
TORSDOF 11
ENDMDL
MODEL 8
REMARK minimizedAffinity -6.69799137
REMARK CNNscore 0.49064061
REMARK CNNaffinity 5.00707531
REMARK  11 active torsions:
REMARK  status: ('A' for Active; 'I' for Inactive)
REMARK    1  A    between atoms: C2_2  and  O1_3 
REMARK    2  A    between atoms: C2_2  and  C3_4 
REMARK    3  A    between atoms: C4_5  and  C5_6 
REMARK    4  A    between atoms: C5_6  and  O2_7 
REMARK    5  A    between atoms: C9_11  and  O3_12 
REMARK    6  A    between atoms: O3_12  and  C10_13 
REMARK    7  A    between atoms: C11_15  and  C12_16 
REMARK    8  A    between atoms: C12_16  and  O5_17 
REMARK    9  A    between atoms: C13_18  and  O6_19 
REMARK   10  A    between atoms: C14_20  and  O7_21 
REMARK   11  A    between atoms: C15_22  and  O8_23 
ROOT
HETATM    1  C5  UNL     1      -7.983  -9.889  12.139  1.00  0.00     0.086 C 
HETATM    2  C6  UNL     1      -6.733 -10.758  12.490  1.00  0.00     0.023 C 
HETATM    3  C7  UNL     1      -7.011 -12.244  12.759  1.00  0.00     0.013 C 
HETATM    4  C8  UNL     1      -5.632 -10.621  11.408  1.00  0.00     0.039 C 
HETATM    5  C9  UNL     1      -6.153 -10.250  10.013  1.00  0.00     0.126 C 
HETATM    6  C16 UNL     1      -7.537 -10.842   9.763  1.00  0.00     0.044 C 
HETATM    7  C17 UNL     1      -8.622 -10.303  10.743  1.00  0.00    -0.010 C 
HETATM    8  C18 UNL     1      -9.303  -9.087  10.058  1.00  0.00     0.018 C 
HETATM    9  C19 UNL     1      -9.712 -11.391  10.885  1.00  0.00     0.018 C 
ENDROOT
BRANCH   5  10
HETATM   10  O3  UNL     1      -5.242 -10.798   9.051  1.00  0.00    -0.353 OA
BRANCH  10  11
HETATM   11  C10 UNL     1      -5.702 -10.629   7.702  1.00  0.00     0.292 C 
HETATM   12  O4  UNL     1      -5.495 -11.840   6.965  1.00  0.00    -0.348 OA
HETATM   13  C11 UNL     1      -4.249 -11.922   6.244  1.00  0.00     0.179 C 
HETATM   14  C13 UNL     1      -3.122 -11.166   6.950  1.00  0.00     0.180 C 
HETATM   15  C14 UNL     1      -3.467  -9.665   7.007  1.00  0.00     0.183 C 
HETATM   16  C15 UNL     1      -4.978  -9.400   7.114  1.00  0.00     0.204 C 
BRANCH  13  17
HETATM   17  C12 UNL     1      -3.925 -13.413   6.076  1.00  0.00     0.198 C 
BRANCH  17  18
HETATM   18  O5  UNL     1      -3.830 -13.738   4.685  1.00  0.00    -0.398 OA
HETATM   19  H20 UNL     1      -4.596 -13.294   4.266  1.00  0.00     0.209 HD
ENDBRANCH  17  18
ENDBRANCH  13  17
BRANCH  14  20
HETATM   20  O6  UNL     1      -1.863 -11.336   6.293  1.00  0.00    -0.390 OA
HETATM   21  H22 UNL     1      -1.234 -10.741   6.745  1.00  0.00     0.210 HD
ENDBRANCH  14  20
BRANCH  15  22
HETATM   22  O7  UNL     1      -2.767  -9.079   8.119  1.00  0.00    -0.390 OA
HETATM   23  H24 UNL     1      -3.147  -9.471   8.929  1.00  0.00     0.210 HD
ENDBRANCH  15  22
BRANCH  16  24
HETATM   24  O8  UNL     1      -5.517  -9.083   5.823  1.00  0.00    -0.388 OA
HETATM   25  H26 UNL     1      -5.135  -8.230   5.550  1.00  0.00     0.210 HD
ENDBRANCH  16  24
ENDBRANCH  10  11
ENDBRANCH   5  10
BRANCH   1  26
HETATM   26  C4  UNL     1      -9.019  -9.717  13.239  1.00  0.00     0.010 C 
HETATM   27  C3  UNL     1      -9.075 -10.320  14.439  1.00  0.00     0.003 C 
BRANCH  27  28
HETATM   28  C2  UNL     1     -10.132 -10.051  15.468  1.00  0.00     0.136 C 
HETATM   29  C1  UNL     1     -10.764 -11.339  15.972  1.00  0.00     0.043 C 
BRANCH  28  30
HETATM   30  O1  UNL     1      -9.501  -9.398  16.561  1.00  0.00    -0.392 OA
HETATM   31  H5  UNL     1      -9.143  -8.563  16.215  1.00  0.00     0.210 HD
ENDBRANCH  28  30
ENDBRANCH  27  28
ENDBRANCH   1  26
BRANCH   1  32
HETATM   32  O2  UNL     1      -7.461  -8.549  11.992  1.00  0.00    -0.385 OA
HETATM   33  H8  UNL     1      -7.157  -8.259  12.871  1.00  0.00     0.211 HD
ENDBRANCH   1  32
TORSDOF 11
ENDMDL
MODEL 9
REMARK minimizedAffinity -7.66193438
REMARK CNNscore 0.457095683
REMARK CNNaffinity 4.89630938
REMARK  11 active torsions:
REMARK  status: ('A' for Active; 'I' for Inactive)
REMARK    1  A    between atoms: C2_2  and  O1_3 
REMARK    2  A    between atoms: C2_2  and  C3_4 
REMARK    3  A    between atoms: C4_5  and  C5_6 
REMARK    4  A    between atoms: C5_6  and  O2_7 
REMARK    5  A    between atoms: C9_11  and  O3_12 
REMARK    6  A    between atoms: O3_12  and  C10_13 
REMARK    7  A    between atoms: C11_15  and  C12_16 
REMARK    8  A    between atoms: C12_16  and  O5_17 
REMARK    9  A    between atoms: C13_18  and  O6_19 
REMARK   10  A    between atoms: C14_20  and  O7_21 
REMARK   11  A    between atoms: C15_22  and  O8_23 
ROOT
HETATM    1  C5  UNL     1      -4.524   6.402  14.724  1.00  0.00     0.086 C 
HETATM    2  C6  UNL     1      -3.190   5.716  14.284  1.00  0.00     0.023 C 
HETATM    3  C7  UNL     1      -2.923   5.688  12.772  1.00  0.00     0.013 C 
HETATM    4  C8  UNL     1      -1.973   6.335  15.017  1.00  0.00     0.039 C 
HETATM    5  C9  UNL     1      -2.174   7.787  15.471  1.00  0.00     0.126 C 
HETATM    6  C16 UNL     1      -3.078   8.550  14.506  1.00  0.00     0.044 C 
HETATM    7  C17 UNL     1      -4.518   7.963  14.419  1.00  0.00    -0.010 C 
HETATM    8  C18 UNL     1      -5.396   8.734  15.441  1.00  0.00     0.018 C 
HETATM    9  C19 UNL     1      -5.081   8.299  13.018  1.00  0.00     0.018 C 
ENDROOT
BRANCH   5  10
HETATM   10  O3  UNL     1      -0.887   8.419  15.486  1.00  0.00    -0.353 OA
BRANCH  10  11
HETATM   11  C10 UNL     1       0.188   7.473  15.573  1.00  0.00     0.292 C 
HETATM   12  O4  UNL     1       1.201   7.971  16.455  1.00  0.00    -0.348 OA
HETATM   13  C11 UNL     1       2.264   8.712  15.823  1.00  0.00     0.179 C 
HETATM   14  C13 UNL     1       1.783   9.471  14.585  1.00  0.00     0.180 C 
HETATM   15  C14 UNL     1       1.295   8.465  13.524  1.00  0.00     0.183 C 
HETATM   16  C15 UNL     1       0.682   7.195  14.138  1.00  0.00     0.204 C 
BRANCH  13  17
HETATM   17  C12 UNL     1       2.846   9.656  16.886  1.00  0.00     0.198 C 
BRANCH  17  18
HETATM   18  O5  UNL     1       2.105   9.534  18.104  1.00  0.00    -0.398 OA
HETATM   19  H20 UNL     1       1.165   9.530  17.833  1.00  0.00     0.209 HD
ENDBRANCH  17  18
ENDBRANCH  13  17
BRANCH  14  20
HETATM   20  O6  UNL     1       2.809  10.291  14.021  1.00  0.00    -0.390 OA
HETATM   21  H22 UNL     1       2.449  10.648  13.186  1.00  0.00     0.210 HD
ENDBRANCH  14  20
BRANCH  15  22
HETATM   22  O7  UNL     1       0.346   9.128  12.670  1.00  0.00    -0.390 OA
HETATM   23  H24 UNL     1      -0.434   9.333  13.221  1.00  0.00     0.210 HD
ENDBRANCH  15  22
BRANCH  16  24
HETATM   24  O8  UNL     1       1.647   6.134  14.146  1.00  0.00    -0.388 OA
HETATM   25  H26 UNL     1       1.828   5.898  13.219  1.00  0.00     0.210 HD
ENDBRANCH  16  24
ENDBRANCH  10  11
ENDBRANCH   5  10
BRANCH   1  26
HETATM   26  C4  UNL     1      -5.811   5.717  14.292  1.00  0.00     0.010 C 
HETATM   27  C3  UNL     1      -5.961   4.587  13.580  1.00  0.00     0.003 C 
BRANCH  27  28
HETATM   28  C2  UNL     1      -7.288   3.979  13.235  1.00  0.00     0.136 C 
HETATM   29  C1  UNL     1      -7.132   2.576  12.667  1.00  0.00     0.043 C 
BRANCH  28  30
HETATM   30  O1  UNL     1      -8.041   3.900  14.437  1.00  0.00    -0.392 OA
HETATM   31  H5  UNL     1      -8.157   4.813  14.752  1.00  0.00     0.210 HD
ENDBRANCH  28  30
ENDBRANCH  27  28
ENDBRANCH   1  26
BRANCH   1  32
HETATM   32  O2  UNL     1      -4.555   6.244  16.160  1.00  0.00    -0.385 OA
HETATM   33  H8  UNL     1      -4.655   5.293  16.344  1.00  0.00     0.211 HD
ENDBRANCH   1  32
TORSDOF 11
ENDMDL
