MODEL 1
REMARK minimizedAffinity -8.92063999
REMARK  12 active torsions:
REMARK  status: ('A' for Active; 'I' for Inactive)
REMARK    1  A    between atoms: C2_2  and  O1_3 
REMARK    2  A    between atoms: C2_2  and  C3_4 
REMARK    3  A    between atoms: C4_5  and  C5_6 
REMARK    4  A    between atoms: C5_6  and  O2_7 
REMARK    5  A    between atoms: C8_10  and  O3_11 
REMARK    6  A    between atoms: O3_11  and  C9_12 
REMARK    7  A    between atoms: C10_14  and  C11_15 
REMARK    8  A    between atoms: C11_15  and  O5_16 
REMARK    9  A    between atoms: C12_17  and  O6_18 
REMARK   10  A    between atoms: C13_19  and  O7_20 
REMARK   11  A    between atoms: C14_21  and  O8_22 
REMARK   12  A    between atoms: C15_23  and  O9_24 
ROOT
HETATM    1  C5  UNL     1      -4.022  49.579 -24.515  1.00  0.00     0.088 C 
HETATM    2  C6  UNL     1      -2.636  49.494 -25.269  1.00  0.00     0.052 C 
HETATM    3  C7  UNL     1      -2.682  48.448 -26.403  1.00  0.00     0.016 C 
HETATM    4  C8  UNL     1      -2.125  50.879 -25.761  1.00  0.00     0.160 C 
HETATM    5  C15 UNL     1      -3.293  51.826 -26.047  1.00  0.00     0.148 C 
HETATM    6  C16 UNL     1      -4.084  52.138 -24.771  1.00  0.00     0.046 C 
HETATM    7  C17 UNL     1      -4.217  50.953 -23.764  1.00  0.00    -0.010 C 
HETATM    8  C18 UNL     1      -3.187  51.125 -22.619  1.00  0.00     0.018 C 
HETATM    9  C19 UNL     1      -5.613  51.070 -23.093  1.00  0.00     0.018 C 
ENDROOT
BRANCH   4  10
HETATM   10  O3  UNL     1      -1.300  50.808 -26.937  1.00  0.00    -0.350 OA
BRANCH  10  11
HETATM   11  C9  UNL     1       0.101  50.788 -26.652  1.00  0.00     0.292 C 
HETATM   12  O4  UNL     1       0.371  51.276 -25.341  1.00  0.00    -0.348 OA
HETATM   13  C10 UNL     1       0.511  52.694 -25.212  1.00  0.00     0.179 C 
HETATM   14  C12 UNL     1      -0.057  53.513 -26.383  1.00  0.00     0.180 C 
HETATM   15  C13 UNL     1       0.566  53.058 -27.712  1.00  0.00     0.183 C 
HETATM   16  C14 UNL     1       0.870  51.553 -27.748  1.00  0.00     0.204 C 
BRANCH  13  17
HETATM   17  C11 UNL     1      -0.144  53.090 -23.880  1.00  0.00     0.198 C 
BRANCH  17  18
HETATM   18  O5  UNL     1       0.360  52.329 -22.788  1.00  0.00    -0.398 OA
HETATM   19  H18 UNL     1      -0.000  51.429 -22.879  1.00  0.00     0.209 HD
ENDBRANCH  17  18
ENDBRANCH  13  17
BRANCH  14  20
HETATM   20  O6  UNL     1       0.209  54.914 -26.214  1.00  0.00    -0.390 OA
HETATM   21  H20 UNL     1      -0.171  55.171 -25.349  1.00  0.00     0.210 HD
ENDBRANCH  14  20
BRANCH  15  22
HETATM   22  O7  UNL     1      -0.339  53.398 -28.778  1.00  0.00    -0.390 OA
HETATM   23  H22 UNL     1       0.197  53.482 -29.583  1.00  0.00     0.210 HD
ENDBRANCH  15  22
BRANCH  16  24
HETATM   24  O8  UNL     1       2.289  51.372 -27.596  1.00  0.00    -0.388 OA
HETATM   25  H24 UNL     1       2.469  50.418 -27.601  1.00  0.00     0.210 HD
ENDBRANCH  16  24
ENDBRANCH  10  11
ENDBRANCH   4  10
BRANCH   5  26
HETATM   26  O9  UNL     1      -2.814  53.061 -26.584  1.00  0.00    -0.393 OA
HETATM   27  H26 UNL     1      -2.280  52.810 -27.364  1.00  0.00     0.210 HD
ENDBRANCH   5  26
BRANCH   1  28
HETATM   28  C4  UNL     1      -4.295  48.386 -23.608  1.00  0.00     0.010 C 
HETATM   29  C3  UNL     1      -4.141  48.295 -22.275  1.00  0.00     0.003 C 
BRANCH  29  30
HETATM   30  C2  UNL     1      -4.383  47.094 -21.404  1.00  0.00     0.136 C 
HETATM   31  C1  UNL     1      -3.156  46.270 -21.025  1.00  0.00     0.043 C 
BRANCH  30  32
HETATM   32  O1  UNL     1      -4.997  47.586 -20.215  1.00  0.00    -0.392 OA
HETATM   33  H5  UNL     1      -5.129  46.828 -19.620  1.00  0.00     0.210 HD
ENDBRANCH  30  32
ENDBRANCH  29  30
ENDBRANCH   1  28
BRANCH   1  34
HETATM   34  O2  UNL     1      -5.045  49.441 -25.524  1.00  0.00    -0.385 OA
HETATM   35  H8  UNL     1      -5.584  50.249 -25.577  1.00  0.00     0.211 HD
ENDBRANCH   1  34
TORSDOF 12
ENDMDL
MODEL 2
REMARK minimizedAffinity -8.74257851
REMARK  12 active torsions:
REMARK  status: ('A' for Active; 'I' for Inactive)
REMARK    1  A    between atoms: C2_2  and  O1_3 
REMARK    2  A    between atoms: C2_2  and  C3_4 
REMARK    3  A    between atoms: C4_5  and  C5_6 
REMARK    4  A    between atoms: C5_6  and  O2_7 
REMARK    5  A    between atoms: C8_10  and  O3_11 
REMARK    6  A    between atoms: O3_11  and  C9_12 
REMARK    7  A    between atoms: C10_14  and  C11_15 
REMARK    8  A    between atoms: C11_15  and  O5_16 
REMARK    9  A    between atoms: C12_17  and  O6_18 
REMARK   10  A    between atoms: C13_19  and  O7_20 
REMARK   11  A    between atoms: C14_21  and  O8_22 
REMARK   12  A    between atoms: C15_23  and  O9_24 
ROOT
HETATM    1  C5  UNL     1      -1.081  50.840 -20.548  1.00  0.00     0.088 C 
HETATM    2  C6  UNL     1      -0.612  51.835 -21.682  1.00  0.00     0.052 C 
HETATM    3  C7  UNL     1       0.928  51.883 -21.782  1.00  0.00     0.016 C 
HETATM    4  C8  UNL     1      -1.286  51.552 -23.056  1.00  0.00     0.160 C 
HETATM    5  C15 UNL     1      -1.648  50.072 -23.197  1.00  0.00     0.148 C 
HETATM    6  C16 UNL     1      -2.697  49.653 -22.160  1.00  0.00     0.046 C 
HETATM    7  C17 UNL     1      -2.559  50.334 -20.762  1.00  0.00    -0.010 C 
HETATM    8  C18 UNL     1      -3.578  51.496 -20.647  1.00  0.00     0.018 C 
HETATM    9  C19 UNL     1      -2.990  49.291 -19.694  1.00  0.00     0.018 C 
ENDROOT
BRANCH   4  10
HETATM   10  O3  UNL     1      -0.480  51.932 -24.186  1.00  0.00    -0.350 OA
BRANCH  10  11
HETATM   11  C9  UNL     1      -0.915  53.140 -24.817  1.00  0.00     0.292 C 
HETATM   12  O4  UNL     1      -2.064  52.917 -25.629  1.00  0.00    -0.348 OA
HETATM   13  C10 UNL     1      -1.815  52.477 -26.967  1.00  0.00     0.179 C 
HETATM   14  C12 UNL     1      -0.410  51.905 -27.213  1.00  0.00     0.180 C 
HETATM   15  C13 UNL     1       0.666  52.922 -26.803  1.00  0.00     0.183 C 
HETATM   16  C14 UNL     1       0.257  53.775 -25.594  1.00  0.00     0.204 C 
BRANCH  13  17
HETATM   17  C11 UNL     1      -2.907  51.453 -27.312  1.00  0.00     0.198 C 
BRANCH  17  18
HETATM   18  O5  UNL     1      -2.731  50.900 -28.611  1.00  0.00    -0.398 OA
HETATM   19  H18 UNL     1      -2.962  51.597 -29.251  1.00  0.00     0.209 HD
ENDBRANCH  17  18
ENDBRANCH  13  17
BRANCH  14  20
HETATM   20  O6  UNL     1      -0.218  51.576 -28.598  1.00  0.00    -0.390 OA
HETATM   21  H20 UNL     1      -0.932  50.951 -28.841  1.00  0.00     0.210 HD
ENDBRANCH  14  20
BRANCH  15  22
HETATM   22  O7  UNL     1       1.879  52.206 -26.506  1.00  0.00    -0.390 OA
HETATM   23  H22 UNL     1       2.611  52.828 -26.642  1.00  0.00     0.210 HD
ENDBRANCH  15  22
BRANCH  16  24
HETATM   24  O8  UNL     1      -0.096  55.088 -26.063  1.00  0.00    -0.388 OA
HETATM   25  H24 UNL     1      -0.372  55.614 -25.295  1.00  0.00     0.210 HD
ENDBRANCH  16  24
ENDBRANCH  10  11
ENDBRANCH   4  10
BRANCH   5  26
HETATM   26  O9  UNL     1      -2.182  49.811 -24.497  1.00  0.00    -0.393 OA
HETATM   27  H26 UNL     1      -1.503  50.135 -25.121  1.00  0.00     0.210 HD
ENDBRANCH   5  26
BRANCH   1  28
HETATM   28  C4  UNL     1      -0.855  51.374 -19.139  1.00  0.00     0.010 C 
HETATM   29  C3  UNL     1       0.267  51.337 -18.399  1.00  0.00     0.003 C 
BRANCH  29  30
HETATM   30  C2  UNL     1       0.457  51.838 -16.995  1.00  0.00     0.136 C 
HETATM   31  C1  UNL     1       0.942  50.819 -15.969  1.00  0.00     0.043 C 
BRANCH  30  32
HETATM   32  O1  UNL     1       1.406  52.900 -17.080  1.00  0.00    -0.392 OA
HETATM   33  H5  UNL     1       1.572  53.214 -16.176  1.00  0.00     0.210 HD
ENDBRANCH  30  32
ENDBRANCH  29  30
ENDBRANCH   1  28
BRANCH   1  34
HETATM   34  O2  UNL     1      -0.181  49.712 -20.598  1.00  0.00    -0.385 OA
HETATM   35  H8  UNL     1      -0.665  48.899 -20.827  1.00  0.00     0.211 HD
ENDBRANCH   1  34
TORSDOF 12
ENDMDL
MODEL 3
REMARK minimizedAffinity -8.37280846
REMARK  12 active torsions:
REMARK  status: ('A' for Active; 'I' for Inactive)
REMARK    1  A    between atoms: C2_2  and  O1_3 
REMARK    2  A    between atoms: C2_2  and  C3_4 
REMARK    3  A    between atoms: C4_5  and  C5_6 
REMARK    4  A    between atoms: C5_6  and  O2_7 
REMARK    5  A    between atoms: C8_10  and  O3_11 
REMARK    6  A    between atoms: O3_11  and  C9_12 
REMARK    7  A    between atoms: C10_14  and  C11_15 
REMARK    8  A    between atoms: C11_15  and  O5_16 
REMARK    9  A    between atoms: C12_17  and  O6_18 
REMARK   10  A    between atoms: C13_19  and  O7_20 
REMARK   11  A    between atoms: C14_21  and  O8_22 
REMARK   12  A    between atoms: C15_23  and  O9_24 
ROOT
HETATM    1  C5  UNL     1      -2.739  50.659 -21.421  1.00  0.00     0.088 C 
HETATM    2  C6  UNL     1      -2.373  51.230 -22.848  1.00  0.00     0.052 C 
HETATM    3  C7  UNL     1      -3.207  52.487 -23.177  1.00  0.00     0.016 C 
HETATM    4  C8  UNL     1      -0.846  51.467 -23.034  1.00  0.00     0.160 C 
HETATM    5  C15 UNL     1      -0.170  51.778 -21.697  1.00  0.00     0.148 C 
HETATM    6  C16 UNL     1      -0.260  50.586 -20.736  1.00  0.00     0.046 C 
HETATM    7  C17 UNL     1      -1.588  49.769 -20.814  1.00  0.00    -0.010 C 
HETATM    8  C18 UNL     1      -1.360  48.486 -21.653  1.00  0.00     0.018 C 
HETATM    9  C19 UNL     1      -1.913  49.276 -19.377  1.00  0.00     0.018 C 
ENDROOT
BRANCH   4  10
HETATM   10  O3  UNL     1      -0.533  52.525 -23.958  1.00  0.00    -0.350 OA
BRANCH  10  11
HETATM   11  C9  UNL     1       0.435  52.154 -24.944  1.00  0.00     0.292 C 
HETATM   12  O4  UNL     1       0.856  53.281 -25.708  1.00  0.00    -0.348 OA
HETATM   13  C10 UNL     1       0.045  53.616 -26.838  1.00  0.00     0.179 C 
HETATM   14  C12 UNL     1      -1.366  53.005 -26.830  1.00  0.00     0.180 C 
HETATM   15  C13 UNL     1      -1.291  51.477 -26.691  1.00  0.00     0.183 C 
HETATM   16  C14 UNL     1      -0.118  51.009 -25.816  1.00  0.00     0.204 C 
BRANCH  13  17
HETATM   17  C11 UNL     1      -0.008  55.149 -26.913  1.00  0.00     0.198 C 
BRANCH  17  18
HETATM   18  O5  UNL     1       0.398  55.760 -25.694  1.00  0.00    -0.398 OA
HETATM   19  H18 UNL     1      -0.316  55.609 -25.048  1.00  0.00     0.209 HD
ENDBRANCH  17  18
ENDBRANCH  13  17
BRANCH  14  20
HETATM   20  O6  UNL     1      -2.073  53.316 -28.041  1.00  0.00    -0.390 OA
HETATM   21  H20 UNL     1      -2.081  54.292 -28.120  1.00  0.00     0.210 HD
ENDBRANCH  14  20
BRANCH  15  22
HETATM   22  O7  UNL     1      -2.532  51.010 -26.133  1.00  0.00    -0.390 OA
HETATM   23  H22 UNL     1      -2.634  50.085 -26.413  1.00  0.00     0.210 HD
ENDBRANCH  15  22
BRANCH  16  24
HETATM   24  O8  UNL     1       0.908  50.482 -26.676  1.00  0.00    -0.388 OA
HETATM   25  H24 UNL     1       1.652  50.208 -26.115  1.00  0.00     0.210 HD
ENDBRANCH  16  24
ENDBRANCH  10  11
ENDBRANCH   4  10
BRANCH   5  26
HETATM   26  O9  UNL     1       1.212  52.083 -21.896  1.00  0.00    -0.393 OA
HETATM   27  H26 UNL     1       1.221  52.812 -22.547  1.00  0.00     0.210 HD
ENDBRANCH   5  26
BRANCH   1  28
HETATM   28  C4  UNL     1      -4.091  49.958 -21.375  1.00  0.00     0.010 C 
HETATM   29  C3  UNL     1      -5.282  50.408 -21.807  1.00  0.00     0.003 C 
BRANCH  29  30
HETATM   30  C2  UNL     1      -6.612  49.713 -21.719  1.00  0.00     0.136 C 
HETATM   31  C1  UNL     1      -7.240  49.620 -20.332  1.00  0.00     0.043 C 
BRANCH  30  32
HETATM   32  O1  UNL     1      -7.492  50.432 -22.580  1.00  0.00    -0.392 OA
HETATM   33  H5  UNL     1      -8.369  50.021 -22.509  1.00  0.00     0.210 HD
ENDBRANCH  30  32
ENDBRANCH  29  30
ENDBRANCH   1  28
BRANCH   1  34
HETATM   34  O2  UNL     1      -2.955  51.802 -20.567  1.00  0.00    -0.385 OA
HETATM   35  H8  UNL     1      -2.299  51.820 -19.847  1.00  0.00     0.211 HD
ENDBRANCH   1  34
TORSDOF 12
ENDMDL
MODEL 4
REMARK minimizedAffinity -8.23901653
REMARK  12 active torsions:
REMARK  status: ('A' for Active; 'I' for Inactive)
REMARK    1  A    between atoms: C2_2  and  O1_3 
REMARK    2  A    between atoms: C2_2  and  C3_4 
REMARK    3  A    between atoms: C4_5  and  C5_6 
REMARK    4  A    between atoms: C5_6  and  O2_7 
REMARK    5  A    between atoms: C8_10  and  O3_11 
REMARK    6  A    between atoms: O3_11  and  C9_12 
REMARK    7  A    between atoms: C10_14  and  C11_15 
REMARK    8  A    between atoms: C11_15  and  O5_16 
REMARK    9  A    between atoms: C12_17  and  O6_18 
REMARK   10  A    between atoms: C13_19  and  O7_20 
REMARK   11  A    between atoms: C14_21  and  O8_22 
REMARK   12  A    between atoms: C15_23  and  O9_24 
ROOT
HETATM    1  C5  UNL     1      -3.260  50.007 -22.518  1.00  0.00     0.088 C 
HETATM    2  C6  UNL     1      -3.109  51.320 -23.384  1.00  0.00     0.052 C 
HETATM    3  C7  UNL     1      -1.870  52.133 -22.952  1.00  0.00     0.016 C 
HETATM    4  C8  UNL     1      -3.132  51.044 -24.915  1.00  0.00     0.160 C 
HETATM    5  C15 UNL     1      -2.598  49.645 -25.230  1.00  0.00     0.148 C 
HETATM    6  C16 UNL     1      -3.497  48.557 -24.630  1.00  0.00     0.046 C 
HETATM    7  C17 UNL     1      -4.122  48.903 -23.242  1.00  0.00    -0.010 C 
HETATM    8  C18 UNL     1      -5.590  49.364 -23.434  1.00  0.00     0.018 C 
HETATM    9  C19 UNL     1      -4.201  47.582 -22.428  1.00  0.00     0.018 C 
ENDROOT
BRANCH   4  10
HETATM   10  O3  UNL     1      -2.383  52.000 -25.687  1.00  0.00    -0.350 OA
BRANCH  10  11
HETATM   11  C9  UNL     1      -1.102  51.520 -26.104  1.00  0.00     0.292 C 
HETATM   12  O4  UNL     1      -0.075  51.940 -25.211  1.00  0.00    -0.348 OA
HETATM   13  C10 UNL     1       0.489  53.231 -25.458  1.00  0.00     0.179 C 
HETATM   14  C12 UNL     1      -0.355  54.146 -26.359  1.00  0.00     0.180 C 
HETATM   15  C13 UNL     1      -0.658  53.456 -27.698  1.00  0.00     0.183 C 
HETATM   16  C14 UNL     1      -0.836  51.937 -27.565  1.00  0.00     0.204 C 
BRANCH  13  17
HETATM   17  C11 UNL     1       0.751  53.876 -24.090  1.00  0.00     0.198 C 
BRANCH  17  18
HETATM   18  O5  UNL     1       1.484  55.091 -24.201  1.00  0.00    -0.398 OA
HETATM   19  H18 UNL     1       2.397  54.851 -24.440  1.00  0.00     0.209 HD
ENDBRANCH  17  18
ENDBRANCH  13  17
BRANCH  14  20
HETATM   20  O6  UNL     1       0.327  55.381 -26.630  1.00  0.00    -0.390 OA
HETATM   21  H20 UNL     1       0.534  55.785 -25.762  1.00  0.00     0.210 HD
ENDBRANCH  14  20
BRANCH  15  22
HETATM   22  O7  UNL     1      -1.850  54.041 -28.252  1.00  0.00    -0.390 OA
HETATM   23  H22 UNL     1      -1.808  53.907 -29.213  1.00  0.00     0.210 HD
ENDBRANCH  15  22
BRANCH  16  24
HETATM   24  O8  UNL     1       0.347  51.294 -28.071  1.00  0.00    -0.388 OA
HETATM   25  H24 UNL     1       0.233  50.336 -27.963  1.00  0.00     0.210 HD
ENDBRANCH  16  24
ENDBRANCH  10  11
ENDBRANCH   4  10
BRANCH   5  26
HETATM   26  O9  UNL     1      -2.540  49.440 -26.644  1.00  0.00    -0.393 OA
HETATM   27  H26 UNL     1      -1.999  50.180 -26.987  1.00  0.00     0.210 HD
ENDBRANCH   5  26
BRANCH   1  28
HETATM   28  C4  UNL     1      -3.740  50.269 -21.096  1.00  0.00     0.010 C 
HETATM   29  C3  UNL     1      -3.064  50.123 -19.943  1.00  0.00     0.003 C 
BRANCH  29  30
HETATM   30  C2  UNL     1      -3.570  50.352 -18.546  1.00  0.00     0.136 C 
HETATM   31  C1  UNL     1      -3.227  49.283 -17.515  1.00  0.00     0.043 C 
BRANCH  30  32
HETATM   32  O1  UNL     1      -3.017  51.598 -18.127  1.00  0.00    -0.392 OA
HETATM   33  H5  UNL     1      -3.302  51.748 -17.210  1.00  0.00     0.210 HD
ENDBRANCH  30  32
ENDBRANCH  29  30
ENDBRANCH   1  28
BRANCH   1  34
HETATM   34  O2  UNL     1      -1.925  49.503 -22.305  1.00  0.00    -0.385 OA
HETATM   35  H8  UNL     1      -1.821  48.627 -22.717  1.00  0.00     0.211 HD
ENDBRANCH   1  34
TORSDOF 12
ENDMDL
MODEL 5
REMARK minimizedAffinity -8.1464119
REMARK  12 active torsions:
REMARK  status: ('A' for Active; 'I' for Inactive)
REMARK    1  A    between atoms: C2_2  and  O1_3 
REMARK    2  A    between atoms: C2_2  and  C3_4 
REMARK    3  A    between atoms: C4_5  and  C5_6 
REMARK    4  A    between atoms: C5_6  and  O2_7 
REMARK    5  A    between atoms: C8_10  and  O3_11 
REMARK    6  A    between atoms: O3_11  and  C9_12 
REMARK    7  A    between atoms: C10_14  and  C11_15 
REMARK    8  A    between atoms: C11_15  and  O5_16 
REMARK    9  A    between atoms: C12_17  and  O6_18 
REMARK   10  A    between atoms: C13_19  and  O7_20 
REMARK   11  A    between atoms: C14_21  and  O8_22 
REMARK   12  A    between atoms: C15_23  and  O9_24 
ROOT
HETATM    1  C5  UNL     1       5.269  66.563 -35.771  1.00  0.00     0.088 C 
HETATM    2  C6  UNL     1       3.871  66.750 -36.481  1.00  0.00     0.052 C 
HETATM    3  C7  UNL     1       3.133  67.995 -35.942  1.00  0.00     0.016 C 
HETATM    4  C8  UNL     1       3.973  66.749 -38.034  1.00  0.00     0.160 C 
HETATM    5  C15 UNL     1       5.337  67.266 -38.496  1.00  0.00     0.148 C 
HETATM    6  C16 UNL     1       6.469  66.340 -38.035  1.00  0.00     0.046 C 
HETATM    7  C17 UNL     1       6.270  65.696 -36.627  1.00  0.00    -0.010 C 
HETATM    8  C18 UNL     1       5.764  64.240 -36.788  1.00  0.00     0.018 C 
HETATM    9  C19 UNL     1       7.672  65.582 -35.968  1.00  0.00     0.018 C 
ENDROOT
BRANCH   4  10
HETATM   10  O3  UNL     1       2.950  67.526 -38.682  1.00  0.00    -0.350 OA
BRANCH  10  11
HETATM   11  C9  UNL     1       2.102  66.755 -39.538  1.00  0.00     0.292 C 
HETATM   12  O4  UNL     1       2.250  67.143 -40.901  1.00  0.00    -0.348 OA
HETATM   13  C10 UNL     1       1.445  68.242 -41.335  1.00  0.00     0.179 C 
HETATM   14  C12 UNL     1       0.867  69.111 -40.206  1.00  0.00     0.180 C 
HETATM   15  C13 UNL     1       0.063  68.249 -39.220  1.00  0.00     0.183 C 
HETATM   16  C14 UNL     1       0.644  66.838 -39.044  1.00  0.00     0.204 C 
BRANCH  13  17
HETATM   17  C11 UNL     1       2.304  69.074 -42.299  1.00  0.00     0.198 C 
BRANCH  17  18
HETATM   18  O5  UNL     1       1.857  68.965 -43.646  1.00  0.00    -0.398 OA
HETATM   19  H18 UNL     1       2.095  68.071 -43.953  1.00  0.00     0.209 HD
ENDBRANCH  17  18
ENDBRANCH  13  17
BRANCH  14  20
HETATM   20  O6  UNL     1      -0.000  70.130 -40.726  1.00  0.00    -0.390 OA
HETATM   21  H20 UNL     1       0.526  70.646 -41.372  1.00  0.00     0.210 HD
ENDBRANCH  14  20
BRANCH  15  22
HETATM   22  O7  UNL     1       0.028  68.924 -37.950  1.00  0.00    -0.390 OA
HETATM   23  H22 UNL     1      -0.764  68.608 -37.486  1.00  0.00     0.210 HD
ENDBRANCH  15  22
BRANCH  16  24
HETATM   24  O8  UNL     1      -0.191  65.911 -39.760  1.00  0.00    -0.388 OA
HETATM   25  H24 UNL     1       0.196  65.025 -39.659  1.00  0.00     0.210 HD
ENDBRANCH  16  24
ENDBRANCH  10  11
ENDBRANCH   4  10
BRANCH   5  26
HETATM   26  O9  UNL     1       5.383  67.345 -39.923  1.00  0.00    -0.393 OA
HETATM   27  H26 UNL     1       4.620  67.904 -40.172  1.00  0.00     0.210 HD
ENDBRANCH   5  26
BRANCH   1  28
HETATM   28  C4  UNL     1       5.160  66.063 -34.336  1.00  0.00     0.010 C 
HETATM   29  C3  UNL     1       4.314  65.148 -33.829  1.00  0.00     0.003 C 
BRANCH  29  30
HETATM   30  C2  UNL     1       4.200  64.696 -32.400  1.00  0.00     0.136 C 
HETATM   31  C1  UNL     1       4.131  63.190 -32.168  1.00  0.00     0.043 C 
BRANCH  30  32
HETATM   32  O1  UNL     1       5.344  65.218 -31.729  1.00  0.00    -0.392 OA
HETATM   33  H5  UNL     1       5.309  64.905 -30.809  1.00  0.00     0.210 HD
ENDBRANCH  30  32
ENDBRANCH  29  30
ENDBRANCH   1  28
BRANCH   1  34
HETATM   34  O2  UNL     1       5.819  67.886 -35.595  1.00  0.00    -0.385 OA
HETATM   35  H8  UNL     1       6.644  67.983 -36.101  1.00  0.00     0.211 HD
ENDBRANCH   1  34
TORSDOF 12
ENDMDL
MODEL 6
REMARK minimizedAffinity -8.12366486
REMARK  12 active torsions:
REMARK  status: ('A' for Active; 'I' for Inactive)
REMARK    1  A    between atoms: C2_2  and  O1_3 
REMARK    2  A    between atoms: C2_2  and  C3_4 
REMARK    3  A    between atoms: C4_5  and  C5_6 
REMARK    4  A    between atoms: C5_6  and  O2_7 
REMARK    5  A    between atoms: C8_10  and  O3_11 
REMARK    6  A    between atoms: O3_11  and  C9_12 
REMARK    7  A    between atoms: C10_14  and  C11_15 
REMARK    8  A    between atoms: C11_15  and  O5_16 
REMARK    9  A    between atoms: C12_17  and  O6_18 
REMARK   10  A    between atoms: C13_19  and  O7_20 
REMARK   11  A    between atoms: C14_21  and  O8_22 
REMARK   12  A    between atoms: C15_23  and  O9_24 
ROOT
HETATM    1  C5  UNL     1      -1.744  51.164 -21.398  1.00  0.00     0.088 C 
HETATM    2  C6  UNL     1      -1.656  52.167 -22.615  1.00  0.00     0.052 C 
HETATM    3  C7  UNL     1      -0.191  52.389 -23.049  1.00  0.00     0.016 C 
HETATM    4  C8  UNL     1      -2.572  51.761 -23.805  1.00  0.00     0.160 C 
HETATM    5  C15 UNL     1      -2.774  50.245 -23.852  1.00  0.00     0.148 C 
HETATM    6  C16 UNL     1      -3.516  49.743 -22.607  1.00  0.00     0.046 C 
HETATM    7  C17 UNL     1      -3.162  50.483 -21.279  1.00  0.00    -0.010 C 
HETATM    8  C18 UNL     1      -4.264  51.523 -20.953  1.00  0.00     0.018 C 
HETATM    9  C19 UNL     1      -3.224  49.435 -20.134  1.00  0.00     0.018 C 
ENDROOT
BRANCH   4  10
HETATM   10  O3  UNL     1      -2.081  52.193 -25.087  1.00  0.00    -0.350 OA
BRANCH  10  11
HETATM   11  C9  UNL     1      -1.909  51.123 -26.022  1.00  0.00     0.292 C 
HETATM   12  O4  UNL     1      -0.570  50.638 -26.016  1.00  0.00    -0.348 OA
HETATM   13  C10 UNL     1       0.357  51.330 -26.857  1.00  0.00     0.179 C 
HETATM   14  C12 UNL     1      -0.095  52.728 -27.310  1.00  0.00     0.180 C 
HETATM   15  C13 UNL     1      -1.460  52.652 -28.011  1.00  0.00     0.183 C 
HETATM   16  C14 UNL     1      -2.379  51.572 -27.422  1.00  0.00     0.204 C 
BRANCH  13  17
HETATM   17  C11 UNL     1       1.691  51.391 -26.099  1.00  0.00     0.198 C 
BRANCH  17  18
HETATM   18  O5  UNL     1       2.745  51.900 -26.908  1.00  0.00    -0.398 OA
HETATM   19  H18 UNL     1       2.964  51.208 -27.558  1.00  0.00     0.209 HD
ENDBRANCH  17  18
ENDBRANCH  13  17
BRANCH  14  20
HETATM   20  O6  UNL     1       0.850  53.309 -28.223  1.00  0.00    -0.390 OA
HETATM   21  H20 UNL     1       1.716  53.319 -27.763  1.00  0.00     0.210 HD
ENDBRANCH  14  20
BRANCH  15  22
HETATM   22  O7  UNL     1      -2.095  53.939 -27.911  1.00  0.00    -0.390 OA
HETATM   23  H22 UNL     1      -2.719  54.002 -28.653  1.00  0.00     0.210 HD
ENDBRANCH  15  22
BRANCH  16  24
HETATM   24  O8  UNL     1      -2.410  50.457 -28.330  1.00  0.00    -0.388 OA
HETATM   25  H24 UNL     1      -2.977  49.772 -27.939  1.00  0.00     0.210 HD
ENDBRANCH  16  24
ENDBRANCH  10  11
ENDBRANCH   4  10
BRANCH   5  26
HETATM   26  O9  UNL     1      -3.541  49.879 -25.001  1.00  0.00    -0.393 OA
HETATM   27  H26 UNL     1      -3.057  50.258 -25.762  1.00  0.00     0.210 HD
ENDBRANCH   5  26
BRANCH   1  28
HETATM   28  C4  UNL     1      -1.286  51.768 -20.077  1.00  0.00     0.010 C 
HETATM   29  C3  UNL     1      -0.075  51.692 -19.496  1.00  0.00     0.003 C 
BRANCH  29  30
HETATM   30  C2  UNL     1       0.346  52.267 -18.173  1.00  0.00     0.136 C 
HETATM   31  C1  UNL     1       0.665  51.266 -17.067  1.00  0.00     0.043 C 
BRANCH  30  32
HETATM   32  O1  UNL     1       1.505  53.055 -18.436  1.00  0.00    -0.392 OA
HETATM   33  H5  UNL     1       1.816  53.407 -17.585  1.00  0.00     0.210 HD
ENDBRANCH  30  32
ENDBRANCH  29  30
ENDBRANCH   1  28
BRANCH   1  34
HETATM   34  O2  UNL     1      -0.748  50.146 -21.634  1.00  0.00    -0.385 OA
HETATM   35  H8  UNL     1      -1.169  49.276 -21.744  1.00  0.00     0.211 HD
ENDBRANCH   1  34
TORSDOF 12
ENDMDL
MODEL 7
REMARK minimizedAffinity -8.11940384
REMARK  12 active torsions:
REMARK  status: ('A' for Active; 'I' for Inactive)
REMARK    1  A    between atoms: C2_2  and  O1_3 
REMARK    2  A    between atoms: C2_2  and  C3_4 
REMARK    3  A    between atoms: C4_5  and  C5_6 
REMARK    4  A    between atoms: C5_6  and  O2_7 
REMARK    5  A    between atoms: C8_10  and  O3_11 
REMARK    6  A    between atoms: O3_11  and  C9_12 
REMARK    7  A    between atoms: C10_14  and  C11_15 
REMARK    8  A    between atoms: C11_15  and  O5_16 
REMARK    9  A    between atoms: C12_17  and  O6_18 
REMARK   10  A    between atoms: C13_19  and  O7_20 
REMARK   11  A    between atoms: C14_21  and  O8_22 
REMARK   12  A    between atoms: C15_23  and  O9_24 
ROOT
HETATM    1  C5  UNL     1      -2.745  50.624 -21.320  1.00  0.00     0.088 C 
HETATM    2  C6  UNL     1      -2.064  50.345 -22.719  1.00  0.00     0.052 C 
HETATM    3  C7  UNL     1      -3.049  50.605 -23.880  1.00  0.00     0.016 C 
HETATM    4  C8  UNL     1      -0.719  51.105 -22.902  1.00  0.00     0.160 C 
HETATM    5  C15 UNL     1      -0.706  52.405 -22.095  1.00  0.00     0.148 C 
HETATM    6  C16 UNL     1      -0.789  52.126 -20.589  1.00  0.00     0.046 C 
HETATM    7  C17 UNL     1      -1.691  50.918 -20.185  1.00  0.00    -0.010 C 
HETATM    8  C18 UNL     1      -0.804  49.679 -19.899  1.00  0.00     0.018 C 
HETATM    9  C19 UNL     1      -2.362  51.274 -18.830  1.00  0.00     0.018 C 
ENDROOT
BRANCH   4  10
HETATM   10  O3  UNL     1      -0.413  51.419 -24.273  1.00  0.00    -0.350 OA
BRANCH  10  11
HETATM   11  C9  UNL     1      -0.791  52.746 -24.652  1.00  0.00     0.292 C 
HETATM   12  O4  UNL     1      -1.962  52.741 -25.462  1.00  0.00    -0.348 OA
HETATM   13  C10 UNL     1      -1.759  52.553 -26.865  1.00  0.00     0.179 C 
HETATM   14  C12 UNL     1      -0.391  51.967 -27.251  1.00  0.00     0.180 C 
HETATM   15  C13 UNL     1       0.745  52.831 -26.683  1.00  0.00     0.183 C 
HETATM   16  C14 UNL     1       0.402  53.457 -25.324  1.00  0.00     0.204 C 
BRANCH  13  17
HETATM   17  C11 UNL     1      -2.910  51.671 -27.371  1.00  0.00     0.198 C 
BRANCH  17  18
HETATM   18  O5  UNL     1      -2.489  50.774 -28.393  1.00  0.00    -0.398 OA
HETATM   19  H18 UNL     1      -2.337  51.308 -29.194  1.00  0.00     0.209 HD
ENDBRANCH  17  18
ENDBRANCH  13  17
BRANCH  14  20
HETATM   20  O6  UNL     1      -0.238  51.900 -28.678  1.00  0.00    -0.390 OA
HETATM   21  H20 UNL     1      -0.989  51.370 -29.017  1.00  0.00     0.210 HD
ENDBRANCH  14  20
BRANCH  15  22
HETATM   22  O7  UNL     1       1.921  52.011 -26.558  1.00  0.00    -0.390 OA
HETATM   23  H22 UNL     1       2.685  52.610 -26.592  1.00  0.00     0.210 HD
ENDBRANCH  15  22
BRANCH  16  24
HETATM   24  O8  UNL     1       0.115  54.852 -25.526  1.00  0.00    -0.388 OA
HETATM   25  H24 UNL     1      -0.121  55.235 -24.665  1.00  0.00     0.210 HD
ENDBRANCH  16  24
ENDBRANCH  10  11
ENDBRANCH   4  10
BRANCH   5  26
HETATM   26  O9  UNL     1       0.497  53.135 -22.344  1.00  0.00    -0.393 OA
HETATM   27  H26 UNL     1       0.530  53.247 -23.315  1.00  0.00     0.210 HD
ENDBRANCH   5  26
BRANCH   1  28
HETATM   28  C4  UNL     1      -3.748  49.554 -20.909  1.00  0.00     0.010 C 
HETATM   29  C3  UNL     1      -5.050  49.699 -20.604  1.00  0.00     0.003 C 
BRANCH  29  30
HETATM   30  C2  UNL     1      -6.014  48.633 -20.164  1.00  0.00     0.136 C 
HETATM   31  C1  UNL     1      -6.096  48.366 -18.665  1.00  0.00     0.043 C 
BRANCH  30  32
HETATM   32  O1  UNL     1      -7.297  49.044 -20.634  1.00  0.00    -0.392 OA
HETATM   33  H5  UNL     1      -7.943  48.385 -20.327  1.00  0.00     0.210 HD
ENDBRANCH  30  32
ENDBRANCH  29  30
ENDBRANCH   1  28
BRANCH   1  34
HETATM   34  O2  UNL     1      -3.586  51.783 -21.499  1.00  0.00    -0.385 OA
HETATM   35  H8  UNL     1      -3.277  52.518 -20.941  1.00  0.00     0.211 HD
ENDBRANCH   1  34
TORSDOF 12
ENDMDL
MODEL 8
REMARK minimizedAffinity -8.09980297
REMARK  12 active torsions:
REMARK  status: ('A' for Active; 'I' for Inactive)
REMARK    1  A    between atoms: C2_2  and  O1_3 
REMARK    2  A    between atoms: C2_2  and  C3_4 
REMARK    3  A    between atoms: C4_5  and  C5_6 
REMARK    4  A    between atoms: C5_6  and  O2_7 
REMARK    5  A    between atoms: C8_10  and  O3_11 
REMARK    6  A    between atoms: O3_11  and  C9_12 
REMARK    7  A    between atoms: C10_14  and  C11_15 
REMARK    8  A    between atoms: C11_15  and  O5_16 
REMARK    9  A    between atoms: C12_17  and  O6_18 
REMARK   10  A    between atoms: C13_19  and  O7_20 
REMARK   11  A    between atoms: C14_21  and  O8_22 
REMARK   12  A    between atoms: C15_23  and  O9_24 
ROOT
HETATM    1  C5  UNL     1      -1.580  51.485 -24.475  1.00  0.00     0.088 C 
HETATM    2  C6  UNL     1      -1.546  50.761 -23.072  1.00  0.00     0.052 C 
HETATM    3  C7  UNL     1      -0.433  51.341 -22.172  1.00  0.00     0.016 C 
HETATM    4  C8  UNL     1      -2.931  50.742 -22.364  1.00  0.00     0.160 C 
HETATM    5  C15 UNL     1      -3.777  51.949 -22.777  1.00  0.00     0.148 C 
HETATM    6  C16 UNL     1      -4.109  51.911 -24.273  1.00  0.00     0.046 C 
HETATM    7  C17 UNL     1      -2.978  51.349 -25.191  1.00  0.00    -0.010 C 
HETATM    8  C18 UNL     1      -3.289  49.874 -25.553  1.00  0.00     0.018 C 
HETATM    9  C19 UNL     1      -3.038  52.131 -26.532  1.00  0.00     0.018 C 
ENDROOT
BRANCH   4  10
HETATM   10  O3  UNL     1      -2.847  50.718 -20.927  1.00  0.00    -0.350 OA
BRANCH  10  11
HETATM   11  C9  UNL     1      -3.694  49.736 -20.322  1.00  0.00     0.292 C 
HETATM   12  O4  UNL     1      -3.923  50.025 -18.946  1.00  0.00    -0.348 OA
HETATM   13  C10 UNL     1      -2.943  49.537 -18.027  1.00  0.00     0.179 C 
HETATM   14  C12 UNL     1      -1.594  49.154 -18.657  1.00  0.00     0.180 C 
HETATM   15  C13 UNL     1      -1.796  48.125 -19.780  1.00  0.00     0.183 C 
HETATM   16  C14 UNL     1      -3.109  48.328 -20.551  1.00  0.00     0.204 C 
BRANCH  13  17
HETATM   17  C11 UNL     1      -2.770  50.612 -16.943  1.00  0.00     0.198 C 
BRANCH  17  18
HETATM   18  O5  UNL     1      -3.462  50.280 -15.744  1.00  0.00    -0.398 OA
HETATM   19  H18 UNL     1      -4.413  50.389 -15.925  1.00  0.00     0.209 HD
ENDBRANCH  17  18
ENDBRANCH  13  17
BRANCH  14  20
HETATM   20  O6  UNL     1      -0.706  48.589 -17.680  1.00  0.00    -0.390 OA
HETATM   21  H20 UNL     1      -0.617  49.251 -16.963  1.00  0.00     0.210 HD
ENDBRANCH  14  20
BRANCH  15  22
HETATM   22  O7  UNL     1      -0.681  48.214 -20.684  1.00  0.00    -0.390 OA
HETATM   23  H22 UNL     1      -0.607  47.351 -21.123  1.00  0.00     0.210 HD
ENDBRANCH  15  22
BRANCH  16  24
HETATM   24  O8  UNL     1      -4.041  47.315 -20.135  1.00  0.00    -0.388 OA
HETATM   25  H24 UNL     1      -4.874  47.463 -20.613  1.00  0.00     0.210 HD
ENDBRANCH  16  24
ENDBRANCH  10  11
ENDBRANCH   4  10
BRANCH   5  26
HETATM   26  O9  UNL     1      -5.008  51.968 -22.051  1.00  0.00    -0.393 OA
HETATM   27  H26 UNL     1      -4.748  51.944 -21.108  1.00  0.00     0.210 HD
ENDBRANCH   5  26
BRANCH   1  28
HETATM   28  C4  UNL     1      -0.427  51.093 -25.390  1.00  0.00     0.010 C 
HETATM   29  C3  UNL     1       0.619  51.839 -25.787  1.00  0.00     0.003 C 
BRANCH  29  30
HETATM   30  C2  UNL     1       1.728  51.442 -26.721  1.00  0.00     0.136 C 
HETATM   31  C1  UNL     1       1.437  51.564 -28.213  1.00  0.00     0.043 C 
BRANCH  30  32
HETATM   32  O1  UNL     1       2.837  52.277 -26.394  1.00  0.00    -0.392 OA
HETATM   33  H5  UNL     1       3.555  52.061 -27.012  1.00  0.00     0.210 HD
ENDBRANCH  30  32
ENDBRANCH  29  30
ENDBRANCH   1  28
BRANCH   1  34
HETATM   34  O2  UNL     1      -1.311  52.880 -24.221  1.00  0.00    -0.385 OA
HETATM   35  H8  UNL     1      -2.076  53.427 -24.474  1.00  0.00     0.211 HD
ENDBRANCH   1  34
TORSDOF 12
ENDMDL
MODEL 9
REMARK minimizedAffinity -8.07356739
REMARK  12 active torsions:
REMARK  status: ('A' for Active; 'I' for Inactive)
REMARK    1  A    between atoms: C2_2  and  O1_3 
REMARK    2  A    between atoms: C2_2  and  C3_4 
REMARK    3  A    between atoms: C4_5  and  C5_6 
REMARK    4  A    between atoms: C5_6  and  O2_7 
REMARK    5  A    between atoms: C8_10  and  O3_11 
REMARK    6  A    between atoms: O3_11  and  C9_12 
REMARK    7  A    between atoms: C10_14  and  C11_15 
REMARK    8  A    between atoms: C11_15  and  O5_16 
REMARK    9  A    between atoms: C12_17  and  O6_18 
REMARK   10  A    between atoms: C13_19  and  O7_20 
REMARK   11  A    between atoms: C14_21  and  O8_22 
REMARK   12  A    between atoms: C15_23  and  O9_24 
ROOT
HETATM    1  C5  UNL     1      -1.253  51.813 -24.397  1.00  0.00     0.088 C 
HETATM    2  C6  UNL     1      -0.550  51.119 -23.163  1.00  0.00     0.052 C 
HETATM    3  C7  UNL     1       0.497  52.053 -22.519  1.00  0.00     0.016 C 
HETATM    4  C8  UNL     1      -1.563  50.558 -22.124  1.00  0.00     0.160 C 
HETATM    5  C15 UNL     1      -2.863  51.365 -22.131  1.00  0.00     0.148 C 
HETATM    6  C16 UNL     1      -3.587  51.244 -23.478  1.00  0.00     0.046 C 
HETATM    7  C17 UNL     1      -2.656  51.176 -24.729  1.00  0.00    -0.010 C 
HETATM    8  C18 UNL     1      -2.515  49.704 -25.193  1.00  0.00     0.018 C 
HETATM    9  C19 UNL     1      -3.384  51.912 -25.888  1.00  0.00     0.018 C 
ENDROOT
BRANCH   4  10
HETATM   10  O3  UNL     1      -1.055  50.530 -20.778  1.00  0.00    -0.350 OA
BRANCH  10  11
HETATM   11  C9  UNL     1      -1.725  51.435 -19.895  1.00  0.00     0.292 C 
HETATM   12  O4  UNL     1      -0.894  52.543 -19.560  1.00  0.00    -0.348 OA
HETATM   13  C10 UNL     1      -0.003  52.354 -18.458  1.00  0.00     0.179 C 
HETATM   14  C12 UNL     1       0.245  50.888 -18.066  1.00  0.00     0.180 C 
HETATM   15  C13 UNL     1      -1.084  50.175 -17.775  1.00  0.00     0.183 C 
HETATM   16  C14 UNL     1      -2.239  50.673 -18.656  1.00  0.00     0.204 C 
BRANCH  13  17
HETATM   17  C11 UNL     1       1.309  53.070 -18.814  1.00  0.00     0.198 C 
BRANCH  17  18
HETATM   18  O5  UNL     1       1.103  54.143 -19.726  1.00  0.00    -0.398 OA
HETATM   19  H18 UNL     1       0.900  53.745 -20.592  1.00  0.00     0.209 HD
ENDBRANCH  17  18
ENDBRANCH  13  17
BRANCH  14  20
HETATM   20  O6  UNL     1       1.074  50.796 -16.897  1.00  0.00    -0.390 OA
HETATM   21  H20 UNL     1       1.901  51.282 -17.098  1.00  0.00     0.210 HD
ENDBRANCH  14  20
BRANCH  15  22
HETATM   22  O7  UNL     1      -0.895  48.763 -17.971  1.00  0.00    -0.390 OA
HETATM   23  H22 UNL     1      -1.562  48.313 -17.428  1.00  0.00     0.210 HD
ENDBRANCH  15  22
BRANCH  16  24
HETATM   24  O8  UNL     1      -3.089  51.515 -17.858  1.00  0.00    -0.388 OA
HETATM   25  H24 UNL     1      -3.805  51.840 -18.429  1.00  0.00     0.210 HD
ENDBRANCH  16  24
ENDBRANCH  10  11
ENDBRANCH   4  10
BRANCH   5  26
HETATM   26  O9  UNL     1      -3.747  50.897 -21.110  1.00  0.00    -0.393 OA
HETATM   27  H26 UNL     1      -3.229  50.948 -20.281  1.00  0.00     0.210 HD
ENDBRANCH   5  26
BRANCH   1  28
HETATM   28  C4  UNL     1      -0.361  51.912 -25.628  1.00  0.00     0.010 C 
HETATM   29  C3  UNL     1       0.778  51.248 -25.892  1.00  0.00     0.003 C 
BRANCH  29  30
HETATM   30  C2  UNL     1       1.662  51.388 -27.100  1.00  0.00     0.136 C 
HETATM   31  C1  UNL     1       1.039  52.046 -28.327  1.00  0.00     0.043 C 
BRANCH  30  32
HETATM   32  O1  UNL     1       2.786  52.158 -26.679  1.00  0.00    -0.392 OA
HETATM   33  H5  UNL     1       3.354  52.292 -27.457  1.00  0.00     0.210 HD
ENDBRANCH  30  32
ENDBRANCH  29  30
ENDBRANCH   1  28
BRANCH   1  34
HETATM   34  O2  UNL     1      -1.435  53.199 -24.036  1.00  0.00    -0.385 OA
HETATM   35  H8  UNL     1      -2.382  53.422 -24.001  1.00  0.00     0.211 HD
ENDBRANCH   1  34
TORSDOF 12
ENDMDL
