MODEL 1
REMARK minimizedAffinity -8.69692898
REMARK CNNscore 0.54338187
REMARK CNNaffinity 7.03689766
REMARK  7 active torsions:
REMARK  status: ('A' for Active; 'I' for Inactive)
REMARK    1  A    between atoms: C2_2  and  C30_32 
REMARK    2  A    between atoms: C3_3  and  C4_4 
REMARK    3  A    between atoms: C4_4  and  O1_5 
REMARK    4  A    between atoms: C4_4  and  C5_6 
REMARK    5  A    between atoms: C5_6  and  C6_7 
REMARK    6  A    between atoms: C6_7  and  C8_9 
REMARK    7  A    between atoms: C30_32  and  O4_34 
ROOT
HETATM    1  C8  UNL     1      -8.014   6.574  14.575  1.00  0.00    -0.002 C 
HETATM    2  C9  UNL     1      -7.831   5.818  15.910  1.00  0.00     0.006 C 
HETATM    3  C10 UNL     1      -6.314   5.776  16.194  1.00  0.00     0.011 C 
HETATM    4  C11 UNL     1      -5.683   6.786  15.212  1.00  0.00    -0.032 C 
HETATM    5  C12 UNL     1      -5.799   8.195  15.875  1.00  0.00     0.016 C 
HETATM    6  C13 UNL     1      -4.202   6.503  14.840  1.00  0.00     0.004 C 
HETATM    7  C14 UNL     1      -3.197   6.830  15.956  1.00  0.00     0.007 C 
HETATM    8  C15 UNL     1      -1.790   6.415  15.531  1.00  0.00     0.007 C 
HETATM    9  C16 UNL     1      -1.278   7.320  14.401  1.00  0.00     0.010 C 
HETATM   10  C17 UNL     1       0.125   6.927  13.833  1.00  0.00     0.018 C 
HETATM   11  C18 UNL     1       1.237   7.394  14.791  1.00  0.00     0.023 C 
HETATM   12  C19 UNL     1       0.297   5.417  13.598  1.00  0.00     0.023 C 
HETATM   13  C20 UNL     1       0.353   7.655  12.497  1.00  0.00     0.135 C 
HETATM   14  O2  UNL     1       1.203   7.287  11.685  1.00  0.00    -0.297 OA
HETATM   15  C21 UNL     1      -0.430   8.922  12.258  1.00  0.00     0.080 C 
HETATM   16  C22 UNL     1      -1.933   8.694  12.379  1.00  0.00     0.018 C 
HETATM   17  C23 UNL     1      -2.292   7.514  13.273  1.00  0.00    -0.026 A 
HETATM   18  C24 UNL     1      -2.910   6.314  12.600  1.00  0.00     0.021 A 
HETATM   19  C25 UNL     1      -3.792   7.170  13.500  1.00  0.00    -0.027 A 
HETATM   20  C26 UNL     1      -4.829   8.056  12.794  1.00  0.00     0.011 C 
HETATM   21  C27 UNL     1      -6.318   7.706  12.959  1.00  0.00     0.011 C 
HETATM   22  C28 UNL     1      -6.589   6.568  13.943  1.00  0.00    -0.032 C 
HETATM   23  C29 UNL     1      -6.316   5.228  13.211  1.00  0.00     0.016 C 
ENDROOT
BRANCH   1  24
HETATM   24  C6  UNL     1      -9.295   6.291  13.743  1.00  0.00    -0.011 C 
HETATM   25  C7  UNL     1      -8.892   5.834  12.326  1.00  0.00     0.010 C 
BRANCH  24  26
HETATM   26  C5  UNL     1     -10.471   7.296  13.660  1.00  0.00     0.040 C 
BRANCH  26  27
HETATM   27  C4  UNL     1     -11.836   6.930  14.253  1.00  0.00     0.142 C 
BRANCH  27  28
HETATM   28  C3  UNL     1     -12.935   7.347  13.312  1.00  0.00     0.018 C 
HETATM   29  C2  UNL     1     -14.210   6.906  13.264  1.00  0.00     0.010 C 
HETATM   30  C1  UNL     1     -14.826   5.870  14.159  1.00  0.00     0.055 C 
BRANCH  29  31
HETATM   31  C30 UNL     1     -15.160   7.450  12.252  1.00  0.00     0.171 C 
HETATM   32  O3  UNL     1     -15.145   8.588  11.817  1.00  0.00    -0.646 OA
BRANCH  31  33
HETATM   33  O4  UNL     1     -16.071   6.562  11.824  1.00  0.00    -0.773 OA
HETATM   34  H46 UNL     1     -16.599   7.067  11.171  1.00  0.00     0.167 HD
ENDBRANCH  31  33
ENDBRANCH  29  31
ENDBRANCH  27  28
BRANCH  27  35
HETATM   35  O1  UNL     1     -12.053   7.637  15.467  1.00  0.00    -0.392 OA
HETATM   36  H6  UNL     1     -12.981   7.506  15.721  1.00  0.00     0.210 HD
ENDBRANCH  27  35
ENDBRANCH  26  27
ENDBRANCH  24  26
ENDBRANCH   1  24
TORSDOF 7
ENDMDL
MODEL 2
REMARK minimizedAffinity -8.04899406
REMARK CNNscore 0.395625979
REMARK CNNaffinity 7.15133142
REMARK  7 active torsions:
REMARK  status: ('A' for Active; 'I' for Inactive)
REMARK    1  A    between atoms: C2_2  and  C30_32 
REMARK    2  A    between atoms: C3_3  and  C4_4 
REMARK    3  A    between atoms: C4_4  and  O1_5 
REMARK    4  A    between atoms: C4_4  and  C5_6 
REMARK    5  A    between atoms: C5_6  and  C6_7 
REMARK    6  A    between atoms: C6_7  and  C8_9 
REMARK    7  A    between atoms: C30_32  and  O4_34 
ROOT
HETATM    1  C8  UNL     1      -5.543   5.639  14.170  1.00  0.00    -0.002 C 
HETATM    2  C9  UNL     1      -6.239   4.349  13.681  1.00  0.00     0.006 C 
HETATM    3  C10 UNL     1      -7.754   4.648  13.642  1.00  0.00     0.011 C 
HETATM    4  C11 UNL     1      -7.874   6.181  13.777  1.00  0.00    -0.032 C 
HETATM    5  C12 UNL     1      -7.688   6.779  12.348  1.00  0.00     0.016 C 
HETATM    6  C13 UNL     1      -9.213   6.683  14.384  1.00  0.00     0.004 C 
HETATM    7  C14 UNL     1     -10.414   6.588  13.431  1.00  0.00     0.007 C 
HETATM    8  C15 UNL     1     -11.693   7.001  14.157  1.00  0.00     0.007 C 
HETATM    9  C16 UNL     1     -11.679   8.505  14.461  1.00  0.00     0.010 C 
HETATM   10  C17 UNL     1     -12.910   9.018  15.280  1.00  0.00     0.018 C 
HETATM   11  C18 UNL     1     -14.139   9.155  14.363  1.00  0.00     0.023 C 
HETATM   12  C19 UNL     1     -13.290   8.110  16.461  1.00  0.00     0.023 C 
HETATM   13  C20 UNL     1     -12.604  10.422  15.827  1.00  0.00     0.135 C 
HETATM   14  O2  UNL     1     -13.240  10.918  16.759  1.00  0.00    -0.297 OA
HETATM   15  C21 UNL     1     -11.560  11.235  15.102  1.00  0.00     0.080 C 
HETATM   16  C22 UNL     1     -10.227  10.501  15.016  1.00  0.00     0.018 C 
HETATM   17  C23 UNL     1     -10.367   8.986  15.083  1.00  0.00    -0.026 A 
HETATM   18  C24 UNL     1      -9.822   8.306  16.313  1.00  0.00     0.021 A 
HETATM   19  C25 UNL     1      -9.089   8.106  14.992  1.00  0.00    -0.027 A 
HETATM   20  C26 UNL     1      -7.745   8.834  14.842  1.00  0.00     0.011 C 
HETATM   21  C27 UNL     1      -6.459   7.989  14.805  1.00  0.00     0.011 C 
HETATM   22  C28 UNL     1      -6.702   6.480  14.785  1.00  0.00    -0.032 C 
HETATM   23  C29 UNL     1      -7.003   6.026  16.237  1.00  0.00     0.016 C 
ENDROOT
BRANCH   1  24
HETATM   24  C6  UNL     1      -4.155   5.506  14.856  1.00  0.00    -0.011 C 
HETATM   25  C7  UNL     1      -3.774   6.855  15.500  1.00  0.00     0.010 C 
BRANCH  24  26
HETATM   26  C5  UNL     1      -2.927   4.898  14.134  1.00  0.00     0.040 C 
BRANCH  26  27
HETATM   27  C4  UNL     1      -2.713   5.154  12.638  1.00  0.00     0.142 C 
BRANCH  27  28
HETATM   28  C3  UNL     1      -1.866   4.059  12.044  1.00  0.00     0.018 C 
HETATM   29  C2  UNL     1      -2.239   2.814  11.679  1.00  0.00     0.010 C 
HETATM   30  C1  UNL     1      -3.617   2.229  11.797  1.00  0.00     0.055 C 
BRANCH  29  31
HETATM   31  C30 UNL     1      -1.246   1.868  11.098  1.00  0.00     0.171 C 
HETATM   32  O3  UNL     1      -0.049   2.078  11.005  1.00  0.00    -0.646 OA
BRANCH  31  33
HETATM   33  O4  UNL     1      -1.776   0.711  10.671  1.00  0.00    -0.773 OA
HETATM   34  H46 UNL     1      -1.005   0.211  10.333  1.00  0.00     0.167 HD
ENDBRANCH  31  33
ENDBRANCH  29  31
ENDBRANCH  27  28
BRANCH  27  35
HETATM   35  O1  UNL     1      -2.002   6.369  12.441  1.00  0.00    -0.392 OA
HETATM   36  H6  UNL     1      -1.747   6.410  11.504  1.00  0.00     0.210 HD
ENDBRANCH  27  35
ENDBRANCH  26  27
ENDBRANCH  24  26
ENDBRANCH   1  24
TORSDOF 7
ENDMDL
MODEL 3
REMARK minimizedAffinity -7.4191761
REMARK CNNscore 0.351135015
REMARK CNNaffinity 6.57708359
REMARK  7 active torsions:
REMARK  status: ('A' for Active; 'I' for Inactive)
REMARK    1  A    between atoms: C2_2  and  C30_32 
REMARK    2  A    between atoms: C3_3  and  C4_4 
REMARK    3  A    between atoms: C4_4  and  O1_5 
REMARK    4  A    between atoms: C4_4  and  C5_6 
REMARK    5  A    between atoms: C5_6  and  C6_7 
REMARK    6  A    between atoms: C6_7  and  C8_9 
REMARK    7  A    between atoms: C30_32  and  O4_34 
ROOT
HETATM    1  C8  UNL     1      -9.970   8.394  15.148  1.00  0.00    -0.002 C 
HETATM    2  C9  UNL     1      -9.792   9.921  14.996  1.00  0.00     0.006 C 
HETATM    3  C10 UNL     1     -11.164  10.489  14.571  1.00  0.00     0.011 C 
HETATM    4  C11 UNL     1     -12.175   9.348  14.814  1.00  0.00    -0.032 C 
HETATM    5  C12 UNL     1     -12.580   9.413  16.320  1.00  0.00     0.016 C 
HETATM    6  C13 UNL     1     -13.449   9.400  13.927  1.00  0.00     0.004 C 
HETATM    7  C14 UNL     1     -14.455  10.490  14.328  1.00  0.00     0.007 C 
HETATM    8  C15 UNL     1     -15.612  10.528  13.333  1.00  0.00     0.007 C 
HETATM    9  C16 UNL     1     -16.478   9.268  13.465  1.00  0.00     0.010 C 
HETATM   10  C17 UNL     1     -17.647   9.166  12.429  1.00  0.00     0.018 C 
HETATM   11  C18 UNL     1     -18.811  10.082  12.850  1.00  0.00     0.023 C 
HETATM   12  C19 UNL     1     -17.237   9.538  10.995  1.00  0.00     0.023 C 
HETATM   13  C20 UNL     1     -18.192   7.728  12.421  1.00  0.00     0.135 C 
HETATM   14  O2  UNL     1     -18.870   7.288  11.492  1.00  0.00    -0.297 OA
HETATM   15  C21 UNL     1     -17.965   6.895  13.658  1.00  0.00     0.080 C 
HETATM   16  C22 UNL     1     -16.487   6.798  14.015  1.00  0.00     0.018 C 
HETATM   17  C23 UNL     1     -15.665   7.973  13.502  1.00  0.00    -0.026 A 
HETATM   18  C24 UNL     1     -14.664   7.680  12.413  1.00  0.00     0.021 A 
HETATM   19  C25 UNL     1     -14.140   8.015  13.804  1.00  0.00    -0.027 A 
HETATM   20  C26 UNL     1     -13.552   6.847  14.610  1.00  0.00     0.011 C 
HETATM   21  C27 UNL     1     -12.037   6.837  14.877  1.00  0.00     0.011 C 
HETATM   22  C28 UNL     1     -11.309   8.097  14.408  1.00  0.00    -0.032 C 
HETATM   23  C29 UNL     1     -11.079   7.974  12.879  1.00  0.00     0.016 C 
ENDROOT
BRANCH   1  24
HETATM   24  C6  UNL     1      -8.714   7.492  14.991  1.00  0.00    -0.011 C 
HETATM   25  C7  UNL     1      -8.694   6.445  16.125  1.00  0.00     0.010 C 
BRANCH  24  26
HETATM   26  C5  UNL     1      -7.294   8.075  14.784  1.00  0.00     0.040 C 
BRANCH  26  27
HETATM   27  C4  UNL     1      -6.116   7.138  14.496  1.00  0.00     0.142 C 
BRANCH  27  28
HETATM   28  C3  UNL     1      -6.615   5.854  13.888  1.00  0.00     0.018 C 
HETATM   29  C2  UNL     1      -5.916   4.921  13.207  1.00  0.00     0.010 C 
HETATM   30  C1  UNL     1      -4.449   4.965  12.891  1.00  0.00     0.055 C 
BRANCH  29  31
HETATM   31  C30 UNL     1      -6.594   3.701  12.684  1.00  0.00     0.171 C 
HETATM   32  O3  UNL     1      -7.537   3.142  13.215  1.00  0.00    -0.646 OA
BRANCH  31  33
HETATM   33  O4  UNL     1      -6.082   3.242  11.532  1.00  0.00    -0.773 OA
HETATM   34  H46 UNL     1      -6.635   2.460  11.327  1.00  0.00     0.167 HD
ENDBRANCH  31  33
ENDBRANCH  29  31
ENDBRANCH  27  28
BRANCH  27  35
HETATM   35  O1  UNL     1      -5.457   6.786  15.705  1.00  0.00    -0.392 OA
HETATM   36  H6  UNL     1      -4.830   6.073  15.500  1.00  0.00     0.210 HD
ENDBRANCH  27  35
ENDBRANCH  26  27
ENDBRANCH  24  26
ENDBRANCH   1  24
TORSDOF 7
ENDMDL
MODEL 4
REMARK minimizedAffinity -8.43431377
REMARK CNNscore 0.344953448
REMARK CNNaffinity 7.30293608
REMARK  7 active torsions:
REMARK  status: ('A' for Active; 'I' for Inactive)
REMARK    1  A    between atoms: C2_2  and  C30_32 
REMARK    2  A    between atoms: C3_3  and  C4_4 
REMARK    3  A    between atoms: C4_4  and  O1_5 
REMARK    4  A    between atoms: C4_4  and  C5_6 
REMARK    5  A    between atoms: C5_6  and  C6_7 
REMARK    6  A    between atoms: C6_7  and  C8_9 
REMARK    7  A    between atoms: C30_32  and  O4_34 
ROOT
HETATM    1  C8  UNL     1      -5.455   6.440  15.043  1.00  0.00    -0.002 C 
HETATM    2  C9  UNL     1      -5.053   7.892  15.385  1.00  0.00     0.006 C 
HETATM    3  C10 UNL     1      -6.346   8.735  15.338  1.00  0.00     0.011 C 
HETATM    4  C11 UNL     1      -7.503   7.713  15.306  1.00  0.00    -0.032 C 
HETATM    5  C12 UNL     1      -7.787   7.304  16.786  1.00  0.00     0.016 C 
HETATM    6  C13 UNL     1      -8.812   8.223  14.644  1.00  0.00     0.004 C 
HETATM    7  C14 UNL     1      -9.606   9.223  15.499  1.00  0.00     0.007 C 
HETATM    8  C15 UNL     1     -10.809   9.742  14.715  1.00  0.00     0.007 C 
HETATM    9  C16 UNL     1     -11.849   8.630  14.524  1.00  0.00     0.010 C 
HETATM   10  C17 UNL     1     -13.089   9.035  13.659  1.00  0.00     0.018 C 
HETATM   11  C18 UNL     1     -14.064   9.886  14.493  1.00  0.00     0.023 C 
HETATM   12  C19 UNL     1     -12.726   9.825  12.391  1.00  0.00     0.023 C 
HETATM   13  C20 UNL     1     -13.850   7.766  13.239  1.00  0.00     0.135 C 
HETATM   14  O2  UNL     1     -14.651   7.760  12.304  1.00  0.00    -0.297 OA
HETATM   15  C21 UNL     1     -13.670   6.537  14.095  1.00  0.00     0.080 C 
HETATM   16  C22 UNL     1     -12.203   6.143  14.223  1.00  0.00     0.018 C 
HETATM   17  C23 UNL     1     -11.246   7.313  14.035  1.00  0.00    -0.026 A 
HETATM   18  C24 UNL     1     -10.381   7.292  12.801  1.00  0.00     0.021 A 
HETATM   19  C25 UNL     1      -9.716   7.061  14.152  1.00  0.00    -0.027 A 
HETATM   20  C26 UNL     1      -9.263   5.624  14.451  1.00  0.00     0.011 C 
HETATM   21  C27 UNL     1      -7.752   5.337  14.518  1.00  0.00     0.011 C 
HETATM   22  C28 UNL     1      -6.872   6.583  14.410  1.00  0.00    -0.032 C 
HETATM   23  C29 UNL     1      -6.770   6.966  12.911  1.00  0.00     0.016 C 
ENDROOT
BRANCH   1  24
HETATM   24  C6  UNL     1      -4.369   5.501  14.450  1.00  0.00    -0.011 C 
HETATM   25  C7  UNL     1      -3.003   5.836  15.085  1.00  0.00     0.010 C 
BRANCH  24  26
HETATM   26  C5  UNL     1      -4.204   5.280  12.926  1.00  0.00     0.040 C 
BRANCH  26  27
HETATM   27  C4  UNL     1      -4.002   3.865  12.373  1.00  0.00     0.142 C 
BRANCH  27  28
HETATM   28  C3  UNL     1      -2.563   3.666  11.978  1.00  0.00     0.018 C 
HETATM   29  C2  UNL     1      -1.952   2.532  11.575  1.00  0.00     0.010 C 
HETATM   30  C1  UNL     1      -2.591   1.180  11.438  1.00  0.00     0.055 C 
BRANCH  29  31
HETATM   31  C30 UNL     1      -0.506   2.538  11.216  1.00  0.00     0.171 C 
HETATM   32  O3  UNL     1       0.218   3.518  11.242  1.00  0.00    -0.646 OA
BRANCH  31  33
HETATM   33  O4  UNL     1      -0.026   1.339  10.854  1.00  0.00    -0.773 OA
HETATM   34  H46 UNL     1       0.919   1.513  10.663  1.00  0.00     0.167 HD
ENDBRANCH  31  33
ENDBRANCH  29  31
ENDBRANCH  27  28
BRANCH  27  35
HETATM   35  O1  UNL     1      -4.776   3.679  11.195  1.00  0.00    -0.392 OA
HETATM   36  H6  UNL     1      -4.497   2.841  10.791  1.00  0.00     0.210 HD
ENDBRANCH  27  35
ENDBRANCH  26  27
ENDBRANCH  24  26
ENDBRANCH   1  24
TORSDOF 7
ENDMDL
MODEL 5
REMARK minimizedAffinity -7.23151159
REMARK CNNscore 0.338248253
REMARK CNNaffinity 5.90793848
REMARK  7 active torsions:
REMARK  status: ('A' for Active; 'I' for Inactive)
REMARK    1  A    between atoms: C2_2  and  C30_32 
REMARK    2  A    between atoms: C3_3  and  C4_4 
REMARK    3  A    between atoms: C4_4  and  O1_5 
REMARK    4  A    between atoms: C4_4  and  C5_6 
REMARK    5  A    between atoms: C5_6  and  C6_7 
REMARK    6  A    between atoms: C6_7  and  C8_9 
REMARK    7  A    between atoms: C30_32  and  O4_34 
ROOT
HETATM    1  C8  UNL     1       4.762  11.935  22.111  1.00  0.00    -0.002 C 
HETATM    2  C9  UNL     1       4.187  10.585  22.595  1.00  0.00     0.006 C 
HETATM    3  C10 UNL     1       2.818  10.409  21.900  1.00  0.00     0.011 C 
HETATM    4  C11 UNL     1       2.783  11.477  20.786  1.00  0.00    -0.032 C 
HETATM    5  C12 UNL     1       3.521  10.869  19.552  1.00  0.00     0.016 C 
HETATM    6  C13 UNL     1       1.361  11.943  20.367  1.00  0.00     0.004 C 
HETATM    7  C14 UNL     1       0.582  10.918  19.528  1.00  0.00     0.007 C 
HETATM    8  C15 UNL     1      -0.834  11.426  19.265  1.00  0.00     0.007 C 
HETATM    9  C16 UNL     1      -0.808  12.627  18.310  1.00  0.00     0.010 C 
HETATM   10  C17 UNL     1      -2.205  13.278  18.039  1.00  0.00     0.018 C 
HETATM   11  C18 UNL     1      -3.004  12.424  17.038  1.00  0.00     0.023 C 
HETATM   12  C19 UNL     1      -3.059  13.460  19.305  1.00  0.00     0.023 C 
HETATM   13  C20 UNL     1      -2.003  14.657  17.388  1.00  0.00     0.135 C 
HETATM   14  O2  UNL     1      -2.889  15.511  17.371  1.00  0.00    -0.297 OA
HETATM   15  C21 UNL     1      -0.705  14.893  16.657  1.00  0.00     0.080 C 
HETATM   16  C22 UNL     1       0.505  14.653  17.553  1.00  0.00     0.018 C 
HETATM   17  C23 UNL     1       0.225  13.686  18.696  1.00  0.00    -0.026 A 
HETATM   18  C24 UNL     1       0.232  14.260  20.090  1.00  0.00     0.021 A 
HETATM   19  C25 UNL     1       1.373  13.336  19.684  1.00  0.00    -0.027 A 
HETATM   20  C26 UNL     1       2.736  14.003  19.441  1.00  0.00     0.011 C 
HETATM   21  C27 UNL     1       3.874  13.717  20.436  1.00  0.00     0.011 C 
HETATM   22  C28 UNL     1       3.533  12.667  21.494  1.00  0.00    -0.032 C 
HETATM   23  C29 UNL     1       2.691  13.358  22.598  1.00  0.00     0.016 C 
ENDROOT
BRANCH   1  24
HETATM   24  C6  UNL     1       5.793  12.659  23.021  1.00  0.00    -0.011 C 
HETATM   25  C7  UNL     1       5.893  14.139  22.599  1.00  0.00     0.010 C 
BRANCH  24  26
HETATM   26  C5  UNL     1       7.207  12.088  23.291  1.00  0.00     0.040 C 
BRANCH  26  27
HETATM   27  C4  UNL     1       8.447  12.851  22.811  1.00  0.00     0.142 C 
BRANCH  27  28
HETATM   28  C3  UNL     1       9.093  12.116  21.667  1.00  0.00     0.018 C 
HETATM   29  C2  UNL     1       9.709  12.629  20.581  1.00  0.00     0.010 C 
HETATM   30  C1  UNL     1       9.881  14.087  20.263  1.00  0.00     0.055 C 
BRANCH  29  31
HETATM   31  C30 UNL     1      10.299  11.729  19.550  1.00  0.00     0.171 C 
HETATM   32  O3  UNL     1       9.963  11.689  18.379  1.00  0.00    -0.646 OA
BRANCH  31  33
HETATM   33  O4  UNL     1      11.275  10.933  20.013  1.00  0.00    -0.773 OA
HETATM   34  H46 UNL     1      11.554  10.423  19.224  1.00  0.00     0.167 HD
ENDBRANCH  31  33
ENDBRANCH  29  31
ENDBRANCH  27  28
BRANCH  27  35
HETATM   35  O1  UNL     1       9.416  12.921  23.848  1.00  0.00    -0.392 OA
HETATM   36  H6  UNL     1      10.238  13.262  23.458  1.00  0.00     0.210 HD
ENDBRANCH  27  35
ENDBRANCH  26  27
ENDBRANCH  24  26
ENDBRANCH   1  24
TORSDOF 7
ENDMDL
MODEL 6
REMARK minimizedAffinity -7.85877609
REMARK CNNscore 0.333900928
REMARK CNNaffinity 6.95181513
REMARK  7 active torsions:
REMARK  status: ('A' for Active; 'I' for Inactive)
REMARK    1  A    between atoms: C2_2  and  C30_32 
REMARK    2  A    between atoms: C3_3  and  C4_4 
REMARK    3  A    between atoms: C4_4  and  O1_5 
REMARK    4  A    between atoms: C4_4  and  C5_6 
REMARK    5  A    between atoms: C5_6  and  C6_7 
REMARK    6  A    between atoms: C6_7  and  C8_9 
REMARK    7  A    between atoms: C30_32  and  O4_34 
ROOT
HETATM    1  C8  UNL     1      -5.269   5.455  14.002  1.00  0.00    -0.002 C 
HETATM    2  C9  UNL     1      -4.648   6.223  15.190  1.00  0.00     0.006 C 
HETATM    3  C10 UNL     1      -5.791   7.027  15.848  1.00  0.00     0.011 C 
HETATM    4  C11 UNL     1      -7.093   6.453  15.250  1.00  0.00    -0.032 C 
HETATM    5  C12 UNL     1      -7.459   5.189  16.089  1.00  0.00     0.016 C 
HETATM    6  C13 UNL     1      -8.297   7.436  15.234  1.00  0.00     0.004 C 
HETATM    7  C14 UNL     1      -8.934   7.677  16.611  1.00  0.00     0.007 C 
HETATM    8  C15 UNL     1     -10.030   8.736  16.503  1.00  0.00     0.007 C 
HETATM    9  C16 UNL     1     -11.230   8.191  15.717  1.00  0.00     0.010 C 
HETATM   10  C17 UNL     1     -12.378   9.226  15.474  1.00  0.00     0.018 C 
HETATM   11  C18 UNL     1     -13.218   9.397  16.754  1.00  0.00     0.023 C 
HETATM   12  C19 UNL     1     -11.878  10.614  15.039  1.00  0.00     0.023 C 
HETATM   13  C20 UNL     1     -13.324   8.688  14.388  1.00  0.00     0.135 C 
HETATM   14  O2  UNL     1     -14.103   9.419  13.775  1.00  0.00    -0.297 OA
HETATM   15  C21 UNL     1     -13.352   7.195  14.172  1.00  0.00     0.080 C 
HETATM   16  C22 UNL     1     -11.968   6.640  13.858  1.00  0.00     0.018 C 
HETATM   17  C23 UNL     1     -10.835   7.495  14.413  1.00  0.00    -0.026 A 
HETATM   18  C24 UNL     1      -9.968   8.210  13.409  1.00  0.00     0.021 A 
HETATM   19  C25 UNL     1      -9.366   7.042  14.181  1.00  0.00    -0.027 A 
HETATM   20  C26 UNL     1      -9.149   5.743  13.390  1.00  0.00     0.011 C 
HETATM   21  C27 UNL     1      -7.704   5.301  13.099  1.00  0.00     0.011 C 
HETATM   22  C28 UNL     1      -6.637   6.165  13.772  1.00  0.00    -0.032 C 
HETATM   23  C29 UNL     1      -6.456   7.448  12.919  1.00  0.00     0.016 C 
ENDROOT
BRANCH   1  24
HETATM   24  C6  UNL     1      -4.337   5.043  12.830  1.00  0.00    -0.011 C 
HETATM   25  C7  UNL     1      -4.892   3.768  12.161  1.00  0.00     0.010 C 
BRANCH  24  26
HETATM   26  C5  UNL     1      -2.800   4.929  12.992  1.00  0.00     0.040 C 
BRANCH  26  27
HETATM   27  C4  UNL     1      -1.888   6.031  12.443  1.00  0.00     0.142 C 
BRANCH  27  28
HETATM   28  C3  UNL     1      -0.541   5.458  12.091  1.00  0.00     0.018 C 
HETATM   29  C2  UNL     1       0.376   5.940  11.225  1.00  0.00     0.010 C 
HETATM   30  C1  UNL     1       0.245   7.184  10.394  1.00  0.00     0.055 C 
BRANCH  29  31
HETATM   31  C30 UNL     1       1.667   5.225  11.016  1.00  0.00     0.171 C 
HETATM   32  O3  UNL     1       1.778   4.037  10.770  1.00  0.00    -0.646 OA
BRANCH  31  33
HETATM   33  O4  UNL     1       2.750   6.012  11.111  1.00  0.00    -0.773 OA
HETATM   34  H46 UNL     1       3.497   5.401  10.942  1.00  0.00     0.167 HD
ENDBRANCH  31  33
ENDBRANCH  29  31
ENDBRANCH  27  28
BRANCH  27  35
HETATM   35  O1  UNL     1      -1.660   7.023  13.436  1.00  0.00    -0.392 OA
HETATM   36  H6  UNL     1      -0.956   7.608  13.109  1.00  0.00     0.210 HD
ENDBRANCH  27  35
ENDBRANCH  26  27
ENDBRANCH  24  26
ENDBRANCH   1  24
TORSDOF 7
ENDMDL
MODEL 7
REMARK minimizedAffinity -6.77357674
REMARK CNNscore 0.323955119
REMARK CNNaffinity 5.94367743
REMARK  7 active torsions:
REMARK  status: ('A' for Active; 'I' for Inactive)
REMARK    1  A    between atoms: C2_2  and  C30_32 
REMARK    2  A    between atoms: C3_3  and  C4_4 
REMARK    3  A    between atoms: C4_4  and  O1_5 
REMARK    4  A    between atoms: C4_4  and  C5_6 
REMARK    5  A    between atoms: C5_6  and  C6_7 
REMARK    6  A    between atoms: C6_7  and  C8_9 
REMARK    7  A    between atoms: C30_32  and  O4_34 
ROOT
HETATM    1  C8  UNL     1     -12.886  14.487   2.335  1.00  0.00    -0.002 C 
HETATM    2  C9  UNL     1     -11.617  13.916   1.663  1.00  0.00     0.006 C 
HETATM    3  C10 UNL     1     -10.412  14.426   2.483  1.00  0.00     0.011 C 
HETATM    4  C11 UNL     1     -11.012  14.989   3.789  1.00  0.00    -0.032 C 
HETATM    5  C12 UNL     1     -11.200  13.782   4.760  1.00  0.00     0.016 C 
HETATM    6  C13 UNL     1     -10.160  16.089   4.481  1.00  0.00     0.004 C 
HETATM    7  C14 UNL     1      -8.901  15.563   5.187  1.00  0.00     0.007 C 
HETATM    8  C15 UNL     1      -8.083  16.729   5.737  1.00  0.00     0.007 C 
HETATM    9  C16 UNL     1      -8.816  17.398   6.907  1.00  0.00     0.010 C 
HETATM   10  C17 UNL     1      -8.101  18.661   7.492  1.00  0.00     0.018 C 
HETATM   11  C18 UNL     1      -6.926  18.237   8.393  1.00  0.00     0.023 C 
HETATM   12  C19 UNL     1      -7.562  19.619   6.418  1.00  0.00     0.023 C 
HETATM   13  C20 UNL     1      -9.088  19.435   8.382  1.00  0.00     0.135 C 
HETATM   14  O2  UNL     1      -8.907  20.613   8.694  1.00  0.00    -0.297 OA
HETATM   15  C21 UNL     1     -10.245  18.663   8.966  1.00  0.00     0.080 C 
HETATM   16  C22 UNL     1     -11.076  17.980   7.885  1.00  0.00     0.018 C 
HETATM   17  C23 UNL     1     -10.289  17.688   6.615  1.00  0.00    -0.026 A 
HETATM   18  C24 UNL     1     -10.674  18.466   5.382  1.00  0.00     0.021 A 
HETATM   19  C25 UNL     1     -11.006  16.980   5.431  1.00  0.00    -0.027 A 
HETATM   20  C26 UNL     1     -12.487  16.619   5.622  1.00  0.00     0.011 C 
HETATM   21  C27 UNL     1     -13.235  15.967   4.445  1.00  0.00     0.011 C 
HETATM   22  C28 UNL     1     -12.346  15.627   3.249  1.00  0.00    -0.032 C 
HETATM   23  C29 UNL     1     -12.124  16.928   2.435  1.00  0.00     0.016 C 
ENDROOT
BRANCH   1  24
HETATM   24  C6  UNL     1     -14.163  14.651   1.465  1.00  0.00    -0.011 C 
HETATM   25  C7  UNL     1     -15.394  14.781   2.386  1.00  0.00     0.010 C 
BRANCH  24  26
HETATM   26  C5  UNL     1     -14.487  13.708   0.279  1.00  0.00     0.040 C 
BRANCH  26  27
HETATM   27  C4  UNL     1     -14.543  12.192   0.498  1.00  0.00     0.142 C 
BRANCH  27  28
HETATM   28  C3  UNL     1     -14.356  11.475  -0.813  1.00  0.00     0.018 C 
HETATM   29  C2  UNL     1     -13.908  10.219  -1.025  1.00  0.00     0.010 C 
HETATM   30  C1  UNL     1     -13.479   9.239   0.028  1.00  0.00     0.055 C 
BRANCH  29  31
HETATM   31  C30 UNL     1     -13.797   9.681  -2.410  1.00  0.00     0.171 C 
HETATM   32  O3  UNL     1     -14.312  10.176  -3.398  1.00  0.00    -0.646 OA
BRANCH  31  33
HETATM   33  O4  UNL     1     -13.053   8.569  -2.508  1.00  0.00    -0.773 OA
HETATM   34  H46 UNL     1     -13.075   8.356  -3.464  1.00  0.00     0.167 HD
ENDBRANCH  31  33
ENDBRANCH  29  31
ENDBRANCH  27  28
BRANCH  27  35
HETATM   35  O1  UNL     1     -15.821  11.811   0.990  1.00  0.00    -0.392 OA
HETATM   36  H6  UNL     1     -15.869  10.841   0.959  1.00  0.00     0.210 HD
ENDBRANCH  27  35
ENDBRANCH  26  27
ENDBRANCH  24  26
ENDBRANCH   1  24
TORSDOF 7
ENDMDL
MODEL 8
REMARK minimizedAffinity -7.28896332
REMARK CNNscore 0.311903685
REMARK CNNaffinity 5.26814604
REMARK  7 active torsions:
REMARK  status: ('A' for Active; 'I' for Inactive)
REMARK    1  A    between atoms: C2_2  and  C30_32 
REMARK    2  A    between atoms: C3_3  and  C4_4 
REMARK    3  A    between atoms: C4_4  and  O1_5 
REMARK    4  A    between atoms: C4_4  and  C5_6 
REMARK    5  A    between atoms: C5_6  and  C6_7 
REMARK    6  A    between atoms: C6_7  and  C8_9 
REMARK    7  A    between atoms: C30_32  and  O4_34 
ROOT
HETATM    1  C8  UNL     1      -4.658 -10.386   6.248  1.00  0.00    -0.002 C 
HETATM    2  C9  UNL     1      -3.470 -11.265   6.697  1.00  0.00     0.006 C 
HETATM    3  C10 UNL     1      -2.878 -11.901   5.420  1.00  0.00     0.011 C 
HETATM    4  C11 UNL     1      -3.508 -11.124   4.244  1.00  0.00    -0.032 C 
HETATM    5  C12 UNL     1      -2.648  -9.837   4.039  1.00  0.00     0.016 C 
HETATM    6  C13 UNL     1      -3.597 -11.913   2.909  1.00  0.00     0.004 C 
HETATM    7  C14 UNL     1      -2.252 -12.085   2.186  1.00  0.00     0.007 C 
HETATM    8  C15 UNL     1      -2.431 -12.963   0.949  1.00  0.00     0.007 C 
HETATM    9  C16 UNL     1      -3.247 -12.226  -0.122  1.00  0.00     0.010 C 
HETATM   10  C17 UNL     1      -3.561 -13.070  -1.401  1.00  0.00     0.018 C 
HETATM   11  C18 UNL     1      -2.319 -13.140  -2.310  1.00  0.00     0.023 C 
HETATM   12  C19 UNL     1      -4.016 -14.507  -1.098  1.00  0.00     0.023 C 
HETATM   13  C20 UNL     1      -4.666 -12.372  -2.210  1.00  0.00     0.135 C 
HETATM   14  O2  UNL     1      -5.329 -12.962  -3.064  1.00  0.00    -0.297 OA
HETATM   15  C21 UNL     1      -4.841 -10.887  -2.004  1.00  0.00     0.080 C 
HETATM   16  C22 UNL     1      -5.088 -10.541  -0.541  1.00  0.00     0.018 C 
HETATM   17  C23 UNL     1      -4.515 -11.569   0.426  1.00  0.00    -0.026 A 
HETATM   18  C24 UNL     1      -5.505 -12.385   1.218  1.00  0.00     0.021 A 
HETATM   19  C25 UNL     1      -4.679 -11.339   1.955  1.00  0.00    -0.027 A 
HETATM   20  C26 UNL     1      -5.424 -10.070   2.397  1.00  0.00     0.011 C 
HETATM   21  C27 UNL     1      -5.647  -9.845   3.903  1.00  0.00     0.011 C 
HETATM   22  C28 UNL     1      -4.960 -10.876   4.800  1.00  0.00    -0.032 C 
HETATM   23  C29 UNL     1      -5.841 -12.152   4.821  1.00  0.00     0.016 C 
ENDROOT
BRANCH   1  24
HETATM   24  C6  UNL     1      -5.783 -10.093   7.280  1.00  0.00    -0.011 C 
HETATM   25  C7  UNL     1      -6.982  -9.446   6.556  1.00  0.00     0.010 C 
BRANCH  24  26
HETATM   26  C5  UNL     1      -5.512  -9.358   8.616  1.00  0.00     0.040 C 
BRANCH  26  27
HETATM   27  C4  UNL     1      -4.888 -10.115   9.794  1.00  0.00     0.142 C 
BRANCH  27  28
HETATM   28  C3  UNL     1      -5.489  -9.639  11.090  1.00  0.00     0.018 C 
HETATM   29  C2  UNL     1      -6.642 -10.030  11.673  1.00  0.00     0.010 C 
HETATM   30  C1  UNL     1      -7.607 -11.048  11.138  1.00  0.00     0.055 C 
BRANCH  29  31
HETATM   31  C30 UNL     1      -7.069  -9.440  12.973  1.00  0.00     0.171 C 
HETATM   32  O3  UNL     1      -8.035  -9.801  13.623  1.00  0.00    -0.646 OA
BRANCH  31  33
HETATM   33  O4  UNL     1      -6.280  -8.446  13.408  1.00  0.00    -0.773 OA
HETATM   34  H46 UNL     1      -6.687  -8.181  14.260  1.00  0.00     0.167 HD
ENDBRANCH  31  33
ENDBRANCH  29  31
ENDBRANCH  27  28
BRANCH  27  35
HETATM   35  O1  UNL     1      -3.494  -9.845   9.871  1.00  0.00    -0.392 OA
HETATM   36  H6  UNL     1      -3.172 -10.206  10.713  1.00  0.00     0.210 HD
ENDBRANCH  27  35
ENDBRANCH  26  27
ENDBRANCH  24  26
ENDBRANCH   1  24
TORSDOF 7
ENDMDL
MODEL 9
REMARK minimizedAffinity -8.19094944
REMARK CNNscore 0.284505516
REMARK CNNaffinity 7.08195734
REMARK  7 active torsions:
REMARK  status: ('A' for Active; 'I' for Inactive)
REMARK    1  A    between atoms: C2_2  and  C30_32 
REMARK    2  A    between atoms: C3_3  and  C4_4 
REMARK    3  A    between atoms: C4_4  and  O1_5 
REMARK    4  A    between atoms: C4_4  and  C5_6 
REMARK    5  A    between atoms: C5_6  and  C6_7 
REMARK    6  A    between atoms: C6_7  and  C8_9 
REMARK    7  A    between atoms: C30_32  and  O4_34 
ROOT
HETATM    1  C8  UNL     1      -5.387   6.618  15.054  1.00  0.00    -0.002 C 
HETATM    2  C9  UNL     1      -5.045   8.075  15.437  1.00  0.00     0.006 C 
HETATM    3  C10 UNL     1      -6.372   8.866  15.408  1.00  0.00     0.011 C 
HETATM    4  C11 UNL     1      -7.485   7.798  15.344  1.00  0.00    -0.032 C 
HETATM    5  C12 UNL     1      -7.757   7.338  16.810  1.00  0.00     0.016 C 
HETATM    6  C13 UNL     1      -8.812   8.273  14.690  1.00  0.00     0.004 C 
HETATM    7  C14 UNL     1      -9.649   9.215  15.569  1.00  0.00     0.007 C 
HETATM    8  C15 UNL     1     -10.870   9.707  14.796  1.00  0.00     0.007 C 
HETATM    9  C16 UNL     1     -11.864   8.559  14.570  1.00  0.00     0.010 C 
HETATM   10  C17 UNL     1     -13.116   8.937  13.712  1.00  0.00     0.018 C 
HETATM   11  C18 UNL     1     -14.128   9.724  14.565  1.00  0.00     0.023 C 
HETATM   12  C19 UNL     1     -12.783   9.776  12.467  1.00  0.00     0.023 C 
HETATM   13  C20 UNL     1     -13.824   7.650  13.255  1.00  0.00     0.135 C 
HETATM   14  O2  UNL     1     -14.621   7.637  12.316  1.00  0.00    -0.297 OA
HETATM   15  C21 UNL     1     -13.596   6.406  14.077  1.00  0.00     0.080 C 
HETATM   16  C22 UNL     1     -12.114   6.069  14.200  1.00  0.00     0.018 C 
HETATM   17  C23 UNL     1     -11.206   7.281  14.047  1.00  0.00    -0.026 A 
HETATM   18  C24 UNL     1     -10.337   7.330  12.816  1.00  0.00     0.021 A 
HETATM   19  C25 UNL     1      -9.667   7.089  14.163  1.00  0.00    -0.027 A 
HETATM   20  C26 UNL     1      -9.156   5.664  14.424  1.00  0.00     0.011 C 
HETATM   21  C27 UNL     1      -7.635   5.437  14.490  1.00  0.00     0.011 C 
HETATM   22  C28 UNL     1      -6.806   6.720  14.419  1.00  0.00    -0.032 C 
HETATM   23  C29 UNL     1      -6.716   7.149  12.932  1.00  0.00     0.016 C 
ENDROOT
BRANCH   1  24
HETATM   24  C6  UNL     1      -4.261   5.740  14.439  1.00  0.00    -0.011 C 
HETATM   25  C7  UNL     1      -3.023   5.782  15.359  1.00  0.00     0.010 C 
BRANCH  24  26
HETATM   26  C5  UNL     1      -3.825   5.866  12.959  1.00  0.00     0.040 C 
BRANCH  26  27
HETATM   27  C4  UNL     1      -3.740   4.617  12.075  1.00  0.00     0.142 C 
BRANCH  27  28
HETATM   28  C3  UNL     1      -5.035   3.852  12.139  1.00  0.00     0.018 C 
HETATM   29  C2  UNL     1      -5.253   2.547  11.873  1.00  0.00     0.010 C 
HETATM   30  C1  UNL     1      -4.222   1.546  11.434  1.00  0.00     0.055 C 
BRANCH  29  31
HETATM   31  C30 UNL     1      -6.619   1.966  12.000  1.00  0.00     0.171 C 
HETATM   32  O3  UNL     1      -7.521   2.438  12.671  1.00  0.00    -0.646 OA
BRANCH  31  33
HETATM   33  O4  UNL     1      -6.806   0.844  11.289  1.00  0.00    -0.773 OA
HETATM   34  H46 UNL     1      -7.738   0.604  11.474  1.00  0.00     0.167 HD
ENDBRANCH  31  33
ENDBRANCH  29  31
ENDBRANCH  27  28
BRANCH  27  35
HETATM   35  O1  UNL     1      -2.728   3.741  12.554  1.00  0.00    -0.392 OA
HETATM   36  H6  UNL     1      -2.817   2.901  12.074  1.00  0.00     0.210 HD
ENDBRANCH  27  35
ENDBRANCH  26  27
ENDBRANCH  24  26
ENDBRANCH   1  24
TORSDOF 7
ENDMDL
