MODEL 1
REMARK minimizedAffinity -7.64887762
REMARK CNNscore 0.608191073
REMARK CNNaffinity 6.94187593
REMARK  6 active torsions:
REMARK  status: ('A' for Active; 'I' for Inactive)
REMARK    1  A    between atoms: C2_2  and  C30_32 
REMARK    2  A    between atoms: C3_3  and  C4_4 
REMARK    3  A    between atoms: C4_4  and  C5_6 
REMARK    4  A    between atoms: C5_6  and  C6_7 
REMARK    5  A    between atoms: C6_7  and  C8_9 
REMARK    6  A    between atoms: C30_32  and  O4_34 
ROOT
HETATM    1  C8  UNL     1      -9.301   7.098  14.072  1.00  0.00    -0.001 C 
HETATM    2  C9  UNL     1      -8.988   7.107  15.597  1.00  0.00     0.007 C 
HETATM    3  C10 UNL     1     -10.042   8.000  16.278  1.00  0.00     0.015 C 
HETATM    4  C11 UNL     1     -10.748   8.734  15.119  1.00  0.00    -0.013 C 
HETATM    5  C12 UNL     1      -9.851   9.967  14.780  1.00  0.00     0.021 C 
HETATM    6  C13 UNL     1     -12.150   9.280  15.363  1.00  0.00    -0.070 C 
HETATM    7  C14 UNL     1     -12.581   9.661  16.575  1.00  0.00    -0.022 C 
HETATM    8  C15 UNL     1     -13.928  10.243  16.862  1.00  0.00     0.034 C 
HETATM    9  C16 UNL     1     -14.840  10.577  15.652  1.00  0.00     0.013 C 
HETATM   10  C17 UNL     1     -16.212   9.811  15.653  1.00  0.00     0.018 C 
HETATM   11  C18 UNL     1     -16.995  10.118  16.953  1.00  0.00     0.023 C 
HETATM   12  C19 UNL     1     -16.075   8.289  15.509  1.00  0.00     0.023 C 
HETATM   13  C20 UNL     1     -17.086  10.319  14.492  1.00  0.00     0.135 C 
HETATM   14  O2  UNL     1     -18.292  10.073  14.426  1.00  0.00    -0.297 OA
HETATM   15  C21 UNL     1     -16.426  11.159  13.427  1.00  0.00     0.080 C 
HETATM   16  C22 UNL     1     -15.079  10.550  13.083  1.00  0.00     0.017 C 
HETATM   17  C23 UNL     1     -14.073  10.598  14.269  1.00  0.00    -0.031 C 
HETATM   18  C24 UNL     1     -13.308  11.952  14.186  1.00  0.00     0.016 C 
HETATM   19  C25 UNL     1     -13.068   9.392  14.152  1.00  0.00     0.024 C 
HETATM   20  C26 UNL     1     -12.306   9.324  12.802  1.00  0.00     0.010 C 
HETATM   21  C27 UNL     1     -11.238   8.212  12.682  1.00  0.00     0.011 C 
HETATM   22  C28 UNL     1     -10.780   7.608  14.025  1.00  0.00    -0.029 C 
HETATM   23  C29 UNL     1     -11.726   6.418  14.385  1.00  0.00     0.016 C 
ENDROOT
BRANCH   1  24
HETATM   24  C6  UNL     1      -8.931   5.749  13.396  1.00  0.00    -0.007 C 
HETATM   25  C7  UNL     1      -8.813   5.856  11.872  1.00  0.00     0.011 C 
BRANCH  24  26
HETATM   26  C5  UNL     1      -7.653   5.113  13.993  1.00  0.00     0.087 C 
BRANCH  26  27
HETATM   27  C4  UNL     1      -7.230   3.799  13.355  1.00  0.00     0.150 C 
HETATM   28  O1  UNL     1      -7.946   2.802  13.360  1.00  0.00    -0.293 OA
BRANCH  27  29
HETATM   29  C3  UNL     1      -5.866   3.762  12.757  1.00  0.00     0.063 C 
HETATM   30  C2  UNL     1      -5.451   2.846  11.862  1.00  0.00     0.015 C 
HETATM   31  C1  UNL     1      -6.270   1.747  11.255  1.00  0.00     0.055 C 
BRANCH  30  32
HETATM   32  C30 UNL     1      -4.042   2.990  11.432  1.00  0.00     0.171 C 
HETATM   33  O3  UNL     1      -3.057   2.871  12.140  1.00  0.00    -0.646 OA
BRANCH  32  34
HETATM   34  O4  UNL     1      -3.927   3.270  10.125  1.00  0.00    -0.773 OA
HETATM   35  H44 UNL     1      -2.960   3.324   9.976  1.00  0.00     0.167 HD
ENDBRANCH  32  34
ENDBRANCH  30  32
ENDBRANCH  27  29
ENDBRANCH  26  27
ENDBRANCH  24  26
ENDBRANCH   1  24
TORSDOF 6
ENDMDL
MODEL 2
REMARK minimizedAffinity -9.7220602
REMARK CNNscore 0.501508892
REMARK CNNaffinity 6.82717943
REMARK  6 active torsions:
REMARK  status: ('A' for Active; 'I' for Inactive)
REMARK    1  A    between atoms: C2_2  and  C30_32 
REMARK    2  A    between atoms: C3_3  and  C4_4 
REMARK    3  A    between atoms: C4_4  and  C5_6 
REMARK    4  A    between atoms: C5_6  and  C6_7 
REMARK    5  A    between atoms: C6_7  and  C8_9 
REMARK    6  A    between atoms: C30_32  and  O4_34 
ROOT
HETATM    1  C8  UNL     1      -5.713   6.513  14.631  1.00  0.00    -0.001 C 
HETATM    2  C9  UNL     1      -6.309   7.511  13.595  1.00  0.00     0.007 C 
HETATM    3  C10 UNL     1      -5.129   8.256  12.943  1.00  0.00     0.015 C 
HETATM    4  C11 UNL     1      -3.908   7.908  13.819  1.00  0.00    -0.013 C 
HETATM    5  C12 UNL     1      -3.939   8.908  15.019  1.00  0.00     0.021 C 
HETATM    6  C13 UNL     1      -2.521   8.030  13.199  1.00  0.00    -0.070 C 
HETATM    7  C14 UNL     1      -2.239   8.895  12.212  1.00  0.00    -0.022 C 
HETATM    8  C15 UNL     1      -0.889   9.085  11.598  1.00  0.00     0.034 C 
HETATM    9  C16 UNL     1       0.308   8.344  12.250  1.00  0.00     0.013 C 
HETATM   10  C17 UNL     1       1.049   7.350  11.285  1.00  0.00     0.018 C 
HETATM   11  C18 UNL     1       1.564   8.103  10.034  1.00  0.00     0.023 C 
HETATM   12  C19 UNL     1       0.184   6.168  10.826  1.00  0.00     0.023 C 
HETATM   13  C20 UNL     1       2.293   6.779  11.988  1.00  0.00     0.135 C 
HETATM   14  O2  UNL     1       3.179   6.186  11.370  1.00  0.00    -0.297 OA
HETATM   15  C21 UNL     1       2.418   6.985  13.478  1.00  0.00     0.080 C 
HETATM   16  C22 UNL     1       1.067   6.741  14.124  1.00  0.00     0.017 C 
HETATM   17  C23 UNL     1      -0.006   7.783  13.695  1.00  0.00    -0.031 C 
HETATM   18  C24 UNL     1       0.077   8.983  14.684  1.00  0.00     0.016 C 
HETATM   19  C25 UNL     1      -1.433   7.120  13.755  1.00  0.00     0.024 C 
HETATM   20  C26 UNL     1      -1.796   6.510  15.135  1.00  0.00     0.010 C 
HETATM   21  C27 UNL     1      -3.226   5.935  15.266  1.00  0.00     0.011 C 
HETATM   22  C28 UNL     1      -4.217   6.413  14.185  1.00  0.00    -0.029 C 
HETATM   23  C29 UNL     1      -4.127   5.443  12.963  1.00  0.00     0.016 C 
ENDROOT
BRANCH   1  24
HETATM   24  C6  UNL     1      -6.563   5.219  14.767  1.00  0.00    -0.007 C 
HETATM   25  C7  UNL     1      -7.446   5.213  16.018  1.00  0.00     0.011 C 
BRANCH  24  26
HETATM   26  C5  UNL     1      -7.412   4.928  13.506  1.00  0.00     0.087 C 
BRANCH  26  27
HETATM   27  C4  UNL     1      -7.220   3.542  12.908  1.00  0.00     0.150 C 
HETATM   28  O1  UNL     1      -8.122   2.713  12.860  1.00  0.00    -0.293 OA
BRANCH  27  29
HETATM   29  C3  UNL     1      -5.849   3.217  12.420  1.00  0.00     0.063 C 
HETATM   30  C2  UNL     1      -5.536   2.120  11.705  1.00  0.00     0.015 C 
HETATM   31  C1  UNL     1      -6.483   1.066  11.216  1.00  0.00     0.055 C 
BRANCH  30  32
HETATM   32  C30 UNL     1      -4.103   1.992  11.359  1.00  0.00     0.171 C 
HETATM   33  O3  UNL     1      -3.348   1.110  11.730  1.00  0.00    -0.646 OA
BRANCH  32  34
HETATM   34  O4  UNL     1      -3.678   2.974  10.549  1.00  0.00    -0.773 OA
HETATM   35  H44 UNL     1      -2.734   2.762  10.392  1.00  0.00     0.167 HD
ENDBRANCH  32  34
ENDBRANCH  30  32
ENDBRANCH  27  29
ENDBRANCH  26  27
ENDBRANCH  24  26
ENDBRANCH   1  24
TORSDOF 6
ENDMDL
MODEL 3
REMARK minimizedAffinity -6.68540668
REMARK CNNscore 0.333083153
REMARK CNNaffinity 6.06522751
REMARK  6 active torsions:
REMARK  status: ('A' for Active; 'I' for Inactive)
REMARK    1  A    between atoms: C2_2  and  C30_32 
REMARK    2  A    between atoms: C3_3  and  C4_4 
REMARK    3  A    between atoms: C4_4  and  C5_6 
REMARK    4  A    between atoms: C5_6  and  C6_7 
REMARK    5  A    between atoms: C6_7  and  C8_9 
REMARK    6  A    between atoms: C30_32  and  O4_34 
ROOT
HETATM    1  C8  UNL     1      -5.201 -11.222   3.425  1.00  0.00    -0.001 C 
HETATM    2  C9  UNL     1      -3.834 -10.950   2.731  1.00  0.00     0.007 C 
HETATM    3  C10 UNL     1      -4.121 -10.661   1.246  1.00  0.00     0.015 C 
HETATM    4  C11 UNL     1      -5.594 -11.071   1.040  1.00  0.00    -0.013 C 
HETATM    5  C12 UNL     1      -5.582 -12.613   0.788  1.00  0.00     0.021 C 
HETATM    6  C13 UNL     1      -6.355 -10.454  -0.128  1.00  0.00    -0.070 C 
HETATM    7  C14 UNL     1      -5.752 -10.052  -1.257  1.00  0.00    -0.022 C 
HETATM    8  C15 UNL     1      -6.454  -9.481  -2.447  1.00  0.00     0.034 C 
HETATM    9  C16 UNL     1      -8.005  -9.497  -2.444  1.00  0.00     0.013 C 
HETATM   10  C17 UNL     1      -8.661  -8.073  -2.553  1.00  0.00     0.018 C 
HETATM   11  C18 UNL     1      -8.184  -7.363  -3.843  1.00  0.00     0.023 C 
HETATM   12  C19 UNL     1      -8.372  -7.161  -1.353  1.00  0.00     0.023 C 
HETATM   13  C20 UNL     1     -10.188  -8.218  -2.679  1.00  0.00     0.135 C 
HETATM   14  O2  UNL     1     -10.906  -7.282  -3.035  1.00  0.00    -0.297 OA
HETATM   15  C21 UNL     1     -10.798  -9.564  -2.372  1.00  0.00     0.080 C 
HETATM   16  C22 UNL     1     -10.134 -10.133  -1.131  1.00  0.00     0.017 C 
HETATM   17  C23 UNL     1      -8.625 -10.449  -1.344  1.00  0.00    -0.031 C 
HETATM   18  C24 UNL     1      -8.518 -11.907  -1.881  1.00  0.00     0.016 C 
HETATM   19  C25 UNL     1      -7.864 -10.313   0.028  1.00  0.00     0.024 C 
HETATM   20  C26 UNL     1      -8.443 -11.191   1.169  1.00  0.00     0.010 C 
HETATM   21  C27 UNL     1      -7.666 -11.161   2.507  1.00  0.00     0.011 C 
HETATM   22  C28 UNL     1      -6.225 -10.621   2.406  1.00  0.00    -0.029 C 
HETATM   23  C29 UNL     1      -6.260  -9.070   2.593  1.00  0.00     0.016 C 
ENDROOT
BRANCH   1  24
HETATM   24  C6  UNL     1      -5.222 -10.748   4.905  1.00  0.00    -0.007 C 
HETATM   25  C7  UNL     1      -3.933 -10.032   5.322  1.00  0.00     0.011 C 
BRANCH  24  26
HETATM   26  C5  UNL     1      -6.455  -9.873   5.234  1.00  0.00     0.087 C 
BRANCH  26  27
HETATM   27  C4  UNL     1      -7.280 -10.345   6.421  1.00  0.00     0.150 C 
HETATM   28  O1  UNL     1      -7.734 -11.482   6.499  1.00  0.00    -0.293 OA
BRANCH  27  29
HETATM   29  C3  UNL     1      -7.557  -9.332   7.479  1.00  0.00     0.063 C 
HETATM   30  C2  UNL     1      -6.783  -9.129   8.561  1.00  0.00     0.015 C 
HETATM   31  C1  UNL     1      -5.489  -9.816   8.881  1.00  0.00     0.055 C 
BRANCH  30  32
HETATM   32  C30 UNL     1      -7.275  -8.090   9.492  1.00  0.00     0.171 C 
HETATM   33  O3  UNL     1      -6.687  -7.662  10.470  1.00  0.00    -0.646 OA
BRANCH  32  34
HETATM   34  O4  UNL     1      -8.485  -7.622   9.151  1.00  0.00    -0.773 OA
HETATM   35  H44 UNL     1      -8.681  -6.944   9.831  1.00  0.00     0.167 HD
ENDBRANCH  32  34
ENDBRANCH  30  32
ENDBRANCH  27  29
ENDBRANCH  26  27
ENDBRANCH  24  26
ENDBRANCH   1  24
TORSDOF 6
ENDMDL
MODEL 4
REMARK minimizedAffinity -8.29165363
REMARK CNNscore 0.315085262
REMARK CNNaffinity 6.03943968
REMARK  6 active torsions:
REMARK  status: ('A' for Active; 'I' for Inactive)
REMARK    1  A    between atoms: C2_2  and  C30_32 
REMARK    2  A    between atoms: C3_3  and  C4_4 
REMARK    3  A    between atoms: C4_4  and  C5_6 
REMARK    4  A    between atoms: C5_6  and  C6_7 
REMARK    5  A    between atoms: C6_7  and  C8_9 
REMARK    6  A    between atoms: C30_32  and  O4_34 
ROOT
HETATM    1  C8  UNL     1       1.739  10.874  16.871  1.00  0.00    -0.001 C 
HETATM    2  C9  UNL     1       0.488  10.770  17.792  1.00  0.00     0.007 C 
HETATM    3  C10 UNL     1      -0.588   9.984  17.019  1.00  0.00     0.015 C 
HETATM    4  C11 UNL     1      -0.066   9.918  15.569  1.00  0.00    -0.013 C 
HETATM    5  C12 UNL     1      -0.492  11.261  14.895  1.00  0.00     0.021 C 
HETATM    6  C13 UNL     1      -0.586   8.805  14.668  1.00  0.00    -0.070 C 
HETATM    7  C14 UNL     1      -1.799   8.252  14.823  1.00  0.00    -0.022 C 
HETATM    8  C15 UNL     1      -2.375   7.189  13.943  1.00  0.00     0.034 C 
HETATM    9  C16 UNL     1      -1.582   6.804  12.666  1.00  0.00     0.013 C 
HETATM   10  C17 UNL     1      -1.149   5.294  12.612  1.00  0.00     0.018 C 
HETATM   11  C18 UNL     1      -2.394   4.378  12.707  1.00  0.00     0.023 C 
HETATM   12  C19 UNL     1      -0.156   4.892  13.709  1.00  0.00     0.023 C 
HETATM   13  C20 UNL     1      -0.497   4.995  11.250  1.00  0.00     0.135 C 
HETATM   14  O2  UNL     1      -0.307   3.843  10.856  1.00  0.00    -0.297 OA
HETATM   15  C21 UNL     1      -0.105   6.166  10.382  1.00  0.00     0.080 C 
HETATM   16  C22 UNL     1       0.534   7.232  11.253  1.00  0.00     0.017 C 
HETATM   17  C23 UNL     1      -0.459   7.849  12.280  1.00  0.00    -0.031 C 
HETATM   18  C24 UNL     1      -1.166   9.053  11.591  1.00  0.00     0.016 C 
HETATM   19  C25 UNL     1       0.335   8.332  13.551  1.00  0.00     0.024 C 
HETATM   20  C26 UNL     1       1.483   9.331  13.244  1.00  0.00     0.010 C 
HETATM   21  C27 UNL     1       2.226   9.906  14.473  1.00  0.00     0.011 C 
HETATM   22  C28 UNL     1       1.477   9.752  15.812  1.00  0.00    -0.029 C 
HETATM   23  C29 UNL     1       1.862   8.376  16.443  1.00  0.00     0.016 C 
ENDROOT
BRANCH   1  24
HETATM   24  C6  UNL     1       3.070  10.878  17.673  1.00  0.00    -0.007 C 
HETATM   25  C7  UNL     1       4.195  11.636  16.961  1.00  0.00     0.011 C 
BRANCH  24  26
HETATM   26  C5  UNL     1       2.894  11.405  19.117  1.00  0.00     0.087 C 
BRANCH  26  27
HETATM   27  C4  UNL     1       3.715  10.678  20.171  1.00  0.00     0.150 C 
HETATM   28  O1  UNL     1       4.936  10.777  20.241  1.00  0.00    -0.293 OA
BRANCH  27  29
HETATM   29  C3  UNL     1       2.962   9.787  21.098  1.00  0.00     0.063 C 
HETATM   30  C2  UNL     1       3.278   9.592  22.392  1.00  0.00     0.015 C 
HETATM   31  C1  UNL     1       4.379  10.260  23.159  1.00  0.00     0.055 C 
BRANCH  30  32
HETATM   32  C30 UNL     1       2.403   8.637  23.109  1.00  0.00     0.171 C 
HETATM   33  O3  UNL     1       2.223   8.589  24.313  1.00  0.00    -0.646 OA
BRANCH  32  34
HETATM   34  O4  UNL     1       1.782   7.784  22.280  1.00  0.00    -0.773 OA
HETATM   35  H44 UNL     1       1.236   7.227  22.875  1.00  0.00     0.167 HD
ENDBRANCH  32  34
ENDBRANCH  30  32
ENDBRANCH  27  29
ENDBRANCH  26  27
ENDBRANCH  24  26
ENDBRANCH   1  24
TORSDOF 6
ENDMDL
MODEL 5
REMARK minimizedAffinity -7.10256529
REMARK CNNscore 0.314212441
REMARK CNNaffinity 5.73257256
REMARK  6 active torsions:
REMARK  status: ('A' for Active; 'I' for Inactive)
REMARK    1  A    between atoms: C2_2  and  C30_32 
REMARK    2  A    between atoms: C3_3  and  C4_4 
REMARK    3  A    between atoms: C4_4  and  C5_6 
REMARK    4  A    between atoms: C5_6  and  C6_7 
REMARK    5  A    between atoms: C6_7  and  C8_9 
REMARK    6  A    between atoms: C30_32  and  O4_34 
ROOT
HETATM    1  C8  UNL     1     -17.821   3.125  14.926  1.00  0.00    -0.001 C 
HETATM    2  C9  UNL     1     -18.003   3.004  13.385  1.00  0.00     0.007 C 
HETATM    3  C10 UNL     1     -17.404   4.272  12.749  1.00  0.00     0.015 C 
HETATM    4  C11 UNL     1     -17.171   5.236  13.932  1.00  0.00    -0.013 C 
HETATM    5  C12 UNL     1     -18.539   5.948  14.184  1.00  0.00     0.021 C 
HETATM    6  C13 UNL     1     -16.138   6.344  13.764  1.00  0.00    -0.070 C 
HETATM    7  C14 UNL     1     -15.837   6.881  12.572  1.00  0.00    -0.022 C 
HETATM    8  C15 UNL     1     -14.865   7.997  12.356  1.00  0.00     0.034 C 
HETATM    9  C16 UNL     1     -14.275   8.691  13.612  1.00  0.00     0.013 C 
HETATM   10  C17 UNL     1     -12.710   8.605  13.716  1.00  0.00     0.018 C 
HETATM   11  C18 UNL     1     -12.056   9.232  12.461  1.00  0.00     0.023 C 
HETATM   12  C19 UNL     1     -12.175   7.178  13.889  1.00  0.00     0.023 C 
HETATM   13  C20 UNL     1     -12.227   9.439  14.917  1.00  0.00     0.135 C 
HETATM   14  O2  UNL     1     -11.044   9.747  15.065  1.00  0.00    -0.297 OA
HETATM   15  C21 UNL     1     -13.260   9.899  15.917  1.00  0.00     0.080 C 
HETATM   16  C22 UNL     1     -14.223   8.758  16.191  1.00  0.00     0.017 C 
HETATM   17  C23 UNL     1     -15.066   8.366  14.943  1.00  0.00    -0.031 C 
HETATM   18  C24 UNL     1     -16.350   9.246  14.944  1.00  0.00     0.016 C 
HETATM   19  C25 UNL     1     -15.446   6.840  15.026  1.00  0.00     0.024 C 
HETATM   20  C26 UNL     1     -16.190   6.438  16.327  1.00  0.00     0.010 C 
HETATM   21  C27 UNL     1     -16.667   4.969  16.407  1.00  0.00     0.011 C 
HETATM   22  C28 UNL     1     -16.723   4.232  15.054  1.00  0.00    -0.029 C 
HETATM   23  C29 UNL     1     -15.329   3.581  14.784  1.00  0.00     0.016 C 
ENDROOT
BRANCH   1  24
HETATM   24  C6  UNL     1     -17.607   1.747  15.611  1.00  0.00    -0.007 C 
HETATM   25  C7  UNL     1     -18.857   0.862  15.580  1.00  0.00     0.011 C 
BRANCH  24  26
HETATM   26  C5  UNL     1     -16.390   0.980  15.040  1.00  0.00     0.087 C 
BRANCH  26  27
HETATM   27  C4  UNL     1     -15.427   0.433  16.083  1.00  0.00     0.150 C 
HETATM   28  O1  UNL     1     -14.224   0.675  16.061  1.00  0.00    -0.293 OA
BRANCH  27  29
HETATM   29  C3  UNL     1     -16.013  -0.463  17.119  1.00  0.00     0.063 C 
HETATM   30  C2  UNL     1     -16.110  -1.801  17.002  1.00  0.00     0.015 C 
HETATM   31  C1  UNL     1     -15.606  -2.642  15.868  1.00  0.00     0.055 C 
BRANCH  30  32
HETATM   32  C30 UNL     1     -16.758  -2.480  18.146  1.00  0.00     0.171 C 
HETATM   33  O3  UNL     1     -16.429  -2.393  19.316  1.00  0.00    -0.646 OA
BRANCH  32  34
HETATM   34  O4  UNL     1     -17.803  -3.235  17.773  1.00  0.00    -0.773 OA
HETATM   35  H44 UNL     1     -18.141  -3.608  18.614  1.00  0.00     0.167 HD
ENDBRANCH  32  34
ENDBRANCH  30  32
ENDBRANCH  27  29
ENDBRANCH  26  27
ENDBRANCH  24  26
ENDBRANCH   1  24
TORSDOF 6
ENDMDL
MODEL 6
REMARK minimizedAffinity -9.18901539
REMARK CNNscore 0.31396988
REMARK CNNaffinity 6.71838903
REMARK  6 active torsions:
REMARK  status: ('A' for Active; 'I' for Inactive)
REMARK    1  A    between atoms: C2_2  and  C30_32 
REMARK    2  A    between atoms: C3_3  and  C4_4 
REMARK    3  A    between atoms: C4_4  and  C5_6 
REMARK    4  A    between atoms: C5_6  and  C6_7 
REMARK    5  A    between atoms: C6_7  and  C8_9 
REMARK    6  A    between atoms: C30_32  and  O4_34 
ROOT
HETATM    1  C8  UNL     1      -3.836   5.365  13.170  1.00  0.00    -0.001 C 
HETATM    2  C9  UNL     1      -2.525   4.628  13.570  1.00  0.00     0.007 C 
HETATM    3  C10 UNL     1      -1.626   5.648  14.296  1.00  0.00     0.015 C 
HETATM    4  C11 UNL     1      -2.288   7.017  14.032  1.00  0.00    -0.013 C 
HETATM    5  C12 UNL     1      -1.771   7.483  12.633  1.00  0.00     0.021 C 
HETATM    6  C13 UNL     1      -1.990   8.157  14.998  1.00  0.00    -0.070 C 
HETATM    7  C14 UNL     1      -0.841   8.244  15.687  1.00  0.00    -0.022 C 
HETATM    8  C15 UNL     1      -0.481   9.361  16.613  1.00  0.00     0.034 C 
HETATM    9  C16 UNL     1      -1.431  10.586  16.668  1.00  0.00     0.013 C 
HETATM   10  C17 UNL     1      -2.042  10.861  18.089  1.00  0.00     0.018 C 
HETATM   11  C18 UNL     1      -0.911  11.075  19.125  1.00  0.00     0.023 C 
HETATM   12  C19 UNL     1      -2.968   9.746  18.594  1.00  0.00     0.023 C 
HETATM   13  C20 UNL     1      -2.852  12.170  18.058  1.00  0.00     0.135 C 
HETATM   14  O2  UNL     1      -3.212  12.740  19.089  1.00  0.00    -0.297 OA
HETATM   15  C21 UNL     1      -3.183  12.762  16.710  1.00  0.00     0.080 C 
HETATM   16  C22 UNL     1      -3.606  11.646  15.771  1.00  0.00     0.017 C 
HETATM   17  C23 UNL     1      -2.454  10.647  15.463  1.00  0.00    -0.031 C 
HETATM   18  C24 UNL     1      -1.679  11.185  14.225  1.00  0.00     0.016 C 
HETATM   19  C25 UNL     1      -3.062   9.227  15.156  1.00  0.00     0.024 C 
HETATM   20  C26 UNL     1      -4.108   9.215  14.009  1.00  0.00     0.010 C 
HETATM   21  C27 UNL     1      -4.658   7.826  13.609  1.00  0.00     0.011 C 
HETATM   22  C28 UNL     1      -3.809   6.631  14.089  1.00  0.00    -0.029 C 
HETATM   23  C29 UNL     1      -4.293   6.218  15.516  1.00  0.00     0.016 C 
ENDROOT
BRANCH   1  24
HETATM   24  C6  UNL     1      -5.075   4.428  13.188  1.00  0.00    -0.007 C 
HETATM   25  C7  UNL     1      -6.325   5.101  13.764  1.00  0.00     0.011 C 
BRANCH  24  26
HETATM   26  C5  UNL     1      -5.382   3.818  11.800  1.00  0.00     0.087 C 
BRANCH  26  27
HETATM   27  C4  UNL     1      -5.080   2.333  11.669  1.00  0.00     0.150 C 
HETATM   28  O1  UNL     1      -5.961   1.480  11.640  1.00  0.00    -0.293 OA
BRANCH  27  29
HETATM   29  C3  UNL     1      -3.640   1.952  11.627  1.00  0.00     0.063 C 
HETATM   30  C2  UNL     1      -2.720   2.537  10.837  1.00  0.00     0.015 C 
HETATM   31  C1  UNL     1      -2.937   3.697   9.912  1.00  0.00     0.055 C 
BRANCH  30  32
HETATM   32  C30 UNL     1      -1.357   1.970  10.943  1.00  0.00     0.171 C 
HETATM   33  O3  UNL     1      -0.504   2.292  11.751  1.00  0.00    -0.646 OA
BRANCH  32  34
HETATM   34  O4  UNL     1      -1.124   1.011  10.033  1.00  0.00    -0.773 OA
HETATM   35  H44 UNL     1      -0.208   0.719  10.222  1.00  0.00     0.167 HD
ENDBRANCH  32  34
ENDBRANCH  30  32
ENDBRANCH  27  29
ENDBRANCH  26  27
ENDBRANCH  24  26
ENDBRANCH   1  24
TORSDOF 6
ENDMDL
MODEL 7
REMARK minimizedAffinity -6.57866526
REMARK CNNscore 0.271411479
REMARK CNNaffinity 5.35137033
REMARK  6 active torsions:
REMARK  status: ('A' for Active; 'I' for Inactive)
REMARK    1  A    between atoms: C2_2  and  C30_32 
REMARK    2  A    between atoms: C3_3  and  C4_4 
REMARK    3  A    between atoms: C4_4  and  C5_6 
REMARK    4  A    between atoms: C5_6  and  C6_7 
REMARK    5  A    between atoms: C6_7  and  C8_9 
REMARK    6  A    between atoms: C30_32  and  O4_34 
ROOT
HETATM    1  C8  UNL     1      -6.764 -10.511  10.211  1.00  0.00    -0.001 C 
HETATM    2  C9  UNL     1      -7.801 -10.586   9.053  1.00  0.00     0.007 C 
HETATM    3  C10 UNL     1      -9.203 -10.595   9.691  1.00  0.00     0.015 C 
HETATM    4  C11 UNL     1      -8.953 -10.837  11.194  1.00  0.00    -0.013 C 
HETATM    5  C12 UNL     1      -8.812 -12.384  11.364  1.00  0.00     0.021 C 
HETATM    6  C13 UNL     1     -10.026 -10.395  12.181  1.00  0.00    -0.070 C 
HETATM    7  C14 UNL     1     -11.328 -10.337  11.861  1.00  0.00    -0.022 C 
HETATM    8  C15 UNL     1     -12.426  -9.953  12.801  1.00  0.00     0.034 C 
HETATM    9  C16 UNL     1     -12.058  -9.757  14.295  1.00  0.00     0.013 C 
HETATM   10  C17 UNL     1     -12.360  -8.317  14.847  1.00  0.00     0.018 C 
HETATM   11  C18 UNL     1     -13.860  -7.980  14.666  1.00  0.00     0.023 C 
HETATM   12  C19 UNL     1     -11.524  -7.211  14.189  1.00  0.00     0.023 C 
HETATM   13  C20 UNL     1     -12.088  -8.278  16.361  1.00  0.00     0.135 C 
HETATM   14  O2  UNL     1     -12.487  -7.355  17.073  1.00  0.00    -0.297 OA
HETATM   15  C21 UNL     1     -11.324  -9.428  16.971  1.00  0.00     0.080 C 
HETATM   16  C22 UNL     1     -10.171  -9.795  16.055  1.00  0.00     0.017 C 
HETATM   17  C23 UNL     1     -10.643 -10.351  14.681  1.00  0.00    -0.031 C 
HETATM   18  C24 UNL     1     -10.814 -11.892  14.828  1.00  0.00     0.016 C 
HETATM   19  C25 UNL     1      -9.564 -10.021  13.583  1.00  0.00     0.024 C 
HETATM   20  C26 UNL     1      -8.139 -10.539  13.913  1.00  0.00     0.010 C 
HETATM   21  C27 UNL     1      -7.069 -10.321  12.817  1.00  0.00     0.011 C 
HETATM   22  C28 UNL     1      -7.632 -10.016  11.415  1.00  0.00    -0.029 C 
HETATM   23  C29 UNL     1      -7.831  -8.472  11.282  1.00  0.00     0.016 C 
ENDROOT
BRANCH   1  24
HETATM   24  C6  UNL     1      -5.484  -9.724   9.813  1.00  0.00    -0.007 C 
HETATM   25  C7  UNL     1      -4.443  -9.667  10.936  1.00  0.00     0.011 C 
BRANCH  24  26
HETATM   26  C5  UNL     1      -4.840 -10.253   8.508  1.00  0.00     0.087 C 
BRANCH  26  27
HETATM   27  C4  UNL     1      -5.149  -9.437   7.262  1.00  0.00     0.150 C 
HETATM   28  O1  UNL     1      -5.635  -8.312   7.314  1.00  0.00    -0.293 OA
BRANCH  27  29
HETATM   29  C3  UNL     1      -4.877 -10.098   5.955  1.00  0.00     0.063 C 
HETATM   30  C2  UNL     1      -3.781  -9.878   5.204  1.00  0.00     0.015 C 
HETATM   31  C1  UNL     1      -2.617  -8.999   5.549  1.00  0.00     0.055 C 
BRANCH  30  32
HETATM   32  C30 UNL     1      -3.742 -10.625   3.927  1.00  0.00     0.171 C 
HETATM   33  O3  UNL     1      -4.041 -11.795   3.767  1.00  0.00    -0.646 OA
BRANCH  32  34
HETATM   34  O4  UNL     1      -3.337  -9.866   2.897  1.00  0.00    -0.773 OA
HETATM   35  H44 UNL     1      -3.371 -10.470   2.126  1.00  0.00     0.167 HD
ENDBRANCH  32  34
ENDBRANCH  30  32
ENDBRANCH  27  29
ENDBRANCH  26  27
ENDBRANCH  24  26
ENDBRANCH   1  24
TORSDOF 6
ENDMDL
MODEL 8
REMARK minimizedAffinity -7.29120684
REMARK CNNscore 0.270509392
REMARK CNNaffinity 6.31642866
REMARK  6 active torsions:
REMARK  status: ('A' for Active; 'I' for Inactive)
REMARK    1  A    between atoms: C2_2  and  C30_32 
REMARK    2  A    between atoms: C3_3  and  C4_4 
REMARK    3  A    between atoms: C4_4  and  C5_6 
REMARK    4  A    between atoms: C5_6  and  C6_7 
REMARK    5  A    between atoms: C6_7  and  C8_9 
REMARK    6  A    between atoms: C30_32  and  O4_34 
ROOT
HETATM    1  C8  UNL     1      -0.836  11.661  17.816  1.00  0.00    -0.001 C 
HETATM    2  C9  UNL     1      -2.195  12.411  17.923  1.00  0.00     0.007 C 
HETATM    3  C10 UNL     1      -3.141  11.803  16.871  1.00  0.00     0.015 C 
HETATM    4  C11 UNL     1      -2.232  10.938  15.974  1.00  0.00    -0.013 C 
HETATM    5  C12 UNL     1      -1.610  11.913  14.923  1.00  0.00     0.021 C 
HETATM    6  C13 UNL     1      -2.873   9.806  15.179  1.00  0.00    -0.070 C 
HETATM    7  C14 UNL     1      -4.150   9.841  14.768  1.00  0.00    -0.022 C 
HETATM    8  C15 UNL     1      -4.816   8.780  13.951  1.00  0.00     0.034 C 
HETATM    9  C16 UNL     1      -3.929   7.630  13.404  1.00  0.00     0.013 C 
HETATM   10  C17 UNL     1      -4.360   6.200  13.894  1.00  0.00     0.018 C 
HETATM   11  C18 UNL     1      -5.828   5.918  13.491  1.00  0.00     0.023 C 
HETATM   12  C19 UNL     1      -4.216   5.991  15.407  1.00  0.00     0.023 C 
HETATM   13  C20 UNL     1      -3.505   5.134  13.186  1.00  0.00     0.135 C 
HETATM   14  O2  UNL     1      -3.810   3.940  13.195  1.00  0.00    -0.297 OA
HETATM   15  C21 UNL     1      -2.271   5.594  12.448  1.00  0.00     0.080 C 
HETATM   16  C22 UNL     1      -1.552   6.632  13.291  1.00  0.00     0.017 C 
HETATM   17  C23 UNL     1      -2.379   7.937  13.479  1.00  0.00    -0.031 C 
HETATM   18  C24 UNL     1      -2.039   8.888  12.294  1.00  0.00     0.016 C 
HETATM   19  C25 UNL     1      -1.993   8.608  14.850  1.00  0.00     0.024 C 
HETATM   20  C26 UNL     1      -0.478   8.902  15.012  1.00  0.00     0.010 C 
HETATM   21  C27 UNL     1      -0.068   9.650  16.303  1.00  0.00     0.011 C 
HETATM   22  C28 UNL     1      -1.224  10.363  17.032  1.00  0.00    -0.029 C 
HETATM   23  C29 UNL     1      -1.879   9.357  18.032  1.00  0.00     0.016 C 
ENDROOT
BRANCH   1  24
HETATM   24  C6  UNL     1      -0.111  11.543  19.185  1.00  0.00    -0.007 C 
HETATM   25  C7  UNL     1       1.232  10.812  19.090  1.00  0.00     0.011 C 
BRANCH  24  26
HETATM   26  C5  UNL     1       0.069  12.912  19.885  1.00  0.00     0.087 C 
BRANCH  26  27
HETATM   27  C4  UNL     1       1.495  13.240  20.298  1.00  0.00     0.150 C 
HETATM   28  O1  UNL     1       2.073  14.256  19.925  1.00  0.00    -0.293 OA
BRANCH  27  29
HETATM   29  C3  UNL     1       2.187  12.231  21.149  1.00  0.00     0.063 C 
HETATM   30  C2  UNL     1       2.761  12.501  22.337  1.00  0.00     0.015 C 
HETATM   31  C1  UNL     1       2.767  13.818  23.053  1.00  0.00     0.055 C 
BRANCH  30  32
HETATM   32  C30 UNL     1       3.416  11.345  22.988  1.00  0.00     0.171 C 
HETATM   33  O3  UNL     1       2.870  10.321  23.357  1.00  0.00    -0.646 OA
BRANCH  32  34
HETATM   34  O4  UNL     1       4.738  11.520  23.141  1.00  0.00    -0.773 OA
HETATM   35  H44 UNL     1       5.042  10.690  23.564  1.00  0.00     0.167 HD
ENDBRANCH  32  34
ENDBRANCH  30  32
ENDBRANCH  27  29
ENDBRANCH  26  27
ENDBRANCH  24  26
ENDBRANCH   1  24
TORSDOF 6
ENDMDL
MODEL 9
REMARK minimizedAffinity -8.07839012
REMARK CNNscore 0.266085416
REMARK CNNaffinity 6.50550461
REMARK  6 active torsions:
REMARK  status: ('A' for Active; 'I' for Inactive)
REMARK    1  A    between atoms: C2_2  and  C30_32 
REMARK    2  A    between atoms: C3_3  and  C4_4 
REMARK    3  A    between atoms: C4_4  and  C5_6 
REMARK    4  A    between atoms: C5_6  and  C6_7 
REMARK    5  A    between atoms: C6_7  and  C8_9 
REMARK    6  A    between atoms: C30_32  and  O4_34 
ROOT
HETATM    1  C8  UNL     1      -1.805   7.732  15.293  1.00  0.00    -0.001 C 
HETATM    2  C9  UNL     1      -1.588   9.272  15.359  1.00  0.00     0.007 C 
HETATM    3  C10 UNL     1      -0.418   9.613  14.417  1.00  0.00     0.015 C 
HETATM    4  C11 UNL     1       0.217   8.252  14.065  1.00  0.00    -0.013 C 
HETATM    5  C12 UNL     1       1.195   7.916  15.235  1.00  0.00     0.021 C 
HETATM    6  C13 UNL     1       1.036   8.152  12.783  1.00  0.00    -0.070 C 
HETATM    7  C14 UNL     1       1.690   9.198  12.255  1.00  0.00    -0.022 C 
HETATM    8  C15 UNL     1       2.541   9.145  11.027  1.00  0.00     0.034 C 
HETATM    9  C16 UNL     1       2.817   7.752  10.401  1.00  0.00     0.013 C 
HETATM   10  C17 UNL     1       2.316   7.604   8.919  1.00  0.00     0.018 C 
HETATM   11  C18 UNL     1       2.977   8.680   8.023  1.00  0.00     0.023 C 
HETATM   12  C19 UNL     1       0.793   7.703   8.764  1.00  0.00     0.023 C 
HETATM   13  C20 UNL     1       2.762   6.242   8.358  1.00  0.00     0.135 C 
HETATM   14  O2  UNL     1       2.724   5.988   7.153  1.00  0.00    -0.297 OA
HETATM   15  C21 UNL     1       3.275   5.211   9.333  1.00  0.00     0.080 C 
HETATM   16  C22 UNL     1       2.388   5.213  10.565  1.00  0.00     0.017 C 
HETATM   17  C23 UNL     1       2.462   6.546  11.362  1.00  0.00    -0.031 C 
HETATM   18  C24 UNL     1       3.625   6.418  12.390  1.00  0.00     0.016 C 
HETATM   19  C25 UNL     1       1.096   6.788  12.107  1.00  0.00     0.024 C 
HETATM   20  C26 UNL     1       0.662   5.626  13.039  1.00  0.00     0.010 C 
HETATM   21  C27 UNL     1      -0.625   5.864  13.863  1.00  0.00     0.011 C 
HETATM   22  C28 UNL     1      -1.058   7.340  13.974  1.00  0.00    -0.029 C 
HETATM   23  C29 UNL     1      -1.982   7.680  12.762  1.00  0.00     0.016 C 
ENDROOT
BRANCH   1  24
HETATM   24  C6  UNL     1      -3.295   7.332  15.480  1.00  0.00    -0.007 C 
HETATM   25  C7  UNL     1      -4.241   8.537  15.487  1.00  0.00     0.011 C 
BRANCH  24  26
HETATM   26  C5  UNL     1      -3.765   6.282  14.445  1.00  0.00     0.087 C 
BRANCH  26  27
HETATM   27  C4  UNL     1      -5.119   6.565  13.812  1.00  0.00     0.150 C 
HETATM   28  O1  UNL     1      -5.335   7.566  13.136  1.00  0.00    -0.293 OA
BRANCH  27  29
HETATM   29  C3  UNL     1      -6.201   5.581  14.096  1.00  0.00     0.063 C 
HETATM   30  C2  UNL     1      -6.391   4.439  13.409  1.00  0.00     0.015 C 
HETATM   31  C1  UNL     1      -5.541   3.909  12.294  1.00  0.00     0.055 C 
BRANCH  30  32
HETATM   32  C30 UNL     1      -7.551   3.633  13.852  1.00  0.00     0.171 C 
HETATM   33  O3  UNL     1      -8.176   2.838  13.173  1.00  0.00    -0.646 OA
BRANCH  32  34
HETATM   34  O4  UNL     1      -7.873   3.852  15.136  1.00  0.00    -0.773 OA
HETATM   35  H44 UNL     1      -8.634   3.256  15.297  1.00  0.00     0.167 HD
ENDBRANCH  32  34
ENDBRANCH  30  32
ENDBRANCH  27  29
ENDBRANCH  26  27
ENDBRANCH  24  26
ENDBRANCH   1  24
TORSDOF 6
ENDMDL
