MODEL 1
REMARK minimizedAffinity -6.6305027
REMARK CNNscore 0.430247694
REMARK CNNaffinity 6.47826004
REMARK  30 active torsions:
REMARK  status: ('A' for Active; 'I' for Inactive)
REMARK    1  A    between atoms: C2_2  and  C3_3 
REMARK    2  A    between atoms: C3_3  and  C4_4 
REMARK    3  A    between atoms: C4_4  and  C5_5 
REMARK    4  A    between atoms: C5_5  and  C6_6 
REMARK    5  A    between atoms: C6_6  and  C7_7 
REMARK    6  A    between atoms: C7_7  and  C8_8 
REMARK    7  A    between atoms: C8_8  and  C9_9 
REMARK    8  A    between atoms: C9_9  and  C10_10 
REMARK    9  A    between atoms: C10_10  and  C11_11 
REMARK   10  A    between atoms: C11_11  and  C12_12 
REMARK   11  A    between atoms: C12_12  and  C13_13 
REMARK   12  A    between atoms: C13_13  and  C14_14 
REMARK   13  A    between atoms: C14_14  and  C15_15 
REMARK   14  A    between atoms: C15_15  and  C16_16 
REMARK   15  A    between atoms: C16_16  and  N1_17 
REMARK       I    between atoms: N1_17  and  C17_18 
REMARK   16  A    between atoms: C17_18  and  C18_20 
REMARK   17  A    between atoms: C18_20  and  N2_21 
REMARK   18  A    between atoms: C18_20  and  C19_22 
REMARK   19  A    between atoms: C19_22  and  C20_23 
REMARK   20  A    between atoms: C23_26  and  O2_27 
REMARK   21  A    between atoms: O2_27  and  P1_28 
REMARK   22  A    between atoms: P1_28  and  O4_30 
REMARK   23  A    between atoms: P1_28  and  C24_31 
REMARK   24  A    between atoms: C24_31  and  O5_32 
REMARK   25  A    between atoms: O5_32  and  C25_33 
REMARK   26  A    between atoms: C25_33  and  C26_34 
REMARK   27  A    between atoms: C25_33  and  C27_36 
REMARK   28  A    between atoms: C26_34  and  O6_35 
REMARK   29  A    between atoms: C27_36  and  N3_37 
REMARK   30  A    between atoms: C30_40  and  N4_41 
ROOT
HETATM    1  C20 UNL     1       1.159  51.354 -16.246  1.00  0.00    -0.056 A 
HETATM    2  C21 UNL     1       1.321  52.502 -17.031  1.00  0.00     0.010 A 
HETATM    3  C22 UNL     1       0.730  52.584 -18.293  1.00  0.00     0.038 A 
HETATM    4  C23 UNL     1      -0.038  51.528 -18.783  1.00  0.00     0.078 A 
HETATM    5  C32 UNL     1      -0.207  50.381 -18.012  1.00  0.00     0.038 A 
HETATM    6  C33 UNL     1       0.389  50.297 -16.751  1.00  0.00     0.010 A 
ENDROOT
BRANCH   1   7
HETATM    7  C19 UNL     1       1.812  51.247 -14.888  1.00  0.00     0.083 C 
BRANCH   7   8
HETATM    8  C18 UNL     1       0.853  51.174 -13.683  1.00  0.00     0.313 C 
BRANCH   8   9
HETATM    9  C17 UNL     1       1.546  51.469 -12.332  1.00  0.00     0.251 C 
HETATM   10  N1  UNL     1       2.349  52.590 -12.321  1.00  0.00    -0.359 N 
HETATM   11  H34 UNL     1       2.390  53.193 -13.136  1.00  0.00     0.162 HD
HETATM   12  O1  UNL     1       1.428  50.731 -11.353  1.00  0.00    -0.271 OA
BRANCH  10  13
HETATM   13  C16 UNL     1       3.066  52.976 -11.123  1.00  0.00     0.122 C 
BRANCH  13  14
HETATM   14  C15 UNL     1       2.305  54.033 -10.327  1.00  0.00     0.020 C 
BRANCH  14  15
HETATM   15  C14 UNL     1       2.527  55.457 -10.847  1.00  0.00     0.002 C 
BRANCH  15  16
HETATM   16  C13 UNL     1       3.592  56.270 -10.100  1.00  0.00     0.000 C 
BRANCH  16  17
HETATM   17  C12 UNL     1       3.324  56.455  -8.601  1.00  0.00     0.000 C 
BRANCH  17  18
HETATM   18  C11 UNL     1       3.975  57.668  -7.936  1.00  0.00     0.000 C 
BRANCH  18  19
HETATM   19  C10 UNL     1       3.859  57.662  -6.410  1.00  0.00     0.000 C 
BRANCH  19  20
HETATM   20  C9  UNL     1       5.228  57.437  -5.762  1.00  0.00     0.000 C 
BRANCH  20  21
HETATM   21  C8  UNL     1       6.230  56.741  -6.687  1.00  0.00     0.000 C 
BRANCH  21  22
HETATM   22  C7  UNL     1       7.466  56.156  -5.999  1.00  0.00     0.000 C 
BRANCH  22  23
HETATM   23  C6  UNL     1       7.988  56.938  -4.788  1.00  0.00     0.000 C 
BRANCH  23  24
HETATM   24  C5  UNL     1       9.464  57.326  -4.905  1.00  0.00     0.000 C 
BRANCH  24  25
HETATM   25  C4  UNL     1       9.696  58.836  -5.009  1.00  0.00     0.000 C 
BRANCH  25  26
HETATM   26  C3  UNL     1       8.437  59.707  -5.077  1.00  0.00    -0.000 C 
BRANCH  26  27
HETATM   27  C2  UNL     1       8.191  60.523  -3.807  1.00  0.00    -0.005 C 
HETATM   28  C1  UNL     1       7.033  61.492  -3.988  1.00  0.00     0.005 C 
ENDBRANCH  26  27
ENDBRANCH  25  26
ENDBRANCH  24  25
ENDBRANCH  23  24
ENDBRANCH  22  23
ENDBRANCH  21  22
ENDBRANCH  20  21
ENDBRANCH  19  20
ENDBRANCH  18  19
ENDBRANCH  17  18
ENDBRANCH  16  17
ENDBRANCH  15  16
ENDBRANCH  14  15
ENDBRANCH  13  14
ENDBRANCH  10  13
ENDBRANCH   8   9
BRANCH   8  29
HETATM   29  N2  UNL     1      -0.325  52.061 -13.846  1.00  0.00     0.092 N 
HETATM   30  H36 UNL     1      -0.865  52.001 -12.979  1.00  0.00     0.313 HD
HETATM   31  H37 UNL     1       0.025  53.024 -13.820  1.00  0.00     0.313 HD
ENDBRANCH   8  29
ENDBRANCH   7   8
ENDBRANCH   1   7
BRANCH   4  32
HETATM   32  O2  UNL     1      -0.556  51.693 -20.033  1.00  0.00    -0.275 OA
BRANCH  32  33
HETATM   33  P1  UNL     1       0.276  52.213 -21.311  1.00  0.00     0.267 P 
HETATM   34  O3  UNL     1       1.729  51.838 -21.314  1.00  0.00    -0.652 OA
BRANCH  33  35
HETATM   35  O4  UNL     1       0.107  53.808 -21.148  1.00  0.00    -0.327 OA
HETATM   36  H42 UNL     1       0.740  54.184 -20.506  1.00  0.00     0.220 HD
ENDBRANCH  33  35
BRANCH  33  37
HETATM   37  C24 UNL     1      -0.719  51.779 -22.745  1.00  0.00     0.293 C 
BRANCH  37  38
HETATM   38  O5  UNL     1      -0.601  52.786 -23.763  1.00  0.00    -0.371 OA
BRANCH  38  39
HETATM   39  C25 UNL     1       0.758  53.133 -24.098  1.00  0.00     0.164 C 
BRANCH  39  40
HETATM   40  C26 UNL     1       0.936  54.659 -24.019  1.00  0.00     0.197 C 
BRANCH  40  41
HETATM   41  O6  UNL     1       0.525  55.291 -25.232  1.00  0.00    -0.398 OA
HETATM   42  H48 UNL     1      -0.439  55.181 -25.303  1.00  0.00     0.209 HD
ENDBRANCH  40  41
ENDBRANCH  39  40
BRANCH  39  43
HETATM   43  C27 UNL     1       1.021  52.655 -25.540  1.00  0.00     0.167 C 
BRANCH  43  44
HETATM   44  N3  UNL     1      -0.196  52.134 -26.170  1.00  0.00    -0.307 N 
HETATM   45  C28 UNL     1      -0.606  50.851 -25.893  1.00  0.00     0.099 A 
HETATM   46  C29 UNL     1      -1.650  50.315 -26.521  1.00  0.00     0.059 A 
HETATM   47  C30 UNL     1      -2.301  51.173 -27.528  1.00  0.00     0.082 A 
HETATM   48  N5  UNL     1      -1.910  52.378 -27.808  1.00  0.00    -0.299 N 
HETATM   49  C31 UNL     1      -0.835  52.914 -27.139  1.00  0.00     0.327 A 
ATOM     50  H5  UNL     1      -2.398  52.924 -28.520  1.00  0.00     0.171 HD
HETATM   51  O7  UNL     1      -0.430  54.046 -27.401  1.00  0.00    -0.246 OA
BRANCH  47  52
HETATM   52  N4  UNL     1      -3.371  50.689 -28.231  1.00  0.00    -0.288 NA
HETATM   53  H53 UNL     1      -3.336  49.703 -28.462  1.00  0.00     0.125 HD
HETATM   54  H54 UNL     1      -3.586  51.272 -29.033  1.00  0.00     0.125 HD
ENDBRANCH  47  52
ENDBRANCH  43  44
ENDBRANCH  39  43
ENDBRANCH  38  39
ENDBRANCH  37  38
ENDBRANCH  33  37
ENDBRANCH  32  33
ENDBRANCH   4  32
TORSDOF 30
ENDMDL
MODEL 2
REMARK minimizedAffinity -6.88114738
REMARK CNNscore 0.278872818
REMARK CNNaffinity 5.65950441
REMARK  30 active torsions:
REMARK  status: ('A' for Active; 'I' for Inactive)
REMARK    1  A    between atoms: C2_2  and  C3_3 
REMARK    2  A    between atoms: C3_3  and  C4_4 
REMARK    3  A    between atoms: C4_4  and  C5_5 
REMARK    4  A    between atoms: C5_5  and  C6_6 
REMARK    5  A    between atoms: C6_6  and  C7_7 
REMARK    6  A    between atoms: C7_7  and  C8_8 
REMARK    7  A    between atoms: C8_8  and  C9_9 
REMARK    8  A    between atoms: C9_9  and  C10_10 
REMARK    9  A    between atoms: C10_10  and  C11_11 
REMARK   10  A    between atoms: C11_11  and  C12_12 
REMARK   11  A    between atoms: C12_12  and  C13_13 
REMARK   12  A    between atoms: C13_13  and  C14_14 
REMARK   13  A    between atoms: C14_14  and  C15_15 
REMARK   14  A    between atoms: C15_15  and  C16_16 
REMARK   15  A    between atoms: C16_16  and  N1_17 
REMARK       I    between atoms: N1_17  and  C17_18 
REMARK   16  A    between atoms: C17_18  and  C18_20 
REMARK   17  A    between atoms: C18_20  and  N2_21 
REMARK   18  A    between atoms: C18_20  and  C19_22 
REMARK   19  A    between atoms: C19_22  and  C20_23 
REMARK   20  A    between atoms: C23_26  and  O2_27 
REMARK   21  A    between atoms: O2_27  and  P1_28 
REMARK   22  A    between atoms: P1_28  and  O4_30 
REMARK   23  A    between atoms: P1_28  and  C24_31 
REMARK   24  A    between atoms: C24_31  and  O5_32 
REMARK   25  A    between atoms: O5_32  and  C25_33 
REMARK   26  A    between atoms: C25_33  and  C26_34 
REMARK   27  A    between atoms: C25_33  and  C27_36 
REMARK   28  A    between atoms: C26_34  and  O6_35 
REMARK   29  A    between atoms: C27_36  and  N3_37 
REMARK   30  A    between atoms: C30_40  and  N4_41 
ROOT
HETATM    1  C20 UNL     1      -7.182  47.535 -26.953  1.00  0.00    -0.056 A 
HETATM    2  C21 UNL     1      -6.695  47.779 -25.663  1.00  0.00     0.010 A 
HETATM    3  C22 UNL     1      -5.367  48.163 -25.470  1.00  0.00     0.038 A 
HETATM    4  C23 UNL     1      -4.512  48.318 -26.560  1.00  0.00     0.078 A 
HETATM    5  C32 UNL     1      -4.983  48.079 -27.848  1.00  0.00     0.038 A 
HETATM    6  C33 UNL     1      -6.312  47.690 -28.041  1.00  0.00     0.010 A 
ENDROOT
BRANCH   1   7
HETATM    7  C19 UNL     1      -8.612  47.099 -27.171  1.00  0.00     0.083 C 
BRANCH   7   8
HETATM    8  C18 UNL     1      -9.108  45.945 -26.279  1.00  0.00     0.313 C 
BRANCH   8   9
HETATM    9  C17 UNL     1     -10.512  45.430 -26.672  1.00  0.00     0.251 C 
HETATM   10  N1  UNL     1     -11.565  46.179 -26.190  1.00  0.00    -0.359 N 
HETATM   11  H34 UNL     1     -11.385  47.042 -25.688  1.00  0.00     0.162 HD
HETATM   12  O1  UNL     1     -10.680  44.399 -27.326  1.00  0.00    -0.271 OA
BRANCH  10  13
HETATM   13  C16 UNL     1     -12.934  45.803 -26.474  1.00  0.00     0.122 C 
BRANCH  13  14
HETATM   14  C15 UNL     1     -13.499  46.585 -27.657  1.00  0.00     0.020 C 
BRANCH  14  15
HETATM   15  C14 UNL     1     -14.280  45.711 -28.643  1.00  0.00     0.002 C 
BRANCH  15  16
HETATM   16  C13 UNL     1     -14.969  44.484 -28.031  1.00  0.00     0.000 C 
BRANCH  16  17
HETATM   17  C12 UNL     1     -16.467  44.369 -28.338  1.00  0.00     0.000 C 
BRANCH  17  18
HETATM   18  C11 UNL     1     -17.425  44.904 -27.274  1.00  0.00     0.000 C 
BRANCH  18  19
HETATM   19  C10 UNL     1     -17.043  44.495 -25.849  1.00  0.00     0.000 C 
BRANCH  19  20
HETATM   20  C9  UNL     1     -18.053  43.494 -25.282  1.00  0.00     0.000 C 
BRANCH  20  21
HETATM   21  C8  UNL     1     -19.143  44.149 -24.429  1.00  0.00     0.000 C 
BRANCH  21  22
HETATM   22  C7  UNL     1     -18.769  44.411 -22.968  1.00  0.00     0.000 C 
BRANCH  22  23
HETATM   23  C6  UNL     1     -18.850  45.873 -22.512  1.00  0.00     0.000 C 
BRANCH  23  24
HETATM   24  C5  UNL     1     -17.875  46.210 -21.381  1.00  0.00     0.000 C 
BRANCH  24  25
HETATM   25  C4  UNL     1     -18.565  46.551 -20.056  1.00  0.00     0.000 C 
BRANCH  25  26
HETATM   26  C3  UNL     1     -17.915  47.663 -19.227  1.00  0.00    -0.000 C 
BRANCH  26  27
HETATM   27  C2  UNL     1     -16.407  47.488 -19.048  1.00  0.00    -0.005 C 
HETATM   28  C1  UNL     1     -15.815  48.611 -18.211  1.00  0.00     0.005 C 
ENDBRANCH  26  27
ENDBRANCH  25  26
ENDBRANCH  24  25
ENDBRANCH  23  24
ENDBRANCH  22  23
ENDBRANCH  21  22
ENDBRANCH  20  21
ENDBRANCH  19  20
ENDBRANCH  18  19
ENDBRANCH  17  18
ENDBRANCH  16  17
ENDBRANCH  15  16
ENDBRANCH  14  15
ENDBRANCH  13  14
ENDBRANCH  10  13
ENDBRANCH   8   9
BRANCH   8  29
HETATM   29  N2  UNL     1      -8.151  44.811 -26.240  1.00  0.00     0.092 N 
HETATM   30  H36 UNL     1      -8.590  44.071 -25.687  1.00  0.00     0.313 HD
HETATM   31  H37 UNL     1      -8.139  44.403 -27.181  1.00  0.00     0.313 HD
ENDBRANCH   8  29
ENDBRANCH   7   8
ENDBRANCH   1   7
BRANCH   4  32
HETATM   32  O2  UNL     1      -3.228  48.675 -26.269  1.00  0.00    -0.275 OA
BRANCH  32  33
HETATM   33  P1  UNL     1      -2.788  50.096 -25.650  1.00  0.00     0.267 P 
HETATM   34  O3  UNL     1      -2.247  50.036 -24.252  1.00  0.00    -0.652 OA
BRANCH  33  35
HETATM   35  O4  UNL     1      -4.195  50.881 -25.676  1.00  0.00    -0.327 OA
HETATM   36  H42 UNL     1      -4.760  50.655 -24.912  1.00  0.00     0.220 HD
ENDBRANCH  33  35
BRANCH  33  37
HETATM   37  C24 UNL     1      -1.786  50.886 -26.919  1.00  0.00     0.293 C 
BRANCH  37  38
HETATM   38  O5  UNL     1      -0.388  50.704 -26.641  1.00  0.00    -0.371 OA
BRANCH  38  39
HETATM   39  C25 UNL     1       0.378  51.926 -26.633  1.00  0.00     0.164 C 
BRANCH  39  40
HETATM   40  C26 UNL     1       1.745  51.674 -25.974  1.00  0.00     0.197 C 
BRANCH  40  41
HETATM   41  O6  UNL     1       2.805  52.224 -26.756  1.00  0.00    -0.398 OA
HETATM   42  H48 UNL     1       2.716  53.192 -26.723  1.00  0.00     0.209 HD
ENDBRANCH  40  41
ENDBRANCH  39  40
BRANCH  39  43
HETATM   43  C27 UNL     1      -0.410  52.966 -25.812  1.00  0.00     0.167 C 
BRANCH  43  44
HETATM   44  N3  UNL     1       0.245  53.259 -24.534  1.00  0.00    -0.307 N 
HETATM   45  C28 UNL     1       0.198  52.332 -23.520  1.00  0.00     0.099 A 
HETATM   46  C29 UNL     1       0.698  52.607 -22.317  1.00  0.00     0.059 A 
HETATM   47  C30 UNL     1       1.270  53.956 -22.154  1.00  0.00     0.082 A 
HETATM   48  N5  UNL     1       1.303  54.843 -23.100  1.00  0.00    -0.299 N 
HETATM   49  C31 UNL     1       0.789  54.533 -24.337  1.00  0.00     0.327 A 
ATOM     50  H5  UNL     1       1.708  55.763 -22.927  1.00  0.00     0.171 HD
HETATM   51  O7  UNL     1       0.787  55.364 -25.246  1.00  0.00    -0.246 OA
BRANCH  47  52
HETATM   52  N4  UNL     1       1.788  54.323 -20.942  1.00  0.00    -0.288 NA
HETATM   53  H53 UNL     1       1.307  53.956 -20.129  1.00  0.00     0.125 HD
HETATM   54  H54 UNL     1       1.943  55.324 -20.889  1.00  0.00     0.125 HD
ENDBRANCH  47  52
ENDBRANCH  43  44
ENDBRANCH  39  43
ENDBRANCH  38  39
ENDBRANCH  37  38
ENDBRANCH  33  37
ENDBRANCH  32  33
ENDBRANCH   4  32
TORSDOF 30
ENDMDL
MODEL 3
REMARK minimizedAffinity -7.18062353
REMARK CNNscore 0.200209826
REMARK CNNaffinity 5.76615858
REMARK  30 active torsions:
REMARK  status: ('A' for Active; 'I' for Inactive)
REMARK    1  A    between atoms: C2_2  and  C3_3 
REMARK    2  A    between atoms: C3_3  and  C4_4 
REMARK    3  A    between atoms: C4_4  and  C5_5 
REMARK    4  A    between atoms: C5_5  and  C6_6 
REMARK    5  A    between atoms: C6_6  and  C7_7 
REMARK    6  A    between atoms: C7_7  and  C8_8 
REMARK    7  A    between atoms: C8_8  and  C9_9 
REMARK    8  A    between atoms: C9_9  and  C10_10 
REMARK    9  A    between atoms: C10_10  and  C11_11 
REMARK   10  A    between atoms: C11_11  and  C12_12 
REMARK   11  A    between atoms: C12_12  and  C13_13 
REMARK   12  A    between atoms: C13_13  and  C14_14 
REMARK   13  A    between atoms: C14_14  and  C15_15 
REMARK   14  A    between atoms: C15_15  and  C16_16 
REMARK   15  A    between atoms: C16_16  and  N1_17 
REMARK       I    between atoms: N1_17  and  C17_18 
REMARK   16  A    between atoms: C17_18  and  C18_20 
REMARK   17  A    between atoms: C18_20  and  N2_21 
REMARK   18  A    between atoms: C18_20  and  C19_22 
REMARK   19  A    between atoms: C19_22  and  C20_23 
REMARK   20  A    between atoms: C23_26  and  O2_27 
REMARK   21  A    between atoms: O2_27  and  P1_28 
REMARK   22  A    between atoms: P1_28  and  O4_30 
REMARK   23  A    between atoms: P1_28  and  C24_31 
REMARK   24  A    between atoms: C24_31  and  O5_32 
REMARK   25  A    between atoms: O5_32  and  C25_33 
REMARK   26  A    between atoms: C25_33  and  C26_34 
REMARK   27  A    between atoms: C25_33  and  C27_36 
REMARK   28  A    between atoms: C26_34  and  O6_35 
REMARK   29  A    between atoms: C27_36  and  N3_37 
REMARK   30  A    between atoms: C30_40  and  N4_41 
ROOT
HETATM    1  C20 UNL     1      -6.102  47.547 -27.546  1.00  0.00    -0.056 A 
HETATM    2  C21 UNL     1      -4.877  48.100 -27.937  1.00  0.00     0.010 A 
HETATM    3  C22 UNL     1      -4.074  48.764 -27.009  1.00  0.00     0.038 A 
HETATM    4  C23 UNL     1      -4.477  48.875 -25.679  1.00  0.00     0.078 A 
HETATM    5  C32 UNL     1      -5.693  48.329 -25.277  1.00  0.00     0.038 A 
HETATM    6  C33 UNL     1      -6.499  47.668 -26.208  1.00  0.00     0.010 A 
ENDROOT
BRANCH   1   7
HETATM    7  C19 UNL     1      -6.989  46.844 -28.548  1.00  0.00     0.083 C 
BRANCH   7   8
HETATM    8  C18 UNL     1      -8.322  47.544 -28.876  1.00  0.00     0.313 C 
BRANCH   8   9
HETATM    9  C17 UNL     1      -9.559  46.777 -28.353  1.00  0.00     0.251 C 
HETATM   10  N1  UNL     1     -10.722  46.993 -29.062  1.00  0.00    -0.359 N 
HETATM   11  H34 UNL     1     -10.705  47.557 -29.905  1.00  0.00     0.162 HD
HETATM   12  O1  UNL     1      -9.520  46.064 -27.349  1.00  0.00    -0.271 OA
BRANCH  10  13
HETATM   13  C16 UNL     1     -11.958  46.345 -28.674  1.00  0.00     0.122 C 
BRANCH  13  14
HETATM   14  C15 UNL     1     -12.829  47.262 -27.818  1.00  0.00     0.020 C 
BRANCH  14  15
HETATM   15  C14 UNL     1     -14.141  46.608 -27.375  1.00  0.00     0.002 C 
BRANCH  15  16
HETATM   16  C13 UNL     1     -14.710  45.556 -28.336  1.00  0.00     0.000 C 
BRANCH  16  17
HETATM   17  C12 UNL     1     -15.704  44.577 -27.701  1.00  0.00     0.000 C 
BRANCH  17  18
HETATM   18  C11 UNL     1     -16.730  43.941 -28.639  1.00  0.00     0.000 C 
BRANCH  18  19
HETATM   19  C10 UNL     1     -18.119  43.793 -28.015  1.00  0.00     0.000 C 
BRANCH  19  20
HETATM   20  C9  UNL     1     -18.475  45.027 -27.183  1.00  0.00     0.000 C 
BRANCH  20  21
HETATM   21  C8  UNL     1     -19.035  44.686 -25.799  1.00  0.00     0.000 C 
BRANCH  21  22
HETATM   22  C7  UNL     1     -19.575  45.871 -24.995  1.00  0.00     0.000 C 
BRANCH  22  23
HETATM   23  C6  UNL     1     -18.522  46.844 -24.452  1.00  0.00     0.000 C 
BRANCH  23  24
HETATM   24  C5  UNL     1     -17.283  46.144 -23.888  1.00  0.00     0.000 C 
BRANCH  24  25
HETATM   25  C4  UNL     1     -17.085  46.361 -22.385  1.00  0.00     0.000 C 
BRANCH  25  26
HETATM   26  C3  UNL     1     -18.278  46.006 -21.492  1.00  0.00    -0.000 C 
BRANCH  26  27
HETATM   27  C2  UNL     1     -18.555  47.045 -20.404  1.00  0.00    -0.005 C 
HETATM   28  C1  UNL     1     -19.357  46.446 -19.259  1.00  0.00     0.005 C 
ENDBRANCH  26  27
ENDBRANCH  25  26
ENDBRANCH  24  25
ENDBRANCH  23  24
ENDBRANCH  22  23
ENDBRANCH  21  22
ENDBRANCH  20  21
ENDBRANCH  19  20
ENDBRANCH  18  19
ENDBRANCH  17  18
ENDBRANCH  16  17
ENDBRANCH  15  16
ENDBRANCH  14  15
ENDBRANCH  13  14
ENDBRANCH  10  13
ENDBRANCH   8   9
BRANCH   8  29
HETATM   29  N2  UNL     1      -8.358  48.945 -28.388  1.00  0.00     0.092 N 
HETATM   30  H36 UNL     1      -9.295  49.305 -28.586  1.00  0.00     0.313 HD
HETATM   31  H37 UNL     1      -8.352  48.901 -27.364  1.00  0.00     0.313 HD
ENDBRANCH   8  29
ENDBRANCH   7   8
ENDBRANCH   1   7
BRANCH   4  32
HETATM   32  O2  UNL     1      -3.635  49.560 -24.852  1.00  0.00    -0.275 OA
BRANCH  32  33
HETATM   33  P1  UNL     1      -3.897  51.052 -24.305  1.00  0.00     0.267 P 
HETATM   34  O3  UNL     1      -5.260  51.279 -23.719  1.00  0.00    -0.652 OA
BRANCH  33  35
HETATM   35  O4  UNL     1      -3.719  51.903 -25.662  1.00  0.00    -0.327 OA
HETATM   36  H42 UNL     1      -4.527  51.897 -26.212  1.00  0.00     0.220 HD
ENDBRANCH  33  35
BRANCH  33  37
HETATM   37  C24 UNL     1      -2.460  51.460 -23.303  1.00  0.00     0.293 C 
BRANCH  37  38
HETATM   38  O5  UNL     1      -1.309  51.671 -24.136  1.00  0.00    -0.371 OA
BRANCH  38  39
HETATM   39  C25 UNL     1      -0.522  52.825 -23.779  1.00  0.00     0.164 C 
BRANCH  39  40
HETATM   40  C26 UNL     1      -0.225  53.657 -25.037  1.00  0.00     0.197 C 
BRANCH  40  41
HETATM   41  O6  UNL     1       1.045  53.315 -25.595  1.00  0.00    -0.398 OA
HETATM   42  H48 UNL     1       0.975  52.407 -25.938  1.00  0.00     0.209 HD
ENDBRANCH  40  41
ENDBRANCH  39  40
BRANCH  39  43
HETATM   43  C27 UNL     1       0.799  52.318 -23.167  1.00  0.00     0.167 C 
BRANCH  43  44
HETATM   44  N3  UNL     1       0.822  52.480 -21.711  1.00  0.00    -0.307 N 
HETATM   45  C28 UNL     1       0.245  51.521 -20.913  1.00  0.00     0.099 A 
HETATM   46  C29 UNL     1       0.163  51.684 -19.594  1.00  0.00     0.059 A 
HETATM   47  C30 UNL     1       0.703  52.953 -19.073  1.00  0.00     0.082 A 
HETATM   48  N5  UNL     1       1.233  53.872 -19.819  1.00  0.00    -0.299 N 
HETATM   49  C31 UNL     1       1.315  53.676 -21.178  1.00  0.00     0.327 A 
ATOM     50  H5  UNL     1       1.586  54.733 -19.402  1.00  0.00     0.171 HD
HETATM   51  O7  UNL     1       1.793  54.540 -21.912  1.00  0.00    -0.246 OA
BRANCH  47  52
HETATM   52  N4  UNL     1       0.640  53.207 -17.729  1.00  0.00    -0.288 NA
HETATM   53  H53 UNL     1      -0.185  52.861 -17.254  1.00  0.00     0.125 HD
HETATM   54  H54 UNL     1       0.832  54.181 -17.523  1.00  0.00     0.125 HD
ENDBRANCH  47  52
ENDBRANCH  43  44
ENDBRANCH  39  43
ENDBRANCH  38  39
ENDBRANCH  37  38
ENDBRANCH  33  37
ENDBRANCH  32  33
ENDBRANCH   4  32
TORSDOF 30
ENDMDL
MODEL 4
REMARK minimizedAffinity -6.65040684
REMARK CNNscore 0.199085951
REMARK CNNaffinity 5.24004889
REMARK  30 active torsions:
REMARK  status: ('A' for Active; 'I' for Inactive)
REMARK    1  A    between atoms: C2_2  and  C3_3 
REMARK    2  A    between atoms: C3_3  and  C4_4 
REMARK    3  A    between atoms: C4_4  and  C5_5 
REMARK    4  A    between atoms: C5_5  and  C6_6 
REMARK    5  A    between atoms: C6_6  and  C7_7 
REMARK    6  A    between atoms: C7_7  and  C8_8 
REMARK    7  A    between atoms: C8_8  and  C9_9 
REMARK    8  A    between atoms: C9_9  and  C10_10 
REMARK    9  A    between atoms: C10_10  and  C11_11 
REMARK   10  A    between atoms: C11_11  and  C12_12 
REMARK   11  A    between atoms: C12_12  and  C13_13 
REMARK   12  A    between atoms: C13_13  and  C14_14 
REMARK   13  A    between atoms: C14_14  and  C15_15 
REMARK   14  A    between atoms: C15_15  and  C16_16 
REMARK   15  A    between atoms: C16_16  and  N1_17 
REMARK       I    between atoms: N1_17  and  C17_18 
REMARK   16  A    between atoms: C17_18  and  C18_20 
REMARK   17  A    between atoms: C18_20  and  N2_21 
REMARK   18  A    between atoms: C18_20  and  C19_22 
REMARK   19  A    between atoms: C19_22  and  C20_23 
REMARK   20  A    between atoms: C23_26  and  O2_27 
REMARK   21  A    between atoms: O2_27  and  P1_28 
REMARK   22  A    between atoms: P1_28  and  O4_30 
REMARK   23  A    between atoms: P1_28  and  C24_31 
REMARK   24  A    between atoms: C24_31  and  O5_32 
REMARK   25  A    between atoms: O5_32  and  C25_33 
REMARK   26  A    between atoms: C25_33  and  C26_34 
REMARK   27  A    between atoms: C25_33  and  C27_36 
REMARK   28  A    between atoms: C26_34  and  O6_35 
REMARK   29  A    between atoms: C27_36  and  N3_37 
REMARK   30  A    between atoms: C30_40  and  N4_41 
ROOT
HETATM    1  C20 UNL     1      -5.139  48.079 -23.436  1.00  0.00    -0.056 A 
HETATM    2  C21 UNL     1      -5.532  48.123 -24.779  1.00  0.00     0.010 A 
HETATM    3  C22 UNL     1      -4.634  48.536 -25.764  1.00  0.00     0.038 A 
HETATM    4  C23 UNL     1      -3.332  48.900 -25.424  1.00  0.00     0.078 A 
HETATM    5  C32 UNL     1      -2.928  48.861 -24.092  1.00  0.00     0.038 A 
HETATM    6  C33 UNL     1      -3.829  48.451 -23.105  1.00  0.00     0.010 A 
ENDROOT
BRANCH   1   7
HETATM    7  C19 UNL     1      -6.110  47.653 -22.359  1.00  0.00     0.083 C 
BRANCH   7   8
HETATM    8  C18 UNL     1      -5.485  47.256 -21.007  1.00  0.00     0.313 C 
BRANCH   8   9
HETATM    9  C17 UNL     1      -5.947  48.153 -19.834  1.00  0.00     0.251 C 
HETATM   10  N1  UNL     1      -7.055  47.695 -19.152  1.00  0.00    -0.359 N 
HETATM   11  H34 UNL     1      -7.457  46.793 -19.383  1.00  0.00     0.162 HD
HETATM   12  O1  UNL     1      -5.397  49.220 -19.561  1.00  0.00    -0.271 OA
BRANCH  10  13
HETATM   13  C16 UNL     1      -7.600  48.444 -18.038  1.00  0.00     0.122 C 
BRANCH  13  14
HETATM   14  C15 UNL     1      -9.070  48.791 -18.260  1.00  0.00     0.020 C 
BRANCH  14  15
HETATM   15  C14 UNL     1      -9.987  47.564 -18.270  1.00  0.00     0.002 C 
BRANCH  15  16
HETATM   16  C13 UNL     1     -11.442  47.833 -18.672  1.00  0.00     0.000 C 
BRANCH  16  17
HETATM   17  C12 UNL     1     -12.491  47.261 -17.710  1.00  0.00     0.000 C 
BRANCH  17  18
HETATM   18  C11 UNL     1     -13.802  46.784 -18.334  1.00  0.00     0.000 C 
BRANCH  18  19
HETATM   19  C10 UNL     1     -14.116  47.448 -19.677  1.00  0.00     0.000 C 
BRANCH  19  20
HETATM   20  C9  UNL     1     -15.511  47.050 -20.167  1.00  0.00     0.000 C 
BRANCH  20  21
HETATM   21  C8  UNL     1     -16.641  47.605 -19.297  1.00  0.00     0.000 C 
BRANCH  21  22
HETATM   22  C7  UNL     1     -17.809  46.648 -19.043  1.00  0.00     0.000 C 
BRANCH  22  23
HETATM   23  C6  UNL     1     -17.541  45.172 -19.358  1.00  0.00     0.000 C 
BRANCH  23  24
HETATM   24  C5  UNL     1     -18.600  44.544 -20.268  1.00  0.00     0.000 C 
BRANCH  24  25
HETATM   25  C4  UNL     1     -19.187  45.519 -21.292  1.00  0.00     0.000 C 
BRANCH  25  26
HETATM   26  C3  UNL     1     -18.248  45.953 -22.422  1.00  0.00    -0.000 C 
BRANCH  26  27
HETATM   27  C2  UNL     1     -18.850  45.777 -23.816  1.00  0.00    -0.005 C 
HETATM   28  C1  UNL     1     -18.854  47.089 -24.586  1.00  0.00     0.005 C 
ENDBRANCH  26  27
ENDBRANCH  25  26
ENDBRANCH  24  25
ENDBRANCH  23  24
ENDBRANCH  22  23
ENDBRANCH  21  22
ENDBRANCH  20  21
ENDBRANCH  19  20
ENDBRANCH  18  19
ENDBRANCH  17  18
ENDBRANCH  16  17
ENDBRANCH  15  16
ENDBRANCH  14  15
ENDBRANCH  13  14
ENDBRANCH  10  13
ENDBRANCH   8   9
BRANCH   8  29
HETATM   29  N2  UNL     1      -5.723  45.831 -20.672  1.00  0.00     0.092 N 
HETATM   30  H36 UNL     1      -5.337  45.676 -19.737  1.00  0.00     0.313 HD
HETATM   31  H37 UNL     1      -6.731  45.729 -20.513  1.00  0.00     0.313 HD
ENDBRANCH   8  29
ENDBRANCH   7   8
ENDBRANCH   1   7
BRANCH   4  32
HETATM   32  O2  UNL     1      -2.536  49.310 -26.453  1.00  0.00    -0.275 OA
BRANCH  32  33
HETATM   33  P1  UNL     1      -2.289  50.847 -26.868  1.00  0.00     0.267 P 
HETATM   34  O3  UNL     1      -3.232  51.830 -26.238  1.00  0.00    -0.652 OA
BRANCH  33  35
HETATM   35  O4  UNL     1      -2.538  50.770 -28.459  1.00  0.00    -0.327 OA
HETATM   36  H42 UNL     1      -3.488  50.796 -28.687  1.00  0.00     0.220 HD
ENDBRANCH  33  35
BRANCH  33  37
HETATM   37  C24 UNL     1      -0.522  51.121 -26.682  1.00  0.00     0.293 C 
BRANCH  37  38
HETATM   38  O5  UNL     1      -0.228  52.527 -26.680  1.00  0.00    -0.371 OA
BRANCH  38  39
HETATM   39  C25 UNL     1      -0.292  53.144 -25.378  1.00  0.00     0.164 C 
BRANCH  39  40
HETATM   40  C26 UNL     1       0.222  54.591 -25.466  1.00  0.00     0.197 C 
BRANCH  40  41
HETATM   41  O6  UNL     1      -0.140  55.192 -26.710  1.00  0.00    -0.398 OA
HETATM   42  H48 UNL     1      -1.107  55.297 -26.709  1.00  0.00     0.209 HD
ENDBRANCH  40  41
ENDBRANCH  39  40
BRANCH  39  43
HETATM   43  C27 UNL     1       0.612  52.329 -24.431  1.00  0.00     0.167 C 
BRANCH  43  44
HETATM   44  N3  UNL     1       0.509  52.796 -23.045  1.00  0.00    -0.307 N 
HETATM   45  C28 UNL     1       1.315  53.823 -22.614  1.00  0.00     0.099 A 
HETATM   46  C29 UNL     1       1.316  54.205 -21.339  1.00  0.00     0.059 A 
HETATM   47  C30 UNL     1       0.424  53.446 -20.443  1.00  0.00     0.082 A 
HETATM   48  N5  UNL     1      -0.327  52.465 -20.837  1.00  0.00    -0.299 N 
HETATM   49  C31 UNL     1      -0.317  52.094 -22.162  1.00  0.00     0.327 A 
ATOM     50  H5  UNL     1      -0.921  51.972 -20.169  1.00  0.00     0.171 HD
HETATM   51  O7  UNL     1      -1.004  51.152 -22.558  1.00  0.00    -0.246 OA
BRANCH  47  52
HETATM   52  N4  UNL     1       0.379  53.765 -19.113  1.00  0.00    -0.288 NA
HETATM   53  H53 UNL     1       1.257  54.059 -18.702  1.00  0.00     0.125 HD
HETATM   54  H54 UNL     1      -0.087  53.046 -18.571  1.00  0.00     0.125 HD
ENDBRANCH  47  52
ENDBRANCH  43  44
ENDBRANCH  39  43
ENDBRANCH  38  39
ENDBRANCH  37  38
ENDBRANCH  33  37
ENDBRANCH  32  33
ENDBRANCH   4  32
TORSDOF 30
ENDMDL
MODEL 5
REMARK minimizedAffinity -6.66405678
REMARK CNNscore 0.198735371
REMARK CNNaffinity 5.54007864
REMARK  30 active torsions:
REMARK  status: ('A' for Active; 'I' for Inactive)
REMARK    1  A    between atoms: C2_2  and  C3_3 
REMARK    2  A    between atoms: C3_3  and  C4_4 
REMARK    3  A    between atoms: C4_4  and  C5_5 
REMARK    4  A    between atoms: C5_5  and  C6_6 
REMARK    5  A    between atoms: C6_6  and  C7_7 
REMARK    6  A    between atoms: C7_7  and  C8_8 
REMARK    7  A    between atoms: C8_8  and  C9_9 
REMARK    8  A    between atoms: C9_9  and  C10_10 
REMARK    9  A    between atoms: C10_10  and  C11_11 
REMARK   10  A    between atoms: C11_11  and  C12_12 
REMARK   11  A    between atoms: C12_12  and  C13_13 
REMARK   12  A    between atoms: C13_13  and  C14_14 
REMARK   13  A    between atoms: C14_14  and  C15_15 
REMARK   14  A    between atoms: C15_15  and  C16_16 
REMARK   15  A    between atoms: C16_16  and  N1_17 
REMARK       I    between atoms: N1_17  and  C17_18 
REMARK   16  A    between atoms: C17_18  and  C18_20 
REMARK   17  A    between atoms: C18_20  and  N2_21 
REMARK   18  A    between atoms: C18_20  and  C19_22 
REMARK   19  A    between atoms: C19_22  and  C20_23 
REMARK   20  A    between atoms: C23_26  and  O2_27 
REMARK   21  A    between atoms: O2_27  and  P1_28 
REMARK   22  A    between atoms: P1_28  and  O4_30 
REMARK   23  A    between atoms: P1_28  and  C24_31 
REMARK   24  A    between atoms: C24_31  and  O5_32 
REMARK   25  A    between atoms: O5_32  and  C25_33 
REMARK   26  A    between atoms: C25_33  and  C26_34 
REMARK   27  A    between atoms: C25_33  and  C27_36 
REMARK   28  A    between atoms: C26_34  and  O6_35 
REMARK   29  A    between atoms: C27_36  and  N3_37 
REMARK   30  A    between atoms: C30_40  and  N4_41 
ROOT
HETATM    1  C20 UNL     1      -7.765  48.705 -19.819  1.00  0.00    -0.056 A 
HETATM    2  C21 UNL     1      -7.877  48.287 -21.151  1.00  0.00     0.010 A 
HETATM    3  C22 UNL     1      -6.833  48.508 -22.051  1.00  0.00     0.038 A 
HETATM    4  C23 UNL     1      -5.662  49.138 -21.632  1.00  0.00     0.078 A 
HETATM    5  C32 UNL     1      -5.537  49.559 -20.311  1.00  0.00     0.038 A 
HETATM    6  C33 UNL     1      -6.585  49.342 -19.411  1.00  0.00     0.010 A 
ENDROOT
BRANCH   1   7
HETATM    7  C19 UNL     1      -8.897  48.489 -18.843  1.00  0.00     0.083 C 
BRANCH   7   8
HETATM    8  C18 UNL     1      -8.884  47.150 -18.081  1.00  0.00     0.313 C 
BRANCH   8   9
HETATM    9  C17 UNL     1      -9.316  47.284 -16.602  1.00  0.00     0.251 C 
HETATM   10  N1  UNL     1      -8.444  46.732 -15.687  1.00  0.00    -0.359 N 
HETATM   11  H34 UNL     1      -7.558  46.349 -15.998  1.00  0.00     0.162 HD
HETATM   12  O1  UNL     1     -10.383  47.801 -16.269  1.00  0.00    -0.271 OA
BRANCH  10  13
HETATM   13  C16 UNL     1      -8.732  46.778 -14.268  1.00  0.00     0.122 C 
BRANCH  13  14
HETATM   14  C15 UNL     1      -7.470  46.577 -13.431  1.00  0.00     0.020 C 
BRANCH  14  15
HETATM   15  C14 UNL     1      -7.478  47.376 -12.125  1.00  0.00     0.002 C 
BRANCH  15  16
HETATM   16  C13 UNL     1      -6.099  47.805 -11.608  1.00  0.00     0.000 C 
BRANCH  16  17
HETATM   17  C12 UNL     1      -6.112  48.489 -10.236  1.00  0.00     0.000 C 
BRANCH  17  18
HETATM   18  C11 UNL     1      -5.779  49.981 -10.213  1.00  0.00     0.000 C 
BRANCH  18  19
HETATM   19  C10 UNL     1      -4.466  50.325 -10.921  1.00  0.00     0.000 C 
BRANCH  19  20
HETATM   20  C9  UNL     1      -3.868  51.617 -10.359  1.00  0.00     0.000 C 
BRANCH  20  21
HETATM   21  C8  UNL     1      -4.064  52.826 -11.277  1.00  0.00     0.000 C 
BRANCH  21  22
HETATM   22  C7  UNL     1      -3.402  54.124 -10.808  1.00  0.00     0.000 C 
BRANCH  22  23
HETATM   23  C6  UNL     1      -2.134  53.958  -9.963  1.00  0.00     0.000 C 
BRANCH  23  24
HETATM   24  C5  UNL     1      -1.152  55.124 -10.105  1.00  0.00     0.000 C 
BRANCH  24  25
HETATM   25  C4  UNL     1       0.192  54.724 -10.719  1.00  0.00     0.000 C 
BRANCH  25  26
HETATM   26  C3  UNL     1       1.433  55.011  -9.867  1.00  0.00    -0.000 C 
BRANCH  26  27
HETATM   27  C2  UNL     1       2.517  55.790 -10.613  1.00  0.00    -0.005 C 
HETATM   28  C1  UNL     1       3.760  54.939 -10.827  1.00  0.00     0.005 C 
ENDBRANCH  26  27
ENDBRANCH  25  26
ENDBRANCH  24  25
ENDBRANCH  23  24
ENDBRANCH  22  23
ENDBRANCH  21  22
ENDBRANCH  20  21
ENDBRANCH  19  20
ENDBRANCH  18  19
ENDBRANCH  17  18
ENDBRANCH  16  17
ENDBRANCH  15  16
ENDBRANCH  14  15
ENDBRANCH  13  14
ENDBRANCH  10  13
ENDBRANCH   8   9
BRANCH   8  29
HETATM   29  N2  UNL     1      -9.706  46.112 -18.751  1.00  0.00     0.092 N 
HETATM   30  H36 UNL     1      -9.695  45.287 -18.146  1.00  0.00     0.313 HD
HETATM   31  H37 UNL     1     -10.682  46.420 -18.684  1.00  0.00     0.313 HD
ENDBRANCH   8  29
ENDBRANCH   7   8
ENDBRANCH   1   7
BRANCH   4  32
HETATM   32  O2  UNL     1      -4.708  49.328 -22.589  1.00  0.00    -0.275 OA
BRANCH  32  33
HETATM   33  P1  UNL     1      -4.593  50.634 -23.525  1.00  0.00     0.267 P 
HETATM   34  O3  UNL     1      -5.376  51.823 -23.049  1.00  0.00    -0.652 OA
BRANCH  33  35
HETATM   35  O4  UNL     1      -5.211  50.068 -24.902  1.00  0.00    -0.327 OA
HETATM   36  H42 UNL     1      -6.188  50.079 -24.902  1.00  0.00     0.220 HD
ENDBRANCH  33  35
BRANCH  33  37
HETATM   37  C24 UNL     1      -2.837  50.843 -23.850  1.00  0.00     0.293 C 
BRANCH  37  38
HETATM   38  O5  UNL     1      -2.501  50.337 -25.152  1.00  0.00    -0.371 OA
BRANCH  38  39
HETATM   39  C25 UNL     1      -3.048  51.104 -26.244  1.00  0.00     0.164 C 
BRANCH  39  40
HETATM   40  C26 UNL     1      -2.800  50.363 -27.569  1.00  0.00     0.197 C 
BRANCH  40  41
HETATM   41  O6  UNL     1      -3.424  51.037 -28.663  1.00  0.00    -0.398 OA
HETATM   42  H48 UNL     1      -2.956  51.882 -28.786  1.00  0.00     0.209 HD
ENDBRANCH  40  41
ENDBRANCH  39  40
BRANCH  39  43
HETATM   43  C27 UNL     1      -2.326  52.465 -26.267  1.00  0.00     0.167 C 
BRANCH  43  44
HETATM   44  N3  UNL     1      -0.890  52.315 -26.523  1.00  0.00    -0.307 N 
HETATM   45  C28 UNL     1      -0.469  51.727 -27.692  1.00  0.00     0.099 A 
HETATM   46  C29 UNL     1       0.822  51.487 -27.913  1.00  0.00     0.059 A 
HETATM   47  C30 UNL     1       1.738  51.869 -26.823  1.00  0.00     0.082 A 
HETATM   48  N5  UNL     1       1.348  52.409 -25.709  1.00  0.00    -0.299 N 
HETATM   49  C31 UNL     1       0.010  52.655 -25.509  1.00  0.00     0.327 A 
ATOM     50  H5  UNL     1       2.030  52.648 -24.988  1.00  0.00     0.171 HD
HETATM   51  O7  UNL     1      -0.389  53.145 -24.453  1.00  0.00    -0.246 OA
BRANCH  47  52
HETATM   52  N4  UNL     1       3.080  51.640 -26.964  1.00  0.00    -0.288 NA
HETATM   53  H53 UNL     1       3.332  50.795 -27.463  1.00  0.00     0.125 HD
HETATM   54  H54 UNL     1       3.570  51.735 -26.081  1.00  0.00     0.125 HD
ENDBRANCH  47  52
ENDBRANCH  43  44
ENDBRANCH  39  43
ENDBRANCH  38  39
ENDBRANCH  37  38
ENDBRANCH  33  37
ENDBRANCH  32  33
ENDBRANCH   4  32
TORSDOF 30
ENDMDL
MODEL 6
REMARK minimizedAffinity -7.06523752
REMARK CNNscore 0.186669603
REMARK CNNaffinity 5.70285416
REMARK  30 active torsions:
REMARK  status: ('A' for Active; 'I' for Inactive)
REMARK    1  A    between atoms: C2_2  and  C3_3 
REMARK    2  A    between atoms: C3_3  and  C4_4 
REMARK    3  A    between atoms: C4_4  and  C5_5 
REMARK    4  A    between atoms: C5_5  and  C6_6 
REMARK    5  A    between atoms: C6_6  and  C7_7 
REMARK    6  A    between atoms: C7_7  and  C8_8 
REMARK    7  A    between atoms: C8_8  and  C9_9 
REMARK    8  A    between atoms: C9_9  and  C10_10 
REMARK    9  A    between atoms: C10_10  and  C11_11 
REMARK   10  A    between atoms: C11_11  and  C12_12 
REMARK   11  A    between atoms: C12_12  and  C13_13 
REMARK   12  A    between atoms: C13_13  and  C14_14 
REMARK   13  A    between atoms: C14_14  and  C15_15 
REMARK   14  A    between atoms: C15_15  and  C16_16 
REMARK   15  A    between atoms: C16_16  and  N1_17 
REMARK       I    between atoms: N1_17  and  C17_18 
REMARK   16  A    between atoms: C17_18  and  C18_20 
REMARK   17  A    between atoms: C18_20  and  N2_21 
REMARK   18  A    between atoms: C18_20  and  C19_22 
REMARK   19  A    between atoms: C19_22  and  C20_23 
REMARK   20  A    between atoms: C23_26  and  O2_27 
REMARK   21  A    between atoms: O2_27  and  P1_28 
REMARK   22  A    between atoms: P1_28  and  O4_30 
REMARK   23  A    between atoms: P1_28  and  C24_31 
REMARK   24  A    between atoms: C24_31  and  O5_32 
REMARK   25  A    between atoms: O5_32  and  C25_33 
REMARK   26  A    between atoms: C25_33  and  C26_34 
REMARK   27  A    between atoms: C25_33  and  C27_36 
REMARK   28  A    between atoms: C26_34  and  O6_35 
REMARK   29  A    between atoms: C27_36  and  N3_37 
REMARK   30  A    between atoms: C30_40  and  N4_41 
ROOT
HETATM    1  C20 UNL     1      -6.092  47.709 -27.505  1.00  0.00    -0.056 A 
HETATM    2  C21 UNL     1      -6.199  47.828 -26.114  1.00  0.00     0.010 A 
HETATM    3  C22 UNL     1      -5.189  48.450 -25.378  1.00  0.00     0.038 A 
HETATM    4  C23 UNL     1      -4.066  48.970 -26.021  1.00  0.00     0.078 A 
HETATM    5  C32 UNL     1      -3.948  48.858 -27.404  1.00  0.00     0.038 A 
HETATM    6  C33 UNL     1      -4.957  48.231 -28.140  1.00  0.00     0.010 A 
ENDROOT
BRANCH   1   7
HETATM    7  C19 UNL     1      -7.171  47.019 -28.308  1.00  0.00     0.083 C 
BRANCH   7   8
HETATM    8  C18 UNL     1      -8.149  47.944 -29.057  1.00  0.00     0.313 C 
BRANCH   8   9
HETATM    9  C17 UNL     1      -9.386  47.202 -29.614  1.00  0.00     0.251 C 
HETATM   10  N1  UNL     1     -10.523  47.973 -29.740  1.00  0.00    -0.359 N 
HETATM   11  H34 UNL     1     -10.484  48.968 -29.546  1.00  0.00     0.162 HD
HETATM   12  O1  UNL     1      -9.372  45.999 -29.880  1.00  0.00    -0.271 OA
BRANCH  10  13
HETATM   13  C16 UNL     1     -11.756  47.400 -30.239  1.00  0.00     0.122 C 
BRANCH  13  14
HETATM   14  C15 UNL     1     -12.805  47.275 -29.136  1.00  0.00     0.020 C 
BRANCH  14  15
HETATM   15  C14 UNL     1     -13.148  45.823 -28.791  1.00  0.00     0.002 C 
BRANCH  15  16
HETATM   16  C13 UNL     1     -14.527  45.607 -28.154  1.00  0.00     0.000 C 
BRANCH  16  17
HETATM   17  C12 UNL     1     -14.686  46.204 -26.750  1.00  0.00     0.000 C 
BRANCH  17  18
HETATM   18  C11 UNL     1     -15.533  45.405 -25.760  1.00  0.00     0.000 C 
BRANCH  18  19
HETATM   19  C10 UNL     1     -16.951  45.954 -25.588  1.00  0.00     0.000 C 
BRANCH  19  20
HETATM   20  C9  UNL     1     -17.057  46.793 -24.311  1.00  0.00     0.000 C 
BRANCH  20  21
HETATM   21  C8  UNL     1     -17.833  46.096 -23.191  1.00  0.00     0.000 C 
BRANCH  21  22
HETATM   22  C7  UNL     1     -17.352  46.397 -21.769  1.00  0.00     0.000 C 
BRANCH  22  23
HETATM   23  C6  UNL     1     -16.363  45.388 -21.172  1.00  0.00     0.000 C 
BRANCH  23  24
HETATM   24  C5  UNL     1     -15.468  45.986 -20.084  1.00  0.00     0.000 C 
BRANCH  24  25
HETATM   25  C4  UNL     1     -16.132  47.120 -19.297  1.00  0.00     0.000 C 
BRANCH  25  26
HETATM   26  C3  UNL     1     -15.288  47.748 -18.183  1.00  0.00    -0.000 C 
BRANCH  26  27
HETATM   27  C2  UNL     1     -15.023  49.240 -18.387  1.00  0.00    -0.005 C 
HETATM   28  C1  UNL     1     -16.072  50.089 -17.685  1.00  0.00     0.005 C 
ENDBRANCH  26  27
ENDBRANCH  25  26
ENDBRANCH  24  25
ENDBRANCH  23  24
ENDBRANCH  22  23
ENDBRANCH  21  22
ENDBRANCH  20  21
ENDBRANCH  19  20
ENDBRANCH  18  19
ENDBRANCH  17  18
ENDBRANCH  16  17
ENDBRANCH  15  16
ENDBRANCH  14  15
ENDBRANCH  13  14
ENDBRANCH  10  13
ENDBRANCH   8   9
BRANCH   8  29
HETATM   29  N2  UNL     1      -8.587  49.094 -28.226  1.00  0.00     0.092 N 
HETATM   30  H36 UNL     1      -9.280  49.610 -28.774  1.00  0.00     0.313 HD
HETATM   31  H37 UNL     1      -9.153  48.708 -27.464  1.00  0.00     0.313 HD
ENDBRANCH   8  29
ENDBRANCH   7   8
ENDBRANCH   1   7
BRANCH   4  32
HETATM   32  O2  UNL     1      -3.125  49.540 -25.216  1.00  0.00    -0.275 OA
BRANCH  32  33
HETATM   33  P1  UNL     1      -3.285  50.965 -24.481  1.00  0.00     0.267 P 
HETATM   34  O3  UNL     1      -4.701  51.375 -24.202  1.00  0.00    -0.652 OA
BRANCH  33  35
HETATM   35  O4  UNL     1      -2.621  51.942 -25.578  1.00  0.00    -0.327 OA
HETATM   36  H42 UNL     1      -3.244  52.172 -26.294  1.00  0.00     0.220 HD
ENDBRANCH  33  35
BRANCH  33  37
HETATM   37  C24 UNL     1      -2.120  50.936 -23.111  1.00  0.00     0.293 C 
BRANCH  37  38
HETATM   38  O5  UNL     1      -1.485  52.216 -22.964  1.00  0.00    -0.371 OA
BRANCH  38  39
HETATM   39  C25 UNL     1      -0.112  52.150 -22.526  1.00  0.00     0.164 C 
BRANCH  39  40
HETATM   40  C26 UNL     1      -0.021  52.565 -21.048  1.00  0.00     0.197 C 
BRANCH  40  41
HETATM   41  O6  UNL     1      -0.799  51.700 -20.220  1.00  0.00    -0.398 OA
HETATM   42  H48 UNL     1      -0.373  50.826 -20.234  1.00  0.00     0.209 HD
ENDBRANCH  40  41
ENDBRANCH  39  40
BRANCH  39  43
HETATM   43  C27 UNL     1       0.702  53.131 -23.392  1.00  0.00     0.167 C 
BRANCH  43  44
HETATM   44  N3  UNL     1       0.544  52.854 -24.823  1.00  0.00    -0.307 N 
HETATM   45  C28 UNL     1       0.784  51.586 -25.298  1.00  0.00     0.099 A 
HETATM   46  C29 UNL     1       0.744  51.324 -26.603  1.00  0.00     0.059 A 
HETATM   47  C30 UNL     1       0.453  52.474 -27.478  1.00  0.00     0.082 A 
HETATM   48  N5  UNL     1       0.243  53.678 -27.040  1.00  0.00    -0.299 N 
HETATM   49  C31 UNL     1       0.280  53.922 -25.687  1.00  0.00     0.327 A 
ATOM     50  H5  UNL     1       0.051  54.436 -27.695  1.00  0.00     0.171 HD
HETATM   51  O7  UNL     1       0.106  55.058 -25.246  1.00  0.00    -0.246 OA
BRANCH  47  52
HETATM   52  N4  UNL     1       0.412  52.293 -28.833  1.00  0.00    -0.288 NA
HETATM   53  H53 UNL     1       1.072  51.621 -29.207  1.00  0.00     0.125 HD
HETATM   54  H54 UNL     1       0.427  53.177 -29.330  1.00  0.00     0.125 HD
ENDBRANCH  47  52
ENDBRANCH  43  44
ENDBRANCH  39  43
ENDBRANCH  38  39
ENDBRANCH  37  38
ENDBRANCH  33  37
ENDBRANCH  32  33
ENDBRANCH   4  32
TORSDOF 30
ENDMDL
MODEL 7
REMARK minimizedAffinity -6.87302351
REMARK CNNscore 0.173769519
REMARK CNNaffinity 6.46183062
REMARK  30 active torsions:
REMARK  status: ('A' for Active; 'I' for Inactive)
REMARK    1  A    between atoms: C2_2  and  C3_3 
REMARK    2  A    between atoms: C3_3  and  C4_4 
REMARK    3  A    between atoms: C4_4  and  C5_5 
REMARK    4  A    between atoms: C5_5  and  C6_6 
REMARK    5  A    between atoms: C6_6  and  C7_7 
REMARK    6  A    between atoms: C7_7  and  C8_8 
REMARK    7  A    between atoms: C8_8  and  C9_9 
REMARK    8  A    between atoms: C9_9  and  C10_10 
REMARK    9  A    between atoms: C10_10  and  C11_11 
REMARK   10  A    between atoms: C11_11  and  C12_12 
REMARK   11  A    between atoms: C12_12  and  C13_13 
REMARK   12  A    between atoms: C13_13  and  C14_14 
REMARK   13  A    between atoms: C14_14  and  C15_15 
REMARK   14  A    between atoms: C15_15  and  C16_16 
REMARK   15  A    between atoms: C16_16  and  N1_17 
REMARK       I    between atoms: N1_17  and  C17_18 
REMARK   16  A    between atoms: C17_18  and  C18_20 
REMARK   17  A    between atoms: C18_20  and  N2_21 
REMARK   18  A    between atoms: C18_20  and  C19_22 
REMARK   19  A    between atoms: C19_22  and  C20_23 
REMARK   20  A    between atoms: C23_26  and  O2_27 
REMARK   21  A    between atoms: O2_27  and  P1_28 
REMARK   22  A    between atoms: P1_28  and  O4_30 
REMARK   23  A    between atoms: P1_28  and  C24_31 
REMARK   24  A    between atoms: C24_31  and  O5_32 
REMARK   25  A    between atoms: O5_32  and  C25_33 
REMARK   26  A    between atoms: C25_33  and  C26_34 
REMARK   27  A    between atoms: C25_33  and  C27_36 
REMARK   28  A    between atoms: C26_34  and  O6_35 
REMARK   29  A    between atoms: C27_36  and  N3_37 
REMARK   30  A    between atoms: C30_40  and  N4_41 
ROOT
HETATM    1  C20 UNL     1       0.261  50.657 -16.632  1.00  0.00    -0.056 A 
HETATM    2  C21 UNL     1      -0.336  49.424 -16.920  1.00  0.00     0.010 A 
HETATM    3  C22 UNL     1      -0.861  49.171 -18.189  1.00  0.00     0.038 A 
HETATM    4  C23 UNL     1      -0.788  50.141 -19.188  1.00  0.00     0.078 A 
HETATM    5  C32 UNL     1      -0.197  51.372 -18.915  1.00  0.00     0.038 A 
HETATM    6  C33 UNL     1       0.324  51.626 -17.643  1.00  0.00     0.010 A 
ENDROOT
BRANCH   1   7
HETATM    7  C19 UNL     1       0.813  50.948 -15.256  1.00  0.00     0.083 C 
BRANCH   7   8
HETATM    8  C18 UNL     1       0.016  51.961 -14.411  1.00  0.00     0.313 C 
BRANCH   8   9
HETATM    9  C17 UNL     1      -1.226  51.342 -13.728  1.00  0.00     0.251 C 
HETATM   10  N1  UNL     1      -2.121  52.254 -13.207  1.00  0.00    -0.359 N 
HETATM   11  H34 UNL     1      -1.976  53.247 -13.355  1.00  0.00     0.162 HD
HETATM   12  O1  UNL     1      -1.381  50.125 -13.614  1.00  0.00    -0.271 OA
BRANCH  10  13
HETATM   13  C16 UNL     1      -3.322  51.810 -12.531  1.00  0.00     0.122 C 
BRANCH  13  14
HETATM   14  C15 UNL     1      -3.560  52.587 -11.239  1.00  0.00     0.020 C 
BRANCH  14  15
HETATM   15  C14 UNL     1      -2.286  53.221 -10.671  1.00  0.00     0.002 C 
BRANCH  15  16
HETATM   16  C13 UNL     1      -2.413  54.692 -10.255  1.00  0.00     0.000 C 
BRANCH  16  17
HETATM   17  C12 UNL     1      -1.092  55.471 -10.239  1.00  0.00     0.000 C 
BRANCH  17  18
HETATM   18  C11 UNL     1      -0.291  55.430  -8.939  1.00  0.00     0.000 C 
BRANCH  18  19
HETATM   19  C10 UNL     1       1.217  55.282  -9.155  1.00  0.00     0.000 C 
BRANCH  19  20
HETATM   20  C9  UNL     1       1.513  54.690 -10.535  1.00  0.00     0.000 C 
BRANCH  20  21
HETATM   21  C8  UNL     1       2.962  54.224 -10.697  1.00  0.00     0.000 C 
BRANCH  21  22
HETATM   22  C7  UNL     1       3.978  55.326 -11.014  1.00  0.00     0.000 C 
BRANCH  22  23
HETATM   23  C6  UNL     1       4.885  55.749  -9.853  1.00  0.00     0.000 C 
BRANCH  23  24
HETATM   24  C5  UNL     1       6.024  54.763  -9.582  1.00  0.00     0.000 C 
BRANCH  24  25
HETATM   25  C4  UNL     1       6.930  55.176  -8.418  1.00  0.00     0.000 C 
BRANCH  25  26
HETATM   26  C3  UNL     1       6.226  55.473  -7.090  1.00  0.00    -0.000 C 
BRANCH  26  27
HETATM   27  C2  UNL     1       7.029  56.388  -6.166  1.00  0.00    -0.005 C 
HETATM   28  C1  UNL     1       6.282  57.682  -5.882  1.00  0.00     0.005 C 
ENDBRANCH  26  27
ENDBRANCH  25  26
ENDBRANCH  24  25
ENDBRANCH  23  24
ENDBRANCH  22  23
ENDBRANCH  21  22
ENDBRANCH  20  21
ENDBRANCH  19  20
ENDBRANCH  18  19
ENDBRANCH  17  18
ENDBRANCH  16  17
ENDBRANCH  15  16
ENDBRANCH  14  15
ENDBRANCH  13  14
ENDBRANCH  10  13
ENDBRANCH   8   9
BRANCH   8  29
HETATM   29  N2  UNL     1       0.861  52.637 -13.396  1.00  0.00     0.092 N 
HETATM   30  H36 UNL     1       0.242  53.233 -12.842  1.00  0.00     0.313 HD
HETATM   31  H37 UNL     1       1.139  51.920 -12.718  1.00  0.00     0.313 HD
ENDBRANCH   8  29
ENDBRANCH   7   8
ENDBRANCH   1   7
BRANCH   4  32
HETATM   32  O2  UNL     1      -1.346  49.809 -20.387  1.00  0.00    -0.275 OA
BRANCH  32  33
HETATM   33  P1  UNL     1      -2.889  50.056 -20.781  1.00  0.00     0.267 P 
HETATM   34  O3  UNL     1      -3.555  51.186 -20.051  1.00  0.00    -0.652 OA
BRANCH  33  35
HETATM   35  O4  UNL     1      -3.537  48.645 -20.345  1.00  0.00    -0.327 OA
HETATM   36  H42 UNL     1      -3.724  48.604 -19.388  1.00  0.00     0.220 HD
ENDBRANCH  33  35
BRANCH  33  37
HETATM   37  C24 UNL     1      -2.935  50.058 -22.579  1.00  0.00     0.293 C 
BRANCH  37  38
HETATM   38  O5  UNL     1      -2.811  51.398 -23.084  1.00  0.00    -0.371 OA
BRANCH  38  39
HETATM   39  C25 UNL     1      -2.476  51.474 -24.484  1.00  0.00     0.164 C 
BRANCH  39  40
HETATM   40  C26 UNL     1      -3.323  50.462 -25.273  1.00  0.00     0.197 C 
BRANCH  40  41
HETATM   41  O6  UNL     1      -2.527  49.369 -25.733  1.00  0.00    -0.398 OA
HETATM   42  H48 UNL     1      -2.247  48.865 -24.949  1.00  0.00     0.209 HD
ENDBRANCH  40  41
ENDBRANCH  39  40
BRANCH  39  43
HETATM   43  C27 UNL     1      -0.982  51.124 -24.627  1.00  0.00     0.167 C 
BRANCH  43  44
HETATM   44  N3  UNL     1      -0.125  52.125 -23.984  1.00  0.00    -0.307 N 
HETATM   45  C28 UNL     1       0.150  52.019 -22.642  1.00  0.00     0.099 A 
HETATM   46  C29 UNL     1       0.843  52.963 -22.008  1.00  0.00     0.059 A 
HETATM   47  C30 UNL     1       1.262  54.111 -22.831  1.00  0.00     0.082 A 
HETATM   48  N5  UNL     1       0.992  54.228 -24.095  1.00  0.00    -0.299 N 
HETATM   49  C31 UNL     1       0.282  53.236 -24.730  1.00  0.00     0.327 A 
ATOM     50  H5  UNL     1       1.304  55.050 -24.613  1.00  0.00     0.171 HD
HETATM   51  O7  UNL     1      -0.006  53.332 -25.923  1.00  0.00    -0.246 OA
BRANCH  47  52
HETATM   52  N4  UNL     1       1.963  55.133 -22.251  1.00  0.00    -0.288 NA
HETATM   53  H53 UNL     1       1.706  55.357 -21.297  1.00  0.00     0.125 HD
HETATM   54  H54 UNL     1       1.998  55.951 -22.850  1.00  0.00     0.125 HD
ENDBRANCH  47  52
ENDBRANCH  43  44
ENDBRANCH  39  43
ENDBRANCH  38  39
ENDBRANCH  37  38
ENDBRANCH  33  37
ENDBRANCH  32  33
ENDBRANCH   4  32
TORSDOF 30
ENDMDL
MODEL 8
REMARK minimizedAffinity -6.85854816
REMARK CNNscore 0.169521913
REMARK CNNaffinity 5.83482599
REMARK  30 active torsions:
REMARK  status: ('A' for Active; 'I' for Inactive)
REMARK    1  A    between atoms: C2_2  and  C3_3 
REMARK    2  A    between atoms: C3_3  and  C4_4 
REMARK    3  A    between atoms: C4_4  and  C5_5 
REMARK    4  A    between atoms: C5_5  and  C6_6 
REMARK    5  A    between atoms: C6_6  and  C7_7 
REMARK    6  A    between atoms: C7_7  and  C8_8 
REMARK    7  A    between atoms: C8_8  and  C9_9 
REMARK    8  A    between atoms: C9_9  and  C10_10 
REMARK    9  A    between atoms: C10_10  and  C11_11 
REMARK   10  A    between atoms: C11_11  and  C12_12 
REMARK   11  A    between atoms: C12_12  and  C13_13 
REMARK   12  A    between atoms: C13_13  and  C14_14 
REMARK   13  A    between atoms: C14_14  and  C15_15 
REMARK   14  A    between atoms: C15_15  and  C16_16 
REMARK   15  A    between atoms: C16_16  and  N1_17 
REMARK       I    between atoms: N1_17  and  C17_18 
REMARK   16  A    between atoms: C17_18  and  C18_20 
REMARK   17  A    between atoms: C18_20  and  N2_21 
REMARK   18  A    between atoms: C18_20  and  C19_22 
REMARK   19  A    between atoms: C19_22  and  C20_23 
REMARK   20  A    between atoms: C23_26  and  O2_27 
REMARK   21  A    between atoms: O2_27  and  P1_28 
REMARK   22  A    between atoms: P1_28  and  O4_30 
REMARK   23  A    between atoms: P1_28  and  C24_31 
REMARK   24  A    between atoms: C24_31  and  O5_32 
REMARK   25  A    between atoms: O5_32  and  C25_33 
REMARK   26  A    between atoms: C25_33  and  C26_34 
REMARK   27  A    between atoms: C25_33  and  C27_36 
REMARK   28  A    between atoms: C26_34  and  O6_35 
REMARK   29  A    between atoms: C27_36  and  N3_37 
REMARK   30  A    between atoms: C30_40  and  N4_41 
ROOT
HETATM    1  C20 UNL     1       0.166  50.209 -17.101  1.00  0.00    -0.056 A 
HETATM    2  C21 UNL     1      -0.641  49.072 -16.963  1.00  0.00     0.010 A 
HETATM    3  C22 UNL     1      -1.577  48.747 -17.946  1.00  0.00     0.038 A 
HETATM    4  C23 UNL     1      -1.713  49.544 -19.082  1.00  0.00     0.078 A 
HETATM    5  C32 UNL     1      -0.916  50.677 -19.232  1.00  0.00     0.038 A 
HETATM    6  C33 UNL     1       0.018  51.005 -18.245  1.00  0.00     0.010 A 
ENDROOT
BRANCH   1   7
HETATM    7  C19 UNL     1       1.168  50.581 -16.033  1.00  0.00     0.083 C 
BRANCH   7   8
HETATM    8  C18 UNL     1       0.923  51.924 -15.318  1.00  0.00     0.313 C 
BRANCH   8   9
HETATM    9  C17 UNL     1       1.261  51.883 -13.809  1.00  0.00     0.251 C 
HETATM   10  N1  UNL     1       0.688  52.886 -13.056  1.00  0.00    -0.359 N 
HETATM   11  H34 UNL     1       0.036  53.534 -13.485  1.00  0.00     0.162 HD
HETATM   12  O1  UNL     1       2.024  51.047 -13.325  1.00  0.00    -0.271 OA
BRANCH  10  13
HETATM   13  C16 UNL     1       0.931  52.973 -11.630  1.00  0.00     0.122 C 
BRANCH  13  14
HETATM   14  C15 UNL     1       0.703  54.388 -11.105  1.00  0.00     0.020 C 
BRANCH  14  15
HETATM   15  C14 UNL     1       1.856  54.906 -10.242  1.00  0.00     0.002 C 
BRANCH  15  16
HETATM   16  C13 UNL     1       2.725  55.993 -10.888  1.00  0.00     0.000 C 
BRANCH  16  17
HETATM   17  C12 UNL     1       4.233  55.711 -10.859  1.00  0.00     0.000 C 
BRANCH  17  18
HETATM   18  C11 UNL     1       4.823  55.291  -9.513  1.00  0.00     0.000 C 
BRANCH  18  19
HETATM   19  C10 UNL     1       6.287  54.854  -9.598  1.00  0.00     0.000 C 
BRANCH  19  20
HETATM   20  C9  UNL     1       6.966  54.960  -8.231  1.00  0.00     0.000 C 
BRANCH  20  21
HETATM   21  C8  UNL     1       6.046  54.584  -7.066  1.00  0.00     0.000 C 
BRANCH  21  22
HETATM   22  C7  UNL     1       6.239  55.398  -5.784  1.00  0.00     0.000 C 
BRANCH  22  23
HETATM   23  C6  UNL     1       6.791  56.816  -5.971  1.00  0.00     0.000 C 
BRANCH  23  24
HETATM   24  C5  UNL     1       5.754  57.804  -6.511  1.00  0.00     0.000 C 
BRANCH  24  25
HETATM   25  C4  UNL     1       4.348  57.590  -5.944  1.00  0.00     0.000 C 
BRANCH  25  26
HETATM   26  C3  UNL     1       3.189  57.802  -6.924  1.00  0.00    -0.000 C 
BRANCH  26  27
HETATM   27  C2  UNL     1       2.295  56.572  -7.086  1.00  0.00    -0.005 C 
HETATM   28  C1  UNL     1       0.832  56.965  -7.220  1.00  0.00     0.005 C 
ENDBRANCH  26  27
ENDBRANCH  25  26
ENDBRANCH  24  25
ENDBRANCH  23  24
ENDBRANCH  22  23
ENDBRANCH  21  22
ENDBRANCH  20  21
ENDBRANCH  19  20
ENDBRANCH  18  19
ENDBRANCH  17  18
ENDBRANCH  16  17
ENDBRANCH  15  16
ENDBRANCH  14  15
ENDBRANCH  13  14
ENDBRANCH  10  13
ENDBRANCH   8   9
BRANCH   8  29
HETATM   29  N2  UNL     1       1.648  53.047 -15.964  1.00  0.00     0.092 N 
HETATM   30  H36 UNL     1       1.484  53.876 -15.388  1.00  0.00     0.313 HD
HETATM   31  H37 UNL     1       2.648  52.874 -15.820  1.00  0.00     0.313 HD
ENDBRANCH   8  29
ENDBRANCH   7   8
ENDBRANCH   1   7
BRANCH   4  32
HETATM   32  O2  UNL     1      -2.668  49.157 -19.975  1.00  0.00    -0.275 OA
BRANCH  32  33
HETATM   33  P1  UNL     1      -2.417  48.155 -21.212  1.00  0.00     0.267 P 
HETATM   34  O3  UNL     1      -3.480  47.113 -21.406  1.00  0.00    -0.652 OA
BRANCH  33  35
HETATM   35  O4  UNL     1      -1.030  47.469 -20.762  1.00  0.00    -0.327 OA
HETATM   36  H42 UNL     1      -1.166  46.743 -20.123  1.00  0.00     0.220 HD
ENDBRANCH  33  35
BRANCH  33  37
HETATM   37  C24 UNL     1      -1.991  49.207 -22.607  1.00  0.00     0.293 C 
BRANCH  37  38
HETATM   38  O5  UNL     1      -3.171  49.805 -23.166  1.00  0.00    -0.371 OA
BRANCH  38  39
HETATM   39  C25 UNL     1      -2.939  51.063 -23.833  1.00  0.00     0.164 C 
BRANCH  39  40
HETATM   40  C26 UNL     1      -4.143  51.402 -24.727  1.00  0.00     0.197 C 
BRANCH  40  41
HETATM   41  O6  UNL     1      -4.083  50.694 -25.966  1.00  0.00    -0.398 OA
HETATM   42  H48 UNL     1      -4.211  49.750 -25.766  1.00  0.00     0.209 HD
ENDBRANCH  40  41
ENDBRANCH  39  40
BRANCH  39  43
HETATM   43  C27 UNL     1      -1.676  50.904 -24.702  1.00  0.00     0.167 C 
BRANCH  43  44
HETATM   44  N3  UNL     1      -0.747  52.023 -24.520  1.00  0.00    -0.307 N 
HETATM   45  C28 UNL     1      -0.011  52.111 -23.362  1.00  0.00     0.099 A 
HETATM   46  C29 UNL     1       0.768  53.164 -23.123  1.00  0.00     0.059 A 
HETATM   47  C30 UNL     1       0.762  54.213 -24.160  1.00  0.00     0.082 A 
HETATM   48  N5  UNL     1       0.057  54.146 -25.247  1.00  0.00    -0.299 N 
HETATM   49  C31 UNL     1      -0.732  53.044 -25.476  1.00  0.00     0.327 A 
ATOM     50  H5  UNL     1       0.090  54.906 -25.928  1.00  0.00     0.171 HD
HETATM   51  O7  UNL     1      -1.428  52.965 -26.489  1.00  0.00    -0.246 OA
BRANCH  47  52
HETATM   52  N4  UNL     1       1.522  55.336 -23.982  1.00  0.00    -0.288 NA
HETATM   53  H53 UNL     1       1.595  55.672 -23.029  1.00  0.00     0.125 HD
HETATM   54  H54 UNL     1       1.268  56.068 -24.637  1.00  0.00     0.125 HD
ENDBRANCH  47  52
ENDBRANCH  43  44
ENDBRANCH  39  43
ENDBRANCH  38  39
ENDBRANCH  37  38
ENDBRANCH  33  37
ENDBRANCH  32  33
ENDBRANCH   4  32
TORSDOF 30
ENDMDL
MODEL 9
REMARK minimizedAffinity -7.30101156
REMARK CNNscore 0.165008694
REMARK CNNaffinity 6.33709192
REMARK  30 active torsions:
REMARK  status: ('A' for Active; 'I' for Inactive)
REMARK    1  A    between atoms: C2_2  and  C3_3 
REMARK    2  A    between atoms: C3_3  and  C4_4 
REMARK    3  A    between atoms: C4_4  and  C5_5 
REMARK    4  A    between atoms: C5_5  and  C6_6 
REMARK    5  A    between atoms: C6_6  and  C7_7 
REMARK    6  A    between atoms: C7_7  and  C8_8 
REMARK    7  A    between atoms: C8_8  and  C9_9 
REMARK    8  A    between atoms: C9_9  and  C10_10 
REMARK    9  A    between atoms: C10_10  and  C11_11 
REMARK   10  A    between atoms: C11_11  and  C12_12 
REMARK   11  A    between atoms: C12_12  and  C13_13 
REMARK   12  A    between atoms: C13_13  and  C14_14 
REMARK   13  A    between atoms: C14_14  and  C15_15 
REMARK   14  A    between atoms: C15_15  and  C16_16 
REMARK   15  A    between atoms: C16_16  and  N1_17 
REMARK       I    between atoms: N1_17  and  C17_18 
REMARK   16  A    between atoms: C17_18  and  C18_20 
REMARK   17  A    between atoms: C18_20  and  N2_21 
REMARK   18  A    between atoms: C18_20  and  C19_22 
REMARK   19  A    between atoms: C19_22  and  C20_23 
REMARK   20  A    between atoms: C23_26  and  O2_27 
REMARK   21  A    between atoms: O2_27  and  P1_28 
REMARK   22  A    between atoms: P1_28  and  O4_30 
REMARK   23  A    between atoms: P1_28  and  C24_31 
REMARK   24  A    between atoms: C24_31  and  O5_32 
REMARK   25  A    between atoms: O5_32  and  C25_33 
REMARK   26  A    between atoms: C25_33  and  C26_34 
REMARK   27  A    between atoms: C25_33  and  C27_36 
REMARK   28  A    between atoms: C26_34  and  O6_35 
REMARK   29  A    between atoms: C27_36  and  N3_37 
REMARK   30  A    between atoms: C30_40  and  N4_41 
ROOT
HETATM    1  C20 UNL     1      -3.873  48.511 -24.104  1.00  0.00    -0.056 A 
HETATM    2  C21 UNL     1      -5.249  48.276 -24.005  1.00  0.00     0.010 A 
HETATM    3  C22 UNL     1      -6.014  48.064 -25.154  1.00  0.00     0.038 A 
HETATM    4  C23 UNL     1      -5.413  48.074 -26.413  1.00  0.00     0.078 A 
HETATM    5  C32 UNL     1      -4.045  48.306 -26.524  1.00  0.00     0.038 A 
HETATM    6  C33 UNL     1      -3.281  48.523 -25.374  1.00  0.00     0.010 A 
ENDROOT
BRANCH   1   7
HETATM    7  C19 UNL     1      -3.040  48.762 -22.868  1.00  0.00     0.083 C 
BRANCH   7   8
HETATM    8  C18 UNL     1      -2.719  47.523 -22.009  1.00  0.00     0.313 C 
BRANCH   8   9
HETATM    9  C17 UNL     1      -1.685  47.805 -20.894  1.00  0.00     0.251 C 
HETATM   10  N1  UNL     1      -2.198  48.396 -19.758  1.00  0.00    -0.359 N 
HETATM   11  H34 UNL     1      -3.197  48.544 -19.670  1.00  0.00     0.162 HD
HETATM   12  O1  UNL     1      -0.485  47.565 -21.028  1.00  0.00    -0.271 OA
BRANCH  10  13
HETATM   13  C16 UNL     1      -1.337  48.725 -18.640  1.00  0.00     0.122 C 
BRANCH  13  14
HETATM   14  C15 UNL     1      -0.497  49.968 -18.923  1.00  0.00     0.020 C 
BRANCH  14  15
HETATM   15  C14 UNL     1      -0.689  51.076 -17.883  1.00  0.00     0.002 C 
BRANCH  15  16
HETATM   16  C13 UNL     1       0.598  51.773 -17.421  1.00  0.00     0.000 C 
BRANCH  16  17
HETATM   17  C12 UNL     1       1.167  52.794 -18.414  1.00  0.00     0.000 C 
BRANCH  17  18
HETATM   18  C11 UNL     1       0.156  53.519 -19.302  1.00  0.00     0.000 C 
BRANCH  18  19
HETATM   19  C10 UNL     1       0.604  53.644 -20.760  1.00  0.00     0.000 C 
BRANCH  19  20
HETATM   20  C9  UNL     1       0.952  52.271 -21.342  1.00  0.00     0.000 C 
BRANCH  20  21
HETATM   21  C8  UNL     1      -0.158  51.683 -22.216  1.00  0.00     0.000 C 
BRANCH  21  22
HETATM   22  C7  UNL     1      -0.507  52.489 -23.470  1.00  0.00     0.000 C 
BRANCH  22  23
HETATM   23  C6  UNL     1       0.685  53.033 -24.266  1.00  0.00     0.000 C 
BRANCH  23  24
HETATM   24  C5  UNL     1       1.205  52.057 -25.323  1.00  0.00     0.000 C 
BRANCH  24  25
HETATM   25  C4  UNL     1       0.098  51.416 -26.165  1.00  0.00     0.000 C 
BRANCH  25  26
HETATM   26  C3  UNL     1       0.374  51.309 -27.669  1.00  0.00    -0.000 C 
BRANCH  26  27
HETATM   27  C2  UNL     1       0.352  52.658 -28.389  1.00  0.00    -0.005 C 
HETATM   28  C1  UNL     1      -0.704  53.582 -27.802  1.00  0.00     0.005 C 
ENDBRANCH  26  27
ENDBRANCH  25  26
ENDBRANCH  24  25
ENDBRANCH  23  24
ENDBRANCH  22  23
ENDBRANCH  21  22
ENDBRANCH  20  21
ENDBRANCH  19  20
ENDBRANCH  18  19
ENDBRANCH  17  18
ENDBRANCH  16  17
ENDBRANCH  15  16
ENDBRANCH  14  15
ENDBRANCH  13  14
ENDBRANCH  10  13
ENDBRANCH   8   9
BRANCH   8  29
HETATM   29  N2  UNL     1      -3.937  46.914 -21.420  1.00  0.00     0.092 N 
HETATM   30  H36 UNL     1      -3.625  46.149 -20.817  1.00  0.00     0.313 HD
HETATM   31  H37 UNL     1      -4.307  47.590 -20.744  1.00  0.00     0.313 HD
ENDBRANCH   8  29
ENDBRANCH   7   8
ENDBRANCH   1   7
BRANCH   4  32
HETATM   32  O2  UNL     1      -6.245  47.878 -27.475  1.00  0.00    -0.275 OA
BRANCH  32  33
HETATM   33  P1  UNL     1      -5.765  47.767 -29.010  1.00  0.00     0.267 P 
HETATM   34  O3  UNL     1      -4.286  47.903 -29.220  1.00  0.00    -0.652 OA
BRANCH  33  35
HETATM   35  O4  UNL     1      -6.544  49.022 -29.657  1.00  0.00    -0.327 OA
HETATM   36  H42 UNL     1      -6.075  49.866 -29.507  1.00  0.00     0.220 HD
ENDBRANCH  33  35
BRANCH  33  37
HETATM   37  C24 UNL     1      -6.590  46.311 -29.670  1.00  0.00     0.293 C 
BRANCH  37  38
HETATM   38  O5  UNL     1      -5.975  45.901 -30.902  1.00  0.00    -0.371 OA
BRANCH  38  39
HETATM   39  C25 UNL     1      -6.715  46.267 -32.084  1.00  0.00     0.164 C 
BRANCH  39  40
HETATM   40  C26 UNL     1      -5.941  47.343 -32.865  1.00  0.00     0.197 C 
BRANCH  40  41
HETATM   41  O6  UNL     1      -6.125  47.192 -34.273  1.00  0.00    -0.398 OA
HETATM   42  H48 UNL     1      -7.056  47.401 -34.466  1.00  0.00     0.209 HD
ENDBRANCH  40  41
ENDBRANCH  39  40
BRANCH  39  43
HETATM   43  C27 UNL     1      -8.074  46.835 -31.627  1.00  0.00     0.167 C 
BRANCH  43  44
HETATM   44  N3  UNL     1      -9.195  46.157 -32.284  1.00  0.00    -0.307 N 
HETATM   45  C28 UNL     1      -8.943  45.204 -33.242  1.00  0.00     0.099 A 
HETATM   46  C29 UNL     1      -9.936  44.640 -33.926  1.00  0.00     0.059 A 
HETATM   47  C30 UNL     1     -11.291  45.121 -33.601  1.00  0.00     0.082 A 
HETATM   48  N5  UNL     1     -11.537  46.032 -32.710  1.00  0.00    -0.299 N 
HETATM   49  C31 UNL     1     -10.495  46.594 -32.010  1.00  0.00     0.327 A 
ATOM     50  H5  UNL     1     -12.497  46.329 -32.531  1.00  0.00     0.171 HD
HETATM   51  O7  UNL     1     -10.699  47.476 -31.177  1.00  0.00    -0.246 OA
BRANCH  47  52
HETATM   52  N4  UNL     1     -12.366  44.604 -34.271  1.00  0.00    -0.288 NA
HETATM   53  H53 UNL     1     -12.209  44.381 -35.247  1.00  0.00     0.125 HD
HETATM   54  H54 UNL     1     -13.201  45.160 -34.125  1.00  0.00     0.125 HD
ENDBRANCH  47  52
ENDBRANCH  43  44
ENDBRANCH  39  43
ENDBRANCH  38  39
ENDBRANCH  37  38
ENDBRANCH  33  37
ENDBRANCH  32  33
ENDBRANCH   4  32
TORSDOF 30
ENDMDL
