MODEL 1
REMARK minimizedAffinity -6.96025801
REMARK CNNscore 0.773335576
REMARK CNNaffinity 7.00227118
REMARK  5 active torsions:
REMARK  status: ('A' for Active; 'I' for Inactive)
REMARK    1  A    between atoms: C2_2  and  C4_4 
REMARK    2  A    between atoms: C7_7  and  C8_8 
REMARK    3  A    between atoms: C8_8  and  O2_10 
REMARK    4  A    between atoms: C22_25  and  C24_27 
REMARK    5  A    between atoms: C24_27  and  O4_28 
ROOT
HETATM    1  C4  UNL     1       2.490  56.336  -8.757  1.00  0.00     0.019 C 
HETATM    2  C5  UNL     1       2.935  57.077  -7.466  1.00  0.00     0.011 C 
HETATM    3  C6  UNL     1       2.312  56.323  -6.278  1.00  0.00     0.021 C 
HETATM    4  C7  UNL     1       1.101  55.610  -6.884  1.00  0.00     0.050 C 
HETATM    5  C9  UNL     1       0.601  54.390  -6.096  1.00  0.00     0.022 C 
HETATM    6  C10 UNL     1      -0.454  53.608  -6.911  1.00  0.00     0.011 C 
HETATM    7  C11 UNL     1       0.016  53.163  -8.341  1.00  0.00    -0.032 C 
HETATM    8  C12 UNL     1       1.107  52.066  -8.098  1.00  0.00     0.016 C 
HETATM    9  C13 UNL     1       0.646  54.409  -9.091  1.00  0.00     0.000 C 
HETATM   10  C14 UNL     1       1.133  54.039 -10.496  1.00  0.00     0.006 C 
HETATM   11  C15 UNL     1       0.024  53.421 -11.353  1.00  0.00     0.006 C 
HETATM   12  C16 UNL     1      -0.644  52.203 -10.679  1.00  0.00     0.003 C 
HETATM   13  C17 UNL     1      -1.587  51.361 -11.643  1.00  0.00    -0.035 C 
HETATM   14  C18 UNL     1      -2.697  52.220 -12.295  1.00  0.00     0.016 C 
HETATM   15  C19 UNL     1      -0.704  50.805 -12.821  1.00  0.00     0.017 C 
HETATM   16  C20 UNL     1      -1.109  49.438 -13.365  1.00  0.00     0.080 C 
HETATM   17  C21 UNL     1      -2.575  49.174 -13.146  1.00  0.00     0.137 C 
HETATM   18  O3  UNL     1      -3.331  48.992 -14.100  1.00  0.00    -0.297 OA
HETATM   19  C22 UNL     1      -3.051  49.142 -11.687  1.00  0.00     0.042 C 
HETATM   20  C23 UNL     1      -4.556  49.471 -11.641  1.00  0.00     0.026 C 
HETATM   21  C25 UNL     1      -2.160  50.135 -10.845  1.00  0.00     0.012 C 
HETATM   22  C26 UNL     1      -2.810  50.558  -9.515  1.00  0.00     0.007 C 
HETATM   23  C27 UNL     1      -1.821  51.298  -8.611  1.00  0.00     0.011 C 
HETATM   24  C28 UNL     1      -1.207  52.575  -9.247  1.00  0.00    -0.032 C 
HETATM   25  C29 UNL     1      -2.350  53.628  -9.337  1.00  0.00     0.016 C 
HETATM   26  C30 UNL     1       1.708  55.113  -8.217  1.00  0.00     0.017 C 
ENDROOT
BRANCH   4  27
HETATM   27  C8  UNL     1      -0.040  56.638  -6.915  1.00  0.00     0.149 C 
HETATM   28  O1  UNL     1      -0.617  57.026  -7.922  1.00  0.00    -0.649 OA
BRANCH  27  29
HETATM   29  O2  UNL     1      -0.439  57.107  -5.724  1.00  0.00    -0.776 OA
HETATM   30  H11 UNL     1      -1.169  57.722  -5.945  1.00  0.00     0.167 HD
ENDBRANCH  27  29
ENDBRANCH   4  27
BRANCH   1  31
HETATM   31  C2  UNL     1       3.681  56.117  -9.681  1.00  0.00    -0.088 C 
HETATM   32  C1  UNL     1       3.693  56.349 -11.004  1.00  0.00     0.014 C 
HETATM   33  C3  UNL     1       4.918  55.589  -8.998  1.00  0.00     0.043 C 
ENDBRANCH   1  31
BRANCH  19  34
HETATM   34  C24 UNL     1      -2.819  47.703 -11.153  1.00  0.00     0.181 C 
BRANCH  34  35
HETATM   35  O4  UNL     1      -1.550  47.518 -10.543  1.00  0.00    -0.400 OA
HETATM   36  H37 UNL     1      -0.858  47.627 -11.219  1.00  0.00     0.209 HD
ENDBRANCH  34  35
ENDBRANCH  19  34
TORSDOF 5
ENDMDL
MODEL 2
REMARK minimizedAffinity -7.99880981
REMARK CNNscore 0.688024879
REMARK CNNaffinity 7.09444284
REMARK  5 active torsions:
REMARK  status: ('A' for Active; 'I' for Inactive)
REMARK    1  A    between atoms: C2_2  and  C4_4 
REMARK    2  A    between atoms: C7_7  and  C8_8 
REMARK    3  A    between atoms: C8_8  and  O2_10 
REMARK    4  A    between atoms: C22_25  and  C24_27 
REMARK    5  A    between atoms: C24_27  and  O4_28 
ROOT
HETATM    1  C4  UNL     1       3.906  56.253  -6.568  1.00  0.00     0.019 C 
HETATM    2  C5  UNL     1       5.423  56.586  -6.521  1.00  0.00     0.011 C 
HETATM    3  C6  UNL     1       6.031  56.104  -7.849  1.00  0.00     0.021 C 
HETATM    4  C7  UNL     1       5.064  55.017  -8.328  1.00  0.00     0.050 C 
HETATM    5  C9  UNL     1       5.104  54.727  -9.836  1.00  0.00     0.022 C 
HETATM    6  C10 UNL     1       3.934  53.805 -10.245  1.00  0.00     0.011 C 
HETATM    7  C11 UNL     1       2.510  54.327  -9.839  1.00  0.00    -0.032 C 
HETATM    8  C12 UNL     1       2.255  55.583 -10.740  1.00  0.00     0.016 C 
HETATM    9  C13 UNL     1       2.526  54.741  -8.310  1.00  0.00     0.000 C 
HETATM   10  C14 UNL     1       1.162  55.268  -7.851  1.00  0.00     0.006 C 
HETATM   11  C15 UNL     1       0.034  54.264  -8.107  1.00  0.00     0.006 C 
HETATM   12  C16 UNL     1      -0.036  53.807  -9.580  1.00  0.00     0.003 C 
HETATM   13  C17 UNL     1      -1.357  53.003  -9.950  1.00  0.00    -0.035 C 
HETATM   14  C18 UNL     1      -1.575  51.764  -9.051  1.00  0.00     0.016 C 
HETATM   15  C19 UNL     1      -2.588  53.953  -9.706  1.00  0.00     0.017 C 
HETATM   16  C20 UNL     1      -3.766  53.768 -10.658  1.00  0.00     0.080 C 
HETATM   17  C21 UNL     1      -3.815  52.366 -11.204  1.00  0.00     0.137 C 
HETATM   18  O3  UNL     1      -4.786  51.640 -10.989  1.00  0.00    -0.297 OA
HETATM   19  C22 UNL     1      -2.604  51.915 -12.032  1.00  0.00     0.042 C 
HETATM   20  C23 UNL     1      -2.510  50.378 -11.991  1.00  0.00     0.026 C 
HETATM   21  C25 UNL     1      -1.317  52.643 -11.479  1.00  0.00     0.012 C 
HETATM   22  C26 UNL     1      -0.004  51.946 -11.879  1.00  0.00     0.007 C 
HETATM   23  C27 UNL     1       1.217  52.812 -11.559  1.00  0.00     0.011 C 
HETATM   24  C28 UNL     1       1.346  53.206 -10.062  1.00  0.00    -0.032 C 
HETATM   25  C29 UNL     1       1.707  51.907  -9.283  1.00  0.00     0.016 C 
HETATM   26  C30 UNL     1       3.709  55.684  -7.995  1.00  0.00     0.017 C 
ENDROOT
BRANCH   4  27
HETATM   27  C8  UNL     1       5.466  53.725  -7.599  1.00  0.00     0.149 C 
HETATM   28  O1  UNL     1       4.778  53.133  -6.778  1.00  0.00    -0.649 OA
BRANCH  27  29
HETATM   29  O2  UNL     1       6.657  53.209  -7.934  1.00  0.00    -0.776 OA
HETATM   30  H11 UNL     1       6.723  52.397  -7.389  1.00  0.00     0.167 HD
ENDBRANCH  27  29
ENDBRANCH   4  27
BRANCH   1  31
HETATM   31  C2  UNL     1       3.085  57.455  -6.121  1.00  0.00    -0.088 C 
HETATM   32  C1  UNL     1       2.740  58.496  -6.897  1.00  0.00     0.014 C 
HETATM   33  C3  UNL     1       2.655  57.420  -4.675  1.00  0.00     0.043 C 
ENDBRANCH   1  31
BRANCH  19  34
HETATM   34  C24 UNL     1      -2.840  52.381 -13.494  1.00  0.00     0.181 C 
BRANCH  34  35
HETATM   35  O4  UNL     1      -3.909  53.305 -13.633  1.00  0.00    -0.400 OA
HETATM   36  H37 UNL     1      -4.742  52.861 -13.396  1.00  0.00     0.209 HD
ENDBRANCH  34  35
ENDBRANCH  19  34
TORSDOF 5
ENDMDL
MODEL 3
REMARK minimizedAffinity -7.05454063
REMARK CNNscore 0.572108865
REMARK CNNaffinity 6.80404902
REMARK  5 active torsions:
REMARK  status: ('A' for Active; 'I' for Inactive)
REMARK    1  A    between atoms: C2_2  and  C4_4 
REMARK    2  A    between atoms: C7_7  and  C8_8 
REMARK    3  A    between atoms: C8_8  and  O2_10 
REMARK    4  A    between atoms: C22_25  and  C24_27 
REMARK    5  A    between atoms: C24_27  and  O4_28 
ROOT
HETATM    1  C4  UNL     1      -2.266  52.287 -12.162  1.00  0.00     0.019 C 
HETATM    2  C5  UNL     1      -2.814  51.089 -12.985  1.00  0.00     0.011 C 
HETATM    3  C6  UNL     1      -1.738  49.990 -12.950  1.00  0.00     0.021 C 
HETATM    4  C7  UNL     1      -0.438  50.752 -12.674  1.00  0.00     0.050 C 
HETATM    5  C9  UNL     1       0.695  49.909 -12.069  1.00  0.00     0.022 C 
HETATM    6  C10 UNL     1       1.860  50.812 -11.608  1.00  0.00     0.011 C 
HETATM    7  C11 UNL     1       1.453  51.954 -10.610  1.00  0.00    -0.032 C 
HETATM    8  C12 UNL     1       1.070  51.224  -9.278  1.00  0.00     0.016 C 
HETATM    9  C13 UNL     1       0.201  52.730 -11.193  1.00  0.00     0.000 C 
HETATM   10  C14 UNL     1      -0.252  53.858 -10.259  1.00  0.00     0.006 C 
HETATM   11  C15 UNL     1       0.876  54.846  -9.949  1.00  0.00     0.006 C 
HETATM   12  C16 UNL     1       2.137  54.157  -9.385  1.00  0.00     0.003 C 
HETATM   13  C17 UNL     1       3.212  55.160  -8.780  1.00  0.00    -0.035 C 
HETATM   14  C18 UNL     1       3.666  56.235  -9.796  1.00  0.00     0.016 C 
HETATM   15  C19 UNL     1       2.538  55.932  -7.586  1.00  0.00     0.017 C 
HETATM   16  C20 UNL     1       3.462  56.295  -6.427  1.00  0.00     0.080 C 
HETATM   17  C21 UNL     1       4.890  56.429  -6.885  1.00  0.00     0.137 C 
HETATM   18  O3  UNL     1       5.489  57.499  -6.771  1.00  0.00    -0.297 OA
HETATM   19  C22 UNL     1       5.534  55.172  -7.484  1.00  0.00     0.042 C 
HETATM   20  C23 UNL     1       6.686  55.593  -8.418  1.00  0.00     0.026 C 
HETATM   21  C25 UNL     1       4.413  54.327  -8.205  1.00  0.00     0.012 C 
HETATM   22  C26 UNL     1       4.971  53.324  -9.231  1.00  0.00     0.007 C 
HETATM   23  C27 UNL     1       3.895  52.346  -9.710  1.00  0.00     0.011 C 
HETATM   24  C28 UNL     1       2.659  53.025 -10.359  1.00  0.00    -0.032 C 
HETATM   25  C29 UNL     1       3.132  53.615 -11.720  1.00  0.00     0.016 C 
HETATM   26  C30 UNL     1      -0.925  51.755 -11.602  1.00  0.00     0.017 C 
ENDROOT
BRANCH   4  27
HETATM   27  C8  UNL     1       0.053  51.280 -14.030  1.00  0.00     0.149 C 
HETATM   28  O1  UNL     1       0.189  50.608 -15.044  1.00  0.00    -0.649 OA
BRANCH  27  29
HETATM   29  O2  UNL     1       0.315  52.594 -14.088  1.00  0.00    -0.776 OA
HETATM   30  H11 UNL     1       0.591  52.738 -15.017  1.00  0.00     0.167 HD
ENDBRANCH  27  29
ENDBRANCH   4  27
BRANCH   1  31
HETATM   31  C2  UNL     1      -3.330  52.801 -11.200  1.00  0.00    -0.088 C 
HETATM   32  C1  UNL     1      -3.577  54.094 -10.930  1.00  0.00     0.014 C 
HETATM   33  C3  UNL     1      -4.136  51.723 -10.520  1.00  0.00     0.043 C 
ENDBRANCH   1  31
BRANCH  19  34
HETATM   34  C24 UNL     1       6.101  54.333  -6.308  1.00  0.00     0.181 C 
BRANCH  34  35
HETATM   35  O4  UNL     1       6.663  55.117  -5.266  1.00  0.00    -0.400 OA
HETATM   36  H37 UNL     1       7.443  55.586  -5.610  1.00  0.00     0.209 HD
ENDBRANCH  34  35
ENDBRANCH  19  34
TORSDOF 5
ENDMDL
MODEL 4
REMARK minimizedAffinity -6.25660658
REMARK CNNscore 0.570673168
REMARK CNNaffinity 6.60650969
REMARK  5 active torsions:
REMARK  status: ('A' for Active; 'I' for Inactive)
REMARK    1  A    between atoms: C2_2  and  C4_4 
REMARK    2  A    between atoms: C7_7  and  C8_8 
REMARK    3  A    between atoms: C8_8  and  O2_10 
REMARK    4  A    between atoms: C22_25  and  C24_27 
REMARK    5  A    between atoms: C24_27  and  O4_28 
ROOT
HETATM    1  C4  UNL     1       0.600  50.551 -13.432  1.00  0.00     0.019 C 
HETATM    2  C5  UNL     1       0.894  49.164 -14.066  1.00  0.00     0.011 C 
HETATM    3  C6  UNL     1       2.006  48.512 -13.226  1.00  0.00     0.021 C 
HETATM    4  C7  UNL     1       2.719  49.697 -12.569  1.00  0.00     0.050 C 
HETATM    5  C9  UNL     1       3.506  49.360 -11.294  1.00  0.00     0.022 C 
HETATM    6  C10 UNL     1       3.976  50.649 -10.585  1.00  0.00     0.011 C 
HETATM    7  C11 UNL     1       2.832  51.671 -10.251  1.00  0.00    -0.032 C 
HETATM    8  C12 UNL     1       1.977  50.986  -9.131  1.00  0.00     0.016 C 
HETATM    9  C13 UNL     1       1.954  51.908 -11.548  1.00  0.00     0.000 C 
HETATM   10  C14 UNL     1       0.810  52.895 -11.286  1.00  0.00     0.006 C 
HETATM   11  C15 UNL     1       1.312  54.237 -10.744  1.00  0.00     0.006 C 
HETATM   12  C16 UNL     1       2.187  54.082  -9.481  1.00  0.00     0.003 C 
HETATM   13  C17 UNL     1       2.483  55.448  -8.723  1.00  0.00    -0.035 C 
HETATM   14  C18 UNL     1       3.140  56.510  -9.636  1.00  0.00     0.016 C 
HETATM   15  C19 UNL     1       1.107  56.052  -8.256  1.00  0.00     0.017 C 
HETATM   16  C20 UNL     1       1.135  56.821  -6.938  1.00  0.00     0.080 C 
HETATM   17  C21 UNL     1       2.500  57.394  -6.666  1.00  0.00     0.137 C 
HETATM   18  O3  UNL     1       2.663  58.610  -6.564  1.00  0.00    -0.297 OA
HETATM   19  C22 UNL     1       3.647  56.384  -6.522  1.00  0.00     0.042 C 
HETATM   20  C23 UNL     1       4.978  57.084  -6.856  1.00  0.00     0.026 C 
HETATM   21  C25 UNL     1       3.339  55.139  -7.442  1.00  0.00     0.012 C 
HETATM   22  C26 UNL     1       4.586  54.296  -7.763  1.00  0.00     0.007 C 
HETATM   23  C27 UNL     1       4.215  52.966  -8.424  1.00  0.00     0.011 C 
HETATM   24  C28 UNL     1       3.409  53.111  -9.743  1.00  0.00    -0.032 C 
HETATM   25  C29 UNL     1       4.385  53.694 -10.807  1.00  0.00     0.016 C 
HETATM   26  C30 UNL     1       1.504  50.570 -12.175  1.00  0.00     0.017 C 
ENDROOT
BRANCH   4  27
HETATM   27  C8  UNL     1       3.723  50.229 -13.604  1.00  0.00     0.149 C 
HETATM   28  O1  UNL     1       3.596  51.263 -14.246  1.00  0.00    -0.649 OA
BRANCH  27  29
HETATM   29  O2  UNL     1       4.833  49.498 -13.773  1.00  0.00    -0.776 OA
HETATM   30  H11 UNL     1       5.345  49.998 -14.443  1.00  0.00     0.167 HD
ENDBRANCH  27  29
ENDBRANCH   4  27
BRANCH   1  31
HETATM   31  C2  UNL     1      -0.901  50.757 -13.278  1.00  0.00    -0.088 C 
HETATM   32  C1  UNL     1      -1.567  51.886 -13.573  1.00  0.00     0.014 C 
HETATM   33  C3  UNL     1      -1.649  49.562 -12.740  1.00  0.00     0.043 C 
ENDBRANCH   1  31
BRANCH  19  34
HETATM   34  C24 UNL     1       3.667  55.910  -5.045  1.00  0.00     0.181 C 
BRANCH  34  35
HETATM   35  O4  UNL     1       3.563  56.969  -4.104  1.00  0.00    -0.400 OA
HETATM   36  H37 UNL     1       4.354  57.531  -4.175  1.00  0.00     0.209 HD
ENDBRANCH  34  35
ENDBRANCH  19  34
TORSDOF 5
ENDMDL
MODEL 5
REMARK minimizedAffinity -6.48322248
REMARK CNNscore 0.565585256
REMARK CNNaffinity 6.44574928
REMARK  5 active torsions:
REMARK  status: ('A' for Active; 'I' for Inactive)
REMARK    1  A    between atoms: C2_2  and  C4_4 
REMARK    2  A    between atoms: C7_7  and  C8_8 
REMARK    3  A    between atoms: C8_8  and  O2_10 
REMARK    4  A    between atoms: C22_25  and  C24_27 
REMARK    5  A    between atoms: C24_27  and  O4_28 
ROOT
HETATM    1  C4  UNL     1       3.100  54.493  -9.651  1.00  0.00     0.019 C 
HETATM    2  C5  UNL     1       2.363  53.543 -10.635  1.00  0.00     0.011 C 
HETATM    3  C6  UNL     1       0.878  53.545 -10.235  1.00  0.00     0.021 C 
HETATM    4  C7  UNL     1       0.891  53.955  -8.760  1.00  0.00     0.050 C 
HETATM    5  C9  UNL     1      -0.426  54.547  -8.236  1.00  0.00     0.022 C 
HETATM    6  C10 UNL     1      -0.232  55.146  -6.826  1.00  0.00     0.011 C 
HETATM    7  C11 UNL     1       0.914  56.213  -6.715  1.00  0.00    -0.032 C 
HETATM    8  C12 UNL     1       0.405  57.456  -7.521  1.00  0.00     0.016 C 
HETATM    9  C13 UNL     1       2.231  55.630  -7.376  1.00  0.00     0.000 C 
HETATM   10  C14 UNL     1       3.391  56.629  -7.307  1.00  0.00     0.006 C 
HETATM   11  C15 UNL     1       3.684  57.082  -5.874  1.00  0.00     0.006 C 
HETATM   12  C16 UNL     1       2.440  57.655  -5.161  1.00  0.00     0.003 C 
HETATM   13  C17 UNL     1       2.758  58.400  -3.793  1.00  0.00    -0.035 C 
HETATM   14  C18 UNL     1       3.519  57.504  -2.786  1.00  0.00     0.016 C 
HETATM   15  C19 UNL     1       3.704  59.616  -4.111  1.00  0.00     0.017 C 
HETATM   16  C20 UNL     1       3.513  60.851  -3.235  1.00  0.00     0.080 C 
HETATM   17  C21 UNL     1       2.952  60.485  -1.886  1.00  0.00     0.137 C 
HETATM   18  O3  UNL     1       3.584  60.721  -0.857  1.00  0.00    -0.297 OA
HETATM   19  C22 UNL     1       1.570  59.818  -1.882  1.00  0.00     0.042 C 
HETATM   20  C23 UNL     1       1.415  58.988  -0.593  1.00  0.00     0.026 C 
HETATM   21  C25 UNL     1       1.417  58.969  -3.203  1.00  0.00     0.012 C 
HETATM   22  C26 UNL     1       0.318  57.894  -3.113  1.00  0.00     0.007 C 
HETATM   23  C27 UNL     1       0.017  57.275  -4.481  1.00  0.00     0.011 C 
HETATM   24  C28 UNL     1       1.244  56.619  -5.169  1.00  0.00    -0.032 C 
HETATM   25  C29 UNL     1       1.590  55.340  -4.350  1.00  0.00     0.016 C 
HETATM   26  C30 UNL     1       1.953  55.079  -8.792  1.00  0.00     0.017 C 
ENDROOT
BRANCH   4  27
HETATM   27  C8  UNL     1       1.173  52.677  -7.956  1.00  0.00     0.149 C 
HETATM   28  O1  UNL     1       0.537  51.634  -8.037  1.00  0.00    -0.649 OA
BRANCH  27  29
HETATM   29  O2  UNL     1       2.229  52.725  -7.130  1.00  0.00    -0.776 OA
HETATM   30  H11 UNL     1       2.255  51.830  -6.730  1.00  0.00     0.167 HD
ENDBRANCH  27  29
ENDBRANCH   4  27
BRANCH   1  31
HETATM   31  C2  UNL     1       4.023  55.435 -10.413  1.00  0.00    -0.088 C 
HETATM   32  C1  UNL     1       3.626  56.391 -11.270  1.00  0.00     0.014 C 
HETATM   33  C3  UNL     1       5.493  55.227 -10.146  1.00  0.00     0.043 C 
ENDBRANCH   1  31
BRANCH  19  34
HETATM   34  C24 UNL     1       0.507  60.949  -1.901  1.00  0.00     0.181 C 
BRANCH  34  35
HETATM   35  O4  UNL     1       1.062  62.255  -1.843  1.00  0.00    -0.400 OA
HETATM   36  H37 UNL     1       1.505  62.370  -0.984  1.00  0.00     0.209 HD
ENDBRANCH  34  35
ENDBRANCH  19  34
TORSDOF 5
ENDMDL
MODEL 6
REMARK minimizedAffinity -6.8031044
REMARK CNNscore 0.540230393
REMARK CNNaffinity 6.52469683
REMARK  5 active torsions:
REMARK  status: ('A' for Active; 'I' for Inactive)
REMARK    1  A    between atoms: C2_2  and  C4_4 
REMARK    2  A    between atoms: C7_7  and  C8_8 
REMARK    3  A    between atoms: C8_8  and  O2_10 
REMARK    4  A    between atoms: C22_25  and  C24_27 
REMARK    5  A    between atoms: C24_27  and  O4_28 
ROOT
HETATM    1  C4  UNL     1       5.277  56.491  -7.428  1.00  0.00     0.019 C 
HETATM    2  C5  UNL     1       5.913  57.218  -6.212  1.00  0.00     0.011 C 
HETATM    3  C6  UNL     1       4.953  57.033  -5.025  1.00  0.00     0.021 C 
HETATM    4  C7  UNL     1       3.594  56.777  -5.682  1.00  0.00     0.050 C 
HETATM    5  C9  UNL     1       2.570  56.048  -4.800  1.00  0.00     0.022 C 
HETATM    6  C10 UNL     1       1.336  55.627  -5.629  1.00  0.00     0.011 C 
HETATM    7  C11 UNL     1       1.660  54.760  -6.898  1.00  0.00    -0.032 C 
HETATM    8  C12 UNL     1       2.156  53.382  -6.343  1.00  0.00     0.016 C 
HETATM    9  C13 UNL     1       2.810  55.466  -7.728  1.00  0.00     0.000 C 
HETATM   10  C14 UNL     1       3.179  54.664  -8.980  1.00  0.00     0.006 C 
HETATM   11  C15 UNL     1       1.970  54.404  -9.883  1.00  0.00     0.006 C 
HETATM   12  C16 UNL     1       0.802  53.724  -9.136  1.00  0.00     0.003 C 
HETATM   13  C17 UNL     1      -0.348  53.174 -10.087  1.00  0.00    -0.035 C 
HETATM   14  C18 UNL     1      -0.937  54.268 -11.008  1.00  0.00     0.016 C 
HETATM   15  C19 UNL     1       0.285  52.088 -11.034  1.00  0.00     0.017 C 
HETATM   16  C20 UNL     1      -0.633  50.931 -11.420  1.00  0.00     0.080 C 
HETATM   17  C21 UNL     1      -2.081  51.340 -11.372  1.00  0.00     0.137 C 
HETATM   18  O3  UNL     1      -2.779  51.304 -12.385  1.00  0.00    -0.297 OA
HETATM   19  C22 UNL     1      -2.616  51.789 -10.006  1.00  0.00     0.042 C 
HETATM   20  C23 UNL     1      -3.833  52.710 -10.220  1.00  0.00     0.026 C 
HETATM   21  C25 UNL     1      -1.441  52.472  -9.204  1.00  0.00     0.012 C 
HETATM   22  C26 UNL     1      -1.930  53.373  -8.056  1.00  0.00     0.007 C 
HETATM   23  C27 UNL     1      -0.778  53.801  -7.142  1.00  0.00     0.011 C 
HETATM   24  C28 UNL     1       0.364  54.563  -7.868  1.00  0.00    -0.032 C 
HETATM   25  C29 UNL     1      -0.209  55.954  -8.273  1.00  0.00     0.016 C 
HETATM   26  C30 UNL     1       4.013  55.827  -6.829  1.00  0.00     0.017 C 
ENDROOT
BRANCH   4  27
HETATM   27  C8  UNL     1       3.010  58.156  -6.024  1.00  0.00     0.149 C 
HETATM   28  O1  UNL     1       2.565  58.485  -7.116  1.00  0.00    -0.649 OA
BRANCH  27  29
HETATM   29  O2  UNL     1       2.966  59.040  -5.018  1.00  0.00    -0.776 OA
HETATM   30  H11 UNL     1       2.553  59.834  -5.420  1.00  0.00     0.167 HD
ENDBRANCH  27  29
ENDBRANCH   4  27
BRANCH   1  31
HETATM   31  C2  UNL     1       6.314  55.627  -8.134  1.00  0.00    -0.088 C 
HETATM   32  C1  UNL     1       6.304  55.306  -9.438  1.00  0.00     0.014 C 
HETATM   33  C3  UNL     1       7.417  55.114  -7.241  1.00  0.00     0.043 C 
ENDBRANCH   1  31
BRANCH  19  34
HETATM   34  C24 UNL     1      -3.059  50.516  -9.237  1.00  0.00     0.181 C 
BRANCH  34  35
HETATM   35  O4  UNL     1      -4.438  50.208  -9.388  1.00  0.00    -0.400 OA
HETATM   36  H37 UNL     1      -4.964  50.918  -8.979  1.00  0.00     0.209 HD
ENDBRANCH  34  35
ENDBRANCH  19  34
TORSDOF 5
ENDMDL
MODEL 7
REMARK minimizedAffinity -6.37502384
REMARK CNNscore 0.481998324
REMARK CNNaffinity 6.81745672
REMARK  5 active torsions:
REMARK  status: ('A' for Active; 'I' for Inactive)
REMARK    1  A    between atoms: C2_2  and  C4_4 
REMARK    2  A    between atoms: C7_7  and  C8_8 
REMARK    3  A    between atoms: C8_8  and  O2_10 
REMARK    4  A    between atoms: C22_25  and  C24_27 
REMARK    5  A    between atoms: C24_27  and  O4_28 
ROOT
HETATM    1  C4  UNL     1      -1.208  52.865 -11.183  1.00  0.00     0.019 C 
HETATM    2  C5  UNL     1      -1.404  51.596 -12.057  1.00  0.00     0.011 C 
HETATM    3  C6  UNL     1      -0.189  50.685 -11.806  1.00  0.00     0.021 C 
HETATM    4  C7  UNL     1       0.903  51.646 -11.328  1.00  0.00     0.050 C 
HETATM    5  C9  UNL     1       2.032  50.997 -10.514  1.00  0.00     0.022 C 
HETATM    6  C10 UNL     1       2.938  52.075  -9.881  1.00  0.00     0.011 C 
HETATM    7  C11 UNL     1       2.185  53.134  -8.998  1.00  0.00    -0.032 C 
HETATM    8  C12 UNL     1       1.694  52.348  -7.735  1.00  0.00     0.016 C 
HETATM    9  C13 UNL     1       0.948  53.699  -9.811  1.00  0.00     0.000 C 
HETATM   10  C14 UNL     1       0.163  54.735  -9.000  1.00  0.00     0.006 C 
HETATM   11  C15 UNL     1       1.046  55.893  -8.524  1.00  0.00     0.006 C 
HETATM   12  C16 UNL     1       2.281  55.415  -7.731  1.00  0.00     0.003 C 
HETATM   13  C17 UNL     1       3.059  56.578  -6.975  1.00  0.00    -0.035 C 
HETATM   14  C18 UNL     1       3.507  57.714  -7.924  1.00  0.00     0.016 C 
HETATM   15  C19 UNL     1       2.071  57.228  -5.937  1.00  0.00     0.017 C 
HETATM   16  C20 UNL     1       2.707  57.732  -4.644  1.00  0.00     0.080 C 
HETATM   17  C21 UNL     1       4.153  58.096  -4.850  1.00  0.00     0.137 C 
HETATM   18  O3  UNL     1       4.544  59.248  -4.661  1.00  0.00    -0.297 OA
HETATM   19  C22 UNL     1       5.085  56.961  -5.295  1.00  0.00     0.042 C 
HETATM   20  C23 UNL     1       6.301  57.565  -6.024  1.00  0.00     0.026 C 
HETATM   21  C25 UNL     1       4.258  55.948  -6.177  1.00  0.00     0.012 C 
HETATM   22  C26 UNL     1       5.141  55.051  -7.064  1.00  0.00     0.007 C 
HETATM   23  C27 UNL     1       4.336  53.913  -7.698  1.00  0.00     0.011 C 
HETATM   24  C28 UNL     1       3.141  54.385  -8.570  1.00  0.00    -0.032 C 
HETATM   25  C29 UNL     1       3.745  55.047  -9.843  1.00  0.00     0.016 C 
HETATM   26  C30 UNL     1       0.081  52.555 -10.384  1.00  0.00     0.017 C 
ENDROOT
BRANCH   4  27
HETATM   27  C8  UNL     1       1.535  52.250 -12.592  1.00  0.00     0.149 C 
HETATM   28  O1  UNL     1       1.082  52.153 -13.725  1.00  0.00    -0.649 OA
BRANCH  27  29
HETATM   29  O2  UNL     1       2.653  52.964 -12.404  1.00  0.00    -0.776 OA
HETATM   30  H11 UNL     1       2.888  53.275 -13.304  1.00  0.00     0.167 HD
ENDBRANCH  27  29
ENDBRANCH   4  27
BRANCH   1  31
HETATM   31  C2  UNL     1      -2.492  53.197 -10.434  1.00  0.00    -0.088 C 
HETATM   32  C1  UNL     1      -3.414  54.093 -10.827  1.00  0.00     0.014 C 
HETATM   33  C3  UNL     1      -2.688  52.430  -9.150  1.00  0.00     0.043 C 
ENDBRANCH   1  31
BRANCH  19  34
HETATM   34  C24 UNL     1       5.562  56.222  -4.017  1.00  0.00     0.181 C 
BRANCH  34  35
HETATM   35  O4  UNL     1       6.824  56.665  -3.539  1.00  0.00    -0.400 OA
HETATM   36  H37 UNL     1       7.505  56.445  -4.199  1.00  0.00     0.209 HD
ENDBRANCH  34  35
ENDBRANCH  19  34
TORSDOF 5
ENDMDL
MODEL 8
REMARK minimizedAffinity -7.65813828
REMARK CNNscore 0.448176652
REMARK CNNaffinity 6.1810441
REMARK  5 active torsions:
REMARK  status: ('A' for Active; 'I' for Inactive)
REMARK    1  A    between atoms: C2_2  and  C4_4 
REMARK    2  A    between atoms: C7_7  and  C8_8 
REMARK    3  A    between atoms: C8_8  and  O2_10 
REMARK    4  A    between atoms: C22_25  and  C24_27 
REMARK    5  A    between atoms: C24_27  and  O4_28 
ROOT
HETATM    1  C4  UNL     1     -12.812  44.027 -26.362  1.00  0.00     0.019 C 
HETATM    2  C5  UNL     1     -14.283  44.289 -25.938  1.00  0.00     0.011 C 
HETATM    3  C6  UNL     1     -14.796  45.460 -26.794  1.00  0.00     0.021 C 
HETATM    4  C7  UNL     1     -13.523  46.206 -27.204  1.00  0.00     0.050 C 
HETATM    5  C9  UNL     1     -13.655  47.080 -28.460  1.00  0.00     0.022 C 
HETATM    6  C10 UNL     1     -12.271  47.586 -28.921  1.00  0.00     0.011 C 
HETATM    7  C11 UNL     1     -11.205  46.459 -29.165  1.00  0.00    -0.032 C 
HETATM    8  C12 UNL     1     -11.700  45.687 -30.435  1.00  0.00     0.016 C 
HETATM    9  C13 UNL     1     -11.175  45.494 -27.910  1.00  0.00     0.000 C 
HETATM   10  C14 UNL     1     -10.156  44.363 -28.088  1.00  0.00     0.006 C 
HETATM   11  C15 UNL     1      -8.747  44.889 -28.374  1.00  0.00     0.006 C 
HETATM   12  C16 UNL     1      -8.700  45.848 -29.583  1.00  0.00     0.003 C 
HETATM   13  C17 UNL     1      -7.232  46.184 -30.092  1.00  0.00    -0.035 C 
HETATM   14  C18 UNL     1      -6.332  46.769 -28.979  1.00  0.00     0.016 C 
HETATM   15  C19 UNL     1      -6.557  44.837 -30.549  1.00  0.00     0.017 C 
HETATM   16  C20 UNL     1      -5.588  44.947 -31.723  1.00  0.00     0.080 C 
HETATM   17  C21 UNL     1      -4.983  46.323 -31.807  1.00  0.00     0.137 C 
HETATM   18  O3  UNL     1      -3.767  46.483 -31.703  1.00  0.00    -0.297 OA
HETATM   19  C22 UNL     1      -5.960  47.485 -32.032  1.00  0.00     0.042 C 
HETATM   20  C23 UNL     1      -5.327  48.785 -31.501  1.00  0.00     0.026 C 
HETATM   21  C25 UNL     1      -7.335  47.126 -31.346  1.00  0.00     0.012 C 
HETATM   22  C26 UNL     1      -8.222  48.355 -31.079  1.00  0.00     0.007 C 
HETATM   23  C27 UNL     1      -9.640  47.951 -30.665  1.00  0.00     0.011 C 
HETATM   24  C28 UNL     1      -9.705  47.057 -29.397  1.00  0.00    -0.032 C 
HETATM   25  C29 UNL     1      -9.302  47.955 -28.191  1.00  0.00     0.016 C 
HETATM   26  C30 UNL     1     -12.595  45.013 -27.536  1.00  0.00     0.017 C 
ENDROOT
BRANCH   4  27
HETATM   27  C8  UNL     1     -13.166  47.133 -26.033  1.00  0.00     0.149 C 
HETATM   28  O1  UNL     1     -12.054  47.593 -25.807  1.00  0.00    -0.649 OA
BRANCH  27  29
HETATM   29  O2  UNL     1     -14.181  47.477 -25.227  1.00  0.00    -0.776 OA
HETATM   30  H11 UNL     1     -13.766  48.073 -24.567  1.00  0.00     0.167 HD
ENDBRANCH  27  29
ENDBRANCH   4  27
BRANCH   1  31
HETATM   31  C2  UNL     1     -12.580  42.538 -26.582  1.00  0.00    -0.088 C 
HETATM   32  C1  UNL     1     -11.952  41.712 -25.728  1.00  0.00     0.014 C 
HETATM   33  C3  UNL     1     -13.116  42.004 -27.887  1.00  0.00     0.043 C 
ENDBRANCH   1  31
BRANCH  19  34
HETATM   34  C24 UNL     1      -6.193  47.608 -33.561  1.00  0.00     0.181 C 
BRANCH  34  35
HETATM   35  O4  UNL     1      -5.006  47.484 -34.331  1.00  0.00    -0.400 OA
HETATM   36  H37 UNL     1      -4.419  48.233 -34.128  1.00  0.00     0.209 HD
ENDBRANCH  34  35
ENDBRANCH  19  34
TORSDOF 5
ENDMDL
MODEL 9
REMARK minimizedAffinity -6.75192976
REMARK CNNscore 0.441995382
REMARK CNNaffinity 6.09368944
REMARK  5 active torsions:
REMARK  status: ('A' for Active; 'I' for Inactive)
REMARK    1  A    between atoms: C2_2  and  C4_4 
REMARK    2  A    between atoms: C7_7  and  C8_8 
REMARK    3  A    between atoms: C8_8  and  O2_10 
REMARK    4  A    between atoms: C22_25  and  C24_27 
REMARK    5  A    between atoms: C24_27  and  O4_28 
ROOT
HETATM    1  C4  UNL     1       2.094  54.951  -9.341  1.00  0.00     0.019 C 
HETATM    2  C5  UNL     1       0.654  54.660  -9.845  1.00  0.00     0.011 C 
HETATM    3  C6  UNL     1      -0.297  55.550  -9.028  1.00  0.00     0.021 C 
HETATM    4  C7  UNL     1       0.478  55.837  -7.739  1.00  0.00     0.050 C 
HETATM    5  C9  UNL     1       0.033  57.094  -6.975  1.00  0.00     0.022 C 
HETATM    6  C10 UNL     1       1.026  57.423  -5.839  1.00  0.00     0.011 C 
HETATM    7  C11 UNL     1       2.520  57.578  -6.296  1.00  0.00    -0.032 C 
HETATM    8  C12 UNL     1       2.561  58.894  -7.145  1.00  0.00     0.016 C 
HETATM    9  C13 UNL     1       2.922  56.333  -7.188  1.00  0.00     0.000 C 
HETATM   10  C14 UNL     1       4.372  56.427  -7.674  1.00  0.00     0.006 C 
HETATM   11  C15 UNL     1       5.364  56.580  -6.517  1.00  0.00     0.006 C 
HETATM   12  C16 UNL     1       5.029  57.772  -5.596  1.00  0.00     0.003 C 
HETATM   13  C17 UNL     1       6.182  58.144  -4.566  1.00  0.00    -0.035 C 
HETATM   14  C18 UNL     1       6.597  56.949  -3.675  1.00  0.00     0.016 C 
HETATM   15  C19 UNL     1       7.459  58.548  -5.392  1.00  0.00     0.017 C 
HETATM   16  C20 UNL     1       8.338  59.628  -4.767  1.00  0.00     0.080 C 
HETATM   17  C21 UNL     1       8.201  59.647  -3.268  1.00  0.00     0.137 C 
HETATM   18  O3  UNL     1       9.174  59.431  -2.545  1.00  0.00    -0.297 OA
HETATM   19  C22 UNL     1       6.802  59.950  -2.715  1.00  0.00     0.042 C 
HETATM   20  C23 UNL     1       6.680  59.354  -1.299  1.00  0.00     0.026 C 
HETATM   21  C25 UNL     1       5.728  59.394  -3.729  1.00  0.00     0.012 C 
HETATM   22  C26 UNL     1       4.338  59.199  -3.098  1.00  0.00     0.007 C 
HETATM   23  C27 UNL     1       3.269  58.918  -4.158  1.00  0.00     0.011 C 
HETATM   24  C28 UNL     1       3.553  57.669  -5.036  1.00  0.00    -0.032 C 
HETATM   25  C29 UNL     1       3.375  56.424  -4.117  1.00  0.00     0.016 C 
HETATM   26  C30 UNL     1       1.891  56.093  -8.315  1.00  0.00     0.017 C 
ENDROOT
BRANCH   4  27
HETATM   27  C8  UNL     1       0.249  54.631  -6.815  1.00  0.00     0.149 C 
HETATM   28  O1  UNL     1       1.114  53.846  -6.449  1.00  0.00    -0.649 OA
BRANCH  27  29
HETATM   29  O2  UNL     1      -1.002  54.469  -6.362  1.00  0.00    -0.776 OA
HETATM   30  H11 UNL     1      -0.943  53.676  -5.788  1.00  0.00     0.167 HD
ENDBRANCH  27  29
ENDBRANCH   4  27
BRANCH   1  31
HETATM   31  C2  UNL     1       3.038  55.161 -10.518  1.00  0.00    -0.088 C 
HETATM   32  C1  UNL     1       3.311  56.342 -11.097  1.00  0.00     0.014 C 
HETATM   33  C3  UNL     1       3.686  53.901 -11.037  1.00  0.00     0.043 C 
ENDBRANCH   1  31
BRANCH  19  34
HETATM   34  C24 UNL     1       6.654  61.493  -2.642  1.00  0.00     0.181 C 
BRANCH  34  35
HETATM   35  O4  UNL     1       6.056  62.065  -3.797  1.00  0.00    -0.400 OA
HETATM   36  H37 UNL     1       6.647  61.926  -4.558  1.00  0.00     0.209 HD
ENDBRANCH  34  35
ENDBRANCH  19  34
TORSDOF 5
ENDMDL
