MODEL 1
REMARK minimizedAffinity -8.84539032
REMARK CNNscore 0.379743785
REMARK CNNaffinity 6.12579536
REMARK  11 active torsions:
REMARK  status: ('A' for Active; 'I' for Inactive)
REMARK    1  A    between atoms: C3_4  and  O2_5 
REMARK    2  A    between atoms: O2_5  and  C4_6 
REMARK    3  A    between atoms: C7_9  and  C8_10 
REMARK    4  A    between atoms: N1_11  and  C9_13 
REMARK    5  A    between atoms: C9_13  and  C10_14 
REMARK    6  A    between atoms: C10_14  and  C11_15 
REMARK    7  A    between atoms: C22_26  and  C23_27 
REMARK    8  A    between atoms: C29_35  and  O5_36 
REMARK    9  A    between atoms: C33_40  and  O6_41 
REMARK   10  A    between atoms: C36_44  and  O7_45 
REMARK   11  A    between atoms: C37_46  and  O8_47 
ROOT
HETATM    1  C4  UNL     1      -9.734  45.317 -31.618  1.00  0.00     0.127 C 
HETATM    2  C5  UNL     1      -8.866  44.864 -30.438  1.00  0.00     0.033 C 
HETATM    3  C6  UNL     1      -9.712  44.527 -29.218  1.00  0.00     0.021 C 
HETATM    4  C7  UNL     1     -10.435  45.781 -28.645  1.00  0.00     0.026 C 
HETATM    5  C17 UNL     1     -11.660  45.338 -27.774  1.00  0.00     0.009 C 
HETATM    6  C18 UNL     1     -11.384  44.240 -26.732  1.00  0.00     0.007 C 
HETATM    7  C19 UNL     1     -12.681  43.823 -26.035  1.00  0.00     0.013 C 
HETATM    8  C20 UNL     1     -13.411  44.992 -25.313  1.00  0.00    -0.005 C 
HETATM    9  C21 UNL     1     -12.602  45.355 -24.052  1.00  0.00     0.019 C 
HETATM   10  C22 UNL     1     -14.884  44.542 -24.999  1.00  0.00     0.028 C 
HETATM   11  C27 UNL     1     -15.659  44.849 -26.302  1.00  0.00     0.013 C 
HETATM   12  C28 UNL     1     -14.802  45.796 -27.151  1.00  0.00     0.040 C 
HETATM   13  C29 UNL     1     -13.603  46.196 -26.283  1.00  0.00     0.070 C 
HETATM   14  C30 UNL     1     -12.325  46.559 -27.089  1.00  0.00     0.026 C 
HETATM   15  C31 UNL     1     -12.529  47.739 -28.066  1.00  0.00     0.011 C 
HETATM   16  C32 UNL     1     -12.334  47.351 -29.528  1.00  0.00     0.039 C 
HETATM   17  C33 UNL     1     -10.952  46.716 -29.820  1.00  0.00     0.073 C 
HETATM   18  C34 UNL     1     -11.053  45.962 -31.168  1.00  0.00     0.071 C 
ENDROOT
BRANCH   1  19
HETATM   19  O2  UNL     1      -8.998  46.260 -32.407  1.00  0.00    -0.356 OA
BRANCH  19  20
HETATM   20  C3  UNL     1      -7.824  46.747 -31.740  1.00  0.00     0.263 C 
HETATM   21  O1  UNL     1      -6.820  45.747 -31.902  1.00  0.00    -0.354 OA
HETATM   22  C2  UNL     1      -5.476  46.223 -31.943  1.00  0.00     0.151 C 
HETATM   23  C1  UNL     1      -5.038  46.759 -30.579  1.00  0.00     0.042 C 
HETATM   24  C37 UNL     1      -5.256  47.158 -33.155  1.00  0.00     0.175 C 
HETATM   25  C36 UNL     1      -6.544  47.896 -33.576  1.00  0.00     0.154 C 
HETATM   26  C35 UNL     1      -7.479  48.087 -32.393  1.00  0.00     0.095 C 
BRANCH  24  27
HETATM   27  O8  UNL     1      -4.209  48.094 -32.880  1.00  0.00    -0.390 OA
HETATM   28  H51 UNL     1      -4.014  48.558 -33.718  1.00  0.00     0.210 HD
ENDBRANCH  24  27
BRANCH  25  29
HETATM   29  O7  UNL     1      -7.205  47.179 -34.629  1.00  0.00    -0.393 OA
HETATM   30  H49 UNL     1      -7.735  46.466 -34.213  1.00  0.00     0.210 HD
ENDBRANCH  25  29
ENDBRANCH  19  20
ENDBRANCH   1  19
BRANCH  17  31
HETATM   31  O6  UNL     1     -10.020  47.788 -30.014  1.00  0.00    -0.389 OA
HETATM   32  H43 UNL     1     -10.374  48.388 -30.701  1.00  0.00     0.210 HD
ENDBRANCH  17  31
BRANCH   4  33
HETATM   33  C8  UNL     1      -9.462  46.578 -27.752  1.00  0.00     0.068 C 
HETATM   34  N1  UNL     1      -8.315  46.121 -27.357  1.00  0.00    -0.401 N 
ATOM     35  H1  UNL     1      -7.935  45.211 -27.616  1.00  0.00     0.158 HD
BRANCH  34  36
HETATM   36  C9  UNL     1      -7.632  47.093 -26.482  1.00  0.00     0.123 C 
BRANCH  36  37
HETATM   37  C10 UNL     1      -6.474  47.741 -27.237  1.00  0.00     0.058 C 
BRANCH  37  38
HETATM   38  C11 UNL     1      -5.361  48.117 -26.291  1.00  0.00    -0.057 A 
HETATM   39  C12 UNL     1      -4.055  48.314 -26.766  1.00  0.00     0.007 A 
HETATM   40  C13 UNL     1      -3.013  48.611 -25.881  1.00  0.00     0.001 A 
HETATM   41  C14 UNL     1      -3.263  48.705 -24.513  1.00  0.00     0.000 A 
HETATM   42  C15 UNL     1      -4.556  48.501 -24.029  1.00  0.00     0.001 A 
HETATM   43  C16 UNL     1      -5.601  48.209 -24.913  1.00  0.00     0.007 A 
ENDBRANCH  37  38
ENDBRANCH  36  37
ENDBRANCH  34  36
ENDBRANCH   4  33
BRANCH  13  44
HETATM   44  O5  UNL     1     -14.013  47.359 -25.556  1.00  0.00    -0.389 OA
HETATM   45  H37 UNL     1     -13.260  47.675 -25.027  1.00  0.00     0.210 HD
ENDBRANCH  13  44
BRANCH  10  46
HETATM   46  C23 UNL     1     -15.534  45.125 -23.769  1.00  0.00    -0.045 A 
HETATM   47  C24 UNL     1     -16.712  45.733 -23.634  1.00  0.00     0.087 A 
HETATM   48  C25 UNL     1     -16.810  46.180 -22.247  1.00  0.00     0.283 A 
HETATM   49  O3  UNL     1     -17.711  46.848 -21.791  1.00  0.00    -0.260 OA
HETATM   50  O4  UNL     1     -15.703  45.781 -21.570  1.00  0.00    -0.314 OA
HETATM   51  C26 UNL     1     -14.840  45.083 -22.459  1.00  0.00     0.213 A 
ENDBRANCH  10  46
TORSDOF 11
ENDMDL
MODEL 2
REMARK minimizedAffinity -8.70726204
REMARK CNNscore 0.336707085
REMARK CNNaffinity 5.58362579
REMARK  11 active torsions:
REMARK  status: ('A' for Active; 'I' for Inactive)
REMARK    1  A    between atoms: C3_4  and  O2_5 
REMARK    2  A    between atoms: O2_5  and  C4_6 
REMARK    3  A    between atoms: C7_9  and  C8_10 
REMARK    4  A    between atoms: N1_11  and  C9_13 
REMARK    5  A    between atoms: C9_13  and  C10_14 
REMARK    6  A    between atoms: C10_14  and  C11_15 
REMARK    7  A    between atoms: C22_26  and  C23_27 
REMARK    8  A    between atoms: C29_35  and  O5_36 
REMARK    9  A    between atoms: C33_40  and  O6_41 
REMARK   10  A    between atoms: C36_44  and  O7_45 
REMARK   11  A    between atoms: C37_46  and  O8_47 
ROOT
HETATM    1  C4  UNL     1     -11.957  47.800 -28.714  1.00  0.00     0.127 C 
HETATM    2  C5  UNL     1     -12.431  46.519 -29.410  1.00  0.00     0.033 C 
HETATM    3  C6  UNL     1     -13.803  46.087 -28.913  1.00  0.00     0.021 C 
HETATM    4  C7  UNL     1     -13.775  45.667 -27.415  1.00  0.00     0.026 C 
HETATM    5  C17 UNL     1     -15.220  45.745 -26.811  1.00  0.00     0.009 C 
HETATM    6  C18 UNL     1     -16.330  45.068 -27.634  1.00  0.00     0.007 C 
HETATM    7  C19 UNL     1     -17.699  45.317 -26.995  1.00  0.00     0.013 C 
HETATM    8  C20 UNL     1     -17.812  44.805 -25.531  1.00  0.00    -0.005 C 
HETATM    9  C21 UNL     1     -17.872  43.265 -25.565  1.00  0.00     0.019 C 
HETATM   10  C22 UNL     1     -19.076  45.463 -24.868  1.00  0.00     0.028 C 
HETATM   11  C27 UNL     1     -18.568  46.833 -24.361  1.00  0.00     0.013 C 
HETATM   12  C28 UNL     1     -17.035  46.794 -24.347  1.00  0.00     0.040 C 
HETATM   13  C29 UNL     1     -16.632  45.350 -24.671  1.00  0.00     0.070 C 
HETATM   14  C30 UNL     1     -15.244  45.214 -25.356  1.00  0.00     0.026 C 
HETATM   15  C31 UNL     1     -14.082  45.777 -24.508  1.00  0.00     0.011 C 
HETATM   16  C32 UNL     1     -13.366  46.951 -25.170  1.00  0.00     0.039 C 
HETATM   17  C33 UNL     1     -12.819  46.623 -26.582  1.00  0.00     0.073 C 
HETATM   18  C34 UNL     1     -12.554  47.964 -27.308  1.00  0.00     0.071 C 
ENDROOT
BRANCH   1  19
HETATM   19  O2  UNL     1     -10.527  47.778 -28.615  1.00  0.00    -0.356 OA
BRANCH  19  20
HETATM   20  C3  UNL     1      -9.890  47.409 -29.846  1.00  0.00     0.263 C 
HETATM   21  O1  UNL     1      -9.734  48.611 -30.599  1.00  0.00    -0.354 OA
HETATM   22  C2  UNL     1      -8.608  48.649 -31.474  1.00  0.00     0.151 C 
HETATM   23  C1  UNL     1      -8.784  47.677 -32.643  1.00  0.00     0.042 C 
HETATM   24  C37 UNL     1      -7.285  48.543 -30.681  1.00  0.00     0.175 C 
HETATM   25  C36 UNL     1      -7.445  47.755 -29.364  1.00  0.00     0.154 C 
HETATM   26  C35 UNL     1      -8.569  46.737 -29.467  1.00  0.00     0.095 C 
BRANCH  24  27
HETATM   27  O8  UNL     1      -6.261  47.960 -31.493  1.00  0.00    -0.390 OA
HETATM   28  H51 UNL     1      -5.422  48.049 -31.001  1.00  0.00     0.210 HD
ENDBRANCH  24  27
BRANCH  25  29
HETATM   29  O7  UNL     1      -7.680  48.655 -28.272  1.00  0.00    -0.393 OA
HETATM   30  H49 UNL     1      -8.636  48.874 -28.271  1.00  0.00     0.210 HD
ENDBRANCH  25  29
ENDBRANCH  19  20
ENDBRANCH   1  19
BRANCH  17  31
HETATM   31  O6  UNL     1     -11.547  45.986 -26.411  1.00  0.00    -0.389 OA
HETATM   32  H43 UNL     1     -10.984  46.558 -25.851  1.00  0.00     0.210 HD
ENDBRANCH  17  31
BRANCH   4  33
HETATM   33  C8  UNL     1     -13.272  44.214 -27.293  1.00  0.00     0.068 C 
HETATM   34  N1  UNL     1     -12.724  43.733 -26.221  1.00  0.00    -0.401 N 
ATOM     35  H1  UNL     1     -12.598  44.254 -25.353  1.00  0.00     0.158 HD
BRANCH  34  36
HETATM   36  C9  UNL     1     -12.308  42.333 -26.423  1.00  0.00     0.123 C 
BRANCH  36  37
HETATM   37  C10 UNL     1     -13.287  41.634 -27.363  1.00  0.00     0.058 C 
BRANCH  37  38
HETATM   38  C11 UNL     1     -12.561  41.006 -28.526  1.00  0.00    -0.057 A 
HETATM   39  C12 UNL     1     -11.742  41.782 -29.361  1.00  0.00     0.007 A 
HETATM   40  C13 UNL     1     -11.111  41.209 -30.470  1.00  0.00     0.001 A 
HETATM   41  C14 UNL     1     -11.299  39.858 -30.761  1.00  0.00     0.000 A 
HETATM   42  C15 UNL     1     -12.119  39.080 -29.944  1.00  0.00     0.001 A 
HETATM   43  C16 UNL     1     -12.747  39.650 -28.829  1.00  0.00     0.007 A 
ENDBRANCH  37  38
ENDBRANCH  36  37
ENDBRANCH  34  36
ENDBRANCH   4  33
BRANCH  13  44
HETATM   44  O5  UNL     1     -16.574  44.665 -23.415  1.00  0.00    -0.389 OA
HETATM   45  H37 UNL     1     -16.273  43.754 -23.572  1.00  0.00     0.210 HD
ENDBRANCH  13  44
BRANCH  10  46
HETATM   46  C23 UNL     1     -19.791  44.664 -23.807  1.00  0.00    -0.045 A 
HETATM   47  C24 UNL     1     -20.691  43.691 -23.935  1.00  0.00     0.087 A 
HETATM   48  C25 UNL     1     -21.124  43.323 -22.589  1.00  0.00     0.283 A 
HETATM   49  O3  UNL     1     -22.002  42.531 -22.329  1.00  0.00    -0.260 OA
HETATM   50  O4  UNL     1     -20.428  44.055 -21.681  1.00  0.00    -0.314 OA
HETATM   51  C26 UNL     1     -19.539  44.926 -22.369  1.00  0.00     0.213 A 
ENDBRANCH  10  46
TORSDOF 11
ENDMDL
MODEL 3
REMARK minimizedAffinity -8.91591072
REMARK CNNscore 0.264701039
REMARK CNNaffinity 6.5630455
REMARK  11 active torsions:
REMARK  status: ('A' for Active; 'I' for Inactive)
REMARK    1  A    between atoms: C3_4  and  O2_5 
REMARK    2  A    between atoms: O2_5  and  C4_6 
REMARK    3  A    between atoms: C7_9  and  C8_10 
REMARK    4  A    between atoms: N1_11  and  C9_13 
REMARK    5  A    between atoms: C9_13  and  C10_14 
REMARK    6  A    between atoms: C10_14  and  C11_15 
REMARK    7  A    between atoms: C22_26  and  C23_27 
REMARK    8  A    between atoms: C29_35  and  O5_36 
REMARK    9  A    between atoms: C33_40  and  O6_41 
REMARK   10  A    between atoms: C36_44  and  O7_45 
REMARK   11  A    between atoms: C37_46  and  O8_47 
ROOT
HETATM    1  C4  UNL     1      -2.948  48.883 -25.481  1.00  0.00     0.127 C 
HETATM    2  C5  UNL     1      -2.519  48.995 -24.013  1.00  0.00     0.033 C 
HETATM    3  C6  UNL     1      -3.276  48.012 -23.132  1.00  0.00     0.021 C 
HETATM    4  C7  UNL     1      -4.796  48.338 -23.067  1.00  0.00     0.026 C 
HETATM    5  C17 UNL     1      -5.596  47.065 -22.623  1.00  0.00     0.009 C 
HETATM    6  C18 UNL     1      -5.056  46.329 -21.384  1.00  0.00     0.007 C 
HETATM    7  C19 UNL     1      -5.856  45.048 -21.131  1.00  0.00     0.013 C 
HETATM    8  C20 UNL     1      -7.378  45.288 -20.916  1.00  0.00    -0.005 C 
HETATM    9  C21 UNL     1      -7.569  45.935 -19.529  1.00  0.00     0.019 C 
HETATM   10  C22 UNL     1      -8.127  43.916 -21.072  1.00  0.00     0.028 C 
HETATM   11  C27 UNL     1      -8.353  43.779 -22.596  1.00  0.00     0.013 C 
HETATM   12  C28 UNL     1      -8.137  45.158 -23.232  1.00  0.00     0.040 C 
HETATM   13  C29 UNL     1      -7.962  46.149 -22.076  1.00  0.00     0.070 C 
HETATM   14  C30 UNL     1      -7.098  47.392 -22.428  1.00  0.00     0.026 C 
HETATM   15  C31 UNL     1      -7.671  48.229 -23.595  1.00  0.00     0.011 C 
HETATM   16  C32 UNL     1      -6.749  48.280 -24.809  1.00  0.00     0.039 C 
HETATM   17  C33 UNL     1      -5.330  48.811 -24.486  1.00  0.00     0.073 C 
HETATM   18  C34 UNL     1      -4.391  48.381 -25.638  1.00  0.00     0.071 C 
ENDROOT
BRANCH   1  19
HETATM   19  O2  UNL     1      -2.829  50.168 -26.104  1.00  0.00    -0.356 OA
BRANCH  19  20
HETATM   20  C3  UNL     1      -1.480  50.482 -26.478  1.00  0.00     0.263 C 
HETATM   21  O1  UNL     1      -1.563  51.346 -27.610  1.00  0.00    -0.354 OA
HETATM   22  C2  UNL     1      -0.500  52.287 -27.748  1.00  0.00     0.151 C 
HETATM   23  C1  UNL     1       0.816  51.588 -28.097  1.00  0.00     0.042 C 
HETATM   24  C37 UNL     1      -0.466  53.264 -26.549  1.00  0.00     0.175 C 
HETATM   25  C36 UNL     1      -1.022  52.633 -25.255  1.00  0.00     0.154 C 
HETATM   26  C35 UNL     1      -0.828  51.126 -25.251  1.00  0.00     0.095 C 
BRANCH  24  27
HETATM   27  O8  UNL     1       0.864  53.749 -26.338  1.00  0.00    -0.390 OA
HETATM   28  H51 UNL     1       0.806  54.462 -25.673  1.00  0.00     0.210 HD
ENDBRANCH  24  27
BRANCH  25  29
HETATM   29  O7  UNL     1      -2.410  52.963 -25.100  1.00  0.00    -0.393 OA
HETATM   30  H49 UNL     1      -2.926  52.331 -25.644  1.00  0.00     0.210 HD
ENDBRANCH  25  29
ENDBRANCH  19  20
ENDBRANCH   1  19
BRANCH  17  31
HETATM   31  O6  UNL     1      -5.392  50.242 -24.513  1.00  0.00    -0.389 OA
HETATM   32  H43 UNL     1      -5.773  50.522 -25.370  1.00  0.00     0.210 HD
ENDBRANCH  17  31
BRANCH   4  33
HETATM   33  C8  UNL     1      -5.042  49.456 -22.033  1.00  0.00     0.068 C 
HETATM   34  N1  UNL     1      -4.359  49.584 -20.939  1.00  0.00    -0.401 N 
ATOM     35  H1  UNL     1      -3.582  48.981 -20.670  1.00  0.00     0.158 HD
BRANCH  34  36
HETATM   36  C9  UNL     1      -4.855  50.717 -20.136  1.00  0.00     0.123 C 
BRANCH  36  37
HETATM   37  C10 UNL     1      -3.683  51.411 -19.446  1.00  0.00     0.058 C 
BRANCH  37  38
HETATM   38  C11 UNL     1      -2.368  50.920 -19.997  1.00  0.00    -0.057 A 
HETATM   39  C12 UNL     1      -1.767  51.563 -21.091  1.00  0.00     0.007 A 
HETATM   40  C13 UNL     1      -0.574  51.074 -21.635  1.00  0.00     0.001 A 
HETATM   41  C14 UNL     1       0.025  49.935 -21.098  1.00  0.00     0.000 A 
HETATM   42  C15 UNL     1      -0.570  49.283 -20.018  1.00  0.00     0.001 A 
HETATM   43  C16 UNL     1      -1.760  49.773 -19.468  1.00  0.00     0.007 A 
ENDBRANCH  37  38
ENDBRANCH  36  37
ENDBRANCH  34  36
ENDBRANCH   4  33
BRANCH  13  44
HETATM   44  O5  UNL     1      -9.277  46.605 -21.744  1.00  0.00    -0.389 OA
HETATM   45  H37 UNL     1      -9.205  47.276 -21.043  1.00  0.00     0.210 HD
ENDBRANCH  13  44
BRANCH  10  46
HETATM   46  C23 UNL     1      -9.386  43.724 -20.264  1.00  0.00    -0.045 A 
HETATM   47  C24 UNL     1     -10.620  44.173 -20.490  1.00  0.00     0.087 A 
HETATM   48  C25 UNL     1     -11.440  43.771 -19.350  1.00  0.00     0.283 A 
HETATM   49  O3  UNL     1     -12.596  44.086 -19.176  1.00  0.00    -0.260 OA
HETATM   50  O4  UNL     1     -10.682  43.043 -18.489  1.00  0.00    -0.314 OA
HETATM   51  C26 UNL     1      -9.360  42.947 -19.002  1.00  0.00     0.213 A 
ENDBRANCH  10  46
TORSDOF 11
ENDMDL
MODEL 4
REMARK minimizedAffinity -11.8330507
REMARK CNNscore 0.256889611
REMARK CNNaffinity 7.0690465
REMARK  11 active torsions:
REMARK  status: ('A' for Active; 'I' for Inactive)
REMARK    1  A    between atoms: C3_4  and  O2_5 
REMARK    2  A    between atoms: O2_5  and  C4_6 
REMARK    3  A    between atoms: C7_9  and  C8_10 
REMARK    4  A    between atoms: N1_11  and  C9_13 
REMARK    5  A    between atoms: C9_13  and  C10_14 
REMARK    6  A    between atoms: C10_14  and  C11_15 
REMARK    7  A    between atoms: C22_26  and  C23_27 
REMARK    8  A    between atoms: C29_35  and  O5_36 
REMARK    9  A    between atoms: C33_40  and  O6_41 
REMARK   10  A    between atoms: C36_44  and  O7_45 
REMARK   11  A    between atoms: C37_46  and  O8_47 
ROOT
HETATM    1  C4  UNL     1      -6.031  47.975 -24.213  1.00  0.00     0.127 C 
HETATM    2  C5  UNL     1      -4.712  48.359 -24.894  1.00  0.00     0.033 C 
HETATM    3  C6  UNL     1      -3.592  48.543 -23.881  1.00  0.00     0.021 C 
HETATM    4  C7  UNL     1      -3.852  49.755 -22.938  1.00  0.00     0.026 C 
HETATM    5  C17 UNL     1      -3.006  49.602 -21.628  1.00  0.00     0.009 C 
HETATM    6  C18 UNL     1      -1.517  49.264 -21.823  1.00  0.00     0.007 C 
HETATM    7  C19 UNL     1      -0.838  49.031 -20.472  1.00  0.00     0.013 C 
HETATM    8  C20 UNL     1      -0.927  50.246 -19.504  1.00  0.00    -0.005 C 
HETATM    9  C21 UNL     1       0.018  51.345 -20.028  1.00  0.00     0.019 C 
HETATM   10  C22 UNL     1      -0.570  49.757 -18.054  1.00  0.00     0.028 C 
HETATM   11  C27 UNL     1      -1.905  49.205 -17.501  1.00  0.00     0.013 C 
HETATM   12  C28 UNL     1      -3.038  49.724 -18.395  1.00  0.00     0.040 C 
HETATM   13  C29 UNL     1      -2.403  50.725 -19.368  1.00  0.00     0.070 C 
HETATM   14  C30 UNL     1      -3.147  50.854 -20.726  1.00  0.00     0.026 C 
HETATM   15  C31 UNL     1      -4.618  51.308 -20.581  1.00  0.00     0.011 C 
HETATM   16  C32 UNL     1      -5.620  50.270 -21.078  1.00  0.00     0.039 C 
HETATM   17  C33 UNL     1      -5.389  49.844 -22.549  1.00  0.00     0.073 C 
HETATM   18  C34 UNL     1      -6.129  48.503 -22.774  1.00  0.00     0.071 C 
ENDROOT
BRANCH   1  19
HETATM   19  O2  UNL     1      -7.124  48.499 -24.978  1.00  0.00    -0.356 OA
BRANCH  19  20
HETATM   20  C3  UNL     1      -8.011  47.476 -25.455  1.00  0.00     0.263 C 
HETATM   21  O1  UNL     1      -9.046  47.350 -24.482  1.00  0.00    -0.354 OA
HETATM   22  C2  UNL     1     -10.318  46.945 -24.983  1.00  0.00     0.151 C 
HETATM   23  C1  UNL     1     -10.286  45.492 -25.462  1.00  0.00     0.042 C 
HETATM   24  C37 UNL     1     -10.880  47.988 -25.978  1.00  0.00     0.175 C 
HETATM   25  C36 UNL     1      -9.768  48.766 -26.711  1.00  0.00     0.154 C 
HETATM   26  C35 UNL     1      -8.502  47.934 -26.830  1.00  0.00     0.095 C 
BRANCH  24  27
HETATM   27  O8  UNL     1     -11.756  47.359 -26.919  1.00  0.00    -0.390 OA
HETATM   28  H51 UNL     1     -12.190  48.072 -27.425  1.00  0.00     0.210 HD
ENDBRANCH  24  27
BRANCH  25  29
HETATM   29  O7  UNL     1      -9.496  50.001 -26.033  1.00  0.00    -0.393 OA
HETATM   30  H49 UNL     1      -8.885  49.802 -25.292  1.00  0.00     0.210 HD
ENDBRANCH  25  29
ENDBRANCH  19  20
ENDBRANCH   1  19
BRANCH  17  31
HETATM   31  O6  UNL     1      -6.031  50.816 -23.383  1.00  0.00    -0.389 OA
HETATM   32  H43 UNL     1      -6.964  50.903 -23.099  1.00  0.00     0.210 HD
ENDBRANCH  17  31
BRANCH   4  33
HETATM   33  C8  UNL     1      -3.430  51.060 -23.644  1.00  0.00     0.068 C 
HETATM   34  N1  UNL     1      -2.454  51.132 -24.494  1.00  0.00    -0.401 N 
ATOM     35  H1  UNL     1      -1.892  50.337 -24.797  1.00  0.00     0.158 HD
BRANCH  34  36
HETATM   36  C9  UNL     1      -2.265  52.517 -24.964  1.00  0.00     0.123 C 
BRANCH  36  37
HETATM   37  C10 UNL     1      -0.824  52.954 -24.713  1.00  0.00     0.058 C 
BRANCH  37  38
HETATM   38  C11 UNL     1       0.081  52.487 -25.826  1.00  0.00    -0.057 A 
HETATM   39  C12 UNL     1       1.360  51.983 -25.544  1.00  0.00     0.007 A 
HETATM   40  C13 UNL     1       2.218  51.599 -26.580  1.00  0.00     0.001 A 
HETATM   41  C14 UNL     1       1.811  51.725 -27.908  1.00  0.00     0.000 A 
HETATM   42  C15 UNL     1       0.546  52.235 -28.200  1.00  0.00     0.001 A 
HETATM   43  C16 UNL     1      -0.317  52.614 -27.164  1.00  0.00     0.007 A 
ENDBRANCH  37  38
ENDBRANCH  36  37
ENDBRANCH  34  36
ENDBRANCH   4  33
BRANCH  13  44
HETATM   44  O5  UNL     1      -2.455  51.997 -18.713  1.00  0.00    -0.389 OA
HETATM   45  H37 UNL     1      -2.104  52.672 -19.320  1.00  0.00     0.210 HD
ENDBRANCH  13  44
BRANCH  10  46
HETATM   46  C23 UNL     1       0.087  50.755 -17.134  1.00  0.00    -0.045 A 
HETATM   47  C24 UNL     1       0.248  50.719 -15.812  1.00  0.00     0.087 A 
HETATM   48  C25 UNL     1       0.871  51.979 -15.418  1.00  0.00     0.283 A 
HETATM   49  O3  UNL     1       1.084  52.328 -14.279  1.00  0.00    -0.260 OA
HETATM   50  O4  UNL     1       1.118  52.722 -16.529  1.00  0.00    -0.314 OA
HETATM   51  C26 UNL     1       0.665  52.010 -17.673  1.00  0.00     0.213 A 
ENDBRANCH  10  46
TORSDOF 11
ENDMDL
MODEL 5
REMARK minimizedAffinity -9.91323662
REMARK CNNscore 0.230464399
REMARK CNNaffinity 6.77518845
REMARK  11 active torsions:
REMARK  status: ('A' for Active; 'I' for Inactive)
REMARK    1  A    between atoms: C3_4  and  O2_5 
REMARK    2  A    between atoms: O2_5  and  C4_6 
REMARK    3  A    between atoms: C7_9  and  C8_10 
REMARK    4  A    between atoms: N1_11  and  C9_13 
REMARK    5  A    between atoms: C9_13  and  C10_14 
REMARK    6  A    between atoms: C10_14  and  C11_15 
REMARK    7  A    between atoms: C22_26  and  C23_27 
REMARK    8  A    between atoms: C29_35  and  O5_36 
REMARK    9  A    between atoms: C33_40  and  O6_41 
REMARK   10  A    between atoms: C36_44  and  O7_45 
REMARK   11  A    between atoms: C37_46  and  O8_47 
ROOT
HETATM    1  C4  UNL     1      -2.285  50.576 -24.652  1.00  0.00     0.127 C 
HETATM    2  C5  UNL     1      -1.676  50.004 -23.367  1.00  0.00     0.033 C 
HETATM    3  C6  UNL     1      -2.575  48.947 -22.743  1.00  0.00     0.021 C 
HETATM    4  C7  UNL     1      -3.921  49.547 -22.242  1.00  0.00     0.026 C 
HETATM    5  C17 UNL     1      -4.995  48.413 -22.109  1.00  0.00     0.009 C 
HETATM    6  C18 UNL     1      -4.549  47.150 -21.353  1.00  0.00     0.007 C 
HETATM    7  C19 UNL     1      -5.646  46.084 -21.396  1.00  0.00     0.013 C 
HETATM    8  C20 UNL     1      -7.001  46.549 -20.788  1.00  0.00    -0.005 C 
HETATM    9  C21 UNL     1      -6.838  46.623 -19.257  1.00  0.00     0.019 C 
HETATM   10  C22 UNL     1      -8.123  45.551 -21.248  1.00  0.00     0.028 C 
HETATM   11  C27 UNL     1      -8.553  46.078 -22.637  1.00  0.00     0.013 C 
HETATM   12  C28 UNL     1      -8.027  47.511 -22.783  1.00  0.00     0.040 C 
HETATM   13  C29 UNL     1      -7.444  47.903 -21.420  1.00  0.00     0.070 C 
HETATM   14  C30 UNL     1      -6.308  48.960 -21.494  1.00  0.00     0.026 C 
HETATM   15  C31 UNL     1      -6.748  50.292 -22.143  1.00  0.00     0.011 C 
HETATM   16  C32 UNL     1      -5.996  50.612 -23.432  1.00  0.00     0.039 C 
HETATM   17  C33 UNL     1      -4.458  50.646 -23.257  1.00  0.00     0.073 C 
HETATM   18  C34 UNL     1      -3.819  50.508 -24.660  1.00  0.00     0.071 C 
ENDROOT
BRANCH   1  19
HETATM   19  O2  UNL     1      -1.877  51.942 -24.798  1.00  0.00    -0.356 OA
BRANCH  19  20
HETATM   20  C3  UNL     1      -0.500  52.073 -25.183  1.00  0.00     0.263 C 
HETATM   21  O1  UNL     1      -0.157  50.876 -25.879  1.00  0.00    -0.354 OA
HETATM   22  C2  UNL     1       0.842  51.013 -26.887  1.00  0.00     0.151 C 
HETATM   23  C1  UNL     1       2.211  51.312 -26.271  1.00  0.00     0.042 C 
HETATM   24  C37 UNL     1       0.369  51.964 -28.011  1.00  0.00     0.175 C 
HETATM   25  C36 UNL     1      -0.632  53.025 -27.508  1.00  0.00     0.154 C 
HETATM   26  C35 UNL     1      -0.407  53.338 -26.038  1.00  0.00     0.095 C 
BRANCH  24  27
HETATM   27  O8  UNL     1       1.491  52.592 -28.640  1.00  0.00    -0.390 OA
HETATM   28  H51 UNL     1       1.151  53.063 -29.425  1.00  0.00     0.210 HD
ENDBRANCH  24  27
BRANCH  25  29
HETATM   29  O7  UNL     1      -1.979  52.580 -27.727  1.00  0.00    -0.393 OA
HETATM   30  H49 UNL     1      -2.217  51.985 -26.985  1.00  0.00     0.210 HD
ENDBRANCH  25  29
ENDBRANCH  19  20
ENDBRANCH   1  19
BRANCH  17  31
HETATM   31  O6  UNL     1      -4.110  51.948 -22.769  1.00  0.00    -0.389 OA
HETATM   32  H43 UNL     1      -4.492  52.618 -23.371  1.00  0.00     0.210 HD
ENDBRANCH  17  31
BRANCH   4  33
HETATM   33  C8  UNL     1      -3.717  50.193 -20.856  1.00  0.00     0.068 C 
HETATM   34  N1  UNL     1      -2.707  50.950 -20.561  1.00  0.00    -0.401 N 
ATOM     35  H1  UNL     1      -1.971  51.212 -21.215  1.00  0.00     0.158 HD
BRANCH  34  36
HETATM   36  C9  UNL     1      -2.765  51.381 -19.151  1.00  0.00     0.123 C 
BRANCH  36  37
HETATM   37  C10 UNL     1      -1.352  51.473 -18.581  1.00  0.00     0.058 C 
BRANCH  37  38
HETATM   38  C11 UNL     1      -0.420  52.142 -19.561  1.00  0.00    -0.057 A 
HETATM   39  C12 UNL     1       0.157  51.412 -20.612  1.00  0.00     0.007 A 
HETATM   40  C13 UNL     1       1.061  52.021 -21.488  1.00  0.00     0.001 A 
HETATM   41  C14 UNL     1       1.405  53.361 -21.318  1.00  0.00     0.000 A 
HETATM   42  C15 UNL     1       0.846  54.093 -20.271  1.00  0.00     0.001 A 
HETATM   43  C16 UNL     1      -0.065  53.488 -19.396  1.00  0.00     0.007 A 
ENDBRANCH  37  38
ENDBRANCH  36  37
ENDBRANCH  34  36
ENDBRANCH   4  33
BRANCH  13  44
HETATM   44  O5  UNL     1      -8.527  48.468 -20.675  1.00  0.00    -0.389 OA
HETATM   45  H37 UNL     1      -8.186  48.776 -19.818  1.00  0.00     0.210 HD
ENDBRANCH  13  44
BRANCH  10  46
HETATM   46  C23 UNL     1      -9.283  45.339 -20.307  1.00  0.00    -0.045 A 
HETATM   47  C24 UNL     1     -10.418  46.026 -20.186  1.00  0.00     0.087 A 
HETATM   48  C25 UNL     1     -11.152  45.451 -19.062  1.00  0.00     0.283 A 
HETATM   49  O3  UNL     1     -12.189  45.884 -18.609  1.00  0.00    -0.260 OA
HETATM   50  O4  UNL     1     -10.457  44.393 -18.568  1.00  0.00    -0.314 OA
HETATM   51  C26 UNL     1      -9.257  44.238 -19.315  1.00  0.00     0.213 A 
ENDBRANCH  10  46
TORSDOF 11
ENDMDL
MODEL 6
REMARK minimizedAffinity -10.0671291
REMARK CNNscore 0.22357218
REMARK CNNaffinity 6.8737855
REMARK  11 active torsions:
REMARK  status: ('A' for Active; 'I' for Inactive)
REMARK    1  A    between atoms: C3_4  and  O2_5 
REMARK    2  A    between atoms: O2_5  and  C4_6 
REMARK    3  A    between atoms: C7_9  and  C8_10 
REMARK    4  A    between atoms: N1_11  and  C9_13 
REMARK    5  A    between atoms: C9_13  and  C10_14 
REMARK    6  A    between atoms: C10_14  and  C11_15 
REMARK    7  A    between atoms: C22_26  and  C23_27 
REMARK    8  A    between atoms: C29_35  and  O5_36 
REMARK    9  A    between atoms: C33_40  and  O6_41 
REMARK   10  A    between atoms: C36_44  and  O7_45 
REMARK   11  A    between atoms: C37_46  and  O8_47 
ROOT
HETATM    1  C4  UNL     1      -8.116  47.824 -24.055  1.00  0.00     0.127 C 
HETATM    2  C5  UNL     1      -6.825  47.328 -24.717  1.00  0.00     0.033 C 
HETATM    3  C6  UNL     1      -5.676  47.259 -23.722  1.00  0.00     0.021 C 
HETATM    4  C7  UNL     1      -5.270  48.668 -23.202  1.00  0.00     0.026 C 
HETATM    5  C17 UNL     1      -4.497  48.534 -21.845  1.00  0.00     0.009 C 
HETATM    6  C18 UNL     1      -3.357  47.501 -21.819  1.00  0.00     0.007 C 
HETATM    7  C19 UNL     1      -2.767  47.389 -20.411  1.00  0.00     0.013 C 
HETATM    8  C20 UNL     1      -2.206  48.730 -19.855  1.00  0.00    -0.005 C 
HETATM    9  C21 UNL     1      -0.900  49.051 -20.607  1.00  0.00     0.019 C 
HETATM   10  C22 UNL     1      -2.012  48.584 -18.303  1.00  0.00     0.028 C 
HETATM   11  C27 UNL     1      -3.405  48.910 -17.714  1.00  0.00     0.013 C 
HETATM   12  C28 UNL     1      -4.228  49.606 -18.804  1.00  0.00     0.040 C 
HETATM   13  C29 UNL     1      -3.274  49.858 -19.978  1.00  0.00     0.070 C 
HETATM   14  C30 UNL     1      -3.971  49.911 -21.366  1.00  0.00     0.026 C 
HETATM   15  C31 UNL     1      -5.045  51.017 -21.473  1.00  0.00     0.011 C 
HETATM   16  C32 UNL     1      -6.449  50.472 -21.716  1.00  0.00     0.039 C 
HETATM   17  C33 UNL     1      -6.554  49.574 -22.973  1.00  0.00     0.073 C 
HETATM   18  C34 UNL     1      -7.848  48.734 -22.848  1.00  0.00     0.071 C 
ENDROOT
BRANCH   1  19
HETATM   19  O2  UNL     1      -8.892  48.544 -25.021  1.00  0.00    -0.356 OA
BRANCH  19  20
HETATM   20  C3  UNL     1      -9.971  47.766 -25.560  1.00  0.00     0.263 C 
HETATM   21  O1  UNL     1     -10.984  48.692 -25.948  1.00  0.00    -0.354 OA
HETATM   22  C2  UNL     1     -11.797  48.292 -27.049  1.00  0.00     0.151 C 
HETATM   23  C1  UNL     1     -12.702  47.117 -26.671  1.00  0.00     0.042 C 
HETATM   24  C37 UNL     1     -10.948  48.124 -28.332  1.00  0.00     0.175 C 
HETATM   25  C36 UNL     1      -9.488  47.729 -28.029  1.00  0.00     0.154 C 
HETATM   26  C35 UNL     1      -9.387  46.960 -26.722  1.00  0.00     0.095 C 
BRANCH  24  27
HETATM   27  O8  UNL     1     -11.553  47.170 -29.210  1.00  0.00    -0.390 OA
HETATM   28  H51 UNL     1     -11.064  47.208 -30.054  1.00  0.00     0.210 HD
ENDBRANCH  24  27
BRANCH  25  29
HETATM   29  O7  UNL     1      -8.656  48.898 -27.990  1.00  0.00    -0.393 OA
HETATM   30  H49 UNL     1      -8.747  49.295 -27.098  1.00  0.00     0.210 HD
ENDBRANCH  25  29
ENDBRANCH  19  20
ENDBRANCH   1  19
BRANCH  17  31
HETATM   31  O6  UNL     1      -6.729  50.438 -24.104  1.00  0.00    -0.389 OA
HETATM   32  H43 UNL     1      -7.489  51.029 -23.929  1.00  0.00     0.210 HD
ENDBRANCH  17  31
BRANCH   4  33
HETATM   33  C8  UNL     1      -4.342  49.352 -24.228  1.00  0.00     0.068 C 
HETATM   34  N1  UNL     1      -4.549  49.329 -25.507  1.00  0.00    -0.401 N 
ATOM     35  H1  UNL     1      -5.351  48.886 -25.955  1.00  0.00     0.158 HD
BRANCH  34  36
HETATM   36  C9  UNL     1      -3.471  50.031 -26.229  1.00  0.00     0.123 C 
BRANCH  36  37
HETATM   37  C10 UNL     1      -2.235  50.133 -25.337  1.00  0.00     0.058 C 
BRANCH  37  38
HETATM   38  C11 UNL     1      -1.115  50.846 -26.052  1.00  0.00    -0.057 A 
HETATM   39  C12 UNL     1       0.004  51.312 -25.344  1.00  0.00     0.007 A 
HETATM   40  C13 UNL     1       1.017  52.019 -25.999  1.00  0.00     0.001 A 
HETATM   41  C14 UNL     1       0.919  52.276 -27.366  1.00  0.00     0.000 A 
HETATM   42  C15 UNL     1      -0.193  51.827 -28.078  1.00  0.00     0.001 A 
HETATM   43  C16 UNL     1      -1.206  51.113 -27.425  1.00  0.00     0.007 A 
ENDBRANCH  37  38
ENDBRANCH  36  37
ENDBRANCH  34  36
ENDBRANCH   4  33
BRANCH  13  44
HETATM   44  O5  UNL     1      -2.677  51.136 -19.734  1.00  0.00    -0.389 OA
HETATM   45  H37 UNL     1      -2.099  51.356 -20.484  1.00  0.00     0.210 HD
ENDBRANCH  13  44
BRANCH  10  46
HETATM   46  C23 UNL     1      -0.898  49.382 -17.671  1.00  0.00    -0.045 A 
HETATM   47  C24 UNL     1      -0.170  49.119 -16.587  1.00  0.00     0.087 A 
HETATM   48  C25 UNL     1       0.710  50.264 -16.370  1.00  0.00     0.283 A 
HETATM   49  O3  UNL     1       1.449  50.407 -15.422  1.00  0.00    -0.260 OA
HETATM   50  O4  UNL     1       0.522  51.167 -17.367  1.00  0.00    -0.314 OA
HETATM   51  C26 UNL     1      -0.475  50.678 -18.255  1.00  0.00     0.213 A 
ENDBRANCH  10  46
TORSDOF 11
ENDMDL
MODEL 7
REMARK minimizedAffinity -9.30920315
REMARK CNNscore 0.209040046
REMARK CNNaffinity 5.89902353
REMARK  11 active torsions:
REMARK  status: ('A' for Active; 'I' for Inactive)
REMARK    1  A    between atoms: C3_4  and  O2_5 
REMARK    2  A    between atoms: O2_5  and  C4_6 
REMARK    3  A    between atoms: C7_9  and  C8_10 
REMARK    4  A    between atoms: N1_11  and  C9_13 
REMARK    5  A    between atoms: C9_13  and  C10_14 
REMARK    6  A    between atoms: C10_14  and  C11_15 
REMARK    7  A    between atoms: C22_26  and  C23_27 
REMARK    8  A    between atoms: C29_35  and  O5_36 
REMARK    9  A    between atoms: C33_40  and  O6_41 
REMARK   10  A    between atoms: C36_44  and  O7_45 
REMARK   11  A    between atoms: C37_46  and  O8_47 
ROOT
HETATM    1  C4  UNL     1       1.776  67.018 -39.096  1.00  0.00     0.127 C 
HETATM    2  C5  UNL     1       3.044  67.847 -39.331  1.00  0.00     0.033 C 
HETATM    3  C6  UNL     1       4.284  67.129 -38.819  1.00  0.00     0.021 C 
HETATM    4  C7  UNL     1       4.268  66.966 -37.271  1.00  0.00     0.026 C 
HETATM    5  C17 UNL     1       5.233  65.807 -36.846  1.00  0.00     0.009 C 
HETATM    6  C18 UNL     1       6.644  65.847 -37.459  1.00  0.00     0.007 C 
HETATM    7  C19 UNL     1       7.441  64.604 -37.055  1.00  0.00     0.013 C 
HETATM    8  C20 UNL     1       7.595  64.428 -35.517  1.00  0.00    -0.005 C 
HETATM    9  C21 UNL     1       8.591  65.491 -35.011  1.00  0.00     0.019 C 
HETATM   10  C22 UNL     1       8.056  62.954 -35.227  1.00  0.00     0.028 C 
HETATM   11  C27 UNL     1       6.739  62.144 -35.198  1.00  0.00     0.013 C 
HETATM   12  C28 UNL     1       5.577  63.135 -35.055  1.00  0.00     0.040 C 
HETATM   13  C29 UNL     1       6.205  64.513 -34.817  1.00  0.00     0.070 C 
HETATM   14  C30 UNL     1       5.333  65.703 -35.303  1.00  0.00     0.026 C 
HETATM   15  C31 UNL     1       3.946  65.768 -34.622  1.00  0.00     0.011 C 
HETATM   16  C32 UNL     1       2.787  65.600 -35.599  1.00  0.00     0.039 C 
HETATM   17  C33 UNL     1       2.803  66.627 -36.759  1.00  0.00     0.073 C 
HETATM   18  C34 UNL     1       1.899  66.077 -37.889  1.00  0.00     0.071 C 
ENDROOT
BRANCH   1  19
HETATM   19  O2  UNL     1       0.669  67.904 -38.888  1.00  0.00    -0.356 OA
BRANCH  19  20
HETATM   20  C3  UNL     1       0.359  68.690 -40.048  1.00  0.00     0.263 C 
HETATM   21  O1  UNL     1      -0.736  68.044 -40.695  1.00  0.00    -0.354 OA
HETATM   22  C2  UNL     1      -1.621  68.901 -41.413  1.00  0.00     0.151 C 
HETATM   23  C1  UNL     1      -0.941  69.483 -42.655  1.00  0.00     0.042 C 
HETATM   24  C37 UNL     1      -2.306  69.911 -40.464  1.00  0.00     0.175 C 
HETATM   25  C36 UNL     1      -1.440  70.249 -39.233  1.00  0.00     0.154 C 
HETATM   26  C35 UNL     1       0.040  70.099 -39.544  1.00  0.00     0.095 C 
BRANCH  24  27
HETATM   27  O8  UNL     1      -2.656  71.105 -41.173  1.00  0.00    -0.390 OA
HETATM   28  H51 UNL     1      -3.207  71.642 -40.572  1.00  0.00     0.210 HD
ENDBRANCH  24  27
BRANCH  25  29
HETATM   29  O7  UNL     1      -1.807  69.414 -38.124  1.00  0.00    -0.393 OA
HETATM   30  H49 UNL     1      -1.342  68.558 -38.233  1.00  0.00     0.210 HD
ENDBRANCH  25  29
ENDBRANCH  19  20
ENDBRANCH   1  19
BRANCH  17  31
HETATM   31  O6  UNL     1       2.182  67.826 -36.278  1.00  0.00    -0.389 OA
HETATM   32  H43 UNL     1       1.303  67.598 -35.915  1.00  0.00     0.210 HD
ENDBRANCH  17  31
BRANCH   4  33
HETATM   33  C8  UNL     1       4.748  68.272 -36.607  1.00  0.00     0.068 C 
HETATM   34  N1  UNL     1       5.687  69.020 -37.095  1.00  0.00    -0.401 N 
ATOM     35  H1  UNL     1       6.176  68.836 -37.970  1.00  0.00     0.158 HD
BRANCH  34  36
HETATM   36  C9  UNL     1       5.953  70.175 -36.215  1.00  0.00     0.123 C 
BRANCH  36  37
HETATM   37  C10 UNL     1       7.446  70.250 -35.902  1.00  0.00     0.058 C 
BRANCH  37  38
HETATM   38  C11 UNL     1       7.725  69.769 -34.500  1.00  0.00    -0.057 A 
HETATM   39  C12 UNL     1       7.017  68.682 -33.963  1.00  0.00     0.007 A 
HETATM   40  C13 UNL     1       7.239  68.270 -32.645  1.00  0.00     0.001 A 
HETATM   41  C14 UNL     1       8.162  68.945 -31.847  1.00  0.00     0.000 A 
HETATM   42  C15 UNL     1       8.863  70.033 -32.367  1.00  0.00     0.001 A 
HETATM   43  C16 UNL     1       8.647  70.444 -33.688  1.00  0.00     0.007 A 
ENDBRANCH  37  38
ENDBRANCH  36  37
ENDBRANCH  34  36
ENDBRANCH   4  33
BRANCH  13  44
HETATM   44  O5  UNL     1       6.368  64.633 -33.400  1.00  0.00    -0.389 OA
HETATM   45  H37 UNL     1       6.721  65.518 -33.203  1.00  0.00     0.210 HD
ENDBRANCH  13  44
BRANCH  10  46
HETATM   46  C23 UNL     1       8.919  62.730 -34.009  1.00  0.00    -0.045 A 
HETATM   47  C24 UNL     1      10.000  63.392 -33.598  1.00  0.00     0.087 A 
HETATM   48  C25 UNL     1      10.497  62.706 -32.408  1.00  0.00     0.283 A 
HETATM   49  O3  UNL     1      11.519  62.981 -31.819  1.00  0.00    -0.260 OA
HETATM   50  O4  UNL     1       9.666  61.674 -32.106  1.00  0.00    -0.314 OA
HETATM   51  C26 UNL     1       8.619  61.626 -33.067  1.00  0.00     0.213 A 
ENDBRANCH  10  46
TORSDOF 11
ENDMDL
MODEL 8
REMARK minimizedAffinity -10.5563927
REMARK CNNscore 0.190434977
REMARK CNNaffinity 6.46294165
REMARK  11 active torsions:
REMARK  status: ('A' for Active; 'I' for Inactive)
REMARK    1  A    between atoms: C3_4  and  O2_5 
REMARK    2  A    between atoms: O2_5  and  C4_6 
REMARK    3  A    between atoms: C7_9  and  C8_10 
REMARK    4  A    between atoms: N1_11  and  C9_13 
REMARK    5  A    between atoms: C9_13  and  C10_14 
REMARK    6  A    between atoms: C10_14  and  C11_15 
REMARK    7  A    between atoms: C22_26  and  C23_27 
REMARK    8  A    between atoms: C29_35  and  O5_36 
REMARK    9  A    between atoms: C33_40  and  O6_41 
REMARK   10  A    between atoms: C36_44  and  O7_45 
REMARK   11  A    between atoms: C37_46  and  O8_47 
ROOT
HETATM    1  C4  UNL     1      -3.475  48.705 -25.425  1.00  0.00     0.127 C 
HETATM    2  C5  UNL     1      -2.610  48.665 -24.160  1.00  0.00     0.033 C 
HETATM    3  C6  UNL     1      -3.361  48.051 -22.988  1.00  0.00     0.021 C 
HETATM    4  C7  UNL     1      -4.570  48.926 -22.546  1.00  0.00     0.026 C 
HETATM    5  C17 UNL     1      -5.595  48.054 -21.742  1.00  0.00     0.009 C 
HETATM    6  C18 UNL     1      -5.003  47.184 -20.619  1.00  0.00     0.007 C 
HETATM    7  C19 UNL     1      -6.088  46.303 -19.996  1.00  0.00     0.013 C 
HETATM    8  C20 UNL     1      -7.283  47.101 -19.400  1.00  0.00    -0.005 C 
HETATM    9  C21 UNL     1      -6.802  47.790 -18.107  1.00  0.00     0.019 C 
HETATM   10  C22 UNL     1      -8.480  46.111 -19.169  1.00  0.00     0.028 C 
HETATM   11  C27 UNL     1      -9.191  46.050 -20.541  1.00  0.00     0.013 C 
HETATM   12  C28 UNL     1      -8.704  47.238 -21.380  1.00  0.00     0.040 C 
HETATM   13  C29 UNL     1      -7.845  48.104 -20.451  1.00  0.00     0.070 C 
HETATM   14  C30 UNL     1      -6.747  48.926 -21.182  1.00  0.00     0.026 C 
HETATM   15  C31 UNL     1      -7.310  49.902 -22.239  1.00  0.00     0.011 C 
HETATM   16  C32 UNL     1      -6.846  49.587 -23.658  1.00  0.00     0.039 C 
HETATM   17  C33 UNL     1      -5.305  49.548 -23.809  1.00  0.00     0.073 C 
HETATM   18  C34 UNL     1      -4.977  48.782 -25.113  1.00  0.00     0.071 C 
ENDROOT
BRANCH   1  19
HETATM   19  O2  UNL     1      -3.102  49.842 -26.213  1.00  0.00    -0.356 OA
BRANCH  19  20
HETATM   20  C3  UNL     1      -1.721  50.198 -26.058  1.00  0.00     0.263 C 
HETATM   21  O1  UNL     1      -1.289  50.708 -27.318  1.00  0.00    -0.354 OA
HETATM   22  C2  UNL     1      -0.259  51.693 -27.265  1.00  0.00     0.151 C 
HETATM   23  C1  UNL     1       1.067  51.082 -26.807  1.00  0.00     0.042 C 
HETATM   24  C37 UNL     1      -0.737  52.955 -26.509  1.00  0.00     0.175 C 
HETATM   25  C36 UNL     1      -1.811  52.637 -25.447  1.00  0.00     0.154 C 
HETATM   26  C35 UNL     1      -1.660  51.220 -24.921  1.00  0.00     0.095 C 
BRANCH  24  27
HETATM   27  O8  UNL     1       0.375  53.629 -25.911  1.00  0.00    -0.390 OA
HETATM   28  H51 UNL     1       0.042  54.484 -25.574  1.00  0.00     0.210 HD
ENDBRANCH  24  27
BRANCH  25  29
HETATM   29  O7  UNL     1      -3.123  52.834 -25.995  1.00  0.00    -0.393 OA
HETATM   30  H49 UNL     1      -3.359  52.023 -26.494  1.00  0.00     0.210 HD
ENDBRANCH  25  29
ENDBRANCH  19  20
ENDBRANCH   1  19
BRANCH  17  31
HETATM   31  O6  UNL     1      -4.858  50.897 -23.998  1.00  0.00    -0.389 OA
HETATM   32  H43 UNL     1      -5.357  51.289 -24.744  1.00  0.00     0.210 HD
ENDBRANCH  17  31
BRANCH   4  33
HETATM   33  C8  UNL     1      -4.076  50.068 -21.633  1.00  0.00     0.068 C 
HETATM   34  N1  UNL     1      -3.011  49.988 -20.899  1.00  0.00    -0.401 N 
ATOM     35  H1  UNL     1      -2.386  49.183 -20.874  1.00  0.00     0.158 HD
BRANCH  34  36
HETATM   36  C9  UNL     1      -2.823  51.218 -20.106  1.00  0.00     0.123 C 
BRANCH  36  37
HETATM   37  C10 UNL     1      -1.444  51.202 -19.449  1.00  0.00     0.058 C 
BRANCH  37  38
HETATM   38  C11 UNL     1      -0.475  52.066 -20.216  1.00  0.00    -0.057 A 
HETATM   39  C12 UNL     1       0.143  53.166 -19.601  1.00  0.00     0.007 A 
HETATM   40  C13 UNL     1       1.001  53.998 -20.327  1.00  0.00     0.001 A 
HETATM   41  C14 UNL     1       1.244  53.745 -21.677  1.00  0.00     0.000 A 
HETATM   42  C15 UNL     1       0.627  52.661 -22.301  1.00  0.00     0.001 A 
HETATM   43  C16 UNL     1      -0.228  51.823 -21.574  1.00  0.00     0.007 A 
ENDBRANCH  37  38
ENDBRANCH  36  37
ENDBRANCH  34  36
ENDBRANCH   4  33
BRANCH  13  44
HETATM   44  O5  UNL     1      -8.746  49.026 -19.828  1.00  0.00    -0.389 OA
HETATM   45  H37 UNL     1      -8.231  49.629 -19.265  1.00  0.00     0.210 HD
ENDBRANCH  13  44
BRANCH  10  46
HETATM   46  C23 UNL     1      -9.417  46.417 -18.027  1.00  0.00    -0.045 A 
HETATM   47  C24 UNL     1     -10.432  45.703 -17.542  1.00  0.00     0.087 A 
HETATM   48  C25 UNL     1     -11.058  46.503 -16.492  1.00  0.00     0.283 A 
HETATM   49  O3  UNL     1     -12.066  46.202 -15.893  1.00  0.00    -0.260 OA
HETATM   50  O4  UNL     1     -10.365  47.661 -16.339  1.00  0.00    -0.314 OA
HETATM   51  C26 UNL     1      -9.288  47.684 -17.267  1.00  0.00     0.213 A 
ENDBRANCH  10  46
TORSDOF 11
ENDMDL
MODEL 9
REMARK minimizedAffinity -9.12907791
REMARK CNNscore 0.186024323
REMARK CNNaffinity 5.9753418
REMARK  11 active torsions:
REMARK  status: ('A' for Active; 'I' for Inactive)
REMARK    1  A    between atoms: C3_4  and  O2_5 
REMARK    2  A    between atoms: O2_5  and  C4_6 
REMARK    3  A    between atoms: C7_9  and  C8_10 
REMARK    4  A    between atoms: N1_11  and  C9_13 
REMARK    5  A    between atoms: C9_13  and  C10_14 
REMARK    6  A    between atoms: C10_14  and  C11_15 
REMARK    7  A    between atoms: C22_26  and  C23_27 
REMARK    8  A    between atoms: C29_35  and  O5_36 
REMARK    9  A    between atoms: C33_40  and  O6_41 
REMARK   10  A    between atoms: C36_44  and  O7_45 
REMARK   11  A    between atoms: C37_46  and  O8_47 
ROOT
HETATM    1  C4  UNL     1     -13.997  45.809 -27.836  1.00  0.00     0.127 C 
HETATM    2  C5  UNL     1     -13.483  47.199 -27.444  1.00  0.00     0.033 C 
HETATM    3  C6  UNL     1     -12.355  47.656 -28.358  1.00  0.00     0.021 C 
HETATM    4  C7  UNL     1     -11.085  46.770 -28.206  1.00  0.00     0.026 C 
HETATM    5  C17 UNL     1     -10.180  46.912 -29.478  1.00  0.00     0.009 C 
HETATM    6  C18 UNL     1      -9.892  48.351 -29.942  1.00  0.00     0.007 C 
HETATM    7  C19 UNL     1      -9.099  48.344 -31.251  1.00  0.00     0.013 C 
HETATM    8  C20 UNL     1      -7.740  47.592 -31.160  1.00  0.00    -0.005 C 
HETATM    9  C21 UNL     1      -6.769  48.456 -30.330  1.00  0.00     0.019 C 
HETATM   10  C22 UNL     1      -7.229  47.306 -32.618  1.00  0.00     0.028 C 
HETATM   11  C27 UNL     1      -7.941  45.993 -33.019  1.00  0.00     0.013 C 
HETATM   12  C28 UNL     1      -8.485  45.341 -31.742  1.00  0.00     0.040 C 
HETATM   13  C29 UNL     1      -7.946  46.166 -30.567  1.00  0.00     0.070 C 
HETATM   14  C30 UNL     1      -8.849  46.139 -29.303  1.00  0.00     0.026 C 
HETATM   15  C31 UNL     1      -9.067  44.718 -28.734  1.00  0.00     0.011 C 
HETATM   16  C32 UNL     1     -10.527  44.274 -28.767  1.00  0.00     0.039 C 
HETATM   17  C33 UNL     1     -11.484  45.243 -28.029  1.00  0.00     0.073 C 
HETATM   18  C34 UNL     1     -12.923  44.952 -28.522  1.00  0.00     0.071 C 
ENDROOT
BRANCH   1  19
HETATM   19  O2  UNL     1     -14.456  45.130 -26.660  1.00  0.00    -0.356 OA
BRANCH  19  20
HETATM   20  C3  UNL     1     -15.331  45.936 -25.857  1.00  0.00     0.263 C 
HETATM   21  O1  UNL     1     -16.660  45.518 -26.161  1.00  0.00    -0.354 OA
HETATM   22  C2  UNL     1     -17.605  45.647 -25.100  1.00  0.00     0.151 C 
HETATM   23  C1  UNL     1     -17.898  47.118 -24.797  1.00  0.00     0.042 C 
HETATM   24  C37 UNL     1     -17.211  44.759 -23.896  1.00  0.00     0.175 C 
HETATM   25  C36 UNL     1     -15.687  44.537 -23.797  1.00  0.00     0.154 C 
HETATM   26  C35 UNL     1     -14.922  45.703 -24.401  1.00  0.00     0.095 C 
BRANCH  24  27
HETATM   27  O8  UNL     1     -17.717  45.315 -22.679  1.00  0.00    -0.390 OA
HETATM   28  H51 UNL     1     -17.568  44.651 -21.978  1.00  0.00     0.210 HD
ENDBRANCH  24  27
BRANCH  25  29
HETATM   29  O7  UNL     1     -15.322  43.308 -24.441  1.00  0.00    -0.393 OA
HETATM   30  H49 UNL     1     -15.245  43.489 -25.401  1.00  0.00     0.210 HD
ENDBRANCH  25  29
ENDBRANCH  19  20
ENDBRANCH   1  19
BRANCH  17  31
HETATM   31  O6  UNL     1     -11.447  44.905 -26.637  1.00  0.00    -0.389 OA
HETATM   32  H43 UNL     1     -11.640  43.950 -26.543  1.00  0.00     0.210 HD
ENDBRANCH  17  31
BRANCH   4  33
HETATM   33  C8  UNL     1     -10.276  47.229 -26.976  1.00  0.00     0.068 C 
HETATM   34  N1  UNL     1     -10.175  48.468 -26.607  1.00  0.00    -0.401 N 
ATOM     35  H1  UNL     1     -10.637  49.249 -27.072  1.00  0.00     0.158 HD
BRANCH  34  36
HETATM   36  C9  UNL     1      -9.302  48.597 -25.424  1.00  0.00     0.123 C 
BRANCH  36  37
HETATM   37  C10 UNL     1      -8.374  47.388 -25.334  1.00  0.00     0.058 C 
BRANCH  37  38
HETATM   38  C11 UNL     1      -6.945  47.788 -25.604  1.00  0.00    -0.057 A 
HETATM   39  C12 UNL     1      -6.388  47.633 -26.883  1.00  0.00     0.007 A 
HETATM   40  C13 UNL     1      -5.048  47.955 -27.120  1.00  0.00     0.001 A 
HETATM   41  C14 UNL     1      -4.248  48.425 -26.079  1.00  0.00     0.000 A 
HETATM   42  C15 UNL     1      -4.787  48.572 -24.801  1.00  0.00     0.001 A 
HETATM   43  C16 UNL     1      -6.131  48.257 -24.563  1.00  0.00     0.007 A 
ENDBRANCH  37  38
ENDBRANCH  36  37
ENDBRANCH  34  36
ENDBRANCH   4  33
BRANCH  13  44
HETATM   44  O5  UNL     1      -6.685  45.583 -30.223  1.00  0.00    -0.389 OA
HETATM   45  H37 UNL     1      -6.330  46.049 -29.446  1.00  0.00     0.210 HD
ENDBRANCH  13  44
BRANCH  10  46
HETATM   46  C23 UNL     1      -5.735  47.261 -32.827  1.00  0.00    -0.045 A 
HETATM   47  C24 UNL     1      -4.957  48.031 -33.587  1.00  0.00     0.087 A 
HETATM   48  C25 UNL     1      -3.600  47.500 -33.491  1.00  0.00     0.283 A 
HETATM   49  O3  UNL     1      -2.647  47.899 -34.122  1.00  0.00    -0.260 OA
HETATM   50  O4  UNL     1      -3.591  46.449 -32.630  1.00  0.00    -0.314 OA
HETATM   51  C26 UNL     1      -4.910  46.237 -32.143  1.00  0.00     0.213 A 
ENDBRANCH  10  46
TORSDOF 11
ENDMDL
