MODEL 1
REMARK minimizedAffinity -10.2845583
REMARK  4 active torsions:
REMARK  status: ('A' for Active; 'I' for Inactive)
REMARK    1  A    between atoms: C4_4  and  C5_5 
REMARK    2  A    between atoms: C5_5  and  C6_6 
REMARK    3  A    between atoms: C6_6  and  C7_7 
REMARK    4  A    between atoms: C7_7  and  C9_9 
ROOT
HETATM    1  C9  UNL     1      -0.886  49.942 -19.648  1.00  0.00    -0.002 C 
HETATM    2  C10 UNL     1      -2.445  49.836 -19.596  1.00  0.00     0.006 C 
HETATM    3  C11 UNL     1      -3.018  50.687 -20.747  1.00  0.00     0.011 C 
HETATM    4  C12 UNL     1      -1.810  50.980 -21.645  1.00  0.00    -0.032 C 
HETATM    5  C13 UNL     1      -1.609  49.707 -22.526  1.00  0.00     0.016 C 
HETATM    6  C14 UNL     1      -1.912  52.240 -22.554  1.00  0.00     0.004 C 
HETATM    7  C15 UNL     1      -3.124  52.306 -23.489  1.00  0.00     0.007 C 
HETATM    8  C16 UNL     1      -3.015  51.663 -24.868  1.00  0.00     0.007 C 
HETATM    9  C17 UNL     1      -1.616  51.416 -25.464  1.00  0.00     0.010 C 
HETATM   10  C18 UNL     1      -1.523  51.666 -27.012  1.00  0.00     0.018 C 
HETATM   11  C19 UNL     1      -2.454  50.699 -27.765  1.00  0.00     0.023 C 
HETATM   12  C20 UNL     1      -1.852  53.114 -27.423  1.00  0.00     0.023 C 
HETATM   13  C21 UNL     1      -0.090  51.378 -27.489  1.00  0.00     0.135 C 
HETATM   14  O1  UNL     1       0.277  51.619 -28.642  1.00  0.00    -0.297 OA
HETATM   15  C22 UNL     1       0.848  50.727 -26.506  1.00  0.00     0.080 C 
HETATM   16  C23 UNL     1       0.923  51.551 -25.230  1.00  0.00     0.018 C 
HETATM   17  C24 UNL     1      -0.433  52.065 -24.743  1.00  0.00    -0.026 A 
HETATM   18  C25 UNL     1      -0.519  53.526 -24.356  1.00  0.00     0.021 A 
HETATM   19  C26 UNL     1      -0.573  52.477 -23.267  1.00  0.00    -0.027 A 
HETATM   20  C27 UNL     1       0.638  52.486 -22.323  1.00  0.00     0.011 C 
HETATM   21  C28 UNL     1       0.663  51.323 -21.311  1.00  0.00     0.011 C 
HETATM   22  C29 UNL     1      -0.675  51.197 -20.557  1.00  0.00    -0.032 C 
HETATM   23  C30 UNL     1      -0.864  52.472 -19.675  1.00  0.00     0.016 C 
ENDROOT
BRANCH   1  24
HETATM   24  C7  UNL     1      -0.256  49.876 -18.221  1.00  0.00    -0.014 C 
HETATM   25  C8  UNL     1      -1.082  49.010 -17.264  1.00  0.00     0.010 C 
BRANCH  24  26
HETATM   26  C6  UNL     1      -0.104  51.314 -17.646  1.00  0.00     0.008 C 
BRANCH  26  27
HETATM   27  C5  UNL     1       0.708  51.459 -16.352  1.00  0.00     0.028 C 
BRANCH  27  28
HETATM   28  C4  UNL     1       2.018  52.176 -16.532  1.00  0.00    -0.025 C 
HETATM   29  C2  UNL     1       3.105  52.090 -15.739  1.00  0.00    -0.091 C 
HETATM   30  C1  UNL     1       3.174  51.298 -14.464  1.00  0.00     0.042 C 
HETATM   31  C3  UNL     1       4.373  52.824 -16.087  1.00  0.00     0.042 C 
ENDBRANCH  27  28
ENDBRANCH  26  27
ENDBRANCH  24  26
ENDBRANCH   1  24
TORSDOF 4
ENDMDL
MODEL 2
REMARK minimizedAffinity -9.74253941
REMARK  4 active torsions:
REMARK  status: ('A' for Active; 'I' for Inactive)
REMARK    1  A    between atoms: C4_4  and  C5_5 
REMARK    2  A    between atoms: C5_5  and  C6_6 
REMARK    3  A    between atoms: C6_6  and  C7_7 
REMARK    4  A    between atoms: C7_7  and  C9_9 
ROOT
HETATM    1  C9  UNL     1      -0.386  49.721 -18.547  1.00  0.00    -0.002 C 
HETATM    2  C10 UNL     1      -1.529  48.669 -18.367  1.00  0.00     0.006 C 
HETATM    3  C11 UNL     1      -2.564  48.897 -19.487  1.00  0.00     0.011 C 
HETATM    4  C12 UNL     1      -1.852  49.818 -20.485  1.00  0.00    -0.032 C 
HETATM    5  C13 UNL     1      -0.941  48.894 -21.352  1.00  0.00     0.016 C 
HETATM    6  C14 UNL     1      -2.767  50.675 -21.410  1.00  0.00     0.004 C 
HETATM    7  C15 UNL     1      -3.795  49.907 -22.247  1.00  0.00     0.007 C 
HETATM    8  C16 UNL     1      -3.374  49.383 -23.615  1.00  0.00     0.007 C 
HETATM    9  C17 UNL     1      -2.161  50.024 -24.316  1.00  0.00     0.010 C 
HETATM   10  C18 UNL     1      -2.321  50.172 -25.871  1.00  0.00     0.018 C 
HETATM   11  C19 UNL     1      -2.475  48.788 -26.526  1.00  0.00     0.023 C 
HETATM   12  C20 UNL     1      -3.505  51.067 -26.286  1.00  0.00     0.023 C 
HETATM   13  C21 UNL     1      -1.050  50.811 -26.455  1.00  0.00     0.135 C 
HETATM   14  O1  UNL     1      -0.972  51.150 -27.638  1.00  0.00    -0.297 OA
HETATM   15  C22 UNL     1       0.136  50.955 -25.536  1.00  0.00     0.080 C 
HETATM   16  C23 UNL     1      -0.262  51.729 -24.289  1.00  0.00     0.018 C 
HETATM   17  C24 UNL     1      -1.614  51.315 -23.706  1.00  0.00    -0.026 A 
HETATM   18  C25 UNL     1      -2.578  52.425 -23.345  1.00  0.00     0.021 A 
HETATM   19  C26 UNL     1      -1.909  51.648 -22.232  1.00  0.00    -0.027 A 
HETATM   20  C27 UNL     1      -0.927  52.474 -21.389  1.00  0.00     0.011 C 
HETATM   21  C28 UNL     1      -0.129  51.651 -20.358  1.00  0.00     0.011 C 
HETATM   22  C29 UNL     1      -1.054  50.769 -19.496  1.00  0.00    -0.032 C 
HETATM   23  C30 UNL     1      -1.957  51.703 -18.630  1.00  0.00     0.016 C 
ENDROOT
BRANCH   1  24
HETATM   24  C7  UNL     1       0.215  50.158 -17.173  1.00  0.00    -0.014 C 
HETATM   25  C8  UNL     1      -0.500  49.494 -15.991  1.00  0.00     0.010 C 
BRANCH  24  26
HETATM   26  C6  UNL     1       0.146  51.707 -17.039  1.00  0.00     0.008 C 
BRANCH  26  27
HETATM   27  C5  UNL     1       1.387  52.407 -16.468  1.00  0.00     0.028 C 
BRANCH  27  28
HETATM   28  C4  UNL     1       2.154  51.575 -15.476  1.00  0.00    -0.025 C 
HETATM   29  C2  UNL     1       3.489  51.551 -15.299  1.00  0.00    -0.091 C 
HETATM   30  C1  UNL     1       4.478  52.317 -16.134  1.00  0.00     0.042 C 
HETATM   31  C3  UNL     1       4.109  50.708 -14.215  1.00  0.00     0.042 C 
ENDBRANCH  27  28
ENDBRANCH  26  27
ENDBRANCH  24  26
ENDBRANCH   1  24
TORSDOF 4
ENDMDL
MODEL 3
REMARK minimizedAffinity -9.58347893
REMARK  4 active torsions:
REMARK  status: ('A' for Active; 'I' for Inactive)
REMARK    1  A    between atoms: C4_4  and  C5_5 
REMARK    2  A    between atoms: C5_5  and  C6_6 
REMARK    3  A    between atoms: C6_6  and  C7_7 
REMARK    4  A    between atoms: C7_7  and  C9_9 
ROOT
HETATM    1  C9  UNL     1      -1.632  52.449 -26.157  1.00  0.00    -0.002 C 
HETATM    2  C10 UNL     1      -2.425  52.045 -27.443  1.00  0.00     0.006 C 
HETATM    3  C11 UNL     1      -3.155  50.718 -27.153  1.00  0.00     0.011 C 
HETATM    4  C12 UNL     1      -3.068  50.557 -25.631  1.00  0.00    -0.032 C 
HETATM    5  C13 UNL     1      -4.202  51.449 -25.036  1.00  0.00     0.016 C 
HETATM    6  C14 UNL     1      -3.193  49.106 -25.080  1.00  0.00     0.004 C 
HETATM    7  C15 UNL     1      -4.452  48.333 -25.486  1.00  0.00     0.007 C 
HETATM    8  C16 UNL     1      -5.702  48.472 -24.624  1.00  0.00     0.007 C 
HETATM    9  C17 UNL     1      -5.550  48.951 -23.167  1.00  0.00     0.010 C 
HETATM   10  C18 UNL     1      -6.515  48.240 -22.152  1.00  0.00     0.018 C 
HETATM   11  C19 UNL     1      -7.981  48.532 -22.517  1.00  0.00     0.023 C 
HETATM   12  C20 UNL     1      -6.304  46.716 -22.066  1.00  0.00     0.023 C 
HETATM   13  C21 UNL     1      -6.278  48.807 -20.742  1.00  0.00     0.135 C 
HETATM   14  O1  UNL     1      -6.822  48.328 -19.744  1.00  0.00    -0.297 OA
HETATM   15  C22 UNL     1      -5.395  50.022 -20.625  1.00  0.00     0.080 C 
HETATM   16  C23 UNL     1      -4.043  49.749 -21.267  1.00  0.00     0.018 C 
HETATM   17  C24 UNL     1      -4.129  49.012 -22.605  1.00  0.00    -0.026 A 
HETATM   18  C25 UNL     1      -3.208  47.826 -22.799  1.00  0.00     0.021 A 
HETATM   19  C26 UNL     1      -2.931  49.100 -23.567  1.00  0.00    -0.027 A 
HETATM   20  C27 UNL     1      -1.631  49.809 -23.161  1.00  0.00     0.011 C 
HETATM   21  C28 UNL     1      -1.424  51.183 -23.828  1.00  0.00     0.011 C 
HETATM   22  C29 UNL     1      -1.604  51.107 -25.356  1.00  0.00    -0.032 C 
HETATM   23  C30 UNL     1      -0.461  50.217 -25.941  1.00  0.00     0.016 C 
ENDROOT
BRANCH   1  24
HETATM   24  C7  UNL     1      -0.307  53.197 -26.509  1.00  0.00    -0.014 C 
HETATM   25  C8  UNL     1       0.202  52.844 -27.911  1.00  0.00     0.010 C 
BRANCH  24  26
HETATM   26  C6  UNL     1       0.781  52.866 -25.446  1.00  0.00     0.008 C 
BRANCH  26  27
HETATM   27  C5  UNL     1       0.808  53.746 -24.189  1.00  0.00     0.028 C 
BRANCH  27  28
HETATM   28  C4  UNL     1       0.552  52.992 -22.912  1.00  0.00    -0.025 C 
HETATM   29  C2  UNL     1       0.967  53.329 -21.674  1.00  0.00    -0.091 C 
HETATM   30  C1  UNL     1       1.842  54.509 -21.356  1.00  0.00     0.042 C 
HETATM   31  C3  UNL     1       0.575  52.503 -20.478  1.00  0.00     0.042 C 
ENDBRANCH  27  28
ENDBRANCH  26  27
ENDBRANCH  24  26
ENDBRANCH   1  24
TORSDOF 4
ENDMDL
MODEL 4
REMARK minimizedAffinity -9.252635
REMARK  4 active torsions:
REMARK  status: ('A' for Active; 'I' for Inactive)
REMARK    1  A    between atoms: C4_4  and  C5_5 
REMARK    2  A    between atoms: C5_5  and  C6_6 
REMARK    3  A    between atoms: C6_6  and  C7_7 
REMARK    4  A    between atoms: C7_7  and  C9_9 
ROOT
HETATM    1  C9  UNL     1      -0.855  52.400 -21.274  1.00  0.00    -0.002 C 
HETATM    2  C10 UNL     1      -0.469  52.296 -22.786  1.00  0.00     0.006 C 
HETATM    3  C11 UNL     1      -1.123  51.021 -23.356  1.00  0.00     0.011 C 
HETATM    4  C12 UNL     1      -2.144  50.605 -22.290  1.00  0.00    -0.032 C 
HETATM    5  C13 UNL     1      -3.402  51.500 -22.525  1.00  0.00     0.016 C 
HETATM    6  C14 UNL     1      -2.559  49.104 -22.277  1.00  0.00     0.004 C 
HETATM    7  C15 UNL     1      -3.110  48.541 -23.592  1.00  0.00     0.007 C 
HETATM    8  C16 UNL     1      -4.604  48.665 -23.867  1.00  0.00     0.007 C 
HETATM    9  C17 UNL     1      -5.563  48.881 -22.680  1.00  0.00     0.010 C 
HETATM   10  C18 UNL     1      -6.929  48.117 -22.809  1.00  0.00     0.018 C 
HETATM   11  C19 UNL     1      -7.703  48.613 -24.042  1.00  0.00     0.023 C 
HETATM   12  C20 UNL     1      -6.773  46.586 -22.886  1.00  0.00     0.023 C 
HETATM   13  C21 UNL     1      -7.799  48.418 -21.577  1.00  0.00     0.135 C 
HETATM   14  O1  UNL     1      -8.870  47.840 -21.374  1.00  0.00    -0.297 OA
HETATM   15  C22 UNL     1      -7.323  49.500 -20.642  1.00  0.00     0.080 C 
HETATM   16  C23 UNL     1      -5.909  49.198 -20.170  1.00  0.00     0.018 C 
HETATM   17  C24 UNL     1      -4.978  48.703 -21.278  1.00  0.00    -0.026 A 
HETATM   18  C25 UNL     1      -4.142  47.477 -20.979  1.00  0.00     0.021 A 
HETATM   19  C26 UNL     1      -3.458  48.824 -21.064  1.00  0.00    -0.027 A 
HETATM   20  C27 UNL     1      -2.876  49.320 -19.734  1.00  0.00     0.011 C 
HETATM   21  C28 UNL     1      -2.318  50.756 -19.782  1.00  0.00     0.011 C 
HETATM   22  C29 UNL     1      -1.346  50.949 -20.962  1.00  0.00    -0.032 C 
HETATM   23  C30 UNL     1      -0.089  50.055 -20.716  1.00  0.00     0.016 C 
ENDROOT
BRANCH   1  24
HETATM   24  C7  UNL     1       0.286  53.056 -20.433  1.00  0.00    -0.014 C 
HETATM   25  C8  UNL     1       1.659  52.895 -21.096  1.00  0.00     0.010 C 
BRANCH  24  26
HETATM   26  C6  UNL     1       0.306  52.438 -19.004  1.00  0.00     0.008 C 
BRANCH  26  27
HETATM   27  C5  UNL     1       1.480  52.831 -18.098  1.00  0.00     0.028 C 
BRANCH  27  28
HETATM   28  C4  UNL     1       1.493  52.117 -16.773  1.00  0.00    -0.025 C 
HETATM   29  C2  UNL     1       2.516  52.049 -15.899  1.00  0.00    -0.091 C 
HETATM   30  C1  UNL     1       3.884  52.627 -16.134  1.00  0.00     0.042 C 
HETATM   31  C3  UNL     1       2.355  51.347 -14.576  1.00  0.00     0.042 C 
ENDBRANCH  27  28
ENDBRANCH  26  27
ENDBRANCH  24  26
ENDBRANCH   1  24
TORSDOF 4
ENDMDL
MODEL 5
REMARK minimizedAffinity -8.97371197
REMARK  4 active torsions:
REMARK  status: ('A' for Active; 'I' for Inactive)
REMARK    1  A    between atoms: C4_4  and  C5_5 
REMARK    2  A    between atoms: C5_5  and  C6_6 
REMARK    3  A    between atoms: C6_6  and  C7_7 
REMARK    4  A    between atoms: C7_7  and  C9_9 
ROOT
HETATM    1  C9  UNL     1      -0.817  50.430 -21.495  1.00  0.00    -0.002 C 
HETATM    2  C10 UNL     1      -0.370  49.129 -20.751  1.00  0.00     0.006 C 
HETATM    3  C11 UNL     1      -1.635  48.441 -20.197  1.00  0.00     0.011 C 
HETATM    4  C12 UNL     1      -2.797  49.142 -20.912  1.00  0.00    -0.032 C 
HETATM    5  C13 UNL     1      -2.904  48.473 -22.319  1.00  0.00     0.016 C 
HETATM    6  C14 UNL     1      -4.179  49.094 -20.198  1.00  0.00     0.004 C 
HETATM    7  C15 UNL     1      -4.714  47.701 -19.849  1.00  0.00     0.007 C 
HETATM    8  C16 UNL     1      -5.539  46.955 -20.892  1.00  0.00     0.007 C 
HETATM    9  C17 UNL     1      -6.213  47.760 -22.020  1.00  0.00     0.010 C 
HETATM   10  C18 UNL     1      -7.639  47.236 -22.419  1.00  0.00     0.018 C 
HETATM   11  C19 UNL     1      -7.548  45.797 -22.955  1.00  0.00     0.023 C 
HETATM   12  C20 UNL     1      -8.659  47.287 -21.266  1.00  0.00     0.023 C 
HETATM   13  C21 UNL     1      -8.202  48.107 -23.555  1.00  0.00     0.135 C 
HETATM   14  O1  UNL     1      -9.358  47.983 -23.964  1.00  0.00    -0.297 OA
HETATM   15  C22 UNL     1      -7.261  49.092 -24.202  1.00  0.00     0.080 C 
HETATM   16  C23 UNL     1      -6.657  50.006 -23.148  1.00  0.00     0.018 C 
HETATM   17  C24 UNL     1      -6.221  49.282 -21.873  1.00  0.00    -0.026 A 
HETATM   18  C25 UNL     1      -6.644  49.893 -20.554  1.00  0.00     0.021 A 
HETATM   19  C26 UNL     1      -5.188  49.966 -20.959  1.00  0.00    -0.027 A 
HETATM   20  C27 UNL     1      -4.685  51.388 -21.247  1.00  0.00     0.011 C 
HETATM   21  C28 UNL     1      -3.252  51.452 -21.809  1.00  0.00     0.011 C 
HETATM   22  C29 UNL     1      -2.266  50.638 -20.948  1.00  0.00    -0.032 C 
HETATM   23  C30 UNL     1      -2.162  51.318 -19.545  1.00  0.00     0.016 C 
ENDROOT
BRANCH   1  24
HETATM   24  C7  UNL     1       0.254  51.560 -21.371  1.00  0.00    -0.014 C 
HETATM   25  C8  UNL     1       0.257  52.203 -19.979  1.00  0.00     0.010 C 
BRANCH  24  26
HETATM   26  C6  UNL     1       0.003  52.643 -22.460  1.00  0.00     0.008 C 
BRANCH  26  27
HETATM   27  C5  UNL     1      -0.296  52.139 -23.879  1.00  0.00     0.028 C 
BRANCH  27  28
HETATM   28  C4  UNL     1       0.905  52.125 -24.786  1.00  0.00    -0.025 C 
HETATM   29  C2  UNL     1       1.000  51.537 -25.995  1.00  0.00    -0.091 C 
HETATM   30  C1  UNL     1      -0.080  50.709 -26.632  1.00  0.00     0.042 C 
HETATM   31  C3  UNL     1       2.256  51.665 -26.817  1.00  0.00     0.042 C 
ENDBRANCH  27  28
ENDBRANCH  26  27
ENDBRANCH  24  26
ENDBRANCH   1  24
TORSDOF 4
ENDMDL
MODEL 6
REMARK minimizedAffinity -8.97001839
REMARK  4 active torsions:
REMARK  status: ('A' for Active; 'I' for Inactive)
REMARK    1  A    between atoms: C4_4  and  C5_5 
REMARK    2  A    between atoms: C5_5  and  C6_6 
REMARK    3  A    between atoms: C6_6  and  C7_7 
REMARK    4  A    between atoms: C7_7  and  C9_9 
ROOT
HETATM    1  C9  UNL     1      -0.717  51.071 -24.307  1.00  0.00    -0.002 C 
HETATM    2  C10 UNL     1       0.478  52.038 -24.014  1.00  0.00     0.006 C 
HETATM    3  C11 UNL     1       0.361  52.505 -22.549  1.00  0.00     0.011 C 
HETATM    4  C12 UNL     1      -0.666  51.553 -21.923  1.00  0.00    -0.032 C 
HETATM    5  C13 UNL     1       0.115  50.248 -21.570  1.00  0.00     0.016 C 
HETATM    6  C14 UNL     1      -1.418  52.076 -20.664  1.00  0.00     0.004 C 
HETATM    7  C15 UNL     1      -0.542  52.536 -19.494  1.00  0.00     0.007 C 
HETATM    8  C16 UNL     1      -0.105  51.502 -18.461  1.00  0.00     0.007 C 
HETATM    9  C17 UNL     1      -0.913  50.195 -18.331  1.00  0.00     0.010 C 
HETATM   10  C18 UNL     1      -1.073  49.684 -16.855  1.00  0.00     0.018 C 
HETATM   11  C19 UNL     1       0.305  49.364 -16.249  1.00  0.00     0.023 C 
HETATM   12  C20 UNL     1      -1.816  50.673 -15.937  1.00  0.00     0.023 C 
HETATM   13  C21 UNL     1      -1.882  48.376 -16.854  1.00  0.00     0.135 C 
HETATM   14  O1  UNL     1      -2.255  47.837 -15.810  1.00  0.00    -0.297 OA
HETATM   15  C22 UNL     1      -2.159  47.734 -18.190  1.00  0.00     0.080 C 
HETATM   16  C23 UNL     1      -2.847  48.726 -19.114  1.00  0.00     0.018 C 
HETATM   17  C24 UNL     1      -2.250  50.133 -19.070  1.00  0.00    -0.026 A 
HETATM   18  C25 UNL     1      -3.219  51.290 -18.938  1.00  0.00     0.021 A 
HETATM   19  C26 UNL     1      -2.510  51.076 -20.258  1.00  0.00    -0.027 A 
HETATM   20  C27 UNL     1      -3.437  50.669 -21.412  1.00  0.00     0.011 C 
HETATM   21  C28 UNL     1      -2.703  50.301 -22.716  1.00  0.00     0.011 C 
HETATM   22  C29 UNL     1      -1.690  51.388 -23.125  1.00  0.00    -0.032 C 
HETATM   23  C30 UNL     1      -2.480  52.687 -23.481  1.00  0.00     0.016 C 
ENDROOT
BRANCH   1  24
HETATM   24  C7  UNL     1      -1.198  51.184 -25.789  1.00  0.00    -0.014 C 
HETATM   25  C8  UNL     1      -1.282  52.641 -26.261  1.00  0.00     0.010 C 
BRANCH  24  26
HETATM   26  C6  UNL     1      -2.582  50.490 -25.946  1.00  0.00     0.008 C 
BRANCH  26  27
HETATM   27  C5  UNL     1      -2.571  48.974 -26.185  1.00  0.00     0.028 C 
BRANCH  27  28
HETATM   28  C4  UNL     1      -3.483  48.524 -27.294  1.00  0.00    -0.025 C 
HETATM   29  C2  UNL     1      -4.782  48.184 -27.187  1.00  0.00    -0.091 C 
HETATM   30  C1  UNL     1      -5.548  48.121 -25.894  1.00  0.00     0.042 C 
HETATM   31  C3  UNL     1      -5.586  47.814 -28.406  1.00  0.00     0.042 C 
ENDBRANCH  27  28
ENDBRANCH  26  27
ENDBRANCH  24  26
ENDBRANCH   1  24
TORSDOF 4
ENDMDL
MODEL 7
REMARK minimizedAffinity -8.87134075
REMARK  4 active torsions:
REMARK  status: ('A' for Active; 'I' for Inactive)
REMARK    1  A    between atoms: C4_4  and  C5_5 
REMARK    2  A    between atoms: C5_5  and  C6_6 
REMARK    3  A    between atoms: C6_6  and  C7_7 
REMARK    4  A    between atoms: C7_7  and  C9_9 
ROOT
HETATM    1  C9  UNL     1      -2.099  50.055 -23.425  1.00  0.00    -0.002 C 
HETATM    2  C10 UNL     1      -0.777  50.889 -23.492  1.00  0.00     0.006 C 
HETATM    3  C11 UNL     1      -0.495  51.444 -22.081  1.00  0.00     0.011 C 
HETATM    4  C12 UNL     1      -1.435  50.654 -21.162  1.00  0.00    -0.032 C 
HETATM    5  C13 UNL     1      -0.730  49.287 -20.896  1.00  0.00     0.016 C 
HETATM    6  C14 UNL     1      -1.809  51.329 -19.810  1.00  0.00     0.004 C 
HETATM    7  C15 UNL     1      -0.638  51.744 -18.912  1.00  0.00     0.007 C 
HETATM    8  C16 UNL     1      -0.077  50.722 -17.929  1.00  0.00     0.007 C 
HETATM    9  C17 UNL     1      -0.958  49.528 -17.513  1.00  0.00     0.010 C 
HETATM   10  C18 UNL     1      -0.814  49.119 -16.004  1.00  0.00     0.018 C 
HETATM   11  C19 UNL     1       0.628  48.672 -15.708  1.00  0.00     0.023 C 
HETATM   12  C20 UNL     1      -1.214  50.236 -15.022  1.00  0.00     0.023 C 
HETATM   13  C21 UNL     1      -1.729  47.917 -15.713  1.00  0.00     0.135 C 
HETATM   14  O1  UNL     1      -1.896  47.481 -14.572  1.00  0.00    -0.297 OA
HETATM   15  C22 UNL     1      -2.378  47.241 -16.894  1.00  0.00     0.080 C 
HETATM   16  C23 UNL     1      -3.162  48.257 -17.711  1.00  0.00     0.018 C 
HETATM   17  C24 UNL     1      -2.432  49.584 -17.917  1.00  0.00    -0.026 A 
HETATM   18  C25 UNL     1      -3.219  50.852 -17.659  1.00  0.00     0.021 A 
HETATM   19  C26 UNL     1      -2.870  50.487 -19.085  1.00  0.00    -0.027 A 
HETATM   20  C27 UNL     1      -4.081  50.131 -19.959  1.00  0.00     0.011 C 
HETATM   21  C28 UNL     1      -3.718  49.609 -21.363  1.00  0.00     0.011 C 
HETATM   22  C29 UNL     1      -2.726  50.546 -22.079  1.00  0.00    -0.032 C 
HETATM   23  C30 UNL     1      -3.443  51.908 -22.346  1.00  0.00     0.016 C 
ENDROOT
BRANCH   1  24
HETATM   24  C7  UNL     1      -2.904  50.145 -24.760  1.00  0.00    -0.014 C 
HETATM   25  C8  UNL     1      -3.011  48.787 -25.463  1.00  0.00     0.010 C 
BRANCH  24  26
HETATM   26  C6  UNL     1      -2.238  51.187 -25.706  1.00  0.00     0.008 C 
BRANCH  26  27
HETATM   27  C5  UNL     1      -1.441  50.631 -26.894  1.00  0.00     0.028 C 
BRANCH  27  28
HETATM   28  C4  UNL     1       0.051  50.713 -26.719  1.00  0.00    -0.025 C 
HETATM   29  C2  UNL     1       0.891  51.582 -27.317  1.00  0.00    -0.091 C 
HETATM   30  C1  UNL     1       0.481  52.599 -28.345  1.00  0.00     0.042 C 
HETATM   31  C3  UNL     1       2.361  51.582 -26.990  1.00  0.00     0.042 C 
ENDBRANCH  27  28
ENDBRANCH  26  27
ENDBRANCH  24  26
ENDBRANCH   1  24
TORSDOF 4
ENDMDL
MODEL 8
REMARK minimizedAffinity -8.85564327
REMARK  4 active torsions:
REMARK  status: ('A' for Active; 'I' for Inactive)
REMARK    1  A    between atoms: C4_4  and  C5_5 
REMARK    2  A    between atoms: C5_5  and  C6_6 
REMARK    3  A    between atoms: C6_6  and  C7_7 
REMARK    4  A    between atoms: C7_7  and  C9_9 
ROOT
HETATM    1  C9  UNL     1      -3.740  51.083 -23.981  1.00  0.00    -0.002 C 
HETATM    2  C10 UNL     1      -5.239  50.809 -23.629  1.00  0.00     0.006 C 
HETATM    3  C11 UNL     1      -5.278  49.980 -22.329  1.00  0.00     0.011 C 
HETATM    4  C12 UNL     1      -3.855  50.085 -21.765  1.00  0.00    -0.032 C 
HETATM    5  C13 UNL     1      -3.783  51.459 -21.028  1.00  0.00     0.016 C 
HETATM    6  C14 UNL     1      -3.406  48.945 -20.804  1.00  0.00     0.004 C 
HETATM    7  C15 UNL     1      -4.297  48.699 -19.582  1.00  0.00     0.007 C 
HETATM    8  C16 UNL     1      -4.028  49.499 -18.312  1.00  0.00     0.007 C 
HETATM    9  C17 UNL     1      -2.639  50.136 -18.114  1.00  0.00     0.010 C 
HETATM   10  C18 UNL     1      -2.115  50.089 -16.635  1.00  0.00     0.018 C 
HETATM   11  C19 UNL     1      -3.053  50.885 -15.711  1.00  0.00     0.023 C 
HETATM   12  C20 UNL     1      -1.949  48.659 -16.085  1.00  0.00     0.023 C 
HETATM   13  C21 UNL     1      -0.733  50.760 -16.563  1.00  0.00     0.135 C 
HETATM   14  O1  UNL     1      -0.049  50.743 -15.537  1.00  0.00    -0.297 OA
HETATM   15  C22 UNL     1      -0.260  51.501 -17.788  1.00  0.00     0.080 C 
HETATM   16  C23 UNL     1      -0.286  50.581 -18.998  1.00  0.00     0.018 C 
HETATM   17  C24 UNL     1      -1.539  49.710 -19.089  1.00  0.00    -0.026 A 
HETATM   18  C25 UNL     1      -1.336  48.236 -19.371  1.00  0.00     0.021 A 
HETATM   19  C26 UNL     1      -1.920  49.114 -20.456  1.00  0.00    -0.027 A 
HETATM   20  C27 UNL     1      -1.013  49.288 -21.682  1.00  0.00     0.011 C 
HETATM   21  C28 UNL     1      -1.533  50.303 -22.718  1.00  0.00     0.011 C 
HETATM   22  C29 UNL     1      -3.000  50.023 -23.101  1.00  0.00    -0.032 C 
HETATM   23  C30 UNL     1      -3.061  48.649 -23.842  1.00  0.00     0.016 C 
ENDROOT
BRANCH   1  24
HETATM   24  C7  UNL     1      -3.512  51.138 -25.525  1.00  0.00    -0.014 C 
HETATM   25  C8  UNL     1      -3.859  49.810 -26.209  1.00  0.00     0.010 C 
BRANCH  24  26
HETATM   26  C6  UNL     1      -2.034  51.524 -25.824  1.00  0.00     0.008 C 
BRANCH  26  27
HETATM   27  C5  UNL     1      -1.163  50.454 -26.495  1.00  0.00     0.028 C 
BRANCH  27  28
HETATM   28  C4  UNL     1       0.316  50.675 -26.321  1.00  0.00    -0.025 C 
HETATM   29  C2  UNL     1       1.112  51.459 -27.074  1.00  0.00    -0.091 C 
HETATM   30  C1  UNL     1       0.665  52.212 -28.296  1.00  0.00     0.042 C 
HETATM   31  C3  UNL     1       2.570  51.630 -26.735  1.00  0.00     0.042 C 
ENDBRANCH  27  28
ENDBRANCH  26  27
ENDBRANCH  24  26
ENDBRANCH   1  24
TORSDOF 4
ENDMDL
MODEL 9
REMARK minimizedAffinity -8.76490498
REMARK  4 active torsions:
REMARK  status: ('A' for Active; 'I' for Inactive)
REMARK    1  A    between atoms: C4_4  and  C5_5 
REMARK    2  A    between atoms: C5_5  and  C6_6 
REMARK    3  A    between atoms: C6_6  and  C7_7 
REMARK    4  A    between atoms: C7_7  and  C9_9 
ROOT
HETATM    1  C9  UNL     1      -2.047  51.508 -22.469  1.00  0.00    -0.002 C 
HETATM    2  C10 UNL     1      -3.083  52.483 -23.118  1.00  0.00     0.006 C 
HETATM    3  C11 UNL     1      -4.443  51.758 -23.179  1.00  0.00     0.011 C 
HETATM    4  C12 UNL     1      -4.269  50.538 -22.266  1.00  0.00    -0.032 C 
HETATM    5  C13 UNL     1      -4.476  51.058 -20.808  1.00  0.00     0.016 C 
HETATM    6  C14 UNL     1      -5.213  49.330 -22.535  1.00  0.00     0.004 C 
HETATM    7  C15 UNL     1      -6.717  49.627 -22.514  1.00  0.00     0.007 C 
HETATM    8  C16 UNL     1      -7.455  49.551 -21.182  1.00  0.00     0.007 C 
HETATM    9  C17 UNL     1      -6.832  48.734 -20.033  1.00  0.00     0.010 C 
HETATM   10  C18 UNL     1      -7.876  47.941 -19.169  1.00  0.00     0.018 C 
HETATM   11  C19 UNL     1      -8.851  48.914 -18.483  1.00  0.00     0.023 C 
HETATM   12  C20 UNL     1      -8.677  46.899 -19.973  1.00  0.00     0.023 C 
HETATM   13  C21 UNL     1      -7.140  47.178 -18.055  1.00  0.00     0.135 C 
HETATM   14  O1  UNL     1      -7.719  46.379 -17.315  1.00  0.00    -0.297 OA
HETATM   15  C22 UNL     1      -5.679  47.489 -17.854  1.00  0.00     0.080 C 
HETATM   16  C23 UNL     1      -4.919  47.290 -19.155  1.00  0.00     0.018 C 
HETATM   17  C24 UNL     1      -5.639  47.844 -20.386  1.00  0.00    -0.026 A 
HETATM   18  C25 UNL     1      -5.726  46.943 -21.599  1.00  0.00     0.021 A 
HETATM   19  C26 UNL     1      -4.809  48.145 -21.646  1.00  0.00    -0.027 A 
HETATM   20  C27 UNL     1      -3.316  47.796 -21.721  1.00  0.00     0.011 C 
HETATM   21  C28 UNL     1      -2.374  49.012 -21.613  1.00  0.00     0.011 C 
HETATM   22  C29 UNL     1      -2.772  50.129 -22.597  1.00  0.00    -0.032 C 
HETATM   23  C30 UNL     1      -2.555  49.601 -24.052  1.00  0.00     0.016 C 
ENDROOT
BRANCH   1  24
HETATM   24  C7  UNL     1      -0.615  51.715 -23.056  1.00  0.00    -0.014 C 
HETATM   25  C8  UNL     1       0.435  51.931 -21.960  1.00  0.00     0.010 C 
BRANCH  24  26
HETATM   26  C6  UNL     1      -0.621  52.924 -24.038  1.00  0.00     0.008 C 
BRANCH  26  27
HETATM   27  C5  UNL     1       0.652  53.148 -24.865  1.00  0.00     0.028 C 
BRANCH  27  28
HETATM   28  C4  UNL     1       0.501  52.806 -26.322  1.00  0.00    -0.025 C 
HETATM   29  C2  UNL     1       1.306  52.014 -27.057  1.00  0.00    -0.091 C 
HETATM   30  C1  UNL     1       2.570  51.375 -26.553  1.00  0.00     0.042 C 
HETATM   31  C3  UNL     1       0.986  51.712 -28.498  1.00  0.00     0.042 C 
ENDBRANCH  27  28
ENDBRANCH  26  27
ENDBRANCH  24  26
ENDBRANCH   1  24
TORSDOF 4
ENDMDL
