MODEL 1
REMARK minimizedAffinity -9.08354568
REMARK CNNscore 0.393803924
REMARK CNNaffinity 6.79688025
REMARK  6 active torsions:
REMARK  status: ('A' for Active; 'I' for Inactive)
REMARK       I    between atoms: N1_1  and  C1_2 
REMARK       I    between atoms: C1_2  and  N2_3 
REMARK    1  A    between atoms: N3_4  and  C2_6 
REMARK    2  A    between atoms: C11_16  and  S1_17 
REMARK    3  A    between atoms: S1_17  and  O4_20 
REMARK    4  A    between atoms: C23_33  and  O6_34 
REMARK    5  A    between atoms: C29_40  and  C30_41 
REMARK    6  A    between atoms: C30_41  and  O7_42 
ROOT
HETATM    1  C2  UNL     1      -2.417  10.067  16.066  1.00  0.00     0.263 C 
HETATM    2  O1  UNL     1      -3.566  10.580  16.822  1.00  0.00    -0.322 OA
HETATM    3  C3  UNL     1      -3.474  11.886  17.231  1.00  0.00     0.071 C 
HETATM    4  C4  UNL     1      -3.137  12.937  16.383  1.00  0.00     0.037 C 
HETATM    5  C5  UNL     1      -2.833  14.191  16.922  1.00  0.00     0.010 C 
HETATM    6  C6  UNL     1      -2.889  14.405  18.306  1.00  0.00    -0.058 C 
HETATM    7  C7  UNL     1      -3.363  13.375  19.131  1.00  0.00     0.010 C 
HETATM    8  C8  UNL     1      -3.663  12.123  18.592  1.00  0.00     0.037 C 
HETATM    9  C9  UNL     1      -2.386  15.698  18.906  1.00  0.00     0.040 C 
HETATM   10  C10 UNL     1      -1.099  15.516  19.738  1.00  0.00     0.027 C 
HETATM   11  C11 UNL     1       0.132  15.048  18.914  1.00  0.00     0.130 C 
HETATM   12  C12 UNL     1       0.938  13.933  19.647  1.00  0.00     0.037 C 
HETATM   13  C13 UNL     1       1.670  14.368  20.896  1.00  0.00    -0.014 C 
HETATM   14  C14 UNL     1       2.987  14.117  21.060  1.00  0.00    -0.050 C 
HETATM   15  C15 UNL     1       3.846  13.719  19.901  1.00  0.00     0.042 C 
HETATM   16  C16 UNL     1       3.157  12.521  19.272  1.00  0.00     0.001 C 
HETATM   17  C17 UNL     1       3.203  11.329  20.264  1.00  0.00     0.038 C 
HETATM   18  C18 UNL     1       2.607  11.426  21.704  1.00  0.00     0.130 C 
HETATM   19  O5  UNL     1       3.158  12.350  22.659  1.00  0.00    -0.371 OA
HETATM   20  C19 UNL     1       3.484  13.717  22.419  1.00  0.00     0.185 C 
HETATM   21  C20 UNL     1       4.955  14.042  22.728  1.00  0.00    -0.006 A 
HETATM   22  C21 UNL     1       5.323  15.406  22.744  1.00  0.00     0.014 A 
HETATM   23  C22 UNL     1       6.632  15.802  23.026  1.00  0.00     0.037 A 
HETATM   24  C23 UNL     1       7.594  14.837  23.301  1.00  0.00     0.067 A 
HETATM   25  C24 UNL     1       7.268  13.487  23.299  1.00  0.00     0.057 A 
HETATM   26  C25 UNL     1       5.960  13.080  23.015  1.00  0.00     0.029 A 
HETATM   27  C26 UNL     1       5.682  11.674  23.004  1.00  0.00    -0.066 C 
HETATM   28  C27 UNL     1       5.174  10.590  22.885  1.00  0.00    -0.101 C 
HETATM   29  C28 UNL     1       4.221   9.515  22.571  1.00  0.00     0.103 C 
HETATM   30  C29 UNL     1       2.752  10.042  22.450  1.00  0.00     0.049 C 
HETATM   31  C31 UNL     1       1.808  13.034  18.685  1.00  0.00     0.032 C 
HETATM   32  C32 UNL     1       0.959  11.994  17.965  1.00  0.00    -0.053 C 
HETATM   33  C33 UNL     1       0.788  12.099  16.577  1.00  0.00     0.008 C 
HETATM   34  C34 UNL     1      -0.219  11.384  15.930  1.00  0.00     0.012 C 
HETATM   35  C35 UNL     1      -1.075  10.544  16.655  1.00  0.00    -0.010 C 
HETATM   36  C36 UNL     1      -0.788  10.304  18.007  1.00  0.00     0.012 C 
HETATM   37  C37 UNL     1       0.209  11.034  18.658  1.00  0.00     0.008 C 
ENDROOT
BRANCH   1  38
HETATM   38  N3  UNL     1      -2.471  10.210  14.600  1.00  0.00    -0.341 N 
HETATM   39  C1  UNL     1      -2.184   9.193  13.883  1.00  0.00     0.124 C 
HETATM   40  N1  UNL     1      -2.190   9.293  12.535  1.00  0.00    -0.279 NA
HETATM   41  N2  UNL     1      -1.845   7.935  14.245  1.00  0.00    -0.279 NA
HETATM   42  H1  UNL     1      -1.373   8.867  12.114  1.00  0.00     0.126 HD
HETATM   43  H2  UNL     1      -2.268  10.267  12.256  1.00  0.00     0.126 HD
HETATM   44  H3  UNL     1      -2.258   7.245  13.628  1.00  0.00     0.126 HD
HETATM   45  H4  UNL     1      -2.104   7.726  15.208  1.00  0.00     0.126 HD
ATOM     46  H3  UNL     1      -2.732  11.098  14.170  1.00  0.00     0.164 HD
ENDBRANCH   1  38
BRANCH  11  47
HETATM   47  S1  UNL     1       1.185  16.455  18.460  1.00  0.00     0.099 S 
HETATM   48  O2  UNL     1       2.520  16.019  18.116  1.00  0.00    -0.601 OA
HETATM   49  O3  UNL     1       0.460  17.406  17.648  1.00  0.00    -0.601 OA
BRANCH  47  50
HETATM   50  O4  UNL     1       1.335  17.126  19.921  1.00  0.00    -0.295 OA
HETATM   51  H15 UNL     1       2.278  17.369  20.041  1.00  0.00     0.232 HD
ENDBRANCH  47  50
ENDBRANCH  11  47
BRANCH  30  52
HETATM   52  C30 UNL     1       1.845   8.969  21.835  1.00  0.00     0.172 C 
BRANCH  52  53
HETATM   53  O7  UNL     1       2.003   7.720  22.501  1.00  0.00    -0.400 OA
HETATM   54  H34 UNL     1       2.837   7.321  22.203  1.00  0.00     0.209 HD
ENDBRANCH  52  53
ENDBRANCH  30  52
BRANCH  24  55
HETATM   55  O6  UNL     1       8.883  15.181  23.581  1.00  0.00    -0.361 OA
HETATM   56  H27 UNL     1       8.963  16.148  23.536  1.00  0.00     0.217 HD
ENDBRANCH  24  55
TORSDOF 6
ENDMDL
MODEL 2
REMARK minimizedAffinity -8.07493496
REMARK CNNscore 0.260267705
REMARK CNNaffinity 6.18872404
REMARK  6 active torsions:
REMARK  status: ('A' for Active; 'I' for Inactive)
REMARK       I    between atoms: N1_1  and  C1_2 
REMARK       I    between atoms: C1_2  and  N2_3 
REMARK    1  A    between atoms: N3_4  and  C2_6 
REMARK    2  A    between atoms: C11_16  and  S1_17 
REMARK    3  A    between atoms: S1_17  and  O4_20 
REMARK    4  A    between atoms: C23_33  and  O6_34 
REMARK    5  A    between atoms: C29_40  and  C30_41 
REMARK    6  A    between atoms: C30_41  and  O7_42 
ROOT
HETATM    1  C2  UNL     1       1.439   7.255  14.875  1.00  0.00     0.263 C 
HETATM    2  O1  UNL     1       1.102   7.922  16.138  1.00  0.00    -0.322 OA
HETATM    3  C3  UNL     1       1.195   9.291  16.132  1.00  0.00     0.071 C 
HETATM    4  C4  UNL     1       0.606  10.098  15.161  1.00  0.00     0.037 C 
HETATM    5  C5  UNL     1       0.944  11.452  15.091  1.00  0.00     0.010 C 
HETATM    6  C6  UNL     1       1.850  12.010  16.004  1.00  0.00    -0.058 C 
HETATM    7  C7  UNL     1       2.326  11.215  17.056  1.00  0.00     0.010 C 
HETATM    8  C8  UNL     1       1.990   9.863  17.124  1.00  0.00     0.037 C 
HETATM    9  C9  UNL     1       2.356  13.422  15.819  1.00  0.00     0.040 C 
HETATM   10  C10 UNL     1       3.851  13.482  15.439  1.00  0.00     0.027 C 
HETATM   11  C11 UNL     1       4.184  12.843  14.063  1.00  0.00     0.130 C 
HETATM   12  C12 UNL     1       5.472  11.966  14.122  1.00  0.00     0.037 C 
HETATM   13  C13 UNL     1       6.767  12.718  14.327  1.00  0.00    -0.014 C 
HETATM   14  C14 UNL     1       7.819  12.541  13.498  1.00  0.00    -0.050 C 
HETATM   15  C15 UNL     1       7.650  11.877  12.169  1.00  0.00     0.042 C 
HETATM   16  C16 UNL     1       6.979  10.546  12.456  1.00  0.00     0.001 C 
HETATM   17  C17 UNL     1       7.955   9.647  13.259  1.00  0.00     0.038 C 
HETATM   18  C18 UNL     1       8.563  10.095  14.626  1.00  0.00     0.130 C 
HETATM   19  O5  UNL     1       9.429  11.242  14.696  1.00  0.00    -0.371 OA
HETATM   20  C19 UNL     1       9.202  12.509  14.082  1.00  0.00     0.185 C 
HETATM   21  C20 UNL     1      10.346  12.928  13.144  1.00  0.00    -0.006 A 
HETATM   22  C21 UNL     1      10.332  14.258  12.667  1.00  0.00     0.014 A 
HETATM   23  C22 UNL     1      11.334  14.737  11.819  1.00  0.00     0.037 A 
HETATM   24  C23 UNL     1      12.369  13.892  11.440  1.00  0.00     0.067 A 
HETATM   25  C24 UNL     1      12.419  12.579  11.892  1.00  0.00     0.057 A 
HETATM   26  C25 UNL     1      11.418  12.090  12.739  1.00  0.00     0.029 A 
HETATM   27  C26 UNL     1      11.505  10.722  13.160  1.00  0.00    -0.066 C 
HETATM   28  C27 UNL     1      11.297   9.635  13.629  1.00  0.00    -0.101 C 
HETATM   29  C28 UNL     1      10.648   8.498  14.299  1.00  0.00     0.103 C 
HETATM   30  C29 UNL     1       9.469   8.949  15.224  1.00  0.00     0.049 C 
HETATM   31  C31 UNL     1       5.551  10.868  12.990  1.00  0.00     0.032 C 
HETATM   32  C32 UNL     1       4.676   9.663  13.313  1.00  0.00    -0.053 C 
HETATM   33  C33 UNL     1       3.550   9.409  12.515  1.00  0.00     0.008 C 
HETATM   34  C34 UNL     1       2.555   8.534  12.951  1.00  0.00     0.012 C 
HETATM   35  C35 UNL     1       2.665   7.891  14.191  1.00  0.00    -0.010 C 
HETATM   36  C36 UNL     1       3.870   8.008  14.900  1.00  0.00     0.012 C 
HETATM   37  C37 UNL     1       4.858   8.898  14.471  1.00  0.00     0.008 C 
ENDROOT
BRANCH   1  38
HETATM   38  N3  UNL     1       0.328   7.020  13.934  1.00  0.00    -0.341 N 
HETATM   39  C1  UNL     1      -0.592   6.204  14.278  1.00  0.00     0.124 C 
HETATM   40  N1  UNL     1      -1.610   5.936  13.431  1.00  0.00    -0.279 NA
HETATM   41  N2  UNL     1      -0.754   5.499  15.421  1.00  0.00    -0.279 NA
HETATM   42  H1  UNL     1      -1.808   4.944  13.369  1.00  0.00     0.126 HD
HETATM   43  H2  UNL     1      -1.409   6.317  12.511  1.00  0.00     0.126 HD
HETATM   44  H3  UNL     1      -1.728   5.458  15.700  1.00  0.00     0.126 HD
HETATM   45  H4  UNL     1      -0.197   5.872  16.189  1.00  0.00     0.126 HD
ATOM     46  H3  UNL     1       0.296   7.496  13.032  1.00  0.00     0.164 HD
ENDBRANCH   1  38
BRANCH  11  47
HETATM   47  S1  UNL     1       4.287  14.107  12.764  1.00  0.00     0.099 S 
HETATM   48  O2  UNL     1       4.635  15.397  13.318  1.00  0.00    -0.601 OA
HETATM   49  O3  UNL     1       4.931  13.585  11.581  1.00  0.00    -0.601 OA
BRANCH  47  50
HETATM   50  O4  UNL     1       2.714  14.221  12.414  1.00  0.00    -0.295 OA
HETATM   51  H15 UNL     1       2.495  15.174  12.338  1.00  0.00     0.232 HD
ENDBRANCH  47  50
ENDBRANCH  11  47
BRANCH  30  52
HETATM   52  C30 UNL     1       8.636   7.738  15.663  1.00  0.00     0.172 C 
BRANCH  52  53
HETATM   53  O7  UNL     1       8.954   7.352  16.995  1.00  0.00    -0.400 OA
HETATM   54  H34 UNL     1       9.805   6.882  16.980  1.00  0.00     0.209 HD
ENDBRANCH  52  53
ENDBRANCH  30  52
BRANCH  24  55
HETATM   55  O6  UNL     1      13.366  14.319  10.614  1.00  0.00    -0.361 OA
HETATM   56  H27 UNL     1      13.194  15.244  10.373  1.00  0.00     0.217 HD
ENDBRANCH  24  55
TORSDOF 6
ENDMDL
MODEL 3
REMARK minimizedAffinity -7.60513449
REMARK CNNscore 0.251593679
REMARK CNNaffinity 6.52179337
REMARK  6 active torsions:
REMARK  status: ('A' for Active; 'I' for Inactive)
REMARK       I    between atoms: N1_1  and  C1_2 
REMARK       I    between atoms: C1_2  and  N2_3 
REMARK    1  A    between atoms: N3_4  and  C2_6 
REMARK    2  A    between atoms: C11_16  and  S1_17 
REMARK    3  A    between atoms: S1_17  and  O4_20 
REMARK    4  A    between atoms: C23_33  and  O6_34 
REMARK    5  A    between atoms: C29_40  and  C30_41 
REMARK    6  A    between atoms: C30_41  and  O7_42 
ROOT
HETATM    1  C2  UNL     1       0.088   8.340  14.612  1.00  0.00     0.263 C 
HETATM    2  O1  UNL     1      -1.329   8.387  14.989  1.00  0.00    -0.322 OA
HETATM    3  C3  UNL     1      -1.841   9.637  15.226  1.00  0.00     0.071 C 
HETATM    4  C4  UNL     1      -1.694  10.708  14.349  1.00  0.00     0.037 C 
HETATM    5  C5  UNL     1      -2.035  11.997  14.769  1.00  0.00     0.010 C 
HETATM    6  C6  UNL     1      -2.546  12.217  16.056  1.00  0.00    -0.058 C 
HETATM    7  C7  UNL     1      -2.815  11.111  16.874  1.00  0.00     0.010 C 
HETATM    8  C8  UNL     1      -2.472   9.825  16.456  1.00  0.00     0.037 C 
HETATM    9  C9  UNL     1      -2.741  13.623  16.576  1.00  0.00     0.040 C 
HETATM   10  C10 UNL     1      -1.761  13.986  17.712  1.00  0.00     0.027 C 
HETATM   11  C11 UNL     1      -0.268  14.011  17.282  1.00  0.00     0.130 C 
HETATM   12  C12 UNL     1       0.655  13.325  18.335  1.00  0.00     0.037 C 
HETATM   13  C13 UNL     1       0.800  14.052  19.652  1.00  0.00    -0.014 C 
HETATM   14  C14 UNL     1       2.017  14.342  20.162  1.00  0.00    -0.050 C 
HETATM   15  C15 UNL     1       3.246  14.274  19.311  1.00  0.00     0.042 C 
HETATM   16  C16 UNL     1       3.249  12.883  18.704  1.00  0.00     0.001 C 
HETATM   17  C17 UNL     1       3.454  11.837  19.831  1.00  0.00     0.038 C 
HETATM   18  C18 UNL     1       2.493  11.739  21.058  1.00  0.00     0.130 C 
HETATM   19  O5  UNL     1       2.377  12.836  21.982  1.00  0.00    -0.371 OA
HETATM   20  C19 UNL     1       2.230  14.213  21.642  1.00  0.00     0.185 C 
HETATM   21  C20 UNL     1       3.331  15.097  22.250  1.00  0.00    -0.006 A 
HETATM   22  C21 UNL     1       3.151  16.496  22.169  1.00  0.00     0.014 A 
HETATM   23  C22 UNL     1       4.090  17.382  22.702  1.00  0.00     0.037 A 
HETATM   24  C23 UNL     1       5.223  16.880  23.331  1.00  0.00     0.067 A 
HETATM   25  C24 UNL     1       5.432  15.511  23.435  1.00  0.00     0.057 A 
HETATM   26  C25 UNL     1       4.498  14.616  22.901  1.00  0.00     0.029 A 
HETATM   27  C26 UNL     1       4.772  13.213  23.015  1.00  0.00    -0.066 C 
HETATM   28  C27 UNL     1       4.753  12.014  22.927  1.00  0.00    -0.101 C 
HETATM   29  C28 UNL     1       4.389  10.642  22.543  1.00  0.00     0.103 C 
HETATM   30  C29 UNL     1       2.925  10.547  21.998  1.00  0.00     0.049 C 
HETATM   31  C31 UNL     1       2.024  12.808  17.744  1.00  0.00     0.032 C 
HETATM   32  C32 UNL     1       1.852  11.495  16.989  1.00  0.00    -0.053 C 
HETATM   33  C33 UNL     1       2.045  11.480  15.600  1.00  0.00     0.008 C 
HETATM   34  C34 UNL     1       1.593  10.407  14.832  1.00  0.00     0.012 C 
HETATM   35  C35 UNL     1       0.941   9.323  15.437  1.00  0.00    -0.010 C 
HETATM   36  C36 UNL     1       0.912   9.259  16.838  1.00  0.00     0.012 C 
HETATM   37  C37 UNL     1       1.349  10.342  17.604  1.00  0.00     0.008 C 
ENDROOT
BRANCH   1  38
HETATM   38  N3  UNL     1       0.392   8.403  13.171  1.00  0.00    -0.341 N 
HETATM   39  C1  UNL     1       1.233   7.568  12.694  1.00  0.00     0.124 C 
HETATM   40  N1  UNL     1       1.564   7.614  11.384  1.00  0.00    -0.279 NA
HETATM   41  N2  UNL     1       1.912   6.568  13.299  1.00  0.00    -0.279 NA
HETATM   42  H1  UNL     1       2.563   7.544  11.237  1.00  0.00     0.126 HD
HETATM   43  H2  UNL     1       1.200   8.464  10.961  1.00  0.00     0.126 HD
HETATM   44  H3  UNL     1       1.983   5.750  12.704  1.00  0.00     0.126 HD
HETATM   45  H4  UNL     1       1.497   6.302  14.192  1.00  0.00     0.126 HD
ATOM     46  H3  UNL     1      -0.057   9.095  12.570  1.00  0.00     0.164 HD
ENDBRANCH   1  38
BRANCH  11  47
HETATM   47  S1  UNL     1       0.274  15.703  16.908  1.00  0.00     0.099 S 
HETATM   48  O2  UNL     1      -0.404  16.223  15.742  1.00  0.00    -0.601 OA
HETATM   49  O3  UNL     1       0.419  16.480  18.118  1.00  0.00    -0.601 OA
BRANCH  47  50
HETATM   50  O4  UNL     1       1.770  15.369  16.400  1.00  0.00    -0.295 OA
HETATM   51  H15 UNL     1       1.931  15.896  15.587  1.00  0.00     0.232 HD
ENDBRANCH  47  50
ENDBRANCH  11  47
BRANCH  30  52
HETATM   52  C30 UNL     1       2.685   9.185  21.335  1.00  0.00     0.172 C 
BRANCH  52  53
HETATM   53  O7  UNL     1       1.835   8.369  22.133  1.00  0.00    -0.400 OA
HETATM   54  H34 UNL     1       2.358   8.022  22.875  1.00  0.00     0.209 HD
ENDBRANCH  52  53
ENDBRANCH  30  52
BRANCH  24  55
HETATM   55  O6  UNL     1       6.164  17.710  23.865  1.00  0.00    -0.361 OA
HETATM   56  H27 UNL     1       5.891  18.629  23.709  1.00  0.00     0.217 HD
ENDBRANCH  24  55
TORSDOF 6
ENDMDL
MODEL 4
REMARK minimizedAffinity -7.48082113
REMARK CNNscore 0.240676507
REMARK CNNaffinity 6.29297972
REMARK  6 active torsions:
REMARK  status: ('A' for Active; 'I' for Inactive)
REMARK       I    between atoms: N1_1  and  C1_2 
REMARK       I    between atoms: C1_2  and  N2_3 
REMARK    1  A    between atoms: N3_4  and  C2_6 
REMARK    2  A    between atoms: C11_16  and  S1_17 
REMARK    3  A    between atoms: S1_17  and  O4_20 
REMARK    4  A    between atoms: C23_33  and  O6_34 
REMARK    5  A    between atoms: C29_40  and  C30_41 
REMARK    6  A    between atoms: C30_41  and  O7_42 
ROOT
HETATM    1  C2  UNL     1       3.114  18.036  22.178  1.00  0.00     0.263 C 
HETATM    2  O1  UNL     1       3.124  17.367  23.485  1.00  0.00    -0.322 OA
HETATM    3  C3  UNL     1       3.409  16.025  23.464  1.00  0.00     0.071 C 
HETATM    4  C4  UNL     1       4.507  15.481  22.802  1.00  0.00     0.037 C 
HETATM    5  C5  UNL     1       4.593  14.097  22.629  1.00  0.00     0.010 C 
HETATM    6  C6  UNL     1       3.598  13.251  23.138  1.00  0.00    -0.058 C 
HETATM    7  C7  UNL     1       2.574  13.805  23.918  1.00  0.00     0.010 C 
HETATM    8  C8  UNL     1       2.487  15.187  24.089  1.00  0.00     0.037 C 
HETATM    9  C9  UNL     1       3.592  11.778  22.796  1.00  0.00     0.040 C 
HETATM   10  C10 UNL     1       2.417  11.378  21.878  1.00  0.00     0.027 C 
HETATM   11  C11 UNL     1       2.459  12.031  20.469  1.00  0.00     0.130 C 
HETATM   12  C12 UNL     1       1.057  12.546  20.022  1.00  0.00     0.037 C 
HETATM   13  C13 UNL     1       0.028  11.477  19.731  1.00  0.00    -0.014 C 
HETATM   14  C14 UNL     1      -0.649  11.455  18.563  1.00  0.00    -0.050 C 
HETATM   15  C15 UNL     1      -0.185  12.254  17.387  1.00  0.00     0.042 C 
HETATM   16  C16 UNL     1      -0.047  13.681  17.888  1.00  0.00     0.001 C 
HETATM   17  C17 UNL     1      -1.453  14.231  18.247  1.00  0.00     0.038 C 
HETATM   18  C18 UNL     1      -2.379  13.526  19.287  1.00  0.00     0.130 C 
HETATM   19  O5  UNL     1      -2.870  12.196  19.041  1.00  0.00    -0.371 OA
HETATM   20  C19 UNL     1      -2.105  11.086  18.577  1.00  0.00     0.185 C 
HETATM   21  C20 UNL     1      -2.664  10.476  17.282  1.00  0.00    -0.006 A 
HETATM   22  C21 UNL     1      -2.121   9.240  16.866  1.00  0.00     0.014 A 
HETATM   23  C22 UNL     1      -2.572   8.600  15.708  1.00  0.00     0.037 A 
HETATM   24  C23 UNL     1      -3.579   9.187  14.952  1.00  0.00     0.067 A 
HETATM   25  C24 UNL     1      -4.140  10.400  15.332  1.00  0.00     0.057 A 
HETATM   26  C25 UNL     1      -3.693  11.049  16.488  1.00  0.00     0.029 A 
HETATM   27  C26 UNL     1      -4.290  12.309  16.824  1.00  0.00    -0.066 C 
HETATM   28  C27 UNL     1      -4.568  13.368  17.320  1.00  0.00    -0.101 C 
HETATM   29  C28 UNL     1      -4.541  14.568  18.170  1.00  0.00     0.103 C 
HETATM   30  C29 UNL     1      -3.713  14.349  19.479  1.00  0.00     0.049 C 
HETATM   31  C31 UNL     1       1.112  13.684  18.928  1.00  0.00     0.032 C 
HETATM   32  C32 UNL     1       1.451  15.037  19.541  1.00  0.00    -0.053 C 
HETATM   33  C33 UNL     1       2.680  15.635  19.227  1.00  0.00     0.008 C 
HETATM   34  C34 UNL     1       3.172  16.691  19.994  1.00  0.00     0.012 C 
HETATM   35  C35 UNL     1       2.444  17.174  21.090  1.00  0.00    -0.010 C 
HETATM   36  C36 UNL     1       1.141  16.696  21.290  1.00  0.00     0.012 C 
HETATM   37  C37 UNL     1       0.657  15.627  20.532  1.00  0.00     0.008 C 
ENDROOT
BRANCH   1  38
HETATM   38  N3  UNL     1       4.387  18.625  21.726  1.00  0.00    -0.341 N 
HETATM   39  C1  UNL     1       5.051  19.337  22.554  1.00  0.00     0.124 C 
HETATM   40  N1  UNL     1       6.207  19.922  22.168  1.00  0.00    -0.279 NA
HETATM   41  N2  UNL     1       4.795  19.643  23.846  1.00  0.00    -0.279 NA
HETATM   42  H1  UNL     1       6.265  20.890  22.461  1.00  0.00     0.126 HD
HETATM   43  H2  UNL     1       6.317  19.848  21.160  1.00  0.00     0.126 HD
HETATM   44  H3  UNL     1       5.642  19.647  24.403  1.00  0.00     0.126 HD
HETATM   45  H4  UNL     1       4.116  19.011  24.267  1.00  0.00     0.126 HD
ATOM     46  H3  UNL     1       4.729  18.469  20.777  1.00  0.00     0.164 HD
ENDBRANCH   1  38
BRANCH  11  47
HETATM   47  S1  UNL     1       3.184  10.900  19.248  1.00  0.00     0.099 S 
HETATM   48  O2  UNL     1       2.634   9.569  19.377  1.00  0.00    -0.601 OA
HETATM   49  O3  UNL     1       3.326  11.546  17.963  1.00  0.00    -0.601 OA
BRANCH  47  50
HETATM   50  O4  UNL     1       4.670  10.794  19.871  1.00  0.00    -0.295 OA
HETATM   51  H15 UNL     1       4.933   9.849  19.852  1.00  0.00     0.232 HD
ENDBRANCH  47  50
ENDBRANCH  11  47
BRANCH  30  52
HETATM   52  C30 UNL     1      -3.456  15.687  20.184  1.00  0.00     0.172 C 
BRANCH  52  53
HETATM   53  O7  UNL     1      -2.759  15.496  21.410  1.00  0.00    -0.400 OA
HETATM   54  H34 UNL     1      -3.391  15.162  22.069  1.00  0.00     0.209 HD
ENDBRANCH  52  53
ENDBRANCH  30  52
BRANCH  24  55
HETATM   55  O6  UNL     1      -4.048   8.597  13.816  1.00  0.00    -0.361 OA
HETATM   56  H27 UNL     1      -3.559   7.770  13.672  1.00  0.00     0.217 HD
ENDBRANCH  24  55
TORSDOF 6
ENDMDL
MODEL 5
REMARK minimizedAffinity -9.96622849
REMARK CNNscore 0.227965161
REMARK CNNaffinity 6.69203186
REMARK  6 active torsions:
REMARK  status: ('A' for Active; 'I' for Inactive)
REMARK       I    between atoms: N1_1  and  C1_2 
REMARK       I    between atoms: C1_2  and  N2_3 
REMARK    1  A    between atoms: N3_4  and  C2_6 
REMARK    2  A    between atoms: C11_16  and  S1_17 
REMARK    3  A    between atoms: S1_17  and  O4_20 
REMARK    4  A    between atoms: C23_33  and  O6_34 
REMARK    5  A    between atoms: C29_40  and  C30_41 
REMARK    6  A    between atoms: C30_41  and  O7_42 
ROOT
HETATM    1  C2  UNL     1      -1.075   4.610  11.648  1.00  0.00     0.263 C 
HETATM    2  O1  UNL     1      -0.646   5.261  10.404  1.00  0.00    -0.322 OA
HETATM    3  C3  UNL     1       0.534   5.959  10.474  1.00  0.00     0.071 C 
HETATM    4  C4  UNL     1       1.711   5.430  10.997  1.00  0.00     0.037 C 
HETATM    5  C5  UNL     1       2.795   6.275  11.250  1.00  0.00     0.010 C 
HETATM    6  C6  UNL     1       2.716   7.644  10.959  1.00  0.00    -0.058 C 
HETATM    7  C7  UNL     1       1.575   8.132  10.307  1.00  0.00     0.010 C 
HETATM    8  C8  UNL     1       0.492   7.289  10.057  1.00  0.00     0.037 C 
HETATM    9  C9  UNL     1       3.812   8.588  11.399  1.00  0.00     0.040 C 
HETATM   10  C10 UNL     1       3.360   9.559  12.510  1.00  0.00     0.027 C 
HETATM   11  C11 UNL     1       2.983   8.865  13.848  1.00  0.00     0.130 C 
HETATM   12  C12 UNL     1       1.680   9.456  14.467  1.00  0.00     0.037 C 
HETATM   13  C13 UNL     1       1.785  10.873  14.984  1.00  0.00    -0.014 C 
HETATM   14  C14 UNL     1       1.404  11.190  16.241  1.00  0.00    -0.050 C 
HETATM   15  C15 UNL     1       1.194  10.129  17.274  1.00  0.00     0.042 C 
HETATM   16  C16 UNL     1       0.212   9.147  16.660  1.00  0.00     0.001 C 
HETATM   17  C17 UNL     1      -1.162   9.845  16.483  1.00  0.00     0.038 C 
HETATM   18  C18 UNL     1      -1.325  11.154  15.647  1.00  0.00     0.130 C 
HETATM   19  O5  UNL     1      -0.668  12.366  16.056  1.00  0.00    -0.371 OA
HETATM   20  C19 UNL     1       0.690  12.490  16.474  1.00  0.00     0.185 C 
HETATM   21  C20 UNL     1       0.828  13.100  17.878  1.00  0.00    -0.006 A 
HETATM   22  C21 UNL     1       2.125  13.477  18.291  1.00  0.00     0.014 A 
HETATM   23  C22 UNL     1       2.351  14.050  19.545  1.00  0.00     0.037 A 
HETATM   24  C23 UNL     1       1.279  14.259  20.404  1.00  0.00     0.067 A 
HETATM   25  C24 UNL     1      -0.012  13.905  20.031  1.00  0.00     0.057 A 
HETATM   26  C25 UNL     1      -0.247  13.328  18.778  1.00  0.00     0.029 A 
HETATM   27  C26 UNL     1      -1.594  12.961  18.451  1.00  0.00    -0.066 C 
HETATM   28  C27 UNL     1      -2.586  12.525  17.930  1.00  0.00    -0.101 C 
HETATM   29  C28 UNL     1      -3.494  11.830  17.006  1.00  0.00     0.103 C 
HETATM   30  C29 UNL     1      -2.843  11.589  15.604  1.00  0.00     0.049 C 
HETATM   31  C31 UNL     1       0.940   8.475  15.458  1.00  0.00     0.032 C 
HETATM   32  C32 UNL     1       0.143   7.414  14.709  1.00  0.00    -0.053 C 
HETATM   33  C33 UNL     1       0.552   6.075  14.790  1.00  0.00     0.008 C 
HETATM   34  C34 UNL     1       0.068   5.129  13.885  1.00  0.00     0.012 C 
HETATM   35  C35 UNL     1      -0.837   5.501  12.882  1.00  0.00    -0.010 C 
HETATM   36  C36 UNL     1      -1.378   6.795  12.917  1.00  0.00     0.012 C 
HETATM   37  C37 UNL     1      -0.880   7.745  13.811  1.00  0.00     0.008 C 
ENDROOT
BRANCH   1  38
HETATM   38  N3  UNL     1      -0.622   3.223  11.859  1.00  0.00    -0.341 N 
HETATM   39  C1  UNL     1      -1.051   2.320  11.063  1.00  0.00     0.124 C 
HETATM   40  N1  UNL     1      -0.685   1.031  11.243  1.00  0.00    -0.279 NA
HETATM   41  N2  UNL     1      -1.867   2.416   9.990  1.00  0.00    -0.279 NA
HETATM   42  H1  UNL     1      -1.469   0.395  11.168  1.00  0.00     0.126 HD
HETATM   43  H2  UNL     1      -0.221   0.921  12.140  1.00  0.00     0.126 HD
HETATM   44  H3  UNL     1      -1.572   1.801   9.239  1.00  0.00     0.126 HD
HETATM   45  H4  UNL     1      -1.935   3.370   9.638  1.00  0.00     0.126 HD
ATOM     46  H3  UNL     1       0.016   2.990  12.620  1.00  0.00     0.164 HD
ENDBRANCH   1  38
BRANCH  11  47
HETATM   47  S1  UNL     1       4.369   8.912  15.020  1.00  0.00     0.099 S 
HETATM   48  O2  UNL     1       5.634   9.022  14.328  1.00  0.00    -0.601 OA
HETATM   49  O3  UNL     1       4.052   9.732  16.166  1.00  0.00    -0.601 OA
BRANCH  47  50
HETATM   50  O4  UNL     1       4.309   7.380  15.526  1.00  0.00    -0.295 OA
HETATM   51  H15 UNL     1       5.229   7.037  15.545  1.00  0.00     0.232 HD
ENDBRANCH  47  50
ENDBRANCH  11  47
BRANCH  30  52
HETATM   52  C30 UNL     1      -3.689  10.612  14.778  1.00  0.00     0.172 C 
BRANCH  52  53
HETATM   53  O7  UNL     1      -4.931  10.342  15.418  1.00  0.00    -0.400 OA
HETATM   54  H34 UNL     1      -4.767   9.727  16.152  1.00  0.00     0.209 HD
ENDBRANCH  52  53
ENDBRANCH  30  52
BRANCH  24  55
HETATM   55  O6  UNL     1       1.456  14.815  21.636  1.00  0.00    -0.361 OA
HETATM   56  H27 UNL     1       2.402  14.999  21.761  1.00  0.00     0.217 HD
ENDBRANCH  24  55
TORSDOF 6
ENDMDL
MODEL 6
REMARK minimizedAffinity -9.76248932
REMARK CNNscore 0.213564545
REMARK CNNaffinity 6.62323523
REMARK  6 active torsions:
REMARK  status: ('A' for Active; 'I' for Inactive)
REMARK       I    between atoms: N1_1  and  C1_2 
REMARK       I    between atoms: C1_2  and  N2_3 
REMARK    1  A    between atoms: N3_4  and  C2_6 
REMARK    2  A    between atoms: C11_16  and  S1_17 
REMARK    3  A    between atoms: S1_17  and  O4_20 
REMARK    4  A    between atoms: C23_33  and  O6_34 
REMARK    5  A    between atoms: C29_40  and  C30_41 
REMARK    6  A    between atoms: C30_41  and  O7_42 
ROOT
HETATM    1  C2  UNL     1      -0.969   7.938  14.102  1.00  0.00     0.263 C 
HETATM    2  O1  UNL     1      -1.461   7.983  12.720  1.00  0.00    -0.322 OA
HETATM    3  C3  UNL     1      -0.596   7.513  11.765  1.00  0.00     0.071 C 
HETATM    4  C4  UNL     1       0.049   6.281  11.849  1.00  0.00     0.037 C 
HETATM    5  C5  UNL     1       1.087   5.983  10.963  1.00  0.00     0.010 C 
HETATM    6  C6  UNL     1       1.469   6.901   9.975  1.00  0.00    -0.058 C 
HETATM    7  C7  UNL     1       0.719   8.075   9.818  1.00  0.00     0.010 C 
HETATM    8  C8  UNL     1      -0.316   8.374  10.705  1.00  0.00     0.037 C 
HETATM    9  C9  UNL     1       2.704   6.662   9.138  1.00  0.00     0.040 C 
HETATM   10  C10 UNL     1       3.844   7.656   9.448  1.00  0.00     0.027 C 
HETATM   11  C11 UNL     1       4.411   7.545  10.890  1.00  0.00     0.130 C 
HETATM   12  C12 UNL     1       4.638   8.945  11.538  1.00  0.00     0.037 C 
HETATM   13  C13 UNL     1       5.749   9.774  10.935  1.00  0.00    -0.014 C 
HETATM   14  C14 UNL     1       6.725  10.303  11.704  1.00  0.00    -0.050 C 
HETATM   15  C15 UNL     1       6.950   9.823  13.103  1.00  0.00     0.042 C 
HETATM   16  C16 UNL     1       5.607   9.946  13.801  1.00  0.00     0.001 C 
HETATM   17  C17 UNL     1       5.232  11.446  13.922  1.00  0.00     0.038 C 
HETATM   18  C18 UNL     1       5.124  12.378  12.673  1.00  0.00     0.130 C 
HETATM   19  O5  UNL     1       6.282  12.646  11.863  1.00  0.00    -0.371 OA
HETATM   20  C19 UNL     1       7.223  11.684  11.392  1.00  0.00     0.185 C 
HETATM   21  C20 UNL     1       8.665  12.001  11.823  1.00  0.00    -0.006 A 
HETATM   22  C21 UNL     1       9.697  11.246  11.222  1.00  0.00     0.014 A 
HETATM   23  C22 UNL     1      11.039  11.468  11.539  1.00  0.00     0.037 A 
HETATM   24  C23 UNL     1      11.369  12.454  12.461  1.00  0.00     0.067 A 
HETATM   25  C24 UNL     1      10.382  13.219  13.069  1.00  0.00     0.057 A 
HETATM   26  C25 UNL     1       9.035  13.002  12.759  1.00  0.00     0.029 A 
HETATM   27  C26 UNL     1       8.054  13.805  13.432  1.00  0.00    -0.066 C 
HETATM   28  C27 UNL     1       7.036  14.283  13.855  1.00  0.00    -0.101 C 
HETATM   29  C28 UNL     1       5.614  14.521  14.146  1.00  0.00     0.103 C 
HETATM   30  C29 UNL     1       4.671  13.826  13.109  1.00  0.00     0.049 C 
HETATM   31  C31 UNL     1       4.649   8.925  13.117  1.00  0.00     0.032 C 
HETATM   32  C32 UNL     1       3.239   8.851  13.690  1.00  0.00    -0.053 C 
HETATM   33  C33 UNL     1       2.843   7.690  14.370  1.00  0.00     0.008 C 
HETATM   34  C34 UNL     1       1.494   7.442  14.623  1.00  0.00     0.012 C 
HETATM   35  C35 UNL     1       0.512   8.351  14.206  1.00  0.00    -0.010 C 
HETATM   36  C36 UNL     1       0.923   9.588  13.690  1.00  0.00     0.012 C 
HETATM   37  C37 UNL     1       2.273   9.828  13.420  1.00  0.00     0.008 C 
ENDROOT
BRANCH   1  38
HETATM   38  N3  UNL     1      -1.268   6.716  14.872  1.00  0.00    -0.341 N 
HETATM   39  C1  UNL     1      -2.447   6.229  14.797  1.00  0.00     0.124 C 
HETATM   40  N1  UNL     1      -2.770   5.128  15.512  1.00  0.00    -0.279 NA
HETATM   41  N2  UNL     1      -3.519   6.638  14.082  1.00  0.00    -0.279 NA
HETATM   42  H1  UNL     1      -3.663   5.224  15.982  1.00  0.00     0.126 HD
HETATM   43  H2  UNL     1      -2.036   4.918  16.182  1.00  0.00     0.126 HD
HETATM   44  H3  UNL     1      -4.041   5.853  13.709  1.00  0.00     0.126 HD
HETATM   45  H4  UNL     1      -3.261   7.265  13.321  1.00  0.00     0.126 HD
ATOM     46  H3  UNL     1      -0.553   6.272  15.448  1.00  0.00     0.164 HD
ENDBRANCH   1  38
BRANCH  11  47
HETATM   47  S1  UNL     1       5.918   6.534  10.922  1.00  0.00     0.099 S 
HETATM   48  O2  UNL     1       5.699   5.251  10.292  1.00  0.00    -0.601 OA
HETATM   49  O3  UNL     1       7.086   7.334  10.638  1.00  0.00    -0.601 OA
BRANCH  47  50
HETATM   50  O4  UNL     1       5.960   6.214  12.505  1.00  0.00    -0.295 OA
HETATM   51  H15 UNL     1       6.168   5.260  12.609  1.00  0.00     0.232 HD
ENDBRANCH  47  50
ENDBRANCH  11  47
BRANCH  30  52
HETATM   52  C30 UNL     1       3.220  13.841  13.606  1.00  0.00     0.172 C 
BRANCH  52  53
HETATM   53  O7  UNL     1       2.314  14.089  12.536  1.00  0.00    -0.400 OA
HETATM   54  H34 UNL     1       2.351  15.036  12.320  1.00  0.00     0.209 HD
ENDBRANCH  52  53
ENDBRANCH  30  52
BRANCH  24  55
HETATM   55  O6  UNL     1      12.666  12.702  12.799  1.00  0.00    -0.361 OA
HETATM   56  H27 UNL     1      13.238  12.089  12.308  1.00  0.00     0.217 HD
ENDBRANCH  24  55
TORSDOF 6
ENDMDL
MODEL 7
REMARK minimizedAffinity -7.7653513
REMARK CNNscore 0.184496596
REMARK CNNaffinity 5.97678757
REMARK  6 active torsions:
REMARK  status: ('A' for Active; 'I' for Inactive)
REMARK       I    between atoms: N1_1  and  C1_2 
REMARK       I    between atoms: C1_2  and  N2_3 
REMARK    1  A    between atoms: N3_4  and  C2_6 
REMARK    2  A    between atoms: C11_16  and  S1_17 
REMARK    3  A    between atoms: S1_17  and  O4_20 
REMARK    4  A    between atoms: C23_33  and  O6_34 
REMARK    5  A    between atoms: C29_40  and  C30_41 
REMARK    6  A    between atoms: C30_41  and  O7_42 
ROOT
HETATM    1  C2  UNL     1      -0.102   8.867  15.227  1.00  0.00     0.263 C 
HETATM    2  O1  UNL     1      -1.379   9.515  15.551  1.00  0.00    -0.322 OA
HETATM    3  C3  UNL     1      -1.351  10.884  15.620  1.00  0.00     0.071 C 
HETATM    4  C4  UNL     1      -0.809  11.694  14.624  1.00  0.00     0.037 C 
HETATM    5  C5  UNL     1      -0.605  13.054  14.875  1.00  0.00     0.010 C 
HETATM    6  C6  UNL     1      -0.963  13.614  16.109  1.00  0.00    -0.058 C 
HETATM    7  C7  UNL     1      -1.630  12.814  17.047  1.00  0.00     0.010 C 
HETATM    8  C8  UNL     1      -1.832  11.456  16.797  1.00  0.00     0.037 C 
HETATM    9  C9  UNL     1      -0.576  15.035  16.450  1.00  0.00     0.040 C 
HETATM   10  C10 UNL     1       0.489  15.119  17.564  1.00  0.00     0.027 C 
HETATM   11  C11 UNL     1       1.862  14.501  17.181  1.00  0.00     0.130 C 
HETATM   12  C12 UNL     1       2.459  13.641  18.336  1.00  0.00     0.037 C 
HETATM   13  C13 UNL     1       2.905  14.409  19.560  1.00  0.00    -0.014 C 
HETATM   14  C14 UNL     1       4.147  14.256  20.069  1.00  0.00    -0.050 C 
HETATM   15  C15 UNL     1       5.232  13.605  19.272  1.00  0.00     0.042 C 
HETATM   16  C16 UNL     1       4.674  12.261  18.837  1.00  0.00     0.001 C 
HETATM   17  C17 UNL     1       4.471  11.367  20.088  1.00  0.00     0.038 C 
HETATM   18  C18 UNL     1       3.573  11.808  21.287  1.00  0.00     0.130 C 
HETATM   19  O5  UNL     1       3.918  12.966  22.068  1.00  0.00    -0.371 OA
HETATM   20  C19 UNL     1       4.320  14.236  21.560  1.00  0.00     0.185 C 
HETATM   21  C20 UNL     1       5.692  14.682  22.091  1.00  0.00    -0.006 A 
HETATM   22  C21 UNL     1       6.078  16.017  21.836  1.00  0.00     0.014 A 
HETATM   23  C22 UNL     1       7.301  16.519  22.287  1.00  0.00     0.037 A 
HETATM   24  C23 UNL     1       8.155  15.693  23.007  1.00  0.00     0.067 A 
HETATM   25  C24 UNL     1       7.808  14.376  23.282  1.00  0.00     0.057 A 
HETATM   26  C25 UNL     1       6.586  13.864  22.831  1.00  0.00     0.029 A 
HETATM   27  C26 UNL     1       6.286  12.492  23.122  1.00  0.00    -0.066 C 
HETATM   28  C27 UNL     1       5.793  11.397  23.179  1.00  0.00    -0.101 C 
HETATM   29  C28 UNL     1       4.910  10.244  22.951  1.00  0.00     0.103 C 
HETATM   30  C29 UNL     1       3.517  10.668  22.377  1.00  0.00     0.049 C 
HETATM   31  C31 UNL     1       3.501  12.558  17.855  1.00  0.00     0.032 C 
HETATM   32  C32 UNL     1       2.810  11.337  17.260  1.00  0.00    -0.053 C 
HETATM   33  C33 UNL     1       2.954  11.077  15.889  1.00  0.00     0.008 C 
HETATM   34  C34 UNL     1       2.100  10.183  15.243  1.00  0.00     0.012 C 
HETATM   35  C35 UNL     1       1.085   9.527  15.953  1.00  0.00    -0.010 C 
HETATM   36  C36 UNL     1       1.060   9.653  17.350  1.00  0.00     0.012 C 
HETATM   37  C37 UNL     1       1.904  10.561  17.993  1.00  0.00     0.008 C 
ENDROOT
BRANCH   1  38
HETATM   38  N3  UNL     1       0.174   8.627  13.798  1.00  0.00    -0.341 N 
HETATM   39  C1  UNL     1       0.557   7.461  13.445  1.00  0.00     0.124 C 
HETATM   40  N1  UNL     1       0.852   7.209  12.150  1.00  0.00    -0.279 NA
HETATM   41  N2  UNL     1       0.741   6.340  14.180  1.00  0.00    -0.279 NA
HETATM   42  H1  UNL     1       1.718   6.693  12.046  1.00  0.00     0.126 HD
HETATM   43  H2  UNL     1       0.889   8.078  11.625  1.00  0.00     0.126 HD
HETATM   44  H3  UNL     1       0.437   5.512  13.680  1.00  0.00     0.126 HD
HETATM   45  H4  UNL     1       0.266   6.385  15.081  1.00  0.00     0.126 HD
ATOM     46  H3  UNL     1       0.062   9.373  13.111  1.00  0.00     0.164 HD
ENDBRANCH   1  38
BRANCH  11  47
HETATM   47  S1  UNL     1       3.021  15.781  16.622  1.00  0.00     0.099 S 
HETATM   48  O2  UNL     1       2.822  17.017  17.346  1.00  0.00    -0.601 OA
HETATM   49  O3  UNL     1       4.338  15.229  16.403  1.00  0.00    -0.601 OA
BRANCH  47  50
HETATM   50  O4  UNL     1       2.393  16.054  15.160  1.00  0.00    -0.295 OA
HETATM   51  H15 UNL     1       2.361  17.026  15.028  1.00  0.00     0.232 HD
ENDBRANCH  47  50
ENDBRANCH  11  47
BRANCH  30  52
HETATM   52  C30 UNL     1       2.745   9.441  21.876  1.00  0.00     0.172 C 
BRANCH  52  53
HETATM   53  O7  UNL     1       1.518   9.821  21.265  1.00  0.00    -0.400 OA
HETATM   54  H34 UNL     1       0.887  10.049  21.968  1.00  0.00     0.209 HD
ENDBRANCH  52  53
ENDBRANCH  30  52
BRANCH  24  55
HETATM   55  O6  UNL     1       9.357  16.143  23.466  1.00  0.00    -0.361 OA
HETATM   56  H27 UNL     1       9.467  17.069  23.191  1.00  0.00     0.217 HD
ENDBRANCH  24  55
TORSDOF 6
ENDMDL
MODEL 8
REMARK minimizedAffinity -7.75526905
REMARK CNNscore 0.160822138
REMARK CNNaffinity 5.63145113
REMARK  6 active torsions:
REMARK  status: ('A' for Active; 'I' for Inactive)
REMARK       I    between atoms: N1_1  and  C1_2 
REMARK       I    between atoms: C1_2  and  N2_3 
REMARK    1  A    between atoms: N3_4  and  C2_6 
REMARK    2  A    between atoms: C11_16  and  S1_17 
REMARK    3  A    between atoms: S1_17  and  O4_20 
REMARK    4  A    between atoms: C23_33  and  O6_34 
REMARK    5  A    between atoms: C29_40  and  C30_41 
REMARK    6  A    between atoms: C30_41  and  O7_42 
ROOT
HETATM    1  C2  UNL     1       6.309  14.887  21.996  1.00  0.00     0.263 C 
HETATM    2  O1  UNL     1       6.073  13.928  23.082  1.00  0.00    -0.322 OA
HETATM    3  C3  UNL     1       5.452  12.760  22.721  1.00  0.00     0.071 C 
HETATM    4  C4  UNL     1       5.868  11.963  21.658  1.00  0.00     0.037 C 
HETATM    5  C5  UNL     1       5.047  10.925  21.209  1.00  0.00     0.010 C 
HETATM    6  C6  UNL     1       3.820  10.663  21.836  1.00  0.00    -0.058 C 
HETATM    7  C7  UNL     1       3.483  11.386  22.989  1.00  0.00     0.010 C 
HETATM    8  C8  UNL     1       4.302  12.424  23.434  1.00  0.00     0.037 C 
HETATM    9  C9  UNL     1       2.850   9.667  21.243  1.00  0.00     0.040 C 
HETATM   10  C10 UNL     1       1.574  10.330  20.683  1.00  0.00     0.027 C 
HETATM   11  C11 UNL     1       1.825  11.282  19.481  1.00  0.00     0.130 C 
HETATM   12  C12 UNL     1       1.008  12.605  19.603  1.00  0.00     0.037 C 
HETATM   13  C13 UNL     1      -0.490  12.465  19.455  1.00  0.00    -0.014 C 
HETATM   14  C14 UNL     1      -1.181  13.224  18.576  1.00  0.00    -0.050 C 
HETATM   15  C15 UNL     1      -0.481  13.973  17.487  1.00  0.00     0.042 C 
HETATM   16  C16 UNL     1       0.583  14.807  18.178  1.00  0.00     0.001 C 
HETATM   17  C17 UNL     1      -0.108  15.883  19.057  1.00  0.00     0.038 C 
HETATM   18  C18 UNL     1      -1.122  15.509  20.183  1.00  0.00     0.130 C 
HETATM   19  O5  UNL     1      -2.363  14.858  19.859  1.00  0.00    -0.371 OA
HETATM   20  C19 UNL     1      -2.529  13.749  18.978  1.00  0.00     0.185 C 
HETATM   21  C20 UNL     1      -3.514  14.040  17.834  1.00  0.00    -0.006 A 
HETATM   22  C21 UNL     1      -3.924  12.942  17.043  1.00  0.00     0.014 A 
HETATM   23  C22 UNL     1      -4.825  13.103  15.988  1.00  0.00     0.037 A 
HETATM   24  C23 UNL     1      -5.334  14.366  15.711  1.00  0.00     0.067 A 
HETATM   25  C24 UNL     1      -4.958  15.468  16.469  1.00  0.00     0.057 A 
HETATM   26  C25 UNL     1      -4.053  15.316  17.526  1.00  0.00     0.029 A 
HETATM   27  C26 UNL     1      -3.681  16.489  18.263  1.00  0.00    -0.066 C 
HETATM   28  C27 UNL     1      -3.167  17.277  19.012  1.00  0.00    -0.101 C 
HETATM   29  C28 UNL     1      -2.283  17.882  20.019  1.00  0.00     0.103 C 
HETATM   30  C29 UNL     1      -1.607  16.809  20.936  1.00  0.00     0.049 C 
HETATM   31  C31 UNL     1       1.615  13.809  18.782  1.00  0.00     0.032 C 
HETATM   32  C32 UNL     1       2.803  14.438  19.500  1.00  0.00    -0.053 C 
HETATM   33  C33 UNL     1       4.081  14.315  18.934  1.00  0.00     0.008 C 
HETATM   34  C34 UNL     1       5.221  14.580  19.692  1.00  0.00     0.012 C 
HETATM   35  C35 UNL     1       5.110  14.977  21.032  1.00  0.00    -0.010 C 
HETATM   36  C36 UNL     1       3.835  15.271  21.537  1.00  0.00     0.012 C 
HETATM   37  C37 UNL     1       2.693  14.988  20.783  1.00  0.00     0.008 C 
ENDROOT
BRANCH   1  38
HETATM   38  N3  UNL     1       7.596  14.780  21.285  1.00  0.00    -0.341 N 
HETATM   39  C1  UNL     1       8.659  14.646  21.980  1.00  0.00     0.124 C 
HETATM   40  N1  UNL     1       9.863  14.577  21.368  1.00  0.00    -0.279 NA
HETATM   41  N2  UNL     1       8.824  14.554  23.319  1.00  0.00    -0.279 NA
HETATM   42  H1  UNL     1      10.556  15.164  21.816  1.00  0.00     0.126 HD
HETATM   43  H2  UNL     1       9.770  14.820  20.386  1.00  0.00     0.126 HD
HETATM   44  H3  UNL     1       9.546  13.885  23.562  1.00  0.00     0.126 HD
HETATM   45  H4  UNL     1       7.960  14.309  23.800  1.00  0.00     0.126 HD
ATOM     46  H3  UNL     1       7.636  14.811  20.266  1.00  0.00     0.164 HD
ENDBRANCH   1  38
BRANCH  11  47
HETATM   47  S1  UNL     1       1.514  10.438  17.905  1.00  0.00     0.099 S 
HETATM   48  O2  UNL     1       2.433   9.339  17.710  1.00  0.00    -0.601 OA
HETATM   49  O3  UNL     1       0.096  10.300  17.661  1.00  0.00    -0.601 OA
BRANCH  47  50
HETATM   50  O4  UNL     1       2.037  11.594  16.905  1.00  0.00    -0.295 OA
HETATM   51  H15 UNL     1       2.585  11.163  16.215  1.00  0.00     0.232 HD
ENDBRANCH  47  50
ENDBRANCH  11  47
BRANCH  30  52
HETATM   52  C30 UNL     1      -0.480  17.440  21.763  1.00  0.00     0.172 C 
BRANCH  52  53
HETATM   53  O7  UNL     1      -0.308  16.759  23.001  1.00  0.00    -0.400 OA
HETATM   54  H34 UNL     1      -1.025  17.030  23.598  1.00  0.00     0.209 HD
ENDBRANCH  52  53
ENDBRANCH  30  52
BRANCH  24  55
HETATM   55  O6  UNL     1      -6.215  14.566  14.690  1.00  0.00    -0.361 OA
HETATM   56  H27 UNL     1      -6.375  13.717  14.247  1.00  0.00     0.217 HD
ENDBRANCH  24  55
TORSDOF 6
ENDMDL
MODEL 9
REMARK minimizedAffinity -8.15475273
REMARK CNNscore 0.14884837
REMARK CNNaffinity 5.68995428
REMARK  6 active torsions:
REMARK  status: ('A' for Active; 'I' for Inactive)
REMARK       I    between atoms: N1_1  and  C1_2 
REMARK       I    between atoms: C1_2  and  N2_3 
REMARK    1  A    between atoms: N3_4  and  C2_6 
REMARK    2  A    between atoms: C11_16  and  S1_17 
REMARK    3  A    between atoms: S1_17  and  O4_20 
REMARK    4  A    between atoms: C23_33  and  O6_34 
REMARK    5  A    between atoms: C29_40  and  C30_41 
REMARK    6  A    between atoms: C30_41  and  O7_42 
ROOT
HETATM    1  C2  UNL     1      -0.134  11.456  18.247  1.00  0.00     0.263 C 
HETATM    2  O1  UNL     1      -0.057  10.745  19.528  1.00  0.00    -0.322 OA
HETATM    3  C3  UNL     1       0.958  11.134  20.365  1.00  0.00     0.071 C 
HETATM    4  C4  UNL     1       1.210  12.461  20.704  1.00  0.00     0.037 C 
HETATM    5  C5  UNL     1       2.397  12.792  21.364  1.00  0.00     0.010 C 
HETATM    6  C6  UNL     1       3.323  11.798  21.709  1.00  0.00    -0.058 C 
HETATM    7  C7  UNL     1       2.989  10.455  21.482  1.00  0.00     0.010 C 
HETATM    8  C8  UNL     1       1.806  10.126  20.821  1.00  0.00     0.037 C 
HETATM    9  C9  UNL     1       4.683  12.170  22.254  1.00  0.00     0.040 C 
HETATM   10  C10 UNL     1       5.832  11.853  21.273  1.00  0.00     0.027 C 
HETATM   11  C11 UNL     1       5.785  12.669  19.952  1.00  0.00     0.130 C 
HETATM   12  C12 UNL     1       6.088  11.783  18.705  1.00  0.00     0.037 C 
HETATM   13  C13 UNL     1       7.507  11.274  18.592  1.00  0.00    -0.014 C 
HETATM   14  C14 UNL     1       8.228  11.457  17.465  1.00  0.00    -0.050 C 
HETATM   15  C15 UNL     1       7.802  12.447  16.428  1.00  0.00     0.042 C 
HETATM   16  C16 UNL     1       6.368  12.087  16.081  1.00  0.00     0.001 C 
HETATM   17  C17 UNL     1       6.348  10.702  15.380  1.00  0.00     0.038 C 
HETATM   18  C18 UNL     1       6.933   9.422  16.056  1.00  0.00     0.130 C 
HETATM   19  O5  UNL     1       8.336   9.338  16.365  1.00  0.00    -0.371 OA
HETATM   20  C19 UNL     1       9.123  10.348  16.991  1.00  0.00     0.185 C 
HETATM   21  C20 UNL     1      10.336  10.768  16.145  1.00  0.00    -0.006 A 
HETATM   22  C21 UNL     1      11.303  11.589  16.768  1.00  0.00     0.014 A 
HETATM   23  C22 UNL     1      12.445  12.013  16.085  1.00  0.00     0.037 A 
HETATM   24  C23 UNL     1      12.641  11.617  14.768  1.00  0.00     0.067 A 
HETATM   25  C24 UNL     1      11.714  10.807  14.123  1.00  0.00     0.057 A 
HETATM   26  C25 UNL     1      10.565  10.379  14.798  1.00  0.00     0.029 A 
HETATM   27  C26 UNL     1       9.631   9.562  14.080  1.00  0.00    -0.066 C 
HETATM   28  C27 UNL     1       8.675   8.921  13.733  1.00  0.00    -0.101 C 
HETATM   29  C28 UNL     1       7.348   8.288  13.701  1.00  0.00     0.103 C 
HETATM   30  C29 UNL     1       6.715   8.165  15.127  1.00  0.00     0.049 C 
HETATM   31  C31 UNL     1       5.514  12.362  17.354  1.00  0.00     0.032 C 
HETATM   32  C32 UNL     1       4.018  12.101  17.219  1.00  0.00    -0.053 C 
HETATM   33  C33 UNL     1       3.134  13.188  17.253  1.00  0.00     0.008 C 
HETATM   34  C34 UNL     1       1.768  12.986  17.458  1.00  0.00     0.012 C 
HETATM   35  C35 UNL     1       1.258  11.692  17.629  1.00  0.00    -0.010 C 
HETATM   36  C36 UNL     1       2.115  10.602  17.416  1.00  0.00     0.012 C 
HETATM   37  C37 UNL     1       3.484  10.806  17.229  1.00  0.00     0.008 C 
ENDROOT
BRANCH   1  38
HETATM   38  N3  UNL     1      -0.979  12.664  18.209  1.00  0.00    -0.341 N 
HETATM   39  C1  UNL     1      -2.228  12.534  18.441  1.00  0.00     0.124 C 
HETATM   40  N1  UNL     1      -3.042  13.612  18.384  1.00  0.00    -0.279 NA
HETATM   41  N2  UNL     1      -2.950  11.435  18.757  1.00  0.00    -0.279 NA
HETATM   42  H1  UNL     1      -3.895  13.423  17.870  1.00  0.00     0.126 HD
HETATM   43  H2  UNL     1      -2.549  14.402  17.979  1.00  0.00     0.126 HD
HETATM   44  H3  UNL     1      -3.665  11.642  19.446  1.00  0.00     0.126 HD
HETATM   45  H4  UNL     1      -2.366  10.671  19.095  1.00  0.00     0.126 HD
ATOM     46  H3  UNL     1      -0.576  13.579  18.004  1.00  0.00     0.164 HD
ENDBRANCH   1  38
BRANCH  11  47
HETATM   47  S1  UNL     1       6.884  14.111  20.038  1.00  0.00     0.099 S 
HETATM   48  O2  UNL     1       7.218  14.593  18.716  1.00  0.00    -0.601 OA
HETATM   49  O3  UNL     1       6.482  15.008  21.098  1.00  0.00    -0.601 OA
BRANCH  47  50
HETATM   50  O4  UNL     1       8.220  13.366  20.554  1.00  0.00    -0.295 OA
HETATM   51  H15 UNL     1       8.974  13.712  20.030  1.00  0.00     0.232 HD
ENDBRANCH  47  50
ENDBRANCH  11  47
BRANCH  30  52
HETATM   52  C30 UNL     1       5.232   7.785  15.026  1.00  0.00     0.172 C 
BRANCH  52  53
HETATM   53  O7  UNL     1       4.938   6.649  15.832  1.00  0.00    -0.400 OA
HETATM   54  H34 UNL     1       5.270   5.858  15.374  1.00  0.00     0.209 HD
ENDBRANCH  52  53
ENDBRANCH  30  52
BRANCH  24  55
HETATM   55  O6  UNL     1      13.741  12.009  14.066  1.00  0.00    -0.361 OA
HETATM   56  H27 UNL     1      14.288  12.574  14.636  1.00  0.00     0.217 HD
ENDBRANCH  24  55
TORSDOF 6
ENDMDL
