MODEL 1
REMARK minimizedAffinity -8.53377151
REMARK CNNscore 0.421822846
REMARK CNNaffinity 7.27882576
REMARK  10 active torsions:
REMARK  status: ('A' for Active; 'I' for Inactive)
REMARK    1  A    between atoms: O1_2  and  C2_3 
REMARK    2  A    between atoms: C2_3  and  C3_5 
REMARK    3  A    between atoms: C3_5  and  C4_6 
REMARK    4  A    between atoms: C3_5  and  N1_13 
REMARK    5  A    between atoms: C4_6  and  C5_7 
REMARK       I    between atoms: N1_13  and  C11_14 
REMARK    6  A    between atoms: C11_14  and  C12_16 
REMARK    7  A    between atoms: C12_16  and  O4_17 
REMARK    8  A    between atoms: O4_17  and  N2_18 
REMARK    9  A    between atoms: C27_34  and  O5_35 
REMARK   10  A    between atoms: C27_34  and  C28_36 
ROOT
HETATM    1  N2  UNL     1       0.784  53.118 -18.903  1.00  0.00    -0.271 N 
ATOM      2  H2  UNL     1       1.415  53.914 -18.997  1.00  0.00     0.194 HD
HETATM    3  C13 UNL     1       0.714  52.368 -17.844  1.00  0.00     0.032 C 
HETATM    4  C14 UNL     1      -0.237  51.239 -17.630  1.00  0.00     0.030 C 
HETATM    5  C15 UNL     1      -0.167  50.445 -16.547  1.00  0.00    -0.069 C 
HETATM    6  C16 UNL     1      -1.052  49.215 -16.510  1.00  0.00     0.035 C 
HETATM    7  C17 UNL     1      -1.201  48.567 -15.136  1.00  0.00     0.010 C 
HETATM    8  C18 UNL     1       0.126  48.370 -14.377  1.00  0.00    -0.004 C 
HETATM    9  C19 UNL     1       1.310  49.151 -15.028  1.00  0.00     0.002 C 
HETATM   10  C20 UNL     1       2.579  49.027 -14.155  1.00  0.00     0.007 C 
HETATM   11  C21 UNL     1       2.960  47.551 -13.905  1.00  0.00     0.013 C 
HETATM   12  C22 UNL     1       1.798  46.736 -13.299  1.00  0.00    -0.002 C 
HETATM   13  C23 UNL     1       1.551  47.222 -11.843  1.00  0.00     0.019 C 
HETATM   14  C24 UNL     1       0.562  46.907 -14.229  1.00  0.00     0.002 C 
HETATM   15  C25 UNL     1      -0.430  45.886 -13.688  1.00  0.00     0.009 C 
HETATM   16  C26 UNL     1       0.448  44.699 -13.247  1.00  0.00     0.047 C 
HETATM   17  C27 UNL     1       1.928  45.181 -13.323  1.00  0.00     0.125 C 
HETATM   18  C30 UNL     1       0.890  50.600 -15.445  1.00  0.00    -0.016 C 
HETATM   19  C31 UNL     1       0.310  51.400 -14.255  1.00  0.00     0.020 C 
HETATM   20  C32 UNL     1       2.104  51.383 -16.013  1.00  0.00     0.020 C 
HETATM   21  C33 UNL     1       1.694  52.668 -16.729  1.00  0.00     0.060 C 
ENDROOT
BRANCH   1  22
HETATM   22  O4  UNL     1      -0.112  52.705 -19.903  1.00  0.00    -0.271 OA
BRANCH  22  23
HETATM   23  C12 UNL     1       0.620  52.309 -21.057  1.00  0.00     0.303 C 
BRANCH  23  24
HETATM   24  C11 UNL     1      -0.288  52.009 -22.245  1.00  0.00     0.244 C 
HETATM   25  N1  UNL     1       0.092  52.607 -23.424  1.00  0.00    -0.345 N 
HETATM   26  H12 UNL     1       0.956  53.155 -23.421  1.00  0.00     0.163 HD
HETATM   27  O3  UNL     1      -1.255  51.255 -22.165  1.00  0.00    -0.271 OA
BRANCH  25  28
HETATM   28  C3  UNL     1      -0.652  52.433 -24.671  1.00  0.00     0.188 C 
BRANCH  28  29
HETATM   29  C2  UNL     1      -0.278  53.590 -25.600  1.00  0.00     0.281 C 
HETATM   30  O2  UNL     1       0.601  54.411 -25.351  1.00  0.00    -0.263 OA
BRANCH  29  31
HETATM   31  O1  UNL     1      -1.042  53.581 -26.727  1.00  0.00    -0.325 OA
HETATM   32  C1  UNL     1      -0.307  53.804 -27.931  1.00  0.00     0.213 C 
ENDBRANCH  29  31
ENDBRANCH  28  29
BRANCH  28  33
HETATM   33  C4  UNL     1      -0.318  51.091 -25.338  1.00  0.00     0.074 C 
BRANCH  33  34
HETATM   34  C5  UNL     1      -1.549  50.293 -25.704  1.00  0.00    -0.056 A 
HETATM   35  C6  UNL     1      -2.156  49.442 -24.773  1.00  0.00     0.007 A 
HETATM   36  C7  UNL     1      -3.292  48.710 -25.125  1.00  0.00     0.001 A 
HETATM   37  C8  UNL     1      -3.827  48.822 -26.408  1.00  0.00     0.000 A 
HETATM   38  C9  UNL     1      -3.230  49.667 -27.341  1.00  0.00     0.001 A 
HETATM   39  C10 UNL     1      -2.095  50.398 -26.992  1.00  0.00     0.007 A 
ENDBRANCH  33  34
ENDBRANCH  28  33
ENDBRANCH  25  28
ENDBRANCH  23  24
ENDBRANCH  22  23
ENDBRANCH   1  22
BRANCH  17  40
HETATM   40  O5  UNL     1       2.455  44.756 -14.586  1.00  0.00    -0.381 OA
HETATM   41  H34 UNL     1       2.322  43.793 -14.656  1.00  0.00     0.211 HD
ENDBRANCH  17  40
BRANCH  17  42
HETATM   42  C28 UNL     1       2.802  44.585 -12.194  1.00  0.00     0.158 C 
HETATM   43  C29 UNL     1       2.142  43.643 -11.216  1.00  0.00     0.094 C 
HETATM   44  O6  UNL     1       4.007  44.828 -12.093  1.00  0.00    -0.295 OA
ENDBRANCH  17  42
TORSDOF 10
ENDMDL
MODEL 2
REMARK minimizedAffinity -8.63184357
REMARK CNNscore 0.304521352
REMARK CNNaffinity 6.59281301
REMARK  10 active torsions:
REMARK  status: ('A' for Active; 'I' for Inactive)
REMARK    1  A    between atoms: O1_2  and  C2_3 
REMARK    2  A    between atoms: C2_3  and  C3_5 
REMARK    3  A    between atoms: C3_5  and  C4_6 
REMARK    4  A    between atoms: C3_5  and  N1_13 
REMARK    5  A    between atoms: C4_6  and  C5_7 
REMARK       I    between atoms: N1_13  and  C11_14 
REMARK    6  A    between atoms: C11_14  and  C12_16 
REMARK    7  A    between atoms: C12_16  and  O4_17 
REMARK    8  A    between atoms: O4_17  and  N2_18 
REMARK    9  A    between atoms: C27_34  and  O5_35 
REMARK   10  A    between atoms: C27_34  and  C28_36 
ROOT
HETATM    1  N2  UNL     1      -5.572  48.057 -26.779  1.00  0.00    -0.271 N 
ATOM      2  H2  UNL     1      -5.671  47.733 -25.817  1.00  0.00     0.194 HD
HETATM    3  C13 UNL     1      -6.446  47.832 -27.714  1.00  0.00     0.032 C 
HETATM    4  C14 UNL     1      -6.381  48.342 -29.115  1.00  0.00     0.030 C 
HETATM    5  C15 UNL     1      -7.274  47.970 -30.049  1.00  0.00    -0.069 C 
HETATM    6  C16 UNL     1      -7.019  48.390 -31.483  1.00  0.00     0.035 C 
HETATM    7  C17 UNL     1      -8.219  48.263 -32.418  1.00  0.00     0.010 C 
HETATM    8  C18 UNL     1      -8.967  46.920 -32.314  1.00  0.00    -0.004 C 
HETATM    9  C19 UNL     1      -8.540  46.090 -31.063  1.00  0.00     0.002 C 
HETATM   10  C20 UNL     1      -9.414  44.823 -30.936  1.00  0.00     0.007 C 
HETATM   11  C21 UNL     1      -9.361  43.960 -32.217  1.00  0.00     0.013 C 
HETATM   12  C22 UNL     1      -9.738  44.759 -33.481  1.00  0.00    -0.002 C 
HETATM   13  C23 UNL     1     -11.253  45.101 -33.425  1.00  0.00     0.019 C 
HETATM   14  C24 UNL     1      -8.819  46.014 -33.543  1.00  0.00     0.002 C 
HETATM   15  C25 UNL     1      -9.096  46.586 -34.927  1.00  0.00     0.009 C 
HETATM   16  C26 UNL     1      -9.310  45.345 -35.816  1.00  0.00     0.047 C 
HETATM   17  C27 UNL     1      -9.391  44.116 -34.861  1.00  0.00     0.125 C 
HETATM   18  C30 UNL     1      -8.422  46.986 -29.785  1.00  0.00    -0.016 C 
HETATM   19  C31 UNL     1      -9.732  47.757 -29.495  1.00  0.00     0.020 C 
HETATM   20  C32 UNL     1      -8.078  46.127 -28.539  1.00  0.00     0.020 C 
HETATM   21  C33 UNL     1      -7.634  46.969 -27.346  1.00  0.00     0.060 C 
ENDROOT
BRANCH   1  22
HETATM   22  O4  UNL     1      -4.474  48.798 -27.247  1.00  0.00    -0.271 OA
BRANCH  22  23
HETATM   23  C12 UNL     1      -3.312  48.432 -26.514  1.00  0.00     0.303 C 
BRANCH  23  24
HETATM   24  C11 UNL     1      -2.846  49.541 -25.574  1.00  0.00     0.244 C 
HETATM   25  N1  UNL     1      -2.807  50.794 -26.139  1.00  0.00    -0.345 N 
HETATM   26  H12 UNL     1      -3.126  50.888 -27.107  1.00  0.00     0.163 HD
HETATM   27  O3  UNL     1      -2.574  49.335 -24.393  1.00  0.00    -0.271 OA
BRANCH  25  28
HETATM   28  C3  UNL     1      -2.390  51.981 -25.393  1.00  0.00     0.188 C 
BRANCH  28  29
HETATM   29  C2  UNL     1      -3.347  52.144 -24.211  1.00  0.00     0.281 C 
HETATM   30  O2  UNL     1      -2.985  52.391 -23.064  1.00  0.00    -0.263 OA
BRANCH  29  31
HETATM   31  O1  UNL     1      -4.642  51.982 -24.602  1.00  0.00    -0.325 OA
HETATM   32  C1  UNL     1      -5.472  51.352 -23.625  1.00  0.00     0.213 C 
ENDBRANCH  29  31
ENDBRANCH  28  29
BRANCH  28  33
HETATM   33  C4  UNL     1      -0.947  51.845 -24.889  1.00  0.00     0.074 C 
BRANCH  33  34
HETATM   34  C5  UNL     1       0.067  51.807 -26.010  1.00  0.00    -0.056 A 
HETATM   35  C6  UNL     1      -0.331  51.963 -27.344  1.00  0.00     0.007 A 
HETATM   36  C7  UNL     1       0.616  51.925 -28.369  1.00  0.00     0.001 A 
HETATM   37  C8  UNL     1       1.965  51.729 -28.070  1.00  0.00     0.000 A 
HETATM   38  C9  UNL     1       2.370  51.575 -26.746  1.00  0.00     0.001 A 
HETATM   39  C10 UNL     1       1.425  51.612 -25.720  1.00  0.00     0.007 A 
ENDBRANCH  33  34
ENDBRANCH  28  33
ENDBRANCH  25  28
ENDBRANCH  23  24
ENDBRANCH  22  23
ENDBRANCH   1  22
BRANCH  17  40
HETATM   40  O5  UNL     1      -8.088  43.524 -34.808  1.00  0.00    -0.381 OA
HETATM   41  H34 UNL     1      -7.812  43.329 -35.722  1.00  0.00     0.211 HD
ENDBRANCH  17  40
BRANCH  17  42
HETATM   42  C28 UNL     1     -10.401  43.053 -35.354  1.00  0.00     0.158 C 
HETATM   43  C29 UNL     1     -11.523  43.510 -36.255  1.00  0.00     0.094 C 
HETATM   44  O6  UNL     1     -10.297  41.859 -35.063  1.00  0.00    -0.295 OA
ENDBRANCH  17  42
TORSDOF 10
ENDMDL
MODEL 3
REMARK minimizedAffinity -7.82945347
REMARK CNNscore 0.280655622
REMARK CNNaffinity 5.6746459
REMARK  10 active torsions:
REMARK  status: ('A' for Active; 'I' for Inactive)
REMARK    1  A    between atoms: O1_2  and  C2_3 
REMARK    2  A    between atoms: C2_3  and  C3_5 
REMARK    3  A    between atoms: C3_5  and  C4_6 
REMARK    4  A    between atoms: C3_5  and  N1_13 
REMARK    5  A    between atoms: C4_6  and  C5_7 
REMARK       I    between atoms: N1_13  and  C11_14 
REMARK    6  A    between atoms: C11_14  and  C12_16 
REMARK    7  A    between atoms: C12_16  and  O4_17 
REMARK    8  A    between atoms: O4_17  and  N2_18 
REMARK    9  A    between atoms: C27_34  and  O5_35 
REMARK   10  A    between atoms: C27_34  and  C28_36 
ROOT
HETATM    1  N2  UNL     1       3.311  64.311 -34.520  1.00  0.00    -0.271 N 
ATOM      2  H2  UNL     1       2.497  63.697 -34.483  1.00  0.00     0.194 HD
HETATM    3  C13 UNL     1       3.361  65.408 -35.214  1.00  0.00     0.032 C 
HETATM    4  C14 UNL     1       4.498  66.374 -35.247  1.00  0.00     0.030 C 
HETATM    5  C15 UNL     1       4.511  67.430 -36.078  1.00  0.00    -0.069 C 
HETATM    6  C16 UNL     1       5.786  68.245 -36.173  1.00  0.00     0.035 C 
HETATM    7  C17 UNL     1       5.632  69.613 -36.832  1.00  0.00     0.010 C 
HETATM    8  C18 UNL     1       4.834  69.598 -38.151  1.00  0.00    -0.004 C 
HETATM    9  C19 UNL     1       4.084  68.249 -38.383  1.00  0.00     0.002 C 
HETATM   10  C20 UNL     1       3.198  68.338 -39.645  1.00  0.00     0.007 C 
HETATM   11  C21 UNL     1       4.017  68.738 -40.893  1.00  0.00     0.013 C 
HETATM   12  C22 UNL     1       4.806  70.047 -40.686  1.00  0.00    -0.002 C 
HETATM   13  C23 UNL     1       3.801  71.231 -40.608  1.00  0.00     0.019 C 
HETATM   14  C24 UNL     1       5.673  69.882 -39.404  1.00  0.00     0.002 C 
HETATM   15  C25 UNL     1       6.579  71.107 -39.431  1.00  0.00     0.009 C 
HETATM   16  C26 UNL     1       6.874  71.329 -40.927  1.00  0.00     0.047 C 
HETATM   17  C27 UNL     1       5.930  70.374 -41.718  1.00  0.00     0.125 C 
HETATM   18  C30 UNL     1       3.387  67.741 -37.077  1.00  0.00    -0.016 C 
HETATM   19  C31 UNL     1       2.422  68.796 -36.486  1.00  0.00     0.020 C 
HETATM   20  C32 UNL     1       2.580  66.444 -37.352  1.00  0.00     0.020 C 
HETATM   21  C33 UNL     1       2.155  65.731 -36.071  1.00  0.00     0.060 C 
ENDROOT
BRANCH   1  22
HETATM   22  O4  UNL     1       4.508  64.068 -33.827  1.00  0.00    -0.271 OA
BRANCH  22  23
HETATM   23  C12 UNL     1       5.348  63.233 -34.615  1.00  0.00     0.303 C 
BRANCH  23  24
HETATM   24  C11 UNL     1       6.829  63.544 -34.413  1.00  0.00     0.244 C 
HETATM   25  N1  UNL     1       7.689  62.673 -35.039  1.00  0.00    -0.345 N 
HETATM   26  H12 UNL     1       7.279  61.930 -35.611  1.00  0.00     0.163 HD
HETATM   27  O3  UNL     1       7.219  64.524 -33.780  1.00  0.00    -0.271 OA
BRANCH  25  28
HETATM   28  C3  UNL     1       9.143  62.812 -34.963  1.00  0.00     0.188 C 
BRANCH  28  29
HETATM   29  C2  UNL     1       9.580  62.358 -33.569  1.00  0.00     0.281 C 
HETATM   30  O2  UNL     1       9.278  61.275 -33.075  1.00  0.00    -0.263 OA
BRANCH  29  31
HETATM   31  O1  UNL     1      10.342  63.309 -32.960  1.00  0.00    -0.325 OA
HETATM   32  C1  UNL     1      11.222  62.798 -31.959  1.00  0.00     0.213 C 
ENDBRANCH  29  31
ENDBRANCH  28  29
BRANCH  28  33
HETATM   33  C4  UNL     1       9.841  61.965 -36.036  1.00  0.00     0.074 C 
BRANCH  33  34
HETATM   34  C5  UNL     1      11.066  62.638 -36.612  1.00  0.00    -0.056 A 
HETATM   35  C6  UNL     1      11.900  61.963 -37.512  1.00  0.00     0.007 A 
HETATM   36  C7  UNL     1      13.029  62.596 -38.036  1.00  0.00     0.001 A 
HETATM   37  C8  UNL     1      13.333  63.906 -37.664  1.00  0.00     0.000 A 
HETATM   38  C9  UNL     1      12.509  64.586 -36.771  1.00  0.00     0.001 A 
HETATM   39  C10 UNL     1      11.381  63.955 -36.245  1.00  0.00     0.007 A 
ENDBRANCH  33  34
ENDBRANCH  28  33
ENDBRANCH  25  28
ENDBRANCH  23  24
ENDBRANCH  22  23
ENDBRANCH   1  22
BRANCH  17  40
HETATM   40  O5  UNL     1       6.672  69.187 -42.021  1.00  0.00    -0.381 OA
HETATM   41  H34 UNL     1       7.486  69.455 -42.486  1.00  0.00     0.211 HD
ENDBRANCH  17  40
BRANCH  17  42
HETATM   42  C28 UNL     1       5.433  71.002 -43.043  1.00  0.00     0.158 C 
HETATM   43  C29 UNL     1       6.441  71.727 -43.901  1.00  0.00     0.094 C 
HETATM   44  O6  UNL     1       4.264  70.899 -43.423  1.00  0.00    -0.295 OA
ENDBRANCH  17  42
TORSDOF 10
ENDMDL
MODEL 4
REMARK minimizedAffinity -9.35715771
REMARK CNNscore 0.251704842
REMARK CNNaffinity 6.18110323
REMARK  10 active torsions:
REMARK  status: ('A' for Active; 'I' for Inactive)
REMARK    1  A    between atoms: O1_2  and  C2_3 
REMARK    2  A    between atoms: C2_3  and  C3_5 
REMARK    3  A    between atoms: C3_5  and  C4_6 
REMARK    4  A    between atoms: C3_5  and  N1_13 
REMARK    5  A    between atoms: C4_6  and  C5_7 
REMARK       I    between atoms: N1_13  and  C11_14 
REMARK    6  A    between atoms: C11_14  and  C12_16 
REMARK    7  A    between atoms: C12_16  and  O4_17 
REMARK    8  A    between atoms: O4_17  and  N2_18 
REMARK    9  A    between atoms: C27_34  and  O5_35 
REMARK   10  A    between atoms: C27_34  and  C28_36 
ROOT
HETATM    1  N2  UNL     1      -0.725  48.383 -16.550  1.00  0.00    -0.271 N 
ATOM      2  H2  UNL     1      -1.344  47.683 -16.142  1.00  0.00     0.194 HD
HETATM    3  C13 UNL     1      -1.047  49.137 -17.558  1.00  0.00     0.032 C 
HETATM    4  C14 UNL     1      -0.207  50.220 -18.146  1.00  0.00     0.030 C 
HETATM    5  C15 UNL     1      -0.572  50.880 -19.259  1.00  0.00    -0.069 C 
HETATM    6  C16 UNL     1       0.430  51.829 -19.885  1.00  0.00     0.035 C 
HETATM    7  C17 UNL     1      -0.151  52.803 -20.905  1.00  0.00     0.010 C 
HETATM    8  C18 UNL     1      -1.086  52.155 -21.944  1.00  0.00    -0.004 C 
HETATM    9  C19 UNL     1      -1.494  50.699 -21.557  1.00  0.00     0.002 C 
HETATM   10  C20 UNL     1      -2.534  50.149 -22.559  1.00  0.00     0.007 C 
HETATM   11  C21 UNL     1      -2.015  50.210 -24.014  1.00  0.00     0.013 C 
HETATM   12  C22 UNL     1      -1.564  51.629 -24.419  1.00  0.00    -0.002 C 
HETATM   13  C23 UNL     1      -2.816  52.545 -24.518  1.00  0.00     0.019 C 
HETATM   14  C24 UNL     1      -0.521  52.114 -23.370  1.00  0.00     0.002 C 
HETATM   15  C25 UNL     1       0.033  53.391 -23.988  1.00  0.00     0.009 C 
HETATM   16  C26 UNL     1       0.062  53.100 -25.501  1.00  0.00     0.047 C 
HETATM   17  C27 UNL     1      -0.706  51.761 -25.717  1.00  0.00     0.125 C 
HETATM   18  C30 UNL     1      -1.860  50.583 -20.040  1.00  0.00    -0.016 C 
HETATM   19  C31 UNL     1      -2.974  51.577 -19.634  1.00  0.00     0.020 C 
HETATM   20  C32 UNL     1      -2.341  49.148 -19.697  1.00  0.00     0.020 C 
HETATM   21  C33 UNL     1      -2.398  48.887 -18.194  1.00  0.00     0.060 C 
ENDROOT
BRANCH   1  22
HETATM   22  O4  UNL     1       0.576  48.643 -16.088  1.00  0.00    -0.271 OA
BRANCH  22  23
HETATM   23  C12 UNL     1       0.904  47.719 -15.058  1.00  0.00     0.303 C 
BRANCH  23  24
HETATM   24  C11 UNL     1       1.235  48.412 -13.740  1.00  0.00     0.244 C 
HETATM   25  N1  UNL     1       2.355  49.211 -13.777  1.00  0.00    -0.345 N 
HETATM   26  H12 UNL     1       2.838  49.309 -14.673  1.00  0.00     0.163 HD
HETATM   27  O3  UNL     1       0.530  48.302 -12.740  1.00  0.00    -0.271 OA
BRANCH  25  28
HETATM   28  C3  UNL     1       2.827  49.959 -12.611  1.00  0.00     0.188 C 
BRANCH  28  29
HETATM   29  C2  UNL     1       4.308  49.630 -12.419  1.00  0.00     0.281 C 
HETATM   30  O2  UNL     1       5.140  49.662 -13.322  1.00  0.00    -0.263 OA
BRANCH  29  31
HETATM   31  O1  UNL     1       4.574  49.304 -11.123  1.00  0.00    -0.325 OA
HETATM   32  C1  UNL     1       4.916  50.420 -10.301  1.00  0.00     0.213 C 
ENDBRANCH  29  31
ENDBRANCH  28  29
BRANCH  28  33
HETATM   33  C4  UNL     1       2.641  51.470 -12.806  1.00  0.00     0.074 C 
BRANCH  33  34
HETATM   34  C5  UNL     1       2.604  51.876 -14.261  1.00  0.00    -0.056 A 
HETATM   35  C6  UNL     1       3.788  52.105 -14.974  1.00  0.00     0.007 A 
HETATM   36  C7  UNL     1       3.738  52.480 -16.318  1.00  0.00     0.001 A 
HETATM   37  C8  UNL     1       2.508  52.631 -16.958  1.00  0.00     0.000 A 
HETATM   38  C9  UNL     1       1.326  52.404 -16.258  1.00  0.00     0.001 A 
HETATM   39  C10 UNL     1       1.372  52.029 -14.915  1.00  0.00     0.007 A 
ENDBRANCH  33  34
ENDBRANCH  28  33
ENDBRANCH  25  28
ENDBRANCH  23  24
ENDBRANCH  22  23
ENDBRANCH   1  22
BRANCH  17  40
HETATM   40  O5  UNL     1       0.266  50.710 -25.767  1.00  0.00    -0.381 OA
HETATM   41  H34 UNL     1       0.916  50.938 -26.456  1.00  0.00     0.211 HD
ENDBRANCH  17  40
BRANCH  17  42
HETATM   42  C28 UNL     1      -1.517  51.752 -27.034  1.00  0.00     0.158 C 
HETATM   43  C29 UNL     1      -2.253  50.486 -27.400  1.00  0.00     0.094 C 
HETATM   44  O6  UNL     1      -1.604  52.744 -27.762  1.00  0.00    -0.295 OA
ENDBRANCH  17  42
TORSDOF 10
ENDMDL
MODEL 5
REMARK minimizedAffinity -8.40123653
REMARK CNNscore 0.237760589
REMARK CNNaffinity 6.46635246
REMARK  10 active torsions:
REMARK  status: ('A' for Active; 'I' for Inactive)
REMARK    1  A    between atoms: O1_2  and  C2_3 
REMARK    2  A    between atoms: C2_3  and  C3_5 
REMARK    3  A    between atoms: C3_5  and  C4_6 
REMARK    4  A    between atoms: C3_5  and  N1_13 
REMARK    5  A    between atoms: C4_6  and  C5_7 
REMARK       I    between atoms: N1_13  and  C11_14 
REMARK    6  A    between atoms: C11_14  and  C12_16 
REMARK    7  A    between atoms: C12_16  and  O4_17 
REMARK    8  A    between atoms: O4_17  and  N2_18 
REMARK    9  A    between atoms: C27_34  and  O5_35 
REMARK   10  A    between atoms: C27_34  and  C28_36 
ROOT
HETATM    1  N2  UNL     1       1.434  52.737 -16.646  1.00  0.00    -0.271 N 
ATOM      2  H2  UNL     1       1.807  53.684 -16.716  1.00  0.00     0.194 HD
HETATM    3  C13 UNL     1       0.802  52.134 -17.608  1.00  0.00     0.032 C 
HETATM    4  C14 UNL     1       0.301  50.729 -17.581  1.00  0.00     0.030 C 
HETATM    5  C15 UNL     1      -0.441  50.219 -18.580  1.00  0.00    -0.069 C 
HETATM    6  C16 UNL     1      -1.060  48.850 -18.378  1.00  0.00     0.035 C 
HETATM    7  C17 UNL     1      -1.570  48.177 -19.649  1.00  0.00     0.010 C 
HETATM    8  C18 UNL     1      -2.422  49.088 -20.555  1.00  0.00    -0.004 C 
HETATM    9  C19 UNL     1      -2.330  50.592 -20.147  1.00  0.00     0.002 C 
HETATM   10  C20 UNL     1      -3.091  51.471 -21.165  1.00  0.00     0.007 C 
HETATM   11  C21 UNL     1      -4.563  51.027 -21.317  1.00  0.00     0.013 C 
HETATM   12  C22 UNL     1      -4.694  49.533 -21.679  1.00  0.00    -0.002 C 
HETATM   13  C23 UNL     1      -4.176  49.322 -23.130  1.00  0.00     0.019 C 
HETATM   14  C24 UNL     1      -3.908  48.714 -20.614  1.00  0.00     0.002 C 
HETATM   15  C25 UNL     1      -4.301  47.274 -20.915  1.00  0.00     0.009 C 
HETATM   16  C26 UNL     1      -5.777  47.366 -21.351  1.00  0.00     0.047 C 
HETATM   17  C27 UNL     1      -6.103  48.880 -21.519  1.00  0.00     0.125 C 
HETATM   18  C30 UNL     1      -0.859  51.017 -19.822  1.00  0.00    -0.016 C 
HETATM   19  C31 UNL     1       0.103  50.721 -20.997  1.00  0.00     0.020 C 
HETATM   20  C32 UNL     1      -0.782  52.533 -19.501  1.00  0.00     0.020 C 
HETATM   21  C33 UNL     1       0.548  52.935 -18.867  1.00  0.00     0.060 C 
ENDROOT
BRANCH   1  22
HETATM   22  O4  UNL     1       1.546  51.933 -15.500  1.00  0.00    -0.271 OA
BRANCH  22  23
HETATM   23  C12 UNL     1       0.337  52.006 -14.754  1.00  0.00     0.303 C 
BRANCH  23  24
HETATM   24  C11 UNL     1       0.587  52.111 -13.252  1.00  0.00     0.244 C 
HETATM   25  N1  UNL     1       0.303  53.341 -12.707  1.00  0.00    -0.345 N 
HETATM   26  H12 UNL     1      -0.086  54.056 -13.327  1.00  0.00     0.163 HD
HETATM   27  O3  UNL     1       0.968  51.157 -12.577  1.00  0.00    -0.271 OA
BRANCH  25  28
HETATM   28  C3  UNL     1       0.476  53.630 -11.283  1.00  0.00     0.188 C 
BRANCH  28  29
HETATM   29  C2  UNL     1      -0.780  53.147 -10.556  1.00  0.00     0.281 C 
HETATM   30  O2  UNL     1      -1.885  53.058 -11.083  1.00  0.00    -0.263 OA
BRANCH  29  31
HETATM   31  O1  UNL     1      -0.505  52.829  -9.261  1.00  0.00    -0.325 OA
HETATM   32  C1  UNL     1      -1.023  53.760  -8.310  1.00  0.00     0.213 C 
ENDBRANCH  29  31
ENDBRANCH  28  29
BRANCH  28  33
HETATM   33  C4  UNL     1       1.718  52.926 -10.718  1.00  0.00     0.074 C 
BRANCH  33  34
HETATM   34  C5  UNL     1       2.852  53.880 -10.421  1.00  0.00    -0.056 A 
HETATM   35  C6  UNL     1       4.112  53.402 -10.042  1.00  0.00     0.007 A 
HETATM   36  C7  UNL     1       5.150  54.295  -9.770  1.00  0.00     0.001 A 
HETATM   37  C8  UNL     1       4.937  55.670  -9.871  1.00  0.00     0.000 A 
HETATM   38  C9  UNL     1       3.687  56.154 -10.249  1.00  0.00     0.001 A 
HETATM   39  C10 UNL     1       2.647  55.264 -10.521  1.00  0.00     0.007 A 
ENDBRANCH  33  34
ENDBRANCH  28  33
ENDBRANCH  25  28
ENDBRANCH  23  24
ENDBRANCH  22  23
ENDBRANCH   1  22
BRANCH  17  40
HETATM   40  O5  UNL     1      -6.711  49.329 -20.302  1.00  0.00    -0.381 OA
HETATM   41  H34 UNL     1      -7.476  48.752 -20.121  1.00  0.00     0.211 HD
ENDBRANCH  17  40
BRANCH  17  42
HETATM   42  C28 UNL     1      -7.078  49.146 -22.691  1.00  0.00     0.158 C 
HETATM   43  C29 UNL     1      -7.462  47.978 -23.567  1.00  0.00     0.094 C 
HETATM   44  O6  UNL     1      -7.566  50.259 -22.904  1.00  0.00    -0.295 OA
ENDBRANCH  17  42
TORSDOF 10
ENDMDL
MODEL 6
REMARK minimizedAffinity -8.63905525
REMARK CNNscore 0.214287296
REMARK CNNaffinity 6.25633001
REMARK  10 active torsions:
REMARK  status: ('A' for Active; 'I' for Inactive)
REMARK    1  A    between atoms: O1_2  and  C2_3 
REMARK    2  A    between atoms: C2_3  and  C3_5 
REMARK    3  A    between atoms: C3_5  and  C4_6 
REMARK    4  A    between atoms: C3_5  and  N1_13 
REMARK    5  A    between atoms: C4_6  and  C5_7 
REMARK       I    between atoms: N1_13  and  C11_14 
REMARK    6  A    between atoms: C11_14  and  C12_16 
REMARK    7  A    between atoms: C12_16  and  O4_17 
REMARK    8  A    between atoms: O4_17  and  N2_18 
REMARK    9  A    between atoms: C27_34  and  O5_35 
REMARK   10  A    between atoms: C27_34  and  C28_36 
ROOT
HETATM    1  N2  UNL     1      -7.277  49.334 -19.762  1.00  0.00    -0.271 N 
ATOM      2  H2  UNL     1      -7.409  49.706 -18.821  1.00  0.00     0.194 HD
HETATM    3  C13 UNL     1      -6.170  49.440 -20.435  1.00  0.00     0.032 C 
HETATM    4  C14 UNL     1      -5.904  48.855 -21.781  1.00  0.00     0.030 C 
HETATM    5  C15 UNL     1      -4.767  49.105 -22.454  1.00  0.00    -0.069 C 
HETATM    6  C16 UNL     1      -4.668  48.621 -23.887  1.00  0.00     0.035 C 
HETATM    7  C17 UNL     1      -3.257  48.606 -24.469  1.00  0.00     0.010 C 
HETATM    8  C18 UNL     1      -2.450  49.895 -24.217  1.00  0.00    -0.004 C 
HETATM    9  C19 UNL     1      -3.122  50.826 -23.159  1.00  0.00     0.002 C 
HETATM   10  C20 UNL     1      -2.208  52.032 -22.848  1.00  0.00     0.007 C 
HETATM   11  C21 UNL     1      -1.845  52.820 -24.127  1.00  0.00     0.013 C 
HETATM   12  C22 UNL     1      -1.215  51.922 -25.213  1.00  0.00    -0.002 C 
HETATM   13  C23 UNL     1       0.196  51.475 -24.739  1.00  0.00     0.019 C 
HETATM   14  C24 UNL     1      -2.189  50.736 -25.473  1.00  0.00     0.002 C 
HETATM   15  C25 UNL     1      -1.605  50.065 -26.710  1.00  0.00     0.009 C 
HETATM   16  C26 UNL     1      -1.058  51.233 -27.554  1.00  0.00     0.047 C 
HETATM   17  C27 UNL     1      -1.128  52.507 -26.659  1.00  0.00     0.125 C 
HETATM   18  C30 UNL     1      -3.650  50.017 -21.928  1.00  0.00    -0.016 C 
HETATM   19  C31 UNL     1      -2.535  49.171 -21.267  1.00  0.00     0.020 C 
HETATM   20  C32 UNL     1      -4.238  50.970 -20.853  1.00  0.00     0.020 C 
HETATM   21  C33 UNL     1      -5.053  50.234 -19.792  1.00  0.00     0.060 C 
ENDROOT
BRANCH   1  22
HETATM   22  O4  UNL     1      -8.270  48.648 -20.481  1.00  0.00    -0.271 OA
BRANCH  22  23
HETATM   23  C12 UNL     1      -8.350  47.308 -20.011  1.00  0.00     0.303 C 
BRANCH  23  24
HETATM   24  C11 UNL     1      -9.792  46.839 -19.841  1.00  0.00     0.244 C 
HETATM   25  N1  UNL     1     -10.590  47.687 -19.108  1.00  0.00    -0.345 N 
HETATM   26  H12 UNL     1     -10.175  48.563 -18.781  1.00  0.00     0.163 HD
HETATM   27  O3  UNL     1     -10.218  45.808 -20.357  1.00  0.00    -0.271 OA
BRANCH  25  28
HETATM   28  C3  UNL     1     -12.001  47.407 -18.842  1.00  0.00     0.188 C 
BRANCH  28  29
HETATM   29  C2  UNL     1     -12.203  47.448 -17.326  1.00  0.00     0.281 C 
HETATM   30  O2  UNL     1     -13.286  47.651 -16.785  1.00  0.00    -0.263 OA
BRANCH  29  31
HETATM   31  O1  UNL     1     -11.030  47.229 -16.669  1.00  0.00    -0.325 OA
HETATM   32  C1  UNL     1     -11.002  46.014 -15.919  1.00  0.00     0.213 C 
ENDBRANCH  29  31
ENDBRANCH  28  29
BRANCH  28  33
HETATM   33  C4  UNL     1     -12.911  48.436 -19.525  1.00  0.00     0.074 C 
BRANCH  33  34
HETATM   34  C5  UNL     1     -14.123  47.810 -20.177  1.00  0.00    -0.056 A 
HETATM   35  C6  UNL     1     -15.255  47.479 -19.421  1.00  0.00     0.007 A 
HETATM   36  C7  UNL     1     -16.366  46.900 -20.036  1.00  0.00     0.001 A 
HETATM   37  C8  UNL     1     -16.356  46.647 -21.407  1.00  0.00     0.000 A 
HETATM   38  C9  UNL     1     -15.235  46.974 -22.167  1.00  0.00     0.001 A 
HETATM   39  C10 UNL     1     -14.123  47.552 -21.555  1.00  0.00     0.007 A 
ENDBRANCH  33  34
ENDBRANCH  28  33
ENDBRANCH  25  28
ENDBRANCH  23  24
ENDBRANCH  22  23
ENDBRANCH   1  22
BRANCH  17  40
HETATM   40  O5  UNL     1      -2.343  53.194 -26.980  1.00  0.00    -0.381 OA
HETATM   41  H34 UNL     1      -2.349  53.354 -27.941  1.00  0.00     0.211 HD
ENDBRANCH  17  40
BRANCH  17  42
HETATM   42  C28 UNL     1       0.064  53.463 -26.901  1.00  0.00     0.158 C 
HETATM   43  C29 UNL     1      -0.099  54.909 -26.496  1.00  0.00     0.094 C 
HETATM   44  O6  UNL     1       1.135  53.076 -27.376  1.00  0.00    -0.295 OA
ENDBRANCH  17  42
TORSDOF 10
ENDMDL
MODEL 7
REMARK minimizedAffinity -8.3004837
REMARK CNNscore 0.203901857
REMARK CNNaffinity 5.75423479
REMARK  10 active torsions:
REMARK  status: ('A' for Active; 'I' for Inactive)
REMARK    1  A    between atoms: O1_2  and  C2_3 
REMARK    2  A    between atoms: C2_3  and  C3_5 
REMARK    3  A    between atoms: C3_5  and  C4_6 
REMARK    4  A    between atoms: C3_5  and  N1_13 
REMARK    5  A    between atoms: C4_6  and  C5_7 
REMARK       I    between atoms: N1_13  and  C11_14 
REMARK    6  A    between atoms: C11_14  and  C12_16 
REMARK    7  A    between atoms: C12_16  and  O4_17 
REMARK    8  A    between atoms: O4_17  and  N2_18 
REMARK    9  A    between atoms: C27_34  and  O5_35 
REMARK   10  A    between atoms: C27_34  and  C28_36 
ROOT
HETATM    1  N2  UNL     1     -12.525  47.081 -25.706  1.00  0.00    -0.271 N 
ATOM      2  H2  UNL     1     -12.855  47.914 -25.219  1.00  0.00     0.194 HD
HETATM    3  C13 UNL     1     -11.344  46.971 -26.238  1.00  0.00     0.032 C 
HETATM    4  C14 UNL     1     -10.790  45.753 -26.897  1.00  0.00     0.030 C 
HETATM    5  C15 UNL     1      -9.598  45.761 -27.519  1.00  0.00    -0.069 C 
HETATM    6  C16 UNL     1      -9.205  44.534 -28.318  1.00  0.00     0.035 C 
HETATM    7  C17 UNL     1      -7.727  44.449 -28.688  1.00  0.00     0.010 C 
HETATM    8  C18 UNL     1      -7.139  45.750 -29.267  1.00  0.00    -0.004 C 
HETATM    9  C19 UNL     1      -8.086  46.976 -29.069  1.00  0.00     0.002 C 
HETATM   10  C20 UNL     1      -7.392  48.271 -29.545  1.00  0.00     0.007 C 
HETATM   11  C21 UNL     1      -6.925  48.165 -31.014  1.00  0.00     0.013 C 
HETATM   12  C22 UNL     1      -6.019  46.940 -31.256  1.00  0.00    -0.002 C 
HETATM   13  C23 UNL     1      -4.661  47.170 -30.537  1.00  0.00     0.019 C 
HETATM   14  C24 UNL     1      -6.781  45.678 -30.757  1.00  0.00     0.002 C 
HETATM   15  C25 UNL     1      -5.923  44.525 -31.261  1.00  0.00     0.009 C 
HETATM   16  C26 UNL     1      -5.394  45.012 -32.624  1.00  0.00     0.047 C 
HETATM   17  C27 UNL     1      -5.768  46.520 -32.739  1.00  0.00     0.125 C 
HETATM   18  C30 UNL     1      -8.705  47.004 -27.632  1.00  0.00    -0.016 C 
HETATM   19  C31 UNL     1      -7.617  46.984 -26.531  1.00  0.00     0.020 C 
HETATM   20  C32 UNL     1      -9.575  48.274 -27.432  1.00  0.00     0.020 C 
HETATM   21  C33 UNL     1     -10.455  48.196 -26.187  1.00  0.00     0.060 C 
ENDROOT
BRANCH   1  22
HETATM   22  O4  UNL     1     -13.293  45.918 -25.878  1.00  0.00    -0.271 OA
BRANCH  22  23
HETATM   23  C12 UNL     1     -14.597  46.276 -26.320  1.00  0.00     0.303 C 
BRANCH  23  24
HETATM   24  C11 UNL     1     -15.496  46.725 -25.172  1.00  0.00     0.244 C 
HETATM   25  N1  UNL     1     -16.640  45.979 -25.013  1.00  0.00    -0.345 N 
HETATM   26  H12 UNL     1     -16.773  45.176 -25.633  1.00  0.00     0.163 HD
HETATM   27  O3  UNL     1     -15.196  47.651 -24.421  1.00  0.00    -0.271 OA
BRANCH  25  28
HETATM   28  C3  UNL     1     -17.622  46.257 -23.964  1.00  0.00     0.188 C 
BRANCH  28  29
HETATM   29  C2  UNL     1     -19.007  45.946 -24.533  1.00  0.00     0.281 C 
HETATM   30  O2  UNL     1     -19.723  46.776 -25.086  1.00  0.00    -0.263 OA
BRANCH  29  31
HETATM   31  O1  UNL     1     -19.332  44.636 -24.344  1.00  0.00    -0.325 OA
HETATM   32  C1  UNL     1     -20.576  44.436 -23.672  1.00  0.00     0.213 C 
ENDBRANCH  29  31
ENDBRANCH  28  29
BRANCH  28  33
HETATM   33  C4  UNL     1     -17.359  45.404 -22.715  1.00  0.00     0.074 C 
BRANCH  33  34
HETATM   34  C5  UNL     1     -17.447  46.198 -21.432  1.00  0.00    -0.056 A 
HETATM   35  C6  UNL     1     -18.676  46.682 -20.969  1.00  0.00     0.007 A 
HETATM   36  C7  UNL     1     -18.742  47.414 -19.781  1.00  0.00     0.001 A 
HETATM   37  C8  UNL     1     -17.582  47.669 -19.050  1.00  0.00     0.000 A 
HETATM   38  C9  UNL     1     -16.354  47.190 -19.502  1.00  0.00     0.001 A 
HETATM   39  C10 UNL     1     -16.286  46.458 -20.688  1.00  0.00     0.007 A 
ENDBRANCH  33  34
ENDBRANCH  28  33
ENDBRANCH  25  28
ENDBRANCH  23  24
ENDBRANCH  22  23
ENDBRANCH   1  22
BRANCH  17  40
HETATM   40  O5  UNL     1      -6.990  46.606 -33.482  1.00  0.00    -0.381 OA
HETATM   41  H34 UNL     1      -6.857  46.140 -34.328  1.00  0.00     0.211 HD
ENDBRANCH  17  40
BRANCH  17  42
HETATM   42  C28 UNL     1      -4.681  47.343 -33.471  1.00  0.00     0.158 C 
HETATM   43  C29 UNL     1      -5.119  48.240 -34.604  1.00  0.00     0.094 C 
HETATM   44  O6  UNL     1      -3.494  47.310 -33.139  1.00  0.00    -0.295 OA
ENDBRANCH  17  42
TORSDOF 10
ENDMDL
MODEL 8
REMARK minimizedAffinity -9.80900192
REMARK CNNscore 0.182434559
REMARK CNNaffinity 6.1263051
REMARK  10 active torsions:
REMARK  status: ('A' for Active; 'I' for Inactive)
REMARK    1  A    between atoms: O1_2  and  C2_3 
REMARK    2  A    between atoms: C2_3  and  C3_5 
REMARK    3  A    between atoms: C3_5  and  C4_6 
REMARK    4  A    between atoms: C3_5  and  N1_13 
REMARK    5  A    between atoms: C4_6  and  C5_7 
REMARK       I    between atoms: N1_13  and  C11_14 
REMARK    6  A    between atoms: C11_14  and  C12_16 
REMARK    7  A    between atoms: C12_16  and  O4_17 
REMARK    8  A    between atoms: O4_17  and  N2_18 
REMARK    9  A    between atoms: C27_34  and  O5_35 
REMARK   10  A    between atoms: C27_34  and  C28_36 
ROOT
HETATM    1  N2  UNL     1      -8.860  47.812 -24.634  1.00  0.00    -0.271 N 
ATOM      2  H2  UNL     1      -9.619  47.996 -23.978  1.00  0.00     0.194 HD
HETATM    3  C13 UNL     1      -7.629  48.183 -24.443  1.00  0.00     0.032 C 
HETATM    4  C14 UNL     1      -6.473  47.879 -25.335  1.00  0.00     0.030 C 
HETATM    5  C15 UNL     1      -5.251  48.396 -25.117  1.00  0.00    -0.069 C 
HETATM    6  C16 UNL     1      -4.190  48.183 -26.178  1.00  0.00     0.035 C 
HETATM    7  C17 UNL     1      -2.759  48.463 -25.727  1.00  0.00     0.010 C 
HETATM    8  C18 UNL     1      -2.579  49.790 -24.963  1.00  0.00    -0.004 C 
HETATM    9  C19 UNL     1      -3.940  50.423 -24.536  1.00  0.00     0.002 C 
HETATM   10  C20 UNL     1      -3.699  51.674 -23.661  1.00  0.00     0.007 C 
HETATM   11  C21 UNL     1      -2.806  52.711 -24.380  1.00  0.00     0.013 C 
HETATM   12  C22 UNL     1      -1.467  52.109 -24.854  1.00  0.00    -0.002 C 
HETATM   13  C23 UNL     1      -0.593  51.787 -23.610  1.00  0.00     0.019 C 
HETATM   14  C24 UNL     1      -1.790  50.860 -25.727  1.00  0.00     0.002 C 
HETATM   15  C25 UNL     1      -0.442  50.498 -26.336  1.00  0.00     0.009 C 
HETATM   16  C26 UNL     1       0.241  51.857 -26.585  1.00  0.00     0.047 C 
HETATM   17  C27 UNL     1      -0.637  52.937 -25.885  1.00  0.00     0.125 C 
HETATM   18  C30 UNL     1      -4.925  49.351 -23.961  1.00  0.00    -0.016 C 
HETATM   19  C31 UNL     1      -4.303  48.568 -22.779  1.00  0.00     0.020 C 
HETATM   20  C32 UNL     1      -6.237  50.016 -23.466  1.00  0.00     0.020 C 
HETATM   21  C33 UNL     1      -7.349  49.004 -23.201  1.00  0.00     0.060 C 
ENDROOT
BRANCH   1  22
HETATM   22  O4  UNL     1      -9.023  47.128 -25.850  1.00  0.00    -0.271 OA
BRANCH  22  23
HETATM   23  C12 UNL     1      -9.810  47.917 -26.733  1.00  0.00     0.303 C 
BRANCH  23  24
HETATM   24  C11 UNL     1     -11.304  47.791 -26.449  1.00  0.00     0.244 C 
HETATM   25  N1  UNL     1     -11.685  46.585 -25.907  1.00  0.00    -0.345 N 
HETATM   26  H12 UNL     1     -10.950  45.903 -25.703  1.00  0.00     0.163 HD
HETATM   27  O3  UNL     1     -12.095  48.711 -26.644  1.00  0.00    -0.271 OA
BRANCH  25  28
HETATM   28  C3  UNL     1     -13.074  46.281 -25.564  1.00  0.00     0.188 C 
BRANCH  28  29
HETATM   29  C2  UNL     1     -13.359  46.899 -24.194  1.00  0.00     0.281 C 
HETATM   30  O2  UNL     1     -12.556  46.905 -23.265  1.00  0.00    -0.263 OA
BRANCH  29  31
HETATM   31  O1  UNL     1     -14.609  47.438 -24.149  1.00  0.00    -0.325 OA
HETATM   32  C1  UNL     1     -15.324  47.152 -22.947  1.00  0.00     0.213 C 
ENDBRANCH  29  31
ENDBRANCH  28  29
BRANCH  28  33
HETATM   33  C4  UNL     1     -14.044  46.846 -26.610  1.00  0.00     0.074 C 
BRANCH  33  34
HETATM   34  C5  UNL     1     -15.086  45.842 -27.051  1.00  0.00    -0.056 A 
HETATM   35  C6  UNL     1     -16.144  45.487 -26.205  1.00  0.00     0.007 A 
HETATM   36  C7  UNL     1     -17.098  44.559 -26.625  1.00  0.00     0.001 A 
HETATM   37  C8  UNL     1     -17.002  43.978 -27.889  1.00  0.00     0.000 A 
HETATM   38  C9  UNL     1     -15.953  44.326 -28.738  1.00  0.00     0.001 A 
HETATM   39  C10 UNL     1     -14.998  45.253 -28.321  1.00  0.00     0.007 A 
ENDBRANCH  33  34
ENDBRANCH  28  33
ENDBRANCH  25  28
ENDBRANCH  23  24
ENDBRANCH  22  23
ENDBRANCH   1  22
BRANCH  17  40
HETATM   40  O5  UNL     1      -1.509  53.494 -26.876  1.00  0.00    -0.381 OA
HETATM   41  H34 UNL     1      -0.957  53.814 -27.613  1.00  0.00     0.211 HD
ENDBRANCH  17  40
BRANCH  17  42
HETATM   42  C28 UNL     1       0.209  54.077 -25.270  1.00  0.00     0.158 C 
HETATM   43  C29 UNL     1       1.014  53.767 -24.031  1.00  0.00     0.094 C 
HETATM   44  O6  UNL     1       0.268  55.201 -25.774  1.00  0.00    -0.295 OA
ENDBRANCH  17  42
TORSDOF 10
ENDMDL
MODEL 9
REMARK minimizedAffinity -8.19734955
REMARK CNNscore 0.174903125
REMARK CNNaffinity 6.29831171
REMARK  10 active torsions:
REMARK  status: ('A' for Active; 'I' for Inactive)
REMARK    1  A    between atoms: O1_2  and  C2_3 
REMARK    2  A    between atoms: C2_3  and  C3_5 
REMARK    3  A    between atoms: C3_5  and  C4_6 
REMARK    4  A    between atoms: C3_5  and  N1_13 
REMARK    5  A    between atoms: C4_6  and  C5_7 
REMARK       I    between atoms: N1_13  and  C11_14 
REMARK    6  A    between atoms: C11_14  and  C12_16 
REMARK    7  A    between atoms: C12_16  and  O4_17 
REMARK    8  A    between atoms: O4_17  and  N2_18 
REMARK    9  A    between atoms: C27_34  and  O5_35 
REMARK   10  A    between atoms: C27_34  and  C28_36 
ROOT
HETATM    1  N2  UNL     1       1.203  52.690 -16.667  1.00  0.00    -0.271 N 
ATOM      2  H2  UNL     1       1.494  53.668 -16.676  1.00  0.00     0.194 HD
HETATM    3  C13 UNL     1       0.621  52.098 -17.667  1.00  0.00     0.032 C 
HETATM    4  C14 UNL     1       0.241  50.657 -17.731  1.00  0.00     0.030 C 
HETATM    5  C15 UNL     1      -0.458  50.151 -18.762  1.00  0.00    -0.069 C 
HETATM    6  C16 UNL     1      -0.958  48.724 -18.649  1.00  0.00     0.035 C 
HETATM    7  C17 UNL     1      -1.413  48.092 -19.962  1.00  0.00     0.010 C 
HETATM    8  C18 UNL     1      -2.342  48.984 -20.809  1.00  0.00    -0.004 C 
HETATM    9  C19 UNL     1      -2.377  50.462 -20.306  1.00  0.00     0.002 C 
HETATM   10  C20 UNL     1      -3.212  51.336 -21.268  1.00  0.00     0.007 C 
HETATM   11  C21 UNL     1      -4.643  50.779 -21.451  1.00  0.00     0.013 C 
HETATM   12  C22 UNL     1      -4.647  49.306 -21.909  1.00  0.00    -0.002 C 
HETATM   13  C23 UNL     1      -4.118  49.232 -23.368  1.00  0.00     0.019 C 
HETATM   14  C24 UNL     1      -3.791  48.490 -20.896  1.00  0.00     0.002 C 
HETATM   15  C25 UNL     1      -4.062  47.044 -21.289  1.00  0.00     0.009 C 
HETATM   16  C26 UNL     1      -5.542  47.038 -21.721  1.00  0.00     0.047 C 
HETATM   17  C27 UNL     1      -5.996  48.527 -21.794  1.00  0.00     0.125 C 
HETATM   18  C30 UNL     1      -0.946  50.988 -19.952  1.00  0.00    -0.016 C 
HETATM   19  C31 UNL     1       0.034  50.850 -21.141  1.00  0.00     0.020 C 
HETATM   20  C32 UNL     1      -0.996  52.482 -19.535  1.00  0.00     0.020 C 
HETATM   21  C33 UNL     1       0.296  52.954 -18.873  1.00  0.00     0.060 C 
ENDROOT
BRANCH   1  22
HETATM   22  O4  UNL     1       1.386  51.827 -15.574  1.00  0.00    -0.271 OA
BRANCH  22  23
HETATM   23  C12 UNL     1       0.499  52.199 -14.526  1.00  0.00     0.303 C 
BRANCH  23  24
HETATM   24  C11 UNL     1       1.145  52.078 -13.149  1.00  0.00     0.244 C 
HETATM   25  N1  UNL     1       0.656  52.952 -12.206  1.00  0.00    -0.345 N 
HETATM   26  H12 UNL     1      -0.113  53.568 -12.484  1.00  0.00     0.163 HD
HETATM   27  O3  UNL     1       2.001  51.234 -12.892  1.00  0.00    -0.271 OA
BRANCH  25  28
HETATM   28  C3  UNL     1       1.149  52.982 -10.830  1.00  0.00     0.188 C 
BRANCH  28  29
HETATM   29  C2  UNL     1       1.707  54.382 -10.568  1.00  0.00     0.281 C 
HETATM   30  O2  UNL     1       1.009  55.379 -10.410  1.00  0.00    -0.263 OA
BRANCH  29  31
HETATM   31  O1  UNL     1       3.069  54.367 -10.533  1.00  0.00    -0.325 OA
HETATM   32  C1  UNL     1       3.632  53.073 -10.312  1.00  0.00     0.213 C 
ENDBRANCH  29  31
ENDBRANCH  28  29
BRANCH  28  33
HETATM   33  C4  UNL     1       0.029  52.664  -9.829  1.00  0.00     0.074 C 
BRANCH  33  34
HETATM   34  C5  UNL     1      -1.353  52.822 -10.422  1.00  0.00    -0.056 A 
HETATM   35  C6  UNL     1      -1.930  51.796 -11.180  1.00  0.00     0.007 A 
HETATM   36  C7  UNL     1      -3.207  51.956 -11.722  1.00  0.00     0.001 A 
HETATM   37  C8  UNL     1      -3.914  53.139 -11.513  1.00  0.00     0.000 A 
HETATM   38  C9  UNL     1      -3.348  54.165 -10.758  1.00  0.00     0.001 A 
HETATM   39  C10 UNL     1      -2.072  54.008 -10.216  1.00  0.00     0.007 A 
ENDBRANCH  33  34
ENDBRANCH  28  33
ENDBRANCH  25  28
ENDBRANCH  23  24
ENDBRANCH  22  23
ENDBRANCH   1  22
BRANCH  17  40
HETATM   40  O5  UNL     1      -6.636  48.844 -20.552  1.00  0.00    -0.381 OA
HETATM   41  H34 UNL     1      -7.348  48.194 -20.410  1.00  0.00     0.211 HD
ENDBRANCH  17  40
BRANCH  17  42
HETATM   42  C28 UNL     1      -6.994  48.784 -22.948  1.00  0.00     0.158 C 
HETATM   43  C29 UNL     1      -7.259  47.654 -23.914  1.00  0.00     0.094 C 
HETATM   44  O6  UNL     1      -7.591  49.855 -23.078  1.00  0.00    -0.295 OA
ENDBRANCH  17  42
TORSDOF 10
ENDMDL
