MODEL 1
REMARK minimizedAffinity -7.68048525
REMARK CNNscore 0.642868459
REMARK CNNaffinity 6.82445669
REMARK  4 active torsions:
REMARK  status: ('A' for Active; 'I' for Inactive)
REMARK    1  A    between atoms: C4_4  and  C5_5 
REMARK    2  A    between atoms: C5_5  and  C6_6 
REMARK    3  A    between atoms: C6_6  and  C7_7 
REMARK    4  A    between atoms: C7_7  and  C9_9 
ROOT
HETATM    1  C9  UNL     1       4.612  54.669  -8.687  1.00  0.00    -0.002 C 
HETATM    2  C10 UNL     1       4.131  56.121  -8.419  1.00  0.00     0.006 C 
HETATM    3  C11 UNL     1       2.663  56.213  -8.862  1.00  0.00     0.011 C 
HETATM    4  C12 UNL     1       2.223  54.760  -9.127  1.00  0.00    -0.032 C 
HETATM    5  C13 UNL     1       1.766  54.166  -7.756  1.00  0.00     0.016 C 
HETATM    6  C14 UNL     1       1.090  54.617 -10.178  1.00  0.00     0.004 C 
HETATM    7  C15 UNL     1      -0.236  55.272  -9.742  1.00  0.00     0.007 C 
HETATM    8  C16 UNL     1      -1.415  54.319  -9.591  1.00  0.00     0.007 C 
HETATM    9  C17 UNL     1      -1.645  53.574 -10.918  1.00  0.00     0.010 C 
HETATM   10  C18 UNL     1      -3.034  52.866 -11.036  1.00  0.00     0.018 C 
HETATM   11  C19 UNL     1      -3.346  52.545 -12.515  1.00  0.00     0.023 C 
HETATM   12  C20 UNL     1      -4.184  53.764 -10.529  1.00  0.00     0.023 C 
HETATM   13  C21 UNL     1      -3.067  51.557 -10.240  1.00  0.00     0.135 C 
HETATM   14  O1  UNL     1      -4.126  51.058  -9.850  1.00  0.00    -0.297 OA
HETATM   15  C22 UNL     1      -1.758  50.878  -9.926  1.00  0.00     0.080 C 
HETATM   16  C23 UNL     1      -0.756  51.149 -11.026  1.00  0.00     0.018 C 
HETATM   17  C24 UNL     1      -0.442  52.635 -11.134  1.00  0.00    -0.026 A 
HETATM   18  C25 UNL     1       0.572  53.034 -12.174  1.00  0.00     0.021 A 
HETATM   19  C26 UNL     1       0.964  53.163 -10.713  1.00  0.00    -0.027 A 
HETATM   20  C27 UNL     1       1.985  52.134 -10.194  1.00  0.00     0.011 C 
HETATM   21  C28 UNL     1       3.373  52.616  -9.746  1.00  0.00     0.011 C 
HETATM   22  C29 UNL     1       3.547  54.134  -9.699  1.00  0.00    -0.032 C 
HETATM   23  C30 UNL     1       3.907  54.616 -11.136  1.00  0.00     0.016 C 
ENDROOT
BRANCH   1  24
HETATM   24  C7  UNL     1       6.123  54.606  -9.046  1.00  0.00    -0.014 C 
HETATM   25  C8  UNL     1       6.678  53.177  -9.003  1.00  0.00     0.010 C 
BRANCH  24  26
HETATM   26  C6  UNL     1       6.997  55.534  -8.160  1.00  0.00     0.008 C 
BRANCH  26  27
HETATM   27  C5  UNL     1       7.068  55.149  -6.678  1.00  0.00     0.028 C 
BRANCH  27  28
HETATM   28  C4  UNL     1       8.232  55.824  -6.004  1.00  0.00    -0.025 C 
HETATM   29  C2  UNL     1       8.254  57.038  -5.419  1.00  0.00    -0.091 C 
HETATM   30  C1  UNL     1       9.524  57.578  -4.816  1.00  0.00     0.042 C 
HETATM   31  C3  UNL     1       7.068  57.955  -5.287  1.00  0.00     0.042 C 
ENDBRANCH  27  28
ENDBRANCH  26  27
ENDBRANCH  24  26
ENDBRANCH   1  24
TORSDOF 4
ENDMDL
MODEL 2
REMARK minimizedAffinity -7.33662796
REMARK CNNscore 0.627131104
REMARK CNNaffinity 6.77581549
REMARK  4 active torsions:
REMARK  status: ('A' for Active; 'I' for Inactive)
REMARK    1  A    between atoms: C4_4  and  C5_5 
REMARK    2  A    between atoms: C5_5  and  C6_6 
REMARK    3  A    between atoms: C6_6  and  C7_7 
REMARK    4  A    between atoms: C7_7  and  C9_9 
ROOT
HETATM    1  C9  UNL     1      -2.019  52.729  -9.665  1.00  0.00    -0.002 C 
HETATM    2  C10 UNL     1      -1.827  51.554  -8.669  1.00  0.00     0.006 C 
HETATM    3  C11 UNL     1      -0.396  51.643  -8.118  1.00  0.00     0.011 C 
HETATM    4  C12 UNL     1       0.139  53.011  -8.583  1.00  0.00    -0.032 C 
HETATM    5  C13 UNL     1      -0.327  54.064  -7.528  1.00  0.00     0.016 C 
HETATM    6  C14 UNL     1       1.680  53.069  -8.756  1.00  0.00     0.004 C 
HETATM    7  C15 UNL     1       2.452  52.862  -7.438  1.00  0.00     0.007 C 
HETATM    8  C16 UNL     1       3.311  54.041  -6.993  1.00  0.00     0.007 C 
HETATM    9  C17 UNL     1       4.316  54.391  -8.104  1.00  0.00     0.010 C 
HETATM   10  C18 UNL     1       5.499  55.305  -7.648  1.00  0.00     0.018 C 
HETATM   11  C19 UNL     1       6.654  55.233  -8.671  1.00  0.00     0.023 C 
HETATM   12  C20 UNL     1       6.084  54.857  -6.291  1.00  0.00     0.023 C 
HETATM   13  C21 UNL     1       5.061  56.768  -7.516  1.00  0.00     0.135 C 
HETATM   14  O1  UNL     1       5.670  57.568  -6.801  1.00  0.00    -0.297 OA
HETATM   15  C22 UNL     1       3.844  57.222  -8.283  1.00  0.00     0.080 C 
HETATM   16  C23 UNL     1       3.719  56.436  -9.569  1.00  0.00     0.018 C 
HETATM   17  C24 UNL     1       3.511  54.954  -9.293  1.00  0.00    -0.026 A 
HETATM   18  C25 UNL     1       3.336  54.064 -10.496  1.00  0.00     0.021 A 
HETATM   19  C26 UNL     1       2.131  54.293  -9.601  1.00  0.00    -0.027 A 
HETATM   20  C27 UNL     1       1.024  55.194 -10.177  1.00  0.00     0.011 C 
HETATM   21  C28 UNL     1      -0.357  54.588 -10.473  1.00  0.00     0.011 C 
HETATM   22  C29 UNL     1      -0.549  53.150  -9.990  1.00  0.00    -0.032 C 
HETATM   23  C30 UNL     1       0.036  52.202 -11.079  1.00  0.00     0.016 C 
ENDROOT
BRANCH   1  24
HETATM   24  C7  UNL     1      -2.995  52.368 -10.821  1.00  0.00    -0.014 C 
HETATM   25  C8  UNL     1      -4.146  53.372 -10.953  1.00  0.00     0.010 C 
BRANCH  24  26
HETATM   26  C6  UNL     1      -3.566  50.928 -10.706  1.00  0.00     0.008 C 
BRANCH  26  27
HETATM   27  C5  UNL     1      -5.088  50.837 -10.550  1.00  0.00     0.028 C 
BRANCH  27  28
HETATM   28  C4  UNL     1      -5.476  49.594  -9.796  1.00  0.00    -0.025 C 
HETATM   29  C2  UNL     1      -6.689  49.011  -9.740  1.00  0.00    -0.091 C 
HETATM   30  C1  UNL     1      -6.911  47.778  -8.903  1.00  0.00     0.042 C 
HETATM   31  C3  UNL     1      -7.911  49.483 -10.480  1.00  0.00     0.042 C 
ENDBRANCH  27  28
ENDBRANCH  26  27
ENDBRANCH  24  26
ENDBRANCH   1  24
TORSDOF 4
ENDMDL
MODEL 3
REMARK minimizedAffinity -7.2909503
REMARK CNNscore 0.52246058
REMARK CNNaffinity 6.56494141
REMARK  4 active torsions:
REMARK  status: ('A' for Active; 'I' for Inactive)
REMARK    1  A    between atoms: C4_4  and  C5_5 
REMARK    2  A    between atoms: C5_5  and  C6_6 
REMARK    3  A    between atoms: C6_6  and  C7_7 
REMARK    4  A    between atoms: C7_7  and  C9_9 
ROOT
HETATM    1  C9  UNL     1       2.092  54.555  -9.296  1.00  0.00    -0.002 C 
HETATM    2  C10 UNL     1       2.226  54.070  -7.827  1.00  0.00     0.006 C 
HETATM    3  C11 UNL     1       1.027  53.157  -7.529  1.00  0.00     0.011 C 
HETATM    4  C12 UNL     1       0.358  52.900  -8.893  1.00  0.00    -0.032 C 
HETATM    5  C13 UNL     1       1.106  51.695  -9.547  1.00  0.00     0.016 C 
HETATM    6  C14 UNL     1      -1.164  52.607  -8.813  1.00  0.00     0.004 C 
HETATM    7  C15 UNL     1      -1.499  51.310  -8.050  1.00  0.00     0.007 C 
HETATM    8  C16 UNL     1      -2.199  50.233  -8.870  1.00  0.00     0.007 C 
HETATM    9  C17 UNL     1      -3.498  50.805  -9.466  1.00  0.00     0.010 C 
HETATM   10  C18 UNL     1      -4.500  49.730  -9.996  1.00  0.00     0.018 C 
HETATM   11  C19 UNL     1      -5.909  50.344 -10.150  1.00  0.00     0.023 C 
HETATM   12  C20 UNL     1      -4.642  48.541  -9.020  1.00  0.00     0.023 C 
HETATM   13  C21 UNL     1      -4.063  49.177 -11.357  1.00  0.00     0.135 C 
HETATM   14  O1  UNL     1      -4.438  48.073 -11.763  1.00  0.00    -0.297 OA
HETATM   15  C22 UNL     1      -3.142  50.014 -12.207  1.00  0.00     0.080 C 
HETATM   16  C23 UNL     1      -3.400  51.484 -11.959  1.00  0.00     0.018 C 
HETATM   17  C24 UNL     1      -3.097  51.861 -10.515  1.00  0.00    -0.026 A 
HETATM   18  C25 UNL     1      -3.282  53.311 -10.146  1.00  0.00     0.021 A 
HETATM   19  C26 UNL     1      -1.867  52.763 -10.190  1.00  0.00    -0.027 A 
HETATM   20  C27 UNL     1      -0.998  53.234 -11.372  1.00  0.00     0.011 C 
HETATM   21  C28 UNL     1       0.237  54.104 -11.093  1.00  0.00     0.011 C 
HETATM   22  C29 UNL     1       0.586  54.278  -9.614  1.00  0.00    -0.032 C 
HETATM   23  C30 UNL     1      -0.287  55.440  -9.054  1.00  0.00     0.016 C 
ENDROOT
BRANCH   1  24
HETATM   24  C7  UNL     1       2.678  55.981  -9.501  1.00  0.00    -0.014 C 
HETATM   25  C8  UNL     1       3.291  56.169 -10.894  1.00  0.00     0.010 C 
BRANCH  24  26
HETATM   26  C6  UNL     1       3.715  56.373  -8.414  1.00  0.00     0.008 C 
BRANCH  26  27
HETATM   27  C5  UNL     1       3.636  57.824  -7.926  1.00  0.00     0.028 C 
BRANCH  27  28
HETATM   28  C4  UNL     1       3.381  57.878  -6.444  1.00  0.00    -0.025 C 
HETATM   29  C2  UNL     1       2.211  57.690  -5.803  1.00  0.00    -0.091 C 
HETATM   30  C1  UNL     1       2.127  57.814  -4.304  1.00  0.00     0.042 C 
HETATM   31  C3  UNL     1       0.909  57.334  -6.468  1.00  0.00     0.042 C 
ENDBRANCH  27  28
ENDBRANCH  26  27
ENDBRANCH  24  26
ENDBRANCH   1  24
TORSDOF 4
ENDMDL
MODEL 4
REMARK minimizedAffinity -7.43900299
REMARK CNNscore 0.517567039
REMARK CNNaffinity 6.45772934
REMARK  4 active torsions:
REMARK  status: ('A' for Active; 'I' for Inactive)
REMARK    1  A    between atoms: C4_4  and  C5_5 
REMARK    2  A    between atoms: C5_5  and  C6_6 
REMARK    3  A    between atoms: C6_6  and  C7_7 
REMARK    4  A    between atoms: C7_7  and  C9_9 
ROOT
HETATM    1  C9  UNL     1       1.826  54.665  -9.132  1.00  0.00    -0.002 C 
HETATM    2  C10 UNL     1       1.931  54.191  -7.657  1.00  0.00     0.006 C 
HETATM    3  C11 UNL     1       0.761  53.231  -7.394  1.00  0.00     0.011 C 
HETATM    4  C12 UNL     1       0.148  52.944  -8.778  1.00  0.00    -0.032 C 
HETATM    5  C13 UNL     1       0.964  51.767  -9.402  1.00  0.00     0.016 C 
HETATM    6  C14 UNL     1      -1.364  52.590  -8.745  1.00  0.00     0.004 C 
HETATM    7  C15 UNL     1      -1.671  51.283  -7.987  1.00  0.00     0.007 C 
HETATM    8  C16 UNL     1      -2.300  50.176  -8.825  1.00  0.00     0.007 C 
HETATM    9  C17 UNL     1      -3.601  50.694  -9.465  1.00  0.00     0.010 C 
HETATM   10  C18 UNL     1      -4.542  49.577 -10.022  1.00  0.00     0.018 C 
HETATM   11  C19 UNL     1      -5.969  50.134 -10.224  1.00  0.00     0.023 C 
HETATM   12  C20 UNL     1      -4.668  48.388  -9.045  1.00  0.00     0.023 C 
HETATM   13  C21 UNL     1      -4.039  49.038 -11.366  1.00  0.00     0.135 C 
HETATM   14  O1  UNL     1      -4.357  47.919 -11.778  1.00  0.00    -0.297 OA
HETATM   15  C22 UNL     1      -3.125  49.908 -12.189  1.00  0.00     0.080 C 
HETATM   16  C23 UNL     1      -3.449  51.368 -11.956  1.00  0.00     0.018 C 
HETATM   17  C24 UNL     1      -3.209  51.762 -10.506  1.00  0.00    -0.026 A 
HETATM   18  C25 UNL     1      -3.464  53.204 -10.150  1.00  0.00     0.021 A 
HETATM   19  C26 UNL     1      -2.026  52.713 -10.145  1.00  0.00    -0.027 A 
HETATM   20  C27 UNL     1      -1.140  53.214 -11.300  1.00  0.00     0.011 C 
HETATM   21  C28 UNL     1       0.051  54.134 -10.986  1.00  0.00     0.011 C 
HETATM   22  C29 UNL     1       0.344  54.327  -9.498  1.00  0.00    -0.032 C 
HETATM   23  C30 UNL     1      -0.593  55.455  -8.972  1.00  0.00     0.016 C 
ENDROOT
BRANCH   1  24
HETATM   24  C7  UNL     1       2.361  56.113  -9.325  1.00  0.00    -0.014 C 
HETATM   25  C8  UNL     1       3.406  56.208 -10.443  1.00  0.00     0.010 C 
BRANCH  24  26
HETATM   26  C6  UNL     1       2.933  56.727  -8.019  1.00  0.00     0.008 C 
BRANCH  26  27
HETATM   27  C5  UNL     1       4.292  57.424  -8.163  1.00  0.00     0.028 C 
BRANCH  27  28
HETATM   28  C4  UNL     1       5.188  57.094  -7.000  1.00  0.00    -0.025 C 
HETATM   29  C2  UNL     1       6.236  56.247  -6.983  1.00  0.00    -0.091 C 
HETATM   30  C1  UNL     1       7.011  56.009  -5.713  1.00  0.00     0.042 C 
HETATM   31  C3  UNL     1       6.749  55.483  -8.173  1.00  0.00     0.042 C 
ENDBRANCH  27  28
ENDBRANCH  26  27
ENDBRANCH  24  26
ENDBRANCH   1  24
TORSDOF 4
ENDMDL
MODEL 5
REMARK minimizedAffinity -7.53900719
REMARK CNNscore 0.450682759
REMARK CNNaffinity 6.18015289
REMARK  4 active torsions:
REMARK  status: ('A' for Active; 'I' for Inactive)
REMARK    1  A    between atoms: C4_4  and  C5_5 
REMARK    2  A    between atoms: C5_5  and  C6_6 
REMARK    3  A    between atoms: C6_6  and  C7_7 
REMARK    4  A    between atoms: C7_7  and  C9_9 
ROOT
HETATM    1  C9  UNL     1      -7.236  47.354 -29.280  1.00  0.00    -0.002 C 
HETATM    2  C10 UNL     1      -6.074  48.095 -29.993  1.00  0.00     0.006 C 
HETATM    3  C11 UNL     1      -6.243  47.877 -31.505  1.00  0.00     0.011 C 
HETATM    4  C12 UNL     1      -7.639  47.248 -31.674  1.00  0.00    -0.032 C 
HETATM    5  C13 UNL     1      -8.665  48.425 -31.735  1.00  0.00     0.016 C 
HETATM    6  C14 UNL     1      -7.785  46.344 -32.928  1.00  0.00     0.004 C 
HETATM    7  C15 UNL     1      -7.621  47.109 -34.256  1.00  0.00     0.007 C 
HETATM    8  C16 UNL     1      -8.846  47.109 -35.163  1.00  0.00     0.007 C 
HETATM    9  C17 UNL     1      -9.253  45.659 -35.475  1.00  0.00     0.010 C 
HETATM   10  C18 UNL     1     -10.232  45.502 -36.684  1.00  0.00     0.018 C 
HETATM   11  C19 UNL     1     -10.225  44.043 -37.191  1.00  0.00     0.023 C 
HETATM   12  C20 UNL     1      -9.818  46.386 -37.881  1.00  0.00     0.023 C 
HETATM   13  C21 UNL     1     -11.668  45.872 -36.295  1.00  0.00     0.135 C 
HETATM   14  O1  UNL     1     -12.501  46.219 -37.137  1.00  0.00    -0.297 OA
HETATM   15  C22 UNL     1     -12.053  45.812 -34.839  1.00  0.00     0.080 C 
HETATM   16  C23 UNL     1     -11.261  44.731 -34.137  1.00  0.00     0.018 C 
HETATM   17  C24 UNL     1      -9.770  45.033 -34.164  1.00  0.00    -0.026 A 
HETATM   18  C25 UNL     1      -8.871  44.045 -33.466  1.00  0.00     0.021 A 
HETATM   19  C26 UNL     1      -9.032  45.421 -32.846  1.00  0.00    -0.027 A 
HETATM   20  C27 UNL     1      -9.869  45.486 -31.555  1.00  0.00     0.011 C 
HETATM   21  C28 UNL     1      -9.186  45.888 -30.239  1.00  0.00     0.011 C 
HETATM   22  C29 UNL     1      -7.739  46.363 -30.379  1.00  0.00    -0.032 C 
HETATM   23  C30 UNL     1      -6.826  45.101 -30.400  1.00  0.00     0.016 C 
ENDROOT
BRANCH   1  24
HETATM   24  C7  UNL     1      -6.820  46.815 -27.881  1.00  0.00    -0.014 C 
HETATM   25  C8  UNL     1      -7.954  46.053 -27.185  1.00  0.00     0.010 C 
BRANCH  24  26
HETATM   26  C6  UNL     1      -6.278  47.924 -26.940  1.00  0.00     0.008 C 
BRANCH  26  27
HETATM   27  C5  UNL     1      -4.757  48.119 -26.965  1.00  0.00     0.028 C 
BRANCH  27  28
HETATM   28  C4  UNL     1      -4.227  48.372 -25.579  1.00  0.00    -0.025 C 
HETATM   29  C2  UNL     1      -3.091  49.010 -25.236  1.00  0.00    -0.091 C 
HETATM   30  C1  UNL     1      -2.693  49.146 -23.790  1.00  0.00     0.042 C 
HETATM   31  C3  UNL     1      -2.133  49.649 -26.204  1.00  0.00     0.042 C 
ENDBRANCH  27  28
ENDBRANCH  26  27
ENDBRANCH  24  26
ENDBRANCH   1  24
TORSDOF 4
ENDMDL
MODEL 6
REMARK minimizedAffinity -7.88538504
REMARK CNNscore 0.391795725
REMARK CNNaffinity 6.39654779
REMARK  4 active torsions:
REMARK  status: ('A' for Active; 'I' for Inactive)
REMARK    1  A    between atoms: C4_4  and  C5_5 
REMARK    2  A    between atoms: C5_5  and  C6_6 
REMARK    3  A    between atoms: C6_6  and  C7_7 
REMARK    4  A    between atoms: C7_7  and  C9_9 
ROOT
HETATM    1  C9  UNL     1      -3.351  48.623 -23.695  1.00  0.00    -0.002 C 
HETATM    2  C10 UNL     1      -2.262  48.962 -22.642  1.00  0.00     0.006 C 
HETATM    3  C11 UNL     1      -2.915  48.869 -21.254  1.00  0.00     0.011 C 
HETATM    4  C12 UNL     1      -4.291  48.218 -21.491  1.00  0.00    -0.032 C 
HETATM    5  C13 UNL     1      -4.070  46.672 -21.484  1.00  0.00     0.016 C 
HETATM    6  C14 UNL     1      -5.372  48.610 -20.448  1.00  0.00     0.004 C 
HETATM    7  C15 UNL     1      -5.043  48.138 -19.018  1.00  0.00     0.007 C 
HETATM    8  C16 UNL     1      -6.034  47.151 -18.413  1.00  0.00     0.007 C 
HETATM    9  C17 UNL     1      -7.442  47.772 -18.417  1.00  0.00     0.010 C 
HETATM   10  C18 UNL     1      -8.474  47.051 -17.490  1.00  0.00     0.018 C 
HETATM   11  C19 UNL     1      -9.682  47.975 -17.216  1.00  0.00     0.023 C 
HETATM   12  C20 UNL     1      -7.868  46.699 -16.114  1.00  0.00     0.023 C 
HETATM   13  C21 UNL     1      -8.992  45.756 -18.126  1.00  0.00     0.135 C 
HETATM   14  O1  UNL     1      -9.466  44.841 -17.447  1.00  0.00    -0.297 OA
HETATM   15  C22 UNL     1      -8.903  45.609 -19.624  1.00  0.00     0.080 C 
HETATM   16  C23 UNL     1      -9.034  46.963 -20.287  1.00  0.00     0.018 C 
HETATM   17  C24 UNL     1      -7.892  47.886 -19.887  1.00  0.00    -0.026 A 
HETATM   18  C25 UNL     1      -7.888  49.260 -20.508  1.00  0.00     0.021 A 
HETATM   19  C26 UNL     1      -6.809  48.281 -20.938  1.00  0.00    -0.027 A 
HETATM   20  C27 UNL     1      -6.951  47.702 -22.357  1.00  0.00     0.011 C 
HETATM   21  C28 UNL     1      -5.892  48.047 -23.417  1.00  0.00     0.011 C 
HETATM   22  C29 UNL     1      -4.679  48.814 -22.892  1.00  0.00    -0.032 C 
HETATM   23  C30 UNL     1      -5.053  50.326 -22.858  1.00  0.00     0.016 C 
ENDROOT
BRANCH   1  24
HETATM   24  C7  UNL     1      -3.135  49.389 -25.032  1.00  0.00    -0.014 C 
HETATM   25  C8  UNL     1      -2.995  48.446 -26.233  1.00  0.00     0.010 C 
BRANCH  24  26
HETATM   26  C6  UNL     1      -1.926  50.362 -24.986  1.00  0.00     0.008 C 
BRANCH  26  27
HETATM   27  C5  UNL     1      -1.281  50.670 -26.342  1.00  0.00     0.028 C 
BRANCH  27  28
HETATM   28  C4  UNL     1       0.206  50.848 -26.199  1.00  0.00    -0.025 C 
HETATM   29  C2  UNL     1       1.046  51.473 -27.048  1.00  0.00    -0.091 C 
HETATM   30  C1  UNL     1       2.524  51.530 -26.764  1.00  0.00     0.042 C 
HETATM   31  C3  UNL     1       0.632  52.171 -28.315  1.00  0.00     0.042 C 
ENDBRANCH  27  28
ENDBRANCH  26  27
ENDBRANCH  24  26
ENDBRANCH   1  24
TORSDOF 4
ENDMDL
MODEL 7
REMARK minimizedAffinity -8.1018734
REMARK CNNscore 0.31435582
REMARK CNNaffinity 6.40997696
REMARK  4 active torsions:
REMARK  status: ('A' for Active; 'I' for Inactive)
REMARK    1  A    between atoms: C4_4  and  C5_5 
REMARK    2  A    between atoms: C5_5  and  C6_6 
REMARK    3  A    between atoms: C6_6  and  C7_7 
REMARK    4  A    between atoms: C7_7  and  C9_9 
ROOT
HETATM    1  C9  UNL     1      -2.664  50.328 -23.089  1.00  0.00    -0.002 C 
HETATM    2  C10 UNL     1      -3.006  49.545 -24.385  1.00  0.00     0.006 C 
HETATM    3  C11 UNL     1      -4.173  48.599 -24.062  1.00  0.00     0.011 C 
HETATM    4  C12 UNL     1      -4.676  49.030 -22.671  1.00  0.00    -0.032 C 
HETATM    5  C13 UNL     1      -5.691  50.196 -22.896  1.00  0.00     0.016 C 
HETATM    6  C14 UNL     1      -5.340  47.892 -21.851  1.00  0.00     0.004 C 
HETATM    7  C15 UNL     1      -6.629  47.344 -22.496  1.00  0.00     0.007 C 
HETATM    8  C16 UNL     1      -7.898  47.523 -21.671  1.00  0.00     0.007 C 
HETATM    9  C17 UNL     1      -7.713  46.859 -20.295  1.00  0.00     0.010 C 
HETATM   10  C18 UNL     1      -9.039  46.624 -19.502  1.00  0.00     0.018 C 
HETATM   11  C19 UNL     1      -8.814  45.583 -18.383  1.00  0.00     0.023 C 
HETATM   12  C20 UNL     1     -10.160  46.063 -20.404  1.00  0.00     0.023 C 
HETATM   13  C21 UNL     1      -9.548  47.919 -18.861  1.00  0.00     0.135 C 
HETATM   14  O1  UNL     1     -10.734  48.073 -18.556  1.00  0.00    -0.297 OA
HETATM   15  C22 UNL     1      -8.559  49.030 -18.611  1.00  0.00     0.080 C 
HETATM   16  C23 UNL     1      -7.190  48.452 -18.327  1.00  0.00     0.018 C 
HETATM   17  C24 UNL     1      -6.658  47.679 -19.526  1.00  0.00    -0.026 A 
HETATM   18  C25 UNL     1      -5.283  47.079 -19.382  1.00  0.00     0.021 A 
HETATM   19  C26 UNL     1      -5.455  48.244 -20.342  1.00  0.00    -0.027 A 
HETATM   20  C27 UNL     1      -4.855  49.587 -19.887  1.00  0.00     0.011 C 
HETATM   21  C28 UNL     1      -3.684  50.190 -20.678  1.00  0.00     0.011 C 
HETATM   22  C29 UNL     1      -3.334  49.459 -21.975  1.00  0.00    -0.032 C 
HETATM   23  C30 UNL     1      -2.399  48.268 -21.611  1.00  0.00     0.016 C 
ENDROOT
BRANCH   1  24
HETATM   24  C7  UNL     1      -1.152  50.679 -22.995  1.00  0.00    -0.014 C 
HETATM   25  C8  UNL     1      -0.656  50.753 -21.546  1.00  0.00     0.010 C 
BRANCH  24  26
HETATM   26  C6  UNL     1      -0.786  51.990 -23.742  1.00  0.00     0.008 C 
BRANCH  26  27
HETATM   27  C5  UNL     1      -0.663  51.864 -25.265  1.00  0.00     0.028 C 
BRANCH  27  28
HETATM   28  C4  UNL     1       0.780  51.786 -25.682  1.00  0.00    -0.025 C 
HETATM   29  C2  UNL     1       1.274  51.746 -26.935  1.00  0.00    -0.091 C 
HETATM   30  C1  UNL     1       2.758  51.634 -27.172  1.00  0.00     0.042 C 
HETATM   31  C3  UNL     1       0.450  51.819 -28.191  1.00  0.00     0.042 C 
ENDBRANCH  27  28
ENDBRANCH  26  27
ENDBRANCH  24  26
ENDBRANCH   1  24
TORSDOF 4
ENDMDL
MODEL 8
REMARK minimizedAffinity -7.27948523
REMARK CNNscore 0.302501142
REMARK CNNaffinity 5.49344444
REMARK  4 active torsions:
REMARK  status: ('A' for Active; 'I' for Inactive)
REMARK    1  A    between atoms: C4_4  and  C5_5 
REMARK    2  A    between atoms: C5_5  and  C6_6 
REMARK    3  A    between atoms: C6_6  and  C7_7 
REMARK    4  A    between atoms: C7_7  and  C9_9 
ROOT
HETATM    1  C9  UNL     1     -13.422  45.457 -27.117  1.00  0.00    -0.002 C 
HETATM    2  C10 UNL     1     -14.302  46.055 -28.247  1.00  0.00     0.006 C 
HETATM    3  C11 UNL     1     -13.358  46.647 -29.305  1.00  0.00     0.011 C 
HETATM    4  C12 UNL     1     -11.951  46.153 -28.921  1.00  0.00    -0.032 C 
HETATM    5  C13 UNL     1     -11.774  44.739 -29.563  1.00  0.00     0.016 C 
HETATM    6  C14 UNL     1     -10.799  47.093 -29.369  1.00  0.00     0.004 C 
HETATM    7  C15 UNL     1     -10.679  47.227 -30.900  1.00  0.00     0.007 C 
HETATM    8  C16 UNL     1      -9.366  46.734 -31.496  1.00  0.00     0.007 C 
HETATM    9  C17 UNL     1      -8.192  47.483 -30.841  1.00  0.00     0.010 C 
HETATM   10  C18 UNL     1      -6.836  47.369 -31.610  1.00  0.00     0.018 C 
HETATM   11  C19 UNL     1      -5.866  48.479 -31.148  1.00  0.00     0.023 C 
HETATM   12  C20 UNL     1      -7.019  47.551 -33.133  1.00  0.00     0.023 C 
HETATM   13  C21 UNL     1      -6.166  46.012 -31.371  1.00  0.00     0.135 C 
HETATM   14  O1  UNL     1      -5.342  45.543 -32.162  1.00  0.00    -0.297 OA
HETATM   15  C22 UNL     1      -6.542  45.236 -30.134  1.00  0.00     0.080 C 
HETATM   16  C23 UNL     1      -6.900  46.188 -29.013  1.00  0.00     0.018 C 
HETATM   17  C24 UNL     1      -8.119  47.027 -29.370  1.00  0.00    -0.026 A 
HETATM   18  C25 UNL     1      -8.599  47.995 -28.319  1.00  0.00     0.021 A 
HETATM   19  C26 UNL     1      -9.469  46.789 -28.626  1.00  0.00    -0.027 A 
HETATM   20  C27 UNL     1      -9.503  45.690 -27.548  1.00  0.00     0.011 C 
HETATM   21  C28 UNL     1     -10.819  45.407 -26.808  1.00  0.00     0.011 C 
HETATM   22  C29 UNL     1     -12.040  46.149 -27.352  1.00  0.00    -0.032 C 
HETATM   23  C30 UNL     1     -12.055  47.570 -26.714  1.00  0.00     0.016 C 
ENDROOT
BRANCH   1  24
HETATM   24  C7  UNL     1     -14.108  45.550 -25.724  1.00  0.00    -0.014 C 
HETATM   25  C8  UNL     1     -14.137  44.203 -24.992  1.00  0.00     0.010 C 
BRANCH  24  26
HETATM   26  C6  UNL     1     -15.543  46.139 -25.793  1.00  0.00     0.008 C 
BRANCH  26  27
HETATM   27  C5  UNL     1     -16.013  46.870 -24.530  1.00  0.00     0.028 C 
BRANCH  27  28
HETATM   28  C4  UNL     1     -17.505  46.761 -24.372  1.00  0.00    -0.025 C 
HETATM   29  C2  UNL     1     -18.371  46.095 -25.161  1.00  0.00    -0.091 C 
HETATM   30  C1  UNL     1     -19.849  46.118 -24.872  1.00  0.00     0.042 C 
HETATM   31  C3  UNL     1     -17.988  45.272 -26.361  1.00  0.00     0.042 C 
ENDBRANCH  27  28
ENDBRANCH  26  27
ENDBRANCH  24  26
ENDBRANCH   1  24
TORSDOF 4
ENDMDL
MODEL 9
REMARK minimizedAffinity -8.30850697
REMARK CNNscore 0.289530337
REMARK CNNaffinity 6.65072012
REMARK  4 active torsions:
REMARK  status: ('A' for Active; 'I' for Inactive)
REMARK    1  A    between atoms: C4_4  and  C5_5 
REMARK    2  A    between atoms: C5_5  and  C6_6 
REMARK    3  A    between atoms: C6_6  and  C7_7 
REMARK    4  A    between atoms: C7_7  and  C9_9 
ROOT
HETATM    1  C9  UNL     1      -1.193  50.409 -22.477  1.00  0.00    -0.002 C 
HETATM    2  C10 UNL     1      -0.362  50.447 -21.167  1.00  0.00     0.006 C 
HETATM    3  C11 UNL     1      -1.067  49.544 -20.143  1.00  0.00     0.011 C 
HETATM    4  C12 UNL     1      -2.140  48.779 -20.942  1.00  0.00    -0.032 C 
HETATM    5  C13 UNL     1      -1.441  47.526 -21.559  1.00  0.00     0.016 C 
HETATM    6  C14 UNL     1      -3.373  48.348 -20.105  1.00  0.00     0.004 C 
HETATM    7  C15 UNL     1      -3.034  47.339 -18.989  1.00  0.00     0.007 C 
HETATM    8  C16 UNL     1      -3.708  45.978 -19.114  1.00  0.00     0.007 C 
HETATM    9  C17 UNL     1      -5.235  46.165 -19.162  1.00  0.00     0.010 C 
HETATM   10  C18 UNL     1      -6.060  44.864 -18.900  1.00  0.00     0.018 C 
HETATM   11  C19 UNL     1      -7.517  45.221 -18.530  1.00  0.00     0.023 C 
HETATM   12  C20 UNL     1      -5.492  44.050 -17.716  1.00  0.00     0.023 C 
HETATM   13  C21 UNL     1      -6.084  43.955 -20.134  1.00  0.00     0.135 C 
HETATM   14  O1  UNL     1      -6.299  42.743 -20.046  1.00  0.00    -0.297 OA
HETATM   15  C22 UNL     1      -5.826  44.575 -21.484  1.00  0.00     0.080 C 
HETATM   16  C23 UNL     1      -6.323  46.004 -21.502  1.00  0.00     0.018 C 
HETATM   17  C24 UNL     1      -5.571  46.863 -20.496  1.00  0.00    -0.026 A 
HETATM   18  C25 UNL     1      -5.951  48.320 -20.440  1.00  0.00     0.021 A 
HETATM   19  C26 UNL     1      -4.585  47.962 -20.998  1.00  0.00    -0.027 A 
HETATM   20  C27 UNL     1      -4.415  48.123 -22.519  1.00  0.00     0.011 C 
HETATM   21  C28 UNL     1      -3.434  49.179 -23.056  1.00  0.00     0.011 C 
HETATM   22  C29 UNL     1      -2.576  49.864 -21.992  1.00  0.00    -0.032 C 
HETATM   23  C30 UNL     1      -3.412  51.032 -21.388  1.00  0.00     0.016 C 
ENDROOT
BRANCH   1  24
HETATM   24  C7  UNL     1      -1.119  51.750 -23.261  1.00  0.00    -0.014 C 
HETATM   25  C8  UNL     1      -2.087  51.789 -24.450  1.00  0.00     0.010 C 
BRANCH  24  26
HETATM   26  C6  UNL     1       0.316  52.093 -23.742  1.00  0.00     0.008 C 
BRANCH  26  27
HETATM   27  C5  UNL     1       0.419  53.286 -24.700  1.00  0.00     0.028 C 
BRANCH  27  28
HETATM   28  C4  UNL     1       0.262  52.841 -26.129  1.00  0.00    -0.025 C 
HETATM   29  C2  UNL     1       1.112  52.088 -26.854  1.00  0.00    -0.091 C 
HETATM   30  C1  UNL     1       0.811  51.761 -28.294  1.00  0.00     0.042 C 
HETATM   31  C3  UNL     1       2.396  51.495 -26.341  1.00  0.00     0.042 C 
ENDBRANCH  27  28
ENDBRANCH  26  27
ENDBRANCH  24  26
ENDBRANCH   1  24
TORSDOF 4
ENDMDL
