MODEL 1
REMARK minimizedAffinity -6.51425219
REMARK CNNscore 0.680018961
REMARK CNNaffinity 6.75670671
REMARK  10 active torsions:
REMARK  status: ('A' for Active; 'I' for Inactive)
REMARK    1  A    between atoms: C2_2  and  O1_3 
REMARK    2  A    between atoms: O1_3  and  C3_4 
REMARK    3  A    between atoms: C3_4  and  C4_6 
REMARK    4  A    between atoms: C4_6  and  C5_7 
REMARK    5  A    between atoms: C5_7  and  C6_8 
REMARK    6  A    between atoms: C6_8  and  C8_10 
REMARK    7  A    between atoms: C13_15  and  O3_16 
REMARK    8  A    between atoms: C17_21  and  O4_22 
REMARK    9  A    between atoms: C24_29  and  O5_30 
REMARK   10  A    between atoms: O5_30  and  C25_31 
ROOT
HETATM    1  C8  UNL     1     -11.099   7.783  14.570  1.00  0.00     0.000 C 
HETATM    2  C9  UNL     1      -9.914   8.614  15.139  1.00  0.00     0.006 C 
HETATM    3  C10 UNL     1     -10.290  10.083  15.080  1.00  0.00     0.006 C 
HETATM    4  C11 UNL     1     -11.818  10.108  15.015  1.00  0.00     0.003 C 
HETATM    5  C12 UNL     1     -12.445  10.066  16.446  1.00  0.00     0.025 C 
HETATM    6  C13 UNL     1     -12.412  11.434  17.163  1.00  0.00     0.137 C 
HETATM    7  C14 UNL     1     -12.714  11.286  18.662  1.00  0.00     0.092 C 
HETATM    8 BR1  UNL     1     -11.044  11.328  19.712  1.00  0.00    -0.088 Br
HETATM    9  C15 UNL     1     -13.653  10.110  19.051  1.00  0.00     0.013 C 
HETATM   10  C16 UNL     1     -13.016   8.845  19.667  1.00  0.00     0.038 C 
HETATM   11  C17 UNL     1     -14.067   7.971  20.371  1.00  0.00     0.118 C 
HETATM   12  C18 UNL     1     -15.453   8.072  19.735  1.00  0.00     0.032 C 
HETATM   13  C19 UNL     1     -15.318   8.306  18.235  1.00  0.00     0.012 C 
HETATM   14  C20 UNL     1     -14.629   9.671  17.884  1.00  0.00    -0.035 C 
HETATM   15  C21 UNL     1     -15.768  10.732  17.820  1.00  0.00     0.016 C 
HETATM   16  C22 UNL     1     -13.937   9.642  16.443  1.00  0.00     0.003 C 
HETATM   17  C23 UNL     1     -14.115   8.355  15.637  1.00  0.00     0.039 C 
HETATM   18  C24 UNL     1     -13.637   8.530  14.194  1.00  0.00     0.141 C 
HETATM   19  C27 UNL     1     -12.125   8.880  14.079  1.00  0.00    -0.009 C 
HETATM   20  C28 UNL     1     -11.833   9.286  12.610  1.00  0.00     0.018 C 
ENDROOT
BRANCH   1  21
HETATM   21  C6  UNL     1     -10.523   6.681  13.605  1.00  0.00    -0.013 C 
HETATM   22  C7  UNL     1     -10.739   7.112  12.136  1.00  0.00     0.010 C 
BRANCH  21  23
HETATM   23  C5  UNL     1      -9.032   6.342  13.815  1.00  0.00     0.014 C 
BRANCH  23  24
HETATM   24  C4  UNL     1      -8.282   5.808  12.588  1.00  0.00     0.111 C 
BRANCH  24  25
HETATM   25  C3  UNL     1      -7.855   4.368  12.756  1.00  0.00     0.258 C 
HETATM   26  O2  UNL     1      -8.621   3.424  12.894  1.00  0.00    -0.265 OA
BRANCH  25  27
HETATM   27  O1  UNL     1      -6.495   4.284  12.765  1.00  0.00    -0.322 OA
BRANCH  27  28
HETATM   28  C2  UNL     1      -5.977   3.170  12.026  1.00  0.00     0.174 C 
HETATM   29  C1  UNL     1      -4.495   3.393  11.797  1.00  0.00     0.034 C 
ENDBRANCH  27  28
ENDBRANCH  25  27
ENDBRANCH  24  25
ENDBRANCH  23  24
ENDBRANCH  21  23
ENDBRANCH   1  21
BRANCH  18  30
HETATM   30  O5  UNL     1     -13.949   7.324  13.480  1.00  0.00    -0.316 OA
BRANCH  30  31
HETATM   31  C25 UNL     1     -15.059   7.341  12.690  1.00  0.00     0.255 C 
HETATM   32  C26 UNL     1     -16.043   6.322  13.181  1.00  0.00     0.126 C 
HETATM   33  O6  UNL     1     -15.243   8.069  11.725  1.00  0.00    -0.266 OA
ENDBRANCH  30  31
ENDBRANCH  18  30
BRANCH   6  34
HETATM   34  O3  UNL     1     -11.249  12.210  16.910  1.00  0.00    -0.394 OA
HETATM   35  H22 UNL     1     -10.547  11.881  17.501  1.00  0.00     0.210 HD
ENDBRANCH   6  34
BRANCH  11  36
HETATM   36  O4  UNL     1     -13.608   6.623  20.332  1.00  0.00    -0.396 OA
HETATM   37  H28 UNL     1     -14.223   6.086  20.859  1.00  0.00     0.210 HD
ENDBRANCH  11  36
TORSDOF 10
ENDMDL
MODEL 2
REMARK minimizedAffinity -5.39565802
REMARK CNNscore 0.581071436
REMARK CNNaffinity 6.63168097
REMARK  10 active torsions:
REMARK  status: ('A' for Active; 'I' for Inactive)
REMARK    1  A    between atoms: C2_2  and  O1_3 
REMARK    2  A    between atoms: O1_3  and  C3_4 
REMARK    3  A    between atoms: C3_4  and  C4_6 
REMARK    4  A    between atoms: C4_6  and  C5_7 
REMARK    5  A    between atoms: C5_7  and  C6_8 
REMARK    6  A    between atoms: C6_8  and  C8_10 
REMARK    7  A    between atoms: C13_15  and  O3_16 
REMARK    8  A    between atoms: C17_21  and  O4_22 
REMARK    9  A    between atoms: C24_29  and  O5_30 
REMARK   10  A    between atoms: O5_30  and  C25_31 
ROOT
HETATM    1  C8  UNL     1     -12.578  13.523  -2.867  1.00  0.00     0.000 C 
HETATM    2  C9  UNL     1     -12.425  14.941  -3.487  1.00  0.00     0.006 C 
HETATM    3  C10 UNL     1     -13.381  15.879  -2.772  1.00  0.00     0.006 C 
HETATM    4  C11 UNL     1     -13.678  15.209  -1.430  1.00  0.00     0.003 C 
HETATM    5  C12 UNL     1     -12.601  15.586  -0.360  1.00  0.00     0.025 C 
HETATM    6  C13 UNL     1     -12.816  16.990   0.247  1.00  0.00     0.137 C 
HETATM    7  C14 UNL     1     -11.574  17.458   1.023  1.00  0.00     0.092 C 
HETATM    8 BR1  UNL     1     -10.506  18.707  -0.068  1.00  0.00    -0.088 Br
HETATM    9  C15 UNL     1     -10.723  16.335   1.679  1.00  0.00     0.013 C 
HETATM   10  C16 UNL     1      -9.400  15.931   0.991  1.00  0.00     0.038 C 
HETATM   11  C17 UNL     1      -8.489  15.141   1.945  1.00  0.00     0.118 C 
HETATM   12  C18 UNL     1      -9.266  14.319   2.974  1.00  0.00     0.032 C 
HETATM   13  C19 UNL     1     -10.582  13.846   2.369  1.00  0.00     0.012 C 
HETATM   14  C20 UNL     1     -11.551  15.024   2.000  1.00  0.00    -0.035 C 
HETATM   15  C21 UNL     1     -12.389  15.317   3.281  1.00  0.00     0.016 C 
HETATM   16  C22 UNL     1     -12.584  14.617   0.850  1.00  0.00     0.003 C 
HETATM   17  C23 UNL     1     -12.510  13.169   0.362  1.00  0.00     0.039 C 
HETATM   18  C24 UNL     1     -13.696  12.825  -0.542  1.00  0.00     0.141 C 
HETATM   19  C27 UNL     1     -13.761  13.690  -1.834  1.00  0.00    -0.009 C 
HETATM   20  C28 UNL     1     -15.130  13.431  -2.519  1.00  0.00     0.018 C 
ENDROOT
BRANCH   1  21
HETATM   21  C6  UNL     1     -12.625  12.467  -4.034  1.00  0.00    -0.013 C 
HETATM   22  C7  UNL     1     -11.214  12.304  -4.644  1.00  0.00     0.010 C 
BRANCH  21  23
HETATM   23  C5  UNL     1     -13.166  11.077  -3.638  1.00  0.00     0.014 C 
BRANCH  23  24
HETATM   24  C4  UNL     1     -12.750   9.909  -4.542  1.00  0.00     0.111 C 
BRANCH  24  25
HETATM   25  C3  UNL     1     -13.692   9.721  -5.709  1.00  0.00     0.258 C 
HETATM   26  O2  UNL     1     -13.361   9.322  -6.817  1.00  0.00    -0.265 OA
BRANCH  25  27
HETATM   27  O1  UNL     1     -14.954  10.093  -5.353  1.00  0.00    -0.322 OA
BRANCH  27  28
HETATM   28  C2  UNL     1     -15.778   9.006  -4.913  1.00  0.00     0.174 C 
HETATM   29  C1  UNL     1     -16.587   8.508  -6.095  1.00  0.00     0.034 C 
ENDBRANCH  27  28
ENDBRANCH  25  27
ENDBRANCH  24  25
ENDBRANCH  23  24
ENDBRANCH  21  23
ENDBRANCH   1  21
BRANCH  18  30
HETATM   30  O5  UNL     1     -13.615  11.425  -0.855  1.00  0.00    -0.316 OA
BRANCH  30  31
HETATM   31  C25 UNL     1     -14.268  10.566  -0.024  1.00  0.00     0.255 C 
HETATM   32  C26 UNL     1     -13.569   9.239  -0.020  1.00  0.00     0.126 C 
HETATM   33  O6  UNL     1     -15.270  10.820   0.629  1.00  0.00    -0.266 OA
ENDBRANCH  30  31
ENDBRANCH  18  30
BRANCH   6  34
HETATM   34  O3  UNL     1     -13.292  17.967  -0.668  1.00  0.00    -0.394 OA
HETATM   35  H22 UNL     1     -12.522  18.297  -1.167  1.00  0.00     0.210 HD
ENDBRANCH   6  34
BRANCH  11  36
HETATM   36  O4  UNL     1      -7.670  14.285   1.153  1.00  0.00    -0.396 OA
HETATM   37  H28 UNL     1      -7.029  13.858   1.747  1.00  0.00     0.210 HD
ENDBRANCH  11  36
TORSDOF 10
ENDMDL
MODEL 3
REMARK minimizedAffinity -6.7823782
REMARK CNNscore 0.432323098
REMARK CNNaffinity 6.7134819
REMARK  10 active torsions:
REMARK  status: ('A' for Active; 'I' for Inactive)
REMARK    1  A    between atoms: C2_2  and  O1_3 
REMARK    2  A    between atoms: O1_3  and  C3_4 
REMARK    3  A    between atoms: C3_4  and  C4_6 
REMARK    4  A    between atoms: C4_6  and  C5_7 
REMARK    5  A    between atoms: C5_7  and  C6_8 
REMARK    6  A    between atoms: C6_8  and  C8_10 
REMARK    7  A    between atoms: C13_15  and  O3_16 
REMARK    8  A    between atoms: C17_21  and  O4_22 
REMARK    9  A    between atoms: C24_29  and  O5_30 
REMARK   10  A    between atoms: O5_30  and  C25_31 
ROOT
HETATM    1  C8  UNL     1      -1.604   7.279  12.976  1.00  0.00     0.000 C 
HETATM    2  C9  UNL     1      -0.877   8.291  13.906  1.00  0.00     0.006 C 
HETATM    3  C10 UNL     1       0.287   7.578  14.569  1.00  0.00     0.006 C 
HETATM    4  C11 UNL     1       0.594   6.380  13.670  1.00  0.00     0.003 C 
HETATM    5  C12 UNL     1       1.571   6.776  12.515  1.00  0.00     0.025 C 
HETATM    6  C13 UNL     1       3.044   6.863  12.972  1.00  0.00     0.137 C 
HETATM    7  C14 UNL     1       3.913   7.574  11.921  1.00  0.00     0.092 C 
HETATM    8 BR1  UNL     1       4.227   9.451  12.439  1.00  0.00    -0.088 Br
HETATM    9  C15 UNL     1       3.455   7.414  10.444  1.00  0.00     0.013 C 
HETATM   10  C16 UNL     1       2.731   8.603   9.775  1.00  0.00     0.038 C 
HETATM   11  C17 UNL     1       2.721   8.466   8.244  1.00  0.00     0.118 C 
HETATM   12  C18 UNL     1       2.706   7.012   7.772  1.00  0.00     0.032 C 
HETATM   13  C19 UNL     1       1.939   6.153   8.770  1.00  0.00     0.012 C 
HETATM   14  C20 UNL     1       2.616   6.096  10.184  1.00  0.00    -0.035 C 
HETATM   15  C21 UNL     1       3.630   4.914  10.136  1.00  0.00     0.016 C 
HETATM   16  C22 UNL     1       1.566   5.763  11.342  1.00  0.00     0.003 C 
HETATM   17  C23 UNL     1       0.130   5.490  10.890  1.00  0.00     0.039 C 
HETATM   18  C24 UNL     1      -0.720   4.939  12.036  1.00  0.00     0.141 C 
HETATM   19  C27 UNL     1      -0.848   5.918  13.240  1.00  0.00    -0.009 C 
HETATM   20  C28 UNL     1      -1.498   5.148  14.420  1.00  0.00     0.018 C 
ENDROOT
BRANCH   1  21
HETATM   21  C6  UNL     1      -3.156   7.431  13.183  1.00  0.00    -0.013 C 
HETATM   22  C7  UNL     1      -3.589   6.663  14.453  1.00  0.00     0.010 C 
BRANCH  21  23
HETATM   23  C5  UNL     1      -3.665   8.885  13.277  1.00  0.00     0.014 C 
BRANCH  23  24
HETATM   24  C4  UNL     1      -4.455   9.244  14.543  1.00  0.00     0.111 C 
BRANCH  24  25
HETATM   25  C3  UNL     1      -3.736  10.260  15.399  1.00  0.00     0.258 C 
HETATM   26  O2  UNL     1      -3.362  11.360  15.013  1.00  0.00    -0.265 OA
BRANCH  25  27
HETATM   27  O1  UNL     1      -3.539   9.758  16.651  1.00  0.00    -0.322 OA
BRANCH  27  28
HETATM   28  C2  UNL     1      -2.932  10.686  17.560  1.00  0.00     0.174 C 
HETATM   29  C1  UNL     1      -3.493  10.436  18.946  1.00  0.00     0.034 C 
ENDBRANCH  27  28
ENDBRANCH  25  27
ENDBRANCH  24  25
ENDBRANCH  23  24
ENDBRANCH  21  23
ENDBRANCH   1  21
BRANCH  18  30
HETATM   30  O5  UNL     1      -2.008   4.599  11.501  1.00  0.00    -0.316 OA
BRANCH  30  31
HETATM   31  C25 UNL     1      -2.211   3.299  11.150  1.00  0.00     0.255 C 
HETATM   32  C26 UNL     1      -3.231   2.683  12.061  1.00  0.00     0.126 C 
HETATM   33  O6  UNL     1      -1.657   2.707  10.235  1.00  0.00    -0.266 OA
ENDBRANCH  30  31
ENDBRANCH  18  30
BRANCH   6  34
HETATM   34  O3  UNL     1       3.232   7.381  14.281  1.00  0.00    -0.394 OA
HETATM   35  H22 UNL     1       3.192   8.353  14.217  1.00  0.00     0.210 HD
ENDBRANCH   6  34
BRANCH  11  36
HETATM   36  O4  UNL     1       1.571   9.151   7.754  1.00  0.00    -0.396 OA
HETATM   37  H28 UNL     1       1.616   9.147   6.783  1.00  0.00     0.210 HD
ENDBRANCH  11  36
TORSDOF 10
ENDMDL
MODEL 4
REMARK minimizedAffinity -5.68574524
REMARK CNNscore 0.428034574
REMARK CNNaffinity 6.29382181
REMARK  10 active torsions:
REMARK  status: ('A' for Active; 'I' for Inactive)
REMARK    1  A    between atoms: C2_2  and  O1_3 
REMARK    2  A    between atoms: O1_3  and  C3_4 
REMARK    3  A    between atoms: C3_4  and  C4_6 
REMARK    4  A    between atoms: C4_6  and  C5_7 
REMARK    5  A    between atoms: C5_7  and  C6_8 
REMARK    6  A    between atoms: C6_8  and  C8_10 
REMARK    7  A    between atoms: C13_15  and  O3_16 
REMARK    8  A    between atoms: C17_21  and  O4_22 
REMARK    9  A    between atoms: C24_29  and  O5_30 
REMARK   10  A    between atoms: O5_30  and  C25_31 
ROOT
HETATM    1  C8  UNL     1     -14.626   8.041  19.104  1.00  0.00     0.000 C 
HETATM    2  C9  UNL     1     -15.594   7.295  18.142  1.00  0.00     0.006 C 
HETATM    3  C10 UNL     1     -16.091   8.284  17.104  1.00  0.00     0.006 C 
HETATM    4  C11 UNL     1     -15.056   9.410  17.089  1.00  0.00     0.003 C 
HETATM    5  C12 UNL     1     -13.874   9.077  16.120  1.00  0.00     0.025 C 
HETATM    6  C13 UNL     1     -14.221   9.321  14.635  1.00  0.00     0.137 C 
HETATM    7  C14 UNL     1     -13.183   8.673  13.705  1.00  0.00     0.092 C 
HETATM    8 BR1  UNL     1     -13.859   6.958  13.001  1.00  0.00    -0.088 Br
HETATM    9  C15 UNL     1     -11.737   8.577  14.268  1.00  0.00     0.013 C 
HETATM   10  C16 UNL     1     -11.248   7.204  14.783  1.00  0.00     0.038 C 
HETATM   11  C17 UNL     1      -9.716   7.164  14.906  1.00  0.00     0.118 C 
HETATM   12  C18 UNL     1      -9.105   8.527  15.232  1.00  0.00     0.032 C 
HETATM   13  C19 UNL     1     -10.068   9.332  16.094  1.00  0.00     0.012 C 
HETATM   14  C20 UNL     1     -11.413   9.675  15.362  1.00  0.00    -0.035 C 
HETATM   15  C21 UNL     1     -11.168  11.014  14.603  1.00  0.00     0.016 C 
HETATM   16  C22 UNL     1     -12.610   9.933  16.390  1.00  0.00     0.003 C 
HETATM   17  C23 UNL     1     -12.245   9.878  17.874  1.00  0.00     0.039 C 
HETATM   18  C24 UNL     1     -13.393  10.385  18.749  1.00  0.00     0.141 C 
HETATM   19  C27 UNL     1     -14.694   9.541  18.615  1.00  0.00    -0.009 C 
HETATM   20  C28 UNL     1     -15.839  10.302  19.335  1.00  0.00     0.018 C 
ENDROOT
BRANCH   1  21
HETATM   21  C6  UNL     1     -14.967   7.623  20.583  1.00  0.00    -0.013 C 
HETATM   22  C7  UNL     1     -16.187   6.674  20.587  1.00  0.00     0.010 C 
BRANCH  21  23
HETATM   23  C5  UNL     1     -13.811   6.959  21.359  1.00  0.00     0.014 C 
BRANCH  23  24
HETATM   24  C4  UNL     1     -14.033   5.502  21.786  1.00  0.00     0.111 C 
BRANCH  24  25
HETATM   25  C3  UNL     1     -14.177   5.357  23.283  1.00  0.00     0.258 C 
HETATM   26  O2  UNL     1     -15.109   5.799  23.942  1.00  0.00    -0.265 OA
BRANCH  25  27
HETATM   27  O1  UNL     1     -13.101   4.694  23.792  1.00  0.00    -0.322 OA
BRANCH  27  28
HETATM   28  C2  UNL     1     -13.391   3.359  24.222  1.00  0.00     0.174 C 
HETATM   29  C1  UNL     1     -12.096   2.571  24.251  1.00  0.00     0.034 C 
ENDBRANCH  27  28
ENDBRANCH  25  27
ENDBRANCH  24  25
ENDBRANCH  23  24
ENDBRANCH  21  23
ENDBRANCH   1  21
BRANCH  18  30
HETATM   30  O5  UNL     1     -12.927  10.413  20.108  1.00  0.00    -0.316 OA
BRANCH  30  31
HETATM   31  C25 UNL     1     -11.609  10.146  20.317  1.00  0.00     0.255 C 
HETATM   32  C26 UNL     1     -10.909  11.387  20.783  1.00  0.00     0.126 C 
HETATM   33  O6  UNL     1     -11.061   9.064  20.157  1.00  0.00    -0.266 OA
ENDBRANCH  30  31
ENDBRANCH  18  30
BRANCH   6  34
HETATM   34  O3  UNL     1     -15.558   8.998  14.275  1.00  0.00    -0.394 OA
HETATM   35  H22 UNL     1     -15.594   8.035  14.128  1.00  0.00     0.210 HD
ENDBRANCH   6  34
BRANCH  11  36
HETATM   36  O4  UNL     1      -9.388   6.224  15.927  1.00  0.00    -0.396 OA
HETATM   37  H28 UNL     1      -8.420   6.127  15.938  1.00  0.00     0.210 HD
ENDBRANCH  11  36
TORSDOF 10
ENDMDL
MODEL 5
REMARK minimizedAffinity -5.39367676
REMARK CNNscore 0.424556881
REMARK CNNaffinity 6.05515623
REMARK  10 active torsions:
REMARK  status: ('A' for Active; 'I' for Inactive)
REMARK    1  A    between atoms: C2_2  and  O1_3 
REMARK    2  A    between atoms: O1_3  and  C3_4 
REMARK    3  A    between atoms: C3_4  and  C4_6 
REMARK    4  A    between atoms: C4_6  and  C5_7 
REMARK    5  A    between atoms: C5_7  and  C6_8 
REMARK    6  A    between atoms: C6_8  and  C8_10 
REMARK    7  A    between atoms: C13_15  and  O3_16 
REMARK    8  A    between atoms: C17_21  and  O4_22 
REMARK    9  A    between atoms: C24_29  and  O5_30 
REMARK   10  A    between atoms: O5_30  and  C25_31 
ROOT
HETATM    1  C8  UNL     1     -14.498   5.336  23.709  1.00  0.00     0.000 C 
HETATM    2  C9  UNL     1     -15.673   5.947  22.894  1.00  0.00     0.006 C 
HETATM    3  C10 UNL     1     -16.459   4.811  22.266  1.00  0.00     0.006 C 
HETATM    4  C11 UNL     1     -16.129   3.576  23.106  1.00  0.00     0.003 C 
HETATM    5  C12 UNL     1     -17.075   3.467  24.346  1.00  0.00     0.025 C 
HETATM    6  C13 UNL     1     -18.471   2.905  23.994  1.00  0.00     0.137 C 
HETATM    7  C14 UNL     1     -19.468   3.129  25.142  1.00  0.00     0.092 C 
HETATM    8 BR1  UNL     1     -20.619   4.686  24.766  1.00  0.00    -0.088 Br
HETATM    9  C15 UNL     1     -18.860   3.147  26.573  1.00  0.00     0.013 C 
HETATM   10  C16 UNL     1     -18.676   4.515  27.266  1.00  0.00     0.038 C 
HETATM   11  C17 UNL     1     -18.473   4.354  28.782  1.00  0.00     0.118 C 
HETATM   12  C18 UNL     1     -17.780   3.045  29.158  1.00  0.00     0.032 C 
HETATM   13  C19 UNL     1     -16.805   2.642  28.060  1.00  0.00     0.012 C 
HETATM   14  C20 UNL     1     -17.509   2.330  26.693  1.00  0.00    -0.035 C 
HETATM   15  C21 UNL     1     -17.892   0.821  26.733  1.00  0.00     0.016 C 
HETATM   16  C22 UNL     1     -16.524   2.528  25.449  1.00  0.00     0.003 C 
HETATM   17  C23 UNL     1     -15.081   2.907  25.788  1.00  0.00     0.039 C 
HETATM   18  C24 UNL     1     -14.179   2.821  24.555  1.00  0.00     0.141 C 
HETATM   19  C27 UNL     1     -14.599   3.788  23.410  1.00  0.00    -0.009 C 
HETATM   20  C28 UNL     1     -13.782   3.419  22.143  1.00  0.00     0.018 C 
ENDROOT
BRANCH   1  21
HETATM   21  C6  UNL     1     -13.194   6.165  23.410  1.00  0.00    -0.013 C 
HETATM   22  C7  UNL     1     -13.409   7.035  22.150  1.00  0.00     0.010 C 
BRANCH  21  23
HETATM   23  C5  UNL     1     -12.711   7.066  24.566  1.00  0.00     0.014 C 
BRANCH  23  24
HETATM   24  C4  UNL     1     -11.775   8.219  24.178  1.00  0.00     0.111 C 
BRANCH  24  25
HETATM   25  C3  UNL     1     -11.951   9.426  25.069  1.00  0.00     0.258 C 
HETATM   26  O2  UNL     1     -12.897   9.606  25.825  1.00  0.00    -0.265 OA
BRANCH  25  27
HETATM   27  O1  UNL     1     -10.920  10.297  24.882  1.00  0.00    -0.322 OA
BRANCH  27  28
HETATM   28  C2  UNL     1     -11.259  11.434  24.078  1.00  0.00     0.174 C 
HETATM   29  C1  UNL     1     -10.024  11.864  23.309  1.00  0.00     0.034 C 
ENDBRANCH  27  28
ENDBRANCH  25  27
ENDBRANCH  24  25
ENDBRANCH  23  24
ENDBRANCH  21  23
ENDBRANCH   1  21
BRANCH  18  30
HETATM   30  O5  UNL     1     -12.830   3.072  24.982  1.00  0.00    -0.316 OA
BRANCH  30  31
HETATM   31  C25 UNL     1     -12.202   2.077  25.668  1.00  0.00     0.255 C 
HETATM   32  C26 UNL     1     -11.577   1.115  24.702  1.00  0.00     0.126 C 
HETATM   33  O6  UNL     1     -12.144   1.969  26.884  1.00  0.00    -0.266 OA
ENDBRANCH  30  31
ENDBRANCH  18  30
BRANCH   6  34
HETATM   34  O3  UNL     1     -18.981   3.323  22.735  1.00  0.00    -0.394 OA
HETATM   35  H22 UNL     1     -19.366   4.210  22.858  1.00  0.00     0.210 HD
ENDBRANCH   6  34
BRANCH  11  36
HETATM   36  O4  UNL     1     -17.702   5.464  29.237  1.00  0.00    -0.396 OA
HETATM   37  H28 UNL     1     -17.656   5.413  30.207  1.00  0.00     0.210 HD
ENDBRANCH  11  36
TORSDOF 10
ENDMDL
MODEL 6
REMARK minimizedAffinity -7.29974461
REMARK CNNscore 0.409273386
REMARK CNNaffinity 6.37043524
REMARK  10 active torsions:
REMARK  status: ('A' for Active; 'I' for Inactive)
REMARK    1  A    between atoms: C2_2  and  O1_3 
REMARK    2  A    between atoms: O1_3  and  C3_4 
REMARK    3  A    between atoms: C3_4  and  C4_6 
REMARK    4  A    between atoms: C4_6  and  C5_7 
REMARK    5  A    between atoms: C5_7  and  C6_8 
REMARK    6  A    between atoms: C6_8  and  C8_10 
REMARK    7  A    between atoms: C13_15  and  O3_16 
REMARK    8  A    between atoms: C17_21  and  O4_22 
REMARK    9  A    between atoms: C24_29  and  O5_30 
REMARK   10  A    between atoms: O5_30  and  C25_31 
ROOT
HETATM    1  C8  UNL     1       1.096   8.598  11.993  1.00  0.00     0.000 C 
HETATM    2  C9  UNL     1       0.931   8.827  13.523  1.00  0.00     0.006 C 
HETATM    3  C10 UNL     1       1.702   7.742  14.253  1.00  0.00     0.006 C 
HETATM    4  C11 UNL     1       2.732   7.230  13.247  1.00  0.00     0.003 C 
HETATM    5  C12 UNL     1       4.034   8.095  13.281  1.00  0.00     0.025 C 
HETATM    6  C13 UNL     1       4.961   7.749  14.468  1.00  0.00     0.137 C 
HETATM    7  C14 UNL     1       6.039   8.826  14.666  1.00  0.00     0.092 C 
HETATM    8 BR1  UNL     1       5.541  10.043  16.137  1.00  0.00    -0.088 Br
HETATM    9  C15 UNL     1       6.495   9.573  13.381  1.00  0.00     0.013 C 
HETATM   10  C16 UNL     1       5.961  11.003  13.145  1.00  0.00     0.038 C 
HETATM   11  C17 UNL     1       6.801  11.750  12.096  1.00  0.00     0.118 C 
HETATM   12  C18 UNL     1       7.410  10.823  11.044  1.00  0.00     0.032 C 
HETATM   13  C19 UNL     1       6.479   9.643  10.795  1.00  0.00     0.012 C 
HETATM   14  C20 UNL     1       6.290   8.729  12.057  1.00  0.00    -0.035 C 
HETATM   15  C21 UNL     1       7.437   7.675  12.008  1.00  0.00     0.016 C 
HETATM   16  C22 UNL     1       4.912   7.921  12.014  1.00  0.00     0.003 C 
HETATM   17  C23 UNL     1       4.061   8.109  10.757  1.00  0.00     0.039 C 
HETATM   18  C24 UNL     1       2.906   7.107  10.711  1.00  0.00     0.141 C 
HETATM   19  C27 UNL     1       1.914   7.249  11.902  1.00  0.00    -0.009 C 
HETATM   20  C28 UNL     1       0.957   6.027  11.883  1.00  0.00     0.018 C 
ENDROOT
BRANCH   1  21
HETATM   21  C6  UNL     1      -0.307   8.777  11.305  1.00  0.00    -0.013 C 
HETATM   22  C7  UNL     1      -0.196   8.435   9.801  1.00  0.00     0.010 C 
BRANCH  21  23
HETATM   23  C5  UNL     1      -1.452   7.948  11.925  1.00  0.00     0.014 C 
BRANCH  23  24
HETATM   24  C4  UNL     1      -2.589   8.748  12.575  1.00  0.00     0.111 C 
BRANCH  24  25
HETATM   25  C3  UNL     1      -3.745   7.869  12.992  1.00  0.00     0.258 C 
HETATM   26  O2  UNL     1      -3.664   6.668  13.218  1.00  0.00    -0.265 OA
BRANCH  25  27
HETATM   27  O1  UNL     1      -4.892   8.602  13.045  1.00  0.00    -0.322 OA
BRANCH  27  28
HETATM   28  C2  UNL     1      -5.699   8.337  14.199  1.00  0.00     0.174 C 
HETATM   29  C1  UNL     1      -5.136   9.122  15.369  1.00  0.00     0.034 C 
ENDBRANCH  27  28
ENDBRANCH  25  27
ENDBRANCH  24  25
ENDBRANCH  23  24
ENDBRANCH  21  23
ENDBRANCH   1  21
BRANCH  18  30
HETATM   30  O5  UNL     1       2.235   7.269   9.452  1.00  0.00    -0.316 OA
BRANCH  30  31
HETATM   31  C25 UNL     1       2.651   6.480   8.422  1.00  0.00     0.255 C 
HETATM   32  C26 UNL     1       2.063   6.979   7.136  1.00  0.00     0.126 C 
HETATM   33  O6  UNL     1       3.391   5.512   8.512  1.00  0.00    -0.266 OA
ENDBRANCH  30  31
ENDBRANCH  18  30
BRANCH   6  34
HETATM   34  O3  UNL     1       4.285   7.419  15.673  1.00  0.00    -0.394 OA
HETATM   35  H22 UNL     1       4.039   8.258  16.106  1.00  0.00     0.210 HD
ENDBRANCH   6  34
BRANCH  11  36
HETATM   36  O4  UNL     1       5.957  12.713  11.469  1.00  0.00    -0.396 OA
HETATM   37  H28 UNL     1       6.510  13.249  10.876  1.00  0.00     0.210 HD
ENDBRANCH  11  36
TORSDOF 10
ENDMDL
MODEL 7
REMARK minimizedAffinity -6.73299026
REMARK CNNscore 0.386441767
REMARK CNNaffinity 5.89216089
REMARK  10 active torsions:
REMARK  status: ('A' for Active; 'I' for Inactive)
REMARK    1  A    between atoms: C2_2  and  O1_3 
REMARK    2  A    between atoms: O1_3  and  C3_4 
REMARK    3  A    between atoms: C3_4  and  C4_6 
REMARK    4  A    between atoms: C4_6  and  C5_7 
REMARK    5  A    between atoms: C5_7  and  C6_8 
REMARK    6  A    between atoms: C6_8  and  C8_10 
REMARK    7  A    between atoms: C13_15  and  O3_16 
REMARK    8  A    between atoms: C17_21  and  O4_22 
REMARK    9  A    between atoms: C24_29  and  O5_30 
REMARK   10  A    between atoms: O5_30  and  C25_31 
ROOT
HETATM    1  C8  UNL     1     -16.072   1.612  14.205  1.00  0.00     0.000 C 
HETATM    2  C9  UNL     1     -15.021   1.226  15.285  1.00  0.00     0.006 C 
HETATM    3  C10 UNL     1     -15.583   0.081  16.108  1.00  0.00     0.006 C 
HETATM    4  C11 UNL     1     -16.655  -0.563  15.229  1.00  0.00     0.003 C 
HETATM    5  C12 UNL     1     -16.034  -1.633  14.274  1.00  0.00     0.025 C 
HETATM    6  C13 UNL     1     -15.746  -2.978  14.978  1.00  0.00     0.137 C 
HETATM    7  C14 UNL     1     -14.839  -3.874  14.118  1.00  0.00     0.092 C 
HETATM    8 BR1  UNL     1     -12.973  -3.783  14.754  1.00  0.00    -0.088 Br
HETATM    9  C15 UNL     1     -14.972  -3.695  12.580  1.00  0.00     0.013 C 
HETATM   10  C16 UNL     1     -13.871  -2.900  11.844  1.00  0.00     0.038 C 
HETATM   11  C17 UNL     1     -13.906  -3.161  10.329  1.00  0.00     0.118 C 
HETATM   12  C18 UNL     1     -15.310  -3.465   9.806  1.00  0.00     0.032 C 
HETATM   13  C19 UNL     1     -16.344  -2.701  10.625  1.00  0.00     0.012 C 
HETATM   14  C20 UNL     1     -16.386  -3.141  12.130  1.00  0.00    -0.035 C 
HETATM   15  C21 UNL     1     -17.387  -4.332  12.210  1.00  0.00     0.016 C 
HETATM   16  C22 UNL     1     -16.957  -1.988  13.079  1.00  0.00     0.003 C 
HETATM   17  C23 UNL     1     -17.422  -0.710  12.378  1.00  0.00     0.039 C 
HETATM   18  C24 UNL     1     -18.176   0.210  13.341  1.00  0.00     0.141 C 
HETATM   19  C27 UNL     1     -17.311   0.693  14.542  1.00  0.00    -0.009 C 
HETATM   20  C28 UNL     1     -18.250   1.388  15.564  1.00  0.00     0.018 C 
ENDROOT
BRANCH   1  21
HETATM   21  C6  UNL     1     -16.181   3.182  14.151  1.00  0.00    -0.013 C 
HETATM   22  C7  UNL     1     -17.444   3.642  14.915  1.00  0.00     0.010 C 
BRANCH  21  23
HETATM   23  C5  UNL     1     -14.956   3.943  14.700  1.00  0.00     0.014 C 
BRANCH  23  24
HETATM   24  C4  UNL     1     -15.057   5.474  14.699  1.00  0.00     0.111 C 
BRANCH  24  25
HETATM   25  C3  UNL     1     -13.859   6.129  14.052  1.00  0.00     0.258 C 
HETATM   26  O2  UNL     1     -12.730   6.145  14.526  1.00  0.00    -0.265 OA
BRANCH  25  27
HETATM   27  O1  UNL     1     -14.228   6.724  12.883  1.00  0.00    -0.322 OA
BRANCH  27  28
HETATM   28  C2  UNL     1     -15.081   7.863  13.056  1.00  0.00     0.174 C 
HETATM   29  C1  UNL     1     -15.950   8.003  11.821  1.00  0.00     0.034 C 
ENDBRANCH  27  28
ENDBRANCH  25  27
ENDBRANCH  24  25
ENDBRANCH  23  24
ENDBRANCH  21  23
ENDBRANCH   1  21
BRANCH  18  30
HETATM   30  O5  UNL     1     -18.679   1.320  12.581  1.00  0.00    -0.316 OA
BRANCH  30  31
HETATM   31  C25 UNL     1     -19.334   1.031  11.423  1.00  0.00     0.255 C 
HETATM   32  C26 UNL     1     -20.249   2.164  11.065  1.00  0.00     0.126 C 
HETATM   33  O6  UNL     1     -19.207   0.012  10.760  1.00  0.00    -0.266 OA
ENDBRANCH  30  31
ENDBRANCH  18  30
BRANCH   6  34
HETATM   34  O3  UNL     1     -15.291  -2.862  16.319  1.00  0.00    -0.394 OA
HETATM   35  H22 UNL     1     -14.336  -2.671  16.286  1.00  0.00     0.210 HD
ENDBRANCH   6  34
BRANCH  11  36
HETATM   36  O4  UNL     1     -13.382  -2.007   9.677  1.00  0.00    -0.396 OA
HETATM   37  H28 UNL     1     -13.315  -2.208   8.728  1.00  0.00     0.210 HD
ENDBRANCH  11  36
TORSDOF 10
ENDMDL
MODEL 8
REMARK minimizedAffinity -7.59866524
REMARK CNNscore 0.37559697
REMARK CNNaffinity 6.60381746
REMARK  10 active torsions:
REMARK  status: ('A' for Active; 'I' for Inactive)
REMARK    1  A    between atoms: C2_2  and  O1_3 
REMARK    2  A    between atoms: O1_3  and  C3_4 
REMARK    3  A    between atoms: C3_4  and  C4_6 
REMARK    4  A    between atoms: C4_6  and  C5_7 
REMARK    5  A    between atoms: C5_7  and  C6_8 
REMARK    6  A    between atoms: C6_8  and  C8_10 
REMARK    7  A    between atoms: C13_15  and  O3_16 
REMARK    8  A    between atoms: C17_21  and  O4_22 
REMARK    9  A    between atoms: C24_29  and  O5_30 
REMARK   10  A    between atoms: O5_30  and  C25_31 
ROOT
HETATM    1  C8  UNL     1      -0.937   7.496  13.180  1.00  0.00     0.000 C 
HETATM    2  C9  UNL     1      -0.075   8.498  13.999  1.00  0.00     0.006 C 
HETATM    3  C10 UNL     1       1.137   7.759  14.534  1.00  0.00     0.006 C 
HETATM    4  C11 UNL     1       1.299   6.537  13.628  1.00  0.00     0.003 C 
HETATM    5  C12 UNL     1       2.144   6.883  12.359  1.00  0.00     0.025 C 
HETATM    6  C13 UNL     1       3.663   6.930  12.637  1.00  0.00     0.137 C 
HETATM    7  C14 UNL     1       4.422   7.595  11.478  1.00  0.00     0.092 C 
HETATM    8 BR1  UNL     1       4.853   9.470  11.919  1.00  0.00    -0.088 Br
HETATM    9  C15 UNL     1       3.789   7.427  10.069  1.00  0.00     0.013 C 
HETATM   10  C16 UNL     1       3.027   8.628   9.467  1.00  0.00     0.038 C 
HETATM   11  C17 UNL     1       2.832   8.468   7.950  1.00  0.00     0.118 C 
HETATM   12  C18 UNL     1       2.717   7.007   7.512  1.00  0.00     0.032 C 
HETATM   13  C19 UNL     1       2.048   6.190   8.610  1.00  0.00     0.012 C 
HETATM   14  C20 UNL     1       2.886   6.133   9.935  1.00  0.00    -0.035 C 
HETATM   15  C21 UNL     1       3.850   4.918   9.790  1.00  0.00     0.016 C 
HETATM   16  C22 UNL     1       1.970   5.852  11.215  1.00  0.00     0.003 C 
HETATM   17  C23 UNL     1       0.484   5.619  10.940  1.00  0.00     0.039 C 
HETATM   18  C24 UNL     1      -0.242   5.114  12.189  1.00  0.00     0.141 C 
HETATM   19  C27 UNL     1      -0.197   6.115  13.380  1.00  0.00    -0.009 C 
HETATM   20  C28 UNL     1      -0.726   5.386  14.643  1.00  0.00     0.018 C 
ENDROOT
BRANCH   1  21
HETATM   21  C6  UNL     1      -2.449   7.701  13.566  1.00  0.00    -0.013 C 
HETATM   22  C7  UNL     1      -3.048   8.852  12.724  1.00  0.00     0.010 C 
BRANCH  21  23
HETATM   23  C5  UNL     1      -3.340   6.451  13.413  1.00  0.00     0.014 C 
BRANCH  23  24
HETATM   24  C4  UNL     1      -4.822   6.710  13.112  1.00  0.00     0.111 C 
BRANCH  24  25
HETATM   25  C3  UNL     1      -5.735   6.100  14.150  1.00  0.00     0.258 C 
HETATM   26  O2  UNL     1      -5.492   6.045  15.348  1.00  0.00    -0.265 OA
BRANCH  25  27
HETATM   27  O1  UNL     1      -6.848   5.592  13.550  1.00  0.00    -0.322 OA
BRANCH  27  28
HETATM   28  C2  UNL     1      -7.076   4.205  13.829  1.00  0.00     0.174 C 
HETATM   29  C1  UNL     1      -6.547   3.388  12.666  1.00  0.00     0.034 C 
ENDBRANCH  27  28
ENDBRANCH  25  27
ENDBRANCH  24  25
ENDBRANCH  23  24
ENDBRANCH  21  23
ENDBRANCH   1  21
BRANCH  18  30
HETATM   30  O5  UNL     1      -1.594   4.807  11.815  1.00  0.00    -0.316 OA
BRANCH  30  31
HETATM   31  C25 UNL     1      -1.802   3.643  11.141  1.00  0.00     0.255 C 
HETATM   32  C26 UNL     1      -3.214   3.596  10.638  1.00  0.00     0.126 C 
HETATM   33  O6  UNL     1      -0.976   2.760  10.960  1.00  0.00    -0.266 OA
ENDBRANCH  30  31
ENDBRANCH  18  30
BRANCH   6  34
HETATM   34  O3  UNL     1       4.020   7.462  13.905  1.00  0.00    -0.394 OA
HETATM   35  H22 UNL     1       4.002   8.434  13.827  1.00  0.00     0.210 HD
ENDBRANCH   6  34
BRANCH  11  36
HETATM   36  O4  UNL     1       1.653   9.181   7.586  1.00  0.00    -0.396 OA
HETATM   37  H28 UNL     1       1.583   9.160   6.617  1.00  0.00     0.210 HD
ENDBRANCH  11  36
TORSDOF 10
ENDMDL
MODEL 9
REMARK minimizedAffinity -5.66362858
REMARK CNNscore 0.369886577
REMARK CNNaffinity 6.07196856
REMARK  10 active torsions:
REMARK  status: ('A' for Active; 'I' for Inactive)
REMARK    1  A    between atoms: C2_2  and  O1_3 
REMARK    2  A    between atoms: O1_3  and  C3_4 
REMARK    3  A    between atoms: C3_4  and  C4_6 
REMARK    4  A    between atoms: C4_6  and  C5_7 
REMARK    5  A    between atoms: C5_7  and  C6_8 
REMARK    6  A    between atoms: C6_8  and  C8_10 
REMARK    7  A    between atoms: C13_15  and  O3_16 
REMARK    8  A    between atoms: C17_21  and  O4_22 
REMARK    9  A    between atoms: C24_29  and  O5_30 
REMARK   10  A    between atoms: O5_30  and  C25_31 
ROOT
HETATM    1  C8  UNL     1     -14.294   8.405  19.614  1.00  0.00     0.000 C 
HETATM    2  C9  UNL     1     -15.515   8.630  18.678  1.00  0.00     0.006 C 
HETATM    3  C10 UNL     1     -15.531  10.088  18.258  1.00  0.00     0.006 C 
HETATM    4  C11 UNL     1     -14.099  10.584  18.460  1.00  0.00     0.003 C 
HETATM    5  C12 UNL     1     -13.218  10.292  17.201  1.00  0.00     0.025 C 
HETATM    6  C13 UNL     1     -13.449  11.300  16.053  1.00  0.00     0.137 C 
HETATM    7  C14 UNL     1     -12.838  10.796  14.736  1.00  0.00     0.092 C 
HETATM    8 BR1  UNL     1     -14.233  10.016  13.580  1.00  0.00    -0.088 Br
HETATM    9  C15 UNL     1     -11.581   9.891  14.875  1.00  0.00     0.013 C 
HETATM   10  C16 UNL     1     -11.757   8.369  14.680  1.00  0.00     0.038 C 
HETATM   11  C17 UNL     1     -10.408   7.675  14.431  1.00  0.00     0.118 C 
HETATM   12  C18 UNL     1      -9.238   8.372  15.124  1.00  0.00     0.032 C 
HETATM   13  C19 UNL     1      -9.712   9.004  16.428  1.00  0.00     0.012 C 
HETATM   14  C20 UNL     1     -10.770  10.142  16.212  1.00  0.00    -0.035 C 
HETATM   15  C21 UNL     1      -9.962  11.459  16.014  1.00  0.00     0.016 C 
HETATM   16  C22 UNL     1     -11.697  10.353  17.498  1.00  0.00     0.003 C 
HETATM   17  C23 UNL     1     -11.365   9.489  18.715  1.00  0.00     0.039 C 
HETATM   18  C24 UNL     1     -12.139   9.949  19.953  1.00  0.00     0.141 C 
HETATM   19  C27 UNL     1     -13.684   9.851  19.789  1.00  0.00    -0.009 C 
HETATM   20  C28 UNL     1     -14.343  10.583  20.989  1.00  0.00     0.018 C 
ENDROOT
BRANCH   1  21
HETATM   21  C6  UNL     1     -14.755   7.533  20.841  1.00  0.00    -0.013 C 
HETATM   22  C7  UNL     1     -16.129   6.893  20.536  1.00  0.00     0.010 C 
BRANCH  21  23
HETATM   23  C5  UNL     1     -13.768   6.426  21.266  1.00  0.00     0.014 C 
BRANCH  23  24
HETATM   24  C4  UNL     1     -13.862   5.962  22.725  1.00  0.00     0.111 C 
BRANCH  24  25
HETATM   25  C3  UNL     1     -13.914   4.456  22.847  1.00  0.00     0.258 C 
HETATM   26  O2  UNL     1     -14.601   3.722  22.150  1.00  0.00    -0.265 OA
BRANCH  25  27
HETATM   27  O1  UNL     1     -13.111   4.044  23.868  1.00  0.00    -0.322 OA
BRANCH  27  28
HETATM   28  C2  UNL     1     -13.047   2.620  24.018  1.00  0.00     0.174 C 
HETATM   29  C1  UNL     1     -11.642   2.244  24.447  1.00  0.00     0.034 C 
ENDBRANCH  27  28
ENDBRANCH  25  27
ENDBRANCH  24  25
ENDBRANCH  23  24
ENDBRANCH  21  23
ENDBRANCH   1  21
BRANCH  18  30
HETATM   30  O5  UNL     1     -11.682   9.169  21.069  1.00  0.00    -0.316 OA
BRANCH  30  31
HETATM   31  C25 UNL     1     -11.091   9.843  22.095  1.00  0.00     0.255 C 
HETATM   32  C26 UNL     1     -11.211   9.045  23.358  1.00  0.00     0.126 C 
HETATM   33  O6  UNL     1     -10.540  10.931  22.016  1.00  0.00    -0.266 OA
ENDBRANCH  30  31
ENDBRANCH  18  30
BRANCH   6  34
HETATM   34  O3  UNL     1     -14.794  11.735  15.904  1.00  0.00    -0.394 OA
HETATM   35  H22 UNL     1     -15.266  11.047  15.399  1.00  0.00     0.210 HD
ENDBRANCH   6  34
BRANCH  11  36
HETATM   36  O4  UNL     1     -10.519   6.331  14.892  1.00  0.00    -0.396 OA
HETATM   37  H28 UNL     1      -9.701   5.866  14.648  1.00  0.00     0.210 HD
ENDBRANCH  11  36
TORSDOF 10
ENDMDL
