MODEL 1
REMARK minimizedAffinity -8.03312206
REMARK CNNscore 0.756208062
REMARK CNNaffinity 7.74430513
REMARK  14 active torsions:
REMARK  status: ('A' for Active; 'I' for Inactive)
REMARK    1  A    between atoms: O1_2  and  C2_3 
REMARK    2  A    between atoms: C2_3  and  C3_4 
REMARK    3  A    between atoms: C3_4  and  C4_5 
REMARK    4  A    between atoms: C4_5  and  O2_6 
REMARK    5  A    between atoms: O2_6  and  C5_7 
REMARK    6  A    between atoms: C18_21  and  C19_22 
REMARK    7  A    between atoms: C25_28  and  C26_29 
REMARK    8  A    between atoms: C26_29  and  O4_31 
REMARK    9  A    between atoms: C26_29  and  C28_32 
REMARK   10  A    between atoms: C28_32  and  O5_33 
REMARK   11  A    between atoms: C28_32  and  C29_34 
REMARK   12  A    between atoms: C33_39  and  C34_40 
REMARK       I    between atoms: C34_40  and  N1_42 
REMARK   13  A    between atoms: C37_46  and  O8_47 
REMARK   14  A    between atoms: C42_52  and  O9_53 
ROOT
HETATM    1  C5  UNL     1      -5.041  15.896  17.992  1.00  0.00     0.122 C 
HETATM    2  C6  UNL     1      -3.545  15.554  17.957  1.00  0.00     0.033 C 
HETATM    3  C7  UNL     1      -3.201  14.336  18.810  1.00  0.00     0.013 C 
HETATM    4  C8  UNL     1      -4.021  13.029  18.487  1.00  0.00    -0.026 C 
HETATM    5  C9  UNL     1      -4.467  12.465  19.866  1.00  0.00     0.016 C 
HETATM    6  C10 UNL     1      -5.285  13.374  17.653  1.00  0.00     0.071 C 
HETATM    7  C11 UNL     1      -5.939  14.665  18.180  1.00  0.00     0.045 C 
HETATM    8  C12 UNL     1      -5.030  13.544  16.158  1.00  0.00     0.154 C 
HETATM    9  O3  UNL     1      -5.805  14.151  15.424  1.00  0.00    -0.293 OA
HETATM   10  C13 UNL     1      -3.858  12.902  15.535  1.00  0.00     0.057 C 
HETATM   11  C14 UNL     1      -3.031  12.124  16.242  1.00  0.00    -0.037 C 
HETATM   12  C15 UNL     1      -3.099  11.972  17.760  1.00  0.00     0.026 C 
HETATM   13  C16 UNL     1      -3.332  10.475  18.092  1.00  0.00     0.011 C 
HETATM   14  C17 UNL     1      -2.266   9.557  17.447  1.00  0.00     0.014 C 
HETATM   15  C18 UNL     1      -2.205   9.699  15.901  1.00  0.00     0.005 C 
HETATM   16  C25 UNL     1      -0.860   9.175  15.234  1.00  0.00     0.034 C 
HETATM   17  C40 UNL     1      -0.766  10.013  13.923  1.00  0.00     0.012 C 
HETATM   18  C41 UNL     1      -1.622  11.280  14.127  1.00  0.00     0.044 C 
HETATM   19  C42 UNL     1      -1.973  11.252  15.613  1.00  0.00     0.090 C 
ENDROOT
BRANCH  16  20
HETATM   20  C26 UNL     1      -0.358   7.700  15.147  1.00  0.00     0.087 C 
HETATM   21  C27 UNL     1      -0.947   7.028  13.880  1.00  0.00     0.049 C 
BRANCH  20  22
HETATM   22  O4  UNL     1      -1.003   6.979  16.244  1.00  0.00    -0.387 OA
HETATM   23  H42 UNL     1      -1.955   7.176  16.211  1.00  0.00     0.210 HD
ENDBRANCH  20  22
BRANCH  20  24
HETATM   24  C28 UNL     1       1.160   7.303  15.252  1.00  0.00     0.181 C 
BRANCH  24  25
HETATM   25  O5  UNL     1       1.355   6.910  16.634  1.00  0.00    -0.390 OA
HETATM   26  H44 UNL     1       0.906   7.631  17.130  1.00  0.00     0.210 HD
ENDBRANCH  24  25
BRANCH  24  27
HETATM   27  C29 UNL     1       2.257   8.346  14.931  1.00  0.00     0.158 C 
HETATM   28  O6  UNL     1       3.434   8.124  15.754  1.00  0.00    -0.373 OA
HETATM   29  C30 UNL     1       4.592   8.246  14.920  1.00  0.00     0.185 C 
HETATM   30  C31 UNL     1       4.122   7.715  13.589  1.00  0.00     0.028 C 
HETATM   31  C37 UNL     1       5.802   7.434  15.412  1.00  0.00     0.384 C 
HETATM   32  C32 UNL     1       5.185   7.973  12.535  1.00  0.00     0.053 C 
HETATM   33  C38 UNL     1       2.779   8.412  13.466  1.00  0.00     0.020 C 
HETATM   34  C33 UNL     1       6.603   7.621  13.058  1.00  0.00     0.309 C 
HETATM   35  N2  UNL     1       6.638   6.876  14.347  1.00  0.00     0.128 N 
HETATM   36  H55 UNL     1       6.277   5.938  14.155  1.00  0.00     0.320 HD
HETATM   37  C39 UNL     1       1.904   7.863  12.352  1.00  0.00     0.013 C 
BRANCH  34  38
HETATM   38  C34 UNL     1       7.549   8.846  13.007  1.00  0.00     0.233 C 
HETATM   39  O7  UNL     1       7.535   9.632  12.059  1.00  0.00    -0.277 OA
HETATM   40  N1  UNL     1       8.468   8.922  14.055  1.00  0.00    -0.249 NA
HETATM   41  C35 UNL     1       9.863   9.117  13.803  1.00  0.00     0.113 A 
HETATM   42  C36 UNL     1       9.041  10.188  14.421  1.00  0.00     0.113 A 
ENDBRANCH  34  38
BRANCH  31  43
HETATM   43  O8  UNL     1       6.634   8.242  16.221  1.00  0.00    -0.366 OA
HETATM   44  H57 UNL     1       7.500   8.148  15.787  1.00  0.00     0.212 HD
ENDBRANCH  31  43
ENDBRANCH  24  27
ENDBRANCH  20  24
ENDBRANCH  16  20
BRANCH  15  45
HETATM   45  C19 UNL     1      -3.470   9.004  15.188  1.00  0.00    -0.002 C 
HETATM   46  C20 UNL     1      -4.846   9.538  15.654  1.00  0.00     0.005 C 
HETATM   47  C21 UNL     1      -6.015   8.632  15.246  1.00  0.00     0.000 C 
HETATM   48  C22 UNL     1      -5.710   7.741  14.051  1.00  0.00     0.000 C 
HETATM   49  C23 UNL     1      -4.837   8.465  13.042  1.00  0.00     0.000 C 
HETATM   50  C24 UNL     1      -3.513   8.967  13.641  1.00  0.00     0.005 C 
ENDBRANCH  15  45
BRANCH  19  51
HETATM   51  O9  UNL     1      -0.761  11.702  16.265  1.00  0.00    -0.384 OA
HETATM   52  H66 UNL     1      -0.617  12.628  16.011  1.00  0.00     0.211 HD
ENDBRANCH  19  51
BRANCH   1  53
HETATM   53  O2  UNL     1      -5.302  16.790  19.080  1.00  0.00    -0.386 OA
BRANCH  53  54
HETATM   54  C4  UNL     1      -6.101  16.185  20.100  1.00  0.00     0.170 C 
BRANCH  54  55
HETATM   55  C3  UNL     1      -5.365  16.214  21.433  1.00  0.00     0.052 C 
BRANCH  55  56
HETATM   56  C2  UNL     1      -6.295  15.985  22.620  1.00  0.00     0.169 C 
BRANCH  56  57
HETATM   57  O1  UNL     1      -7.662  16.002  22.186  1.00  0.00    -0.396 OA
HETATM   58  C1  UNL     1      -8.470  16.894  22.948  1.00  0.00     0.201 C 
ENDBRANCH  56  57
ENDBRANCH  55  56
ENDBRANCH  54  55
ENDBRANCH  53  54
ENDBRANCH   1  53
TORSDOF 14
ENDMDL
MODEL 2
REMARK minimizedAffinity -7.53786087
REMARK CNNscore 0.614018798
REMARK CNNaffinity 7.00377798
REMARK  14 active torsions:
REMARK  status: ('A' for Active; 'I' for Inactive)
REMARK    1  A    between atoms: O1_2  and  C2_3 
REMARK    2  A    between atoms: C2_3  and  C3_4 
REMARK    3  A    between atoms: C3_4  and  C4_5 
REMARK    4  A    between atoms: C4_5  and  O2_6 
REMARK    5  A    between atoms: O2_6  and  C5_7 
REMARK    6  A    between atoms: C18_21  and  C19_22 
REMARK    7  A    between atoms: C25_28  and  C26_29 
REMARK    8  A    between atoms: C26_29  and  O4_31 
REMARK    9  A    between atoms: C26_29  and  C28_32 
REMARK   10  A    between atoms: C28_32  and  O5_33 
REMARK   11  A    between atoms: C28_32  and  C29_34 
REMARK   12  A    between atoms: C33_39  and  C34_40 
REMARK       I    between atoms: C34_40  and  N1_42 
REMARK   13  A    between atoms: C37_46  and  O8_47 
REMARK   14  A    between atoms: C42_52  and  O9_53 
ROOT
HETATM    1  C5  UNL     1      -6.867  15.953  18.466  1.00  0.00     0.122 C 
HETATM    2  C6  UNL     1      -5.349  16.176  18.437  1.00  0.00     0.033 C 
HETATM    3  C7  UNL     1      -4.590  15.159  19.286  1.00  0.00     0.013 C 
HETATM    4  C8  UNL     1      -4.881  13.646  18.953  1.00  0.00    -0.026 C 
HETATM    5  C9  UNL     1      -5.097  12.951  20.328  1.00  0.00     0.016 C 
HETATM    6  C10 UNL     1      -6.182  13.516  18.115  1.00  0.00     0.071 C 
HETATM    7  C11 UNL     1      -7.260  14.480  18.645  1.00  0.00     0.045 C 
HETATM    8  C12 UNL     1      -6.001  13.775  16.622  1.00  0.00     0.154 C 
HETATM    9  O3  UNL     1      -6.942  14.065  15.887  1.00  0.00    -0.293 OA
HETATM   10  C13 UNL     1      -4.676  13.604  16.002  1.00  0.00     0.057 C 
HETATM   11  C14 UNL     1      -3.625  13.174  16.709  1.00  0.00    -0.037 C 
HETATM   12  C15 UNL     1      -3.638  12.997  18.226  1.00  0.00     0.026 C 
HETATM   13  C16 UNL     1      -3.315  11.516  18.550  1.00  0.00     0.011 C 
HETATM   14  C17 UNL     1      -1.988  11.049  17.906  1.00  0.00     0.014 C 
HETATM   15  C18 UNL     1      -1.978  11.212  16.361  1.00  0.00     0.005 C 
HETATM   16  C25 UNL     1      -0.533  11.214  15.698  1.00  0.00     0.034 C 
HETATM   17  C40 UNL     1      -0.744  12.037  14.391  1.00  0.00     0.012 C 
HETATM   18  C41 UNL     1      -2.001  12.908  14.596  1.00  0.00     0.044 C 
HETATM   19  C42 UNL     1      -2.322  12.747  16.082  1.00  0.00     0.090 C 
ENDROOT
BRANCH  16  20
HETATM   20  C26 UNL     1       0.469  10.021  15.607  1.00  0.00     0.087 C 
HETATM   21  C27 UNL     1       0.888   9.588  17.036  1.00  0.00     0.049 C 
BRANCH  20  22
HETATM   22  O4  UNL     1       1.704  10.561  15.040  1.00  0.00    -0.387 OA
HETATM   23  H42 UNL     1       1.938  11.360  15.542  1.00  0.00     0.210 HD
ENDBRANCH  20  22
BRANCH  20  24
HETATM   24  C28 UNL     1       0.183   8.723  14.766  1.00  0.00     0.181 C 
BRANCH  24  25
HETATM   25  O5  UNL     1       1.119   7.733  15.264  1.00  0.00    -0.390 OA
HETATM   26  H44 UNL     1       1.966   8.234  15.295  1.00  0.00     0.210 HD
ENDBRANCH  24  25
BRANCH  24  27
HETATM   27  C29 UNL     1       0.344   8.747  13.227  1.00  0.00     0.158 C 
HETATM   28  O6  UNL     1       1.745   8.873  12.859  1.00  0.00    -0.373 OA
HETATM   29  C30 UNL     1       2.011   7.958  11.791  1.00  0.00     0.185 C 
HETATM   30  C31 UNL     1       1.103   6.793  12.095  1.00  0.00     0.028 C 
HETATM   31  C37 UNL     1       3.472   7.483  11.727  1.00  0.00     0.384 C 
HETATM   32  C32 UNL     1       1.118   5.819  10.928  1.00  0.00     0.053 C 
HETATM   33  C38 UNL     1      -0.186   7.520  12.429  1.00  0.00     0.020 C 
HETATM   34  C33 UNL     1       2.560   5.570  10.412  1.00  0.00     0.309 C 
HETATM   35  N2  UNL     1       3.646   6.098  11.284  1.00  0.00     0.128 N 
HETATM   36  H55 UNL     1       3.654   5.520  12.128  1.00  0.00     0.320 HD
HETATM   37  C39 UNL     1      -1.242   6.633  13.068  1.00  0.00     0.013 C 
BRANCH  34  38
HETATM   38  C34 UNL     1       2.705   5.950   8.918  1.00  0.00     0.233 C 
HETATM   39  O7  UNL     1       3.434   5.311   8.159  1.00  0.00    -0.277 OA
HETATM   40  N1  UNL     1       2.031   7.112   8.540  1.00  0.00    -0.249 NA
HETATM   41  C35 UNL     1       2.698   8.151   7.816  1.00  0.00     0.113 A 
HETATM   42  C36 UNL     1       1.657   7.314   7.167  1.00  0.00     0.113 A 
ENDBRANCH  34  38
BRANCH  31  43
HETATM   43  O8  UNL     1       4.213   8.304  10.845  1.00  0.00    -0.366 OA
HETATM   44  H57 UNL     1       4.599   7.654  10.232  1.00  0.00     0.212 HD
ENDBRANCH  31  43
ENDBRANCH  24  27
ENDBRANCH  20  24
ENDBRANCH  16  20
BRANCH  15  45
HETATM   45  C19 UNL     1      -2.904  10.111  15.639  1.00  0.00    -0.002 C 
HETATM   46  C20 UNL     1      -4.413  10.228  15.962  1.00  0.00     0.005 C 
HETATM   47  C21 UNL     1      -5.213   8.978  15.570  1.00  0.00     0.000 C 
HETATM   48  C22 UNL     1      -4.547   8.140  14.488  1.00  0.00     0.000 C 
HETATM   49  C23 UNL     1      -3.845   9.024  13.472  1.00  0.00     0.000 C 
HETATM   50  C24 UNL     1      -2.794   9.951  14.103  1.00  0.00     0.005 C 
ENDBRANCH  15  45
BRANCH  19  51
HETATM   51  O9  UNL     1      -1.356  13.600  16.741  1.00  0.00    -0.384 OA
HETATM   52  H66 UNL     1      -1.556  14.517  16.491  1.00  0.00     0.211 HD
ENDBRANCH  19  51
BRANCH   1  53
HETATM   53  O2  UNL     1      -7.436  16.687  19.558  1.00  0.00    -0.386 OA
BRANCH  53  54
HETATM   54  C4  UNL     1      -6.576  17.732  20.016  1.00  0.00     0.170 C 
BRANCH  54  55
HETATM   55  C3  UNL     1      -6.473  17.702  21.535  1.00  0.00     0.052 C 
BRANCH  55  56
HETATM   56  C2  UNL     1      -6.724  16.313  22.113  1.00  0.00     0.169 C 
BRANCH  56  57
HETATM   57  O1  UNL     1      -7.082  16.413  23.498  1.00  0.00    -0.396 OA
HETATM   58  C1  UNL     1      -8.269  15.692  23.813  1.00  0.00     0.201 C 
ENDBRANCH  56  57
ENDBRANCH  55  56
ENDBRANCH  54  55
ENDBRANCH  53  54
ENDBRANCH   1  53
TORSDOF 14
ENDMDL
MODEL 3
REMARK minimizedAffinity -8.60533714
REMARK CNNscore 0.584544003
REMARK CNNaffinity 7.37754202
REMARK  14 active torsions:
REMARK  status: ('A' for Active; 'I' for Inactive)
REMARK    1  A    between atoms: O1_2  and  C2_3 
REMARK    2  A    between atoms: C2_3  and  C3_4 
REMARK    3  A    between atoms: C3_4  and  C4_5 
REMARK    4  A    between atoms: C4_5  and  O2_6 
REMARK    5  A    between atoms: O2_6  and  C5_7 
REMARK    6  A    between atoms: C18_21  and  C19_22 
REMARK    7  A    between atoms: C25_28  and  C26_29 
REMARK    8  A    between atoms: C26_29  and  O4_31 
REMARK    9  A    between atoms: C26_29  and  C28_32 
REMARK   10  A    between atoms: C28_32  and  O5_33 
REMARK   11  A    between atoms: C28_32  and  C29_34 
REMARK   12  A    between atoms: C33_39  and  C34_40 
REMARK       I    between atoms: C34_40  and  N1_42 
REMARK   13  A    between atoms: C37_46  and  O8_47 
REMARK   14  A    between atoms: C42_52  and  O9_53 
ROOT
HETATM    1  C5  UNL     1      -4.385   5.766  13.986  1.00  0.00     0.122 C 
HETATM    2  C6  UNL     1      -3.345   6.037  15.081  1.00  0.00     0.033 C 
HETATM    3  C7  UNL     1      -2.174   6.880  14.584  1.00  0.00     0.013 C 
HETATM    4  C8  UNL     1      -2.563   8.252  13.912  1.00  0.00    -0.026 C 
HETATM    5  C9  UNL     1      -1.716   8.335  12.610  1.00  0.00     0.016 C 
HETATM    6  C10 UNL     1      -4.069   8.262  13.532  1.00  0.00     0.071 C 
HETATM    7  C11 UNL     1      -4.485   6.896  12.952  1.00  0.00     0.045 C 
HETATM    8  C12 UNL     1      -5.010   8.597  14.686  1.00  0.00     0.154 C 
HETATM    9  O3  UNL     1      -6.204   8.307  14.667  1.00  0.00    -0.293 OA
HETATM   10  C13 UNL     1      -4.512   9.362  15.843  1.00  0.00     0.057 C 
HETATM   11  C14 UNL     1      -3.255   9.820  15.887  1.00  0.00    -0.037 C 
HETATM   12  C15 UNL     1      -2.183   9.453  14.864  1.00  0.00     0.026 C 
HETATM   13  C16 UNL     1      -1.674  10.758  14.198  1.00  0.00     0.011 C 
HETATM   14  C17 UNL     1      -1.181  11.795  15.235  1.00  0.00     0.014 C 
HETATM   15  C18 UNL     1      -2.276  12.182  16.267  1.00  0.00     0.005 C 
HETATM   16  C25 UNL     1      -1.730  12.844  17.606  1.00  0.00     0.034 C 
HETATM   17  C40 UNL     1      -2.833  12.496  18.649  1.00  0.00     0.012 C 
HETATM   18  C41 UNL     1      -3.602  11.271  18.111  1.00  0.00     0.044 C 
HETATM   19  C42 UNL     1      -2.769  10.808  16.917  1.00  0.00     0.090 C 
ENDROOT
BRANCH  16  20
HETATM   20  C26 UNL     1      -1.049  14.239  17.762  1.00  0.00     0.087 C 
HETATM   21  C27 UNL     1      -2.123  15.301  18.115  1.00  0.00     0.049 C 
BRANCH  20  22
HETATM   22  O4  UNL     1      -0.607  14.635  16.426  1.00  0.00    -0.387 OA
HETATM   23  H42 UNL     1      -1.357  14.522  15.818  1.00  0.00     0.210 HD
ENDBRANCH  20  22
BRANCH  20  24
HETATM   24  C28 UNL     1       0.204  14.485  18.681  1.00  0.00     0.181 C 
BRANCH  24  25
HETATM   25  O5  UNL     1       1.353  14.290  17.817  1.00  0.00    -0.390 OA
HETATM   26  H44 UNL     1       1.130  13.456  17.346  1.00  0.00     0.210 HD
ENDBRANCH  24  25
BRANCH  24  27
HETATM   27  C29 UNL     1       0.435  13.598  19.928  1.00  0.00     0.158 C 
HETATM   28  O6  UNL     1       0.934  12.288  19.541  1.00  0.00    -0.373 OA
HETATM   29  C30 UNL     1       2.001  11.937  20.429  1.00  0.00     0.185 C 
HETATM   30  C31 UNL     1       2.650  13.263  20.737  1.00  0.00     0.028 C 
HETATM   31  C37 UNL     1       3.033  10.977  19.814  1.00  0.00     0.384 C 
HETATM   32  C32 UNL     1       3.680  13.081  21.840  1.00  0.00     0.053 C 
HETATM   33  C38 UNL     1       1.427  14.119  21.008  1.00  0.00     0.020 C 
HETATM   34  C33 UNL     1       4.554  11.821  21.601  1.00  0.00     0.309 C 
HETATM   35  N2  UNL     1       4.412  11.195  20.256  1.00  0.00     0.128 N 
HETATM   36  H55 UNL     1       4.835  11.840  19.585  1.00  0.00     0.320 HD
HETATM   37  C39 UNL     1       1.724  15.608  21.070  1.00  0.00     0.013 C 
BRANCH  34  38
HETATM   38  C34 UNL     1       4.451  10.823  22.780  1.00  0.00     0.233 C 
HETATM   39  O7  UNL     1       5.455  10.376  23.335  1.00  0.00    -0.277 OA
HETATM   40  N1  UNL     1       3.154  10.405  23.084  1.00  0.00    -0.249 NA
HETATM   41  C35 UNL     1       2.835   9.017  23.213  1.00  0.00     0.113 A 
HETATM   42  C36 UNL     1       2.845   9.912  24.398  1.00  0.00     0.113 A 
ENDBRANCH  34  38
BRANCH  31  43
HETATM   43  O8  UNL     1       2.697   9.638  20.124  1.00  0.00    -0.366 OA
HETATM   44  H57 UNL     1       3.517   9.308  20.532  1.00  0.00     0.212 HD
ENDBRANCH  31  43
ENDBRANCH  24  27
ENDBRANCH  20  24
ENDBRANCH  16  20
BRANCH  15  45
HETATM   45  C19 UNL     1      -3.403  13.129  15.615  1.00  0.00    -0.002 C 
HETATM   46  C20 UNL     1      -4.343  13.809  16.638  1.00  0.00     0.005 C 
HETATM   47  C21 UNL     1      -5.608  14.398  15.999  1.00  0.00     0.000 C 
HETATM   48  C22 UNL     1      -5.457  14.703  14.516  1.00  0.00     0.000 C 
HETATM   49  C23 UNL     1      -4.061  15.212  14.205  1.00  0.00     0.000 C 
HETATM   50  C24 UNL     1      -2.954  14.233  14.628  1.00  0.00     0.005 C 
ENDBRANCH  15  45
BRANCH  19  51
HETATM   51  O9  UNL     1      -1.651  10.115  17.520  1.00  0.00    -0.384 OA
HETATM   52  H66 UNL     1      -2.000   9.324  17.963  1.00  0.00     0.211 HD
ENDBRANCH  19  51
BRANCH   1  53
HETATM   53  O2  UNL     1      -4.037   4.568  13.282  1.00  0.00    -0.386 OA
BRANCH  53  54
HETATM   54  C4  UNL     1      -5.136   4.038  12.537  1.00  0.00     0.170 C 
BRANCH  54  55
HETATM   55  C3  UNL     1      -6.362   3.904  13.430  1.00  0.00     0.052 C 
BRANCH  55  56
HETATM   56  C2  UNL     1      -7.376   2.901  12.887  1.00  0.00     0.169 C 
BRANCH  56  57
HETATM   57  O1  UNL     1      -8.683   3.491  12.856  1.00  0.00    -0.396 OA
HETATM   58  C1  UNL     1      -8.645   4.907  12.713  1.00  0.00     0.201 C 
ENDBRANCH  56  57
ENDBRANCH  55  56
ENDBRANCH  54  55
ENDBRANCH  53  54
ENDBRANCH   1  53
TORSDOF 14
ENDMDL
MODEL 4
REMARK minimizedAffinity -8.96393108
REMARK CNNscore 0.513754785
REMARK CNNaffinity 7.53703928
REMARK  14 active torsions:
REMARK  status: ('A' for Active; 'I' for Inactive)
REMARK    1  A    between atoms: O1_2  and  C2_3 
REMARK    2  A    between atoms: C2_3  and  C3_4 
REMARK    3  A    between atoms: C3_4  and  C4_5 
REMARK    4  A    between atoms: C4_5  and  O2_6 
REMARK    5  A    between atoms: O2_6  and  C5_7 
REMARK    6  A    between atoms: C18_21  and  C19_22 
REMARK    7  A    between atoms: C25_28  and  C26_29 
REMARK    8  A    between atoms: C26_29  and  O4_31 
REMARK    9  A    between atoms: C26_29  and  C28_32 
REMARK   10  A    between atoms: C28_32  and  O5_33 
REMARK   11  A    between atoms: C28_32  and  C29_34 
REMARK   12  A    between atoms: C33_39  and  C34_40 
REMARK       I    between atoms: C34_40  and  N1_42 
REMARK   13  A    between atoms: C37_46  and  O8_47 
REMARK   14  A    between atoms: C42_52  and  O9_53 
ROOT
HETATM    1  C5  UNL     1      -9.649   7.060  14.094  1.00  0.00     0.122 C 
HETATM    2  C6  UNL     1      -8.807   8.245  14.584  1.00  0.00     0.033 C 
HETATM    3  C7  UNL     1      -7.888   7.873  15.745  1.00  0.00     0.013 C 
HETATM    4  C8  UNL     1      -6.928   6.649  15.484  1.00  0.00    -0.026 C 
HETATM    5  C9  UNL     1      -7.034   5.758  16.755  1.00  0.00     0.016 C 
HETATM    6  C10 UNL     1      -7.413   5.831  14.256  1.00  0.00     0.071 C 
HETATM    7  C11 UNL     1      -8.948   5.705  14.268  1.00  0.00     0.045 C 
HETATM    8  C12 UNL     1      -6.991   6.408  12.907  1.00  0.00     0.154 C 
HETATM    9  O3  UNL     1      -7.564   6.116  11.860  1.00  0.00    -0.293 OA
HETATM   10  C13 UNL     1      -5.812   7.287  12.819  1.00  0.00     0.057 C 
HETATM   11  C14 UNL     1      -5.062   7.557  13.894  1.00  0.00    -0.037 C 
HETATM   12  C15 UNL     1      -5.439   7.150  15.316  1.00  0.00     0.026 C 
HETATM   13  C16 UNL     1      -4.314   6.245  15.881  1.00  0.00     0.011 C 
HETATM   14  C17 UNL     1      -2.923   6.917  15.802  1.00  0.00     0.014 C 
HETATM   15  C18 UNL     1      -2.530   7.318  14.353  1.00  0.00     0.005 C 
HETATM   16  C25 UNL     1      -1.378   8.410  14.251  1.00  0.00     0.034 C 
HETATM   17  C40 UNL     1      -1.659   9.093  12.879  1.00  0.00     0.012 C 
HETATM   18  C41 UNL     1      -3.142   8.837  12.535  1.00  0.00     0.044 C 
HETATM   19  C42 UNL     1      -3.719   8.239  13.817  1.00  0.00     0.090 C 
ENDROOT
BRANCH  16  20
HETATM   20  C26 UNL     1       0.123   8.242  14.642  1.00  0.00     0.087 C 
HETATM   21  C27 UNL     1       0.240   7.247  15.826  1.00  0.00     0.049 C 
BRANCH  20  22
HETATM   22  O4  UNL     1       0.542   9.515  15.227  1.00  0.00    -0.387 OA
HETATM   23  H42 UNL     1      -0.115   9.764  15.900  1.00  0.00     0.210 HD
ENDBRANCH  20  22
BRANCH  20  24
HETATM   24  C28 UNL     1       1.249   7.898  13.599  1.00  0.00     0.181 C 
BRANCH  24  25
HETATM   25  O5  UNL     1       1.656   6.542  13.913  1.00  0.00    -0.390 OA
HETATM   26  H44 UNL     1       1.755   6.567  14.891  1.00  0.00     0.210 HD
ENDBRANCH  24  25
BRANCH  24  27
HETATM   27  C29 UNL     1       2.542   8.746  13.549  1.00  0.00     0.158 C 
HETATM   28  O6  UNL     1       3.390   8.459  14.694  1.00  0.00    -0.373 OA
HETATM   29  C30 UNL     1       4.739   8.336  14.231  1.00  0.00     0.185 C 
HETATM   30  C31 UNL     1       4.585   7.733  12.858  1.00  0.00     0.028 C 
HETATM   31  C37 UNL     1       5.618   7.428  15.108  1.00  0.00     0.384 C 
HETATM   32  C32 UNL     1       5.929   7.734  12.148  1.00  0.00     0.053 C 
HETATM   33  C38 UNL     1       3.459   8.586  12.301  1.00  0.00     0.020 C 
HETATM   34  C33 UNL     1       7.068   7.255  13.086  1.00  0.00     0.309 C 
HETATM   35  N2  UNL     1       6.621   6.654  14.374  1.00  0.00     0.128 N 
HETATM   36  H55 UNL     1       6.186   5.757  14.144  1.00  0.00     0.320 HD
HETATM   37  C39 UNL     1       2.858   8.042  11.016  1.00  0.00     0.013 C 
BRANCH  34  38
HETATM   38  C34 UNL     1       8.172   8.331  13.238  1.00  0.00     0.233 C 
HETATM   39  O7  UNL     1       8.274   9.264  12.442  1.00  0.00    -0.277 OA
HETATM   40  N1  UNL     1       9.080   8.099  14.273  1.00  0.00    -0.249 NA
HETATM   41  C35 UNL     1      10.491   8.145  14.042  1.00  0.00     0.113 A 
HETATM   42  C36 UNL     1       9.813   9.193  14.847  1.00  0.00     0.113 A 
ENDBRANCH  34  38
BRANCH  31  43
HETATM   43  O8  UNL     1       6.306   8.201  16.073  1.00  0.00    -0.366 OA
HETATM   44  H57 UNL     1       7.233   7.946  15.920  1.00  0.00     0.212 HD
ENDBRANCH  31  43
ENDBRANCH  24  27
ENDBRANCH  20  24
ENDBRANCH  16  20
BRANCH  15  45
HETATM   45  C19 UNL     1      -2.140   6.034  13.463  1.00  0.00    -0.002 C 
HETATM   46  C20 UNL     1      -3.341   5.154  13.042  1.00  0.00     0.005 C 
HETATM   47  C21 UNL     1      -2.925   3.772  12.523  1.00  0.00     0.000 C 
HETATM   48  C22 UNL     1      -1.495   3.720  12.003  1.00  0.00     0.000 C 
HETATM   49  C23 UNL     1      -1.126   5.013  11.297  1.00  0.00     0.000 C 
HETATM   50  C24 UNL     1      -1.288   6.254  12.190  1.00  0.00     0.005 C 
ENDBRANCH  15  45
BRANCH  19  51
HETATM   51  O9  UNL     1      -3.892   9.382  14.687  1.00  0.00    -0.384 OA
HETATM   52  H66 UNL     1      -4.573   9.952  14.292  1.00  0.00     0.211 HD
ENDBRANCH  19  51
BRANCH   1  53
HETATM   53  O2  UNL     1     -10.876   7.008  14.831  1.00  0.00    -0.386 OA
BRANCH  53  54
HETATM   54  C4  UNL     1     -12.020   7.180  13.992  1.00  0.00     0.170 C 
BRANCH  54  55
HETATM   55  C3  UNL     1     -13.146   6.257  14.439  1.00  0.00     0.052 C 
BRANCH  55  56
HETATM   56  C2  UNL     1     -14.423   6.455  13.630  1.00  0.00     0.169 C 
BRANCH  56  57
HETATM   57  O1  UNL     1     -15.572   6.243  14.462  1.00  0.00    -0.396 OA
HETATM   58  C1  UNL     1     -16.682   5.713  13.745  1.00  0.00     0.201 C 
ENDBRANCH  56  57
ENDBRANCH  55  56
ENDBRANCH  54  55
ENDBRANCH  53  54
ENDBRANCH   1  53
TORSDOF 14
ENDMDL
MODEL 5
REMARK minimizedAffinity -8.74185658
REMARK CNNscore 0.363705248
REMARK CNNaffinity 6.92070532
REMARK  14 active torsions:
REMARK  status: ('A' for Active; 'I' for Inactive)
REMARK    1  A    between atoms: O1_2  and  C2_3 
REMARK    2  A    between atoms: C2_3  and  C3_4 
REMARK    3  A    between atoms: C3_4  and  C4_5 
REMARK    4  A    between atoms: C4_5  and  O2_6 
REMARK    5  A    between atoms: O2_6  and  C5_7 
REMARK    6  A    between atoms: C18_21  and  C19_22 
REMARK    7  A    between atoms: C25_28  and  C26_29 
REMARK    8  A    between atoms: C26_29  and  O4_31 
REMARK    9  A    between atoms: C26_29  and  C28_32 
REMARK   10  A    between atoms: C28_32  and  O5_33 
REMARK   11  A    between atoms: C28_32  and  C29_34 
REMARK   12  A    between atoms: C33_39  and  C34_40 
REMARK       I    between atoms: C34_40  and  N1_42 
REMARK   13  A    between atoms: C37_46  and  O8_47 
REMARK   14  A    between atoms: C42_52  and  O9_53 
ROOT
HETATM    1  C5  UNL     1      -4.021   7.473  14.611  1.00  0.00     0.122 C 
HETATM    2  C6  UNL     1      -2.696   7.436  15.385  1.00  0.00     0.033 C 
HETATM    3  C7  UNL     1      -1.858   6.203  15.056  1.00  0.00     0.013 C 
HETATM    4  C8  UNL     1      -1.551   5.981  13.525  1.00  0.00    -0.026 C 
HETATM    5  C9  UNL     1      -1.832   4.475  13.258  1.00  0.00     0.016 C 
HETATM    6  C10 UNL     1      -2.511   6.833  12.650  1.00  0.00     0.071 C 
HETATM    7  C11 UNL     1      -3.937   6.803  13.233  1.00  0.00     0.045 C 
HETATM    8  C12 UNL     1      -2.092   8.292  12.489  1.00  0.00     0.154 C 
HETATM    9  O3  UNL     1      -2.883   9.169  12.151  1.00  0.00    -0.293 OA
HETATM   10  C13 UNL     1      -0.680   8.675  12.664  1.00  0.00     0.057 C 
HETATM   11  C14 UNL     1       0.265   7.761  12.915  1.00  0.00    -0.037 C 
HETATM   12  C15 UNL     1      -0.033   6.295  13.221  1.00  0.00     0.026 C 
HETATM   13  C16 UNL     1       0.677   5.418  12.158  1.00  0.00     0.011 C 
HETATM   14  C17 UNL     1       2.194   5.714  12.070  1.00  0.00     0.014 C 
HETATM   15  C18 UNL     1       2.499   7.201  11.742  1.00  0.00     0.005 C 
HETATM   16  C25 UNL     1       3.974   7.676  12.101  1.00  0.00     0.034 C 
HETATM   17  C40 UNL     1       3.805   9.207  12.334  1.00  0.00     0.012 C 
HETATM   18  C41 UNL     1       2.320   9.460  12.667  1.00  0.00     0.044 C 
HETATM   19  C42 UNL     1       1.742   8.058  12.857  1.00  0.00     0.090 C 
ENDROOT
BRANCH  16  20
HETATM   20  C26 UNL     1       5.305   7.224  11.425  1.00  0.00     0.087 C 
HETATM   21  C27 UNL     1       5.689   8.235  10.314  1.00  0.00     0.049 C 
BRANCH  20  22
HETATM   22  O4  UNL     1       4.996   6.004  10.680  1.00  0.00    -0.387 OA
HETATM   23  H42 UNL     1       4.206   6.176  10.140  1.00  0.00     0.210 HD
ENDBRANCH  20  22
BRANCH  20  24
HETATM   24  C28 UNL     1       6.605   6.872  12.238  1.00  0.00     0.181 C 
BRANCH  24  25
HETATM   25  O5  UNL     1       6.163   5.979  13.292  1.00  0.00    -0.390 OA
HETATM   26  H44 UNL     1       5.363   6.434  13.640  1.00  0.00     0.210 HD
ENDBRANCH  24  25
BRANCH  24  27
HETATM   27  C29 UNL     1       7.417   7.996  12.924  1.00  0.00     0.158 C 
HETATM   28  O6  UNL     1       7.596   9.123  12.023  1.00  0.00    -0.373 OA
HETATM   29  C30 UNL     1       7.356  10.327  12.760  1.00  0.00     0.185 C 
HETATM   30  C31 UNL     1       6.287   9.927  13.745  1.00  0.00     0.028 C 
HETATM   31  C37 UNL     1       6.862  11.498  11.894  1.00  0.00     0.384 C 
HETATM   32  C32 UNL     1       6.070  11.050  14.744  1.00  0.00     0.053 C 
HETATM   33  C38 UNL     1       6.839   8.601  14.237  1.00  0.00     0.020 C 
HETATM   34  C33 UNL     1       6.006  12.433  14.042  1.00  0.00     0.309 C 
HETATM   35  N2  UNL     1       5.905  12.386  12.556  1.00  0.00     0.128 N 
HETATM   36  H55 UNL     1       4.973  12.027  12.336  1.00  0.00     0.320 HD
HETATM   37  C39 UNL     1       5.843   7.784  15.043  1.00  0.00     0.013 C 
BRANCH  34  38
HETATM   38  C34 UNL     1       7.097  13.394  14.574  1.00  0.00     0.233 C 
HETATM   39  O7  UNL     1       6.914  14.611  14.625  1.00  0.00    -0.277 OA
HETATM   40  N1  UNL     1       8.314  12.786  14.886  1.00  0.00    -0.249 NA
HETATM   41  C35 UNL     1       9.549  13.299  14.379  1.00  0.00     0.113 A 
HETATM   42  C36 UNL     1       9.211  13.407  15.821  1.00  0.00     0.113 A 
ENDBRANCH  34  38
BRANCH  31  43
HETATM   43  O8  UNL     1       7.956  12.292  11.479  1.00  0.00    -0.366 OA
HETATM   44  H57 UNL     1       7.693  13.180  11.778  1.00  0.00     0.212 HD
ENDBRANCH  31  43
ENDBRANCH  24  27
ENDBRANCH  20  24
ENDBRANCH  16  20
BRANCH  15  45
HETATM   45  C19 UNL     1       2.176   7.552  10.205  1.00  0.00    -0.002 C 
HETATM   46  C20 UNL     1       2.330   6.363   9.227  1.00  0.00     0.005 C 
HETATM   47  C21 UNL     1       2.377   6.793   7.755  1.00  0.00     0.000 C 
HETATM   48  C22 UNL     1       1.732   8.146   7.493  1.00  0.00     0.000 C 
HETATM   49  C23 UNL     1       0.510   8.345   8.372  1.00  0.00     0.000 C 
HETATM   50  C24 UNL     1       0.822   8.223   9.873  1.00  0.00     0.005 C 
ENDBRANCH  15  45
BRANCH  19  51
HETATM   51  O9  UNL     1       2.196   7.670  14.175  1.00  0.00    -0.384 OA
HETATM   52  H66 UNL     1       1.768   8.259  14.819  1.00  0.00     0.211 HD
ENDBRANCH  19  51
BRANCH   1  53
HETATM   53  O2  UNL     1      -5.032   6.789  15.362  1.00  0.00    -0.386 OA
BRANCH  53  54
HETATM   54  C4  UNL     1      -6.260   7.519  15.407  1.00  0.00     0.170 C 
BRANCH  54  55
HETATM   55  C3  UNL     1      -7.433   6.596  15.107  1.00  0.00     0.052 C 
BRANCH  55  56
HETATM   56  C2  UNL     1      -7.227   5.780  13.834  1.00  0.00     0.169 C 
BRANCH  56  57
HETATM   57  O1  UNL     1      -7.364   4.381  14.118  1.00  0.00    -0.396 OA
HETATM   58  C1  UNL     1      -8.072   3.680  13.101  1.00  0.00     0.201 C 
ENDBRANCH  56  57
ENDBRANCH  55  56
ENDBRANCH  54  55
ENDBRANCH  53  54
ENDBRANCH   1  53
TORSDOF 14
ENDMDL
MODEL 6
REMARK minimizedAffinity -8.12790775
REMARK CNNscore 0.346734226
REMARK CNNaffinity 7.01050758
REMARK  14 active torsions:
REMARK  status: ('A' for Active; 'I' for Inactive)
REMARK    1  A    between atoms: O1_2  and  C2_3 
REMARK    2  A    between atoms: C2_3  and  C3_4 
REMARK    3  A    between atoms: C3_4  and  C4_5 
REMARK    4  A    between atoms: C4_5  and  O2_6 
REMARK    5  A    between atoms: O2_6  and  C5_7 
REMARK    6  A    between atoms: C18_21  and  C19_22 
REMARK    7  A    between atoms: C25_28  and  C26_29 
REMARK    8  A    between atoms: C26_29  and  O4_31 
REMARK    9  A    between atoms: C26_29  and  C28_32 
REMARK   10  A    between atoms: C28_32  and  O5_33 
REMARK   11  A    between atoms: C28_32  and  C29_34 
REMARK   12  A    between atoms: C33_39  and  C34_40 
REMARK       I    between atoms: C34_40  and  N1_42 
REMARK   13  A    between atoms: C37_46  and  O8_47 
REMARK   14  A    between atoms: C42_52  and  O9_53 
ROOT
HETATM    1  C5  UNL     1      -7.066  -9.747  -3.226  1.00  0.00     0.122 C 
HETATM    2  C6  UNL     1      -7.006  -8.805  -2.017  1.00  0.00     0.033 C 
HETATM    3  C7  UNL     1      -7.829  -9.312  -0.835  1.00  0.00     0.013 C 
HETATM    4  C8  UNL     1      -7.489 -10.773  -0.350  1.00  0.00    -0.026 C 
HETATM    5  C9  UNL     1      -8.862 -11.480  -0.163  1.00  0.00     0.016 C 
HETATM    6  C10 UNL     1      -6.679 -11.531  -1.437  1.00  0.00     0.071 C 
HETATM    7  C11 UNL     1      -7.240 -11.222  -2.838  1.00  0.00     0.045 C 
HETATM    8  C12 UNL     1      -5.184 -11.220  -1.442  1.00  0.00     0.154 C 
HETATM    9  O3  UNL     1      -4.472 -11.434  -2.420  1.00  0.00    -0.293 OA
HETATM   10  C13 UNL     1      -4.534 -10.717  -0.219  1.00  0.00     0.057 C 
HETATM   11  C14 UNL     1      -5.215 -10.571   0.923  1.00  0.00    -0.037 C 
HETATM   12  C15 UNL     1      -6.729 -10.726   1.034  1.00  0.00     0.026 C 
HETATM   13  C16 UNL     1      -7.033 -11.854   2.053  1.00  0.00     0.011 C 
HETATM   14  C17 UNL     1      -6.356 -11.608   3.423  1.00  0.00     0.014 C 
HETATM   15  C18 UNL     1      -4.813 -11.466   3.315  1.00  0.00     0.005 C 
HETATM   16  C25 UNL     1      -4.119 -10.753   4.555  1.00  0.00     0.034 C 
HETATM   17  C40 UNL     1      -2.825 -10.145   3.935  1.00  0.00     0.012 C 
HETATM   18  C41 UNL     1      -3.065 -10.007   2.418  1.00  0.00     0.044 C 
HETATM   19  C42 UNL     1      -4.555 -10.301   2.252  1.00  0.00     0.090 C 
ENDROOT
BRANCH  16  20
HETATM   20  C26 UNL     1      -3.995 -11.297   6.012  1.00  0.00     0.087 C 
HETATM   21  C27 UNL     1      -2.574 -11.880   6.228  1.00  0.00     0.049 C 
BRANCH  20  22
HETATM   22  O4  UNL     1      -4.859 -12.474   6.088  1.00  0.00    -0.387 OA
HETATM   23  H42 UNL     1      -4.648 -13.048   5.331  1.00  0.00     0.210 HD
ENDBRANCH  20  22
BRANCH  20  24
HETATM   24  C28 UNL     1      -4.374 -10.448   7.281  1.00  0.00     0.181 C 
BRANCH  24  25
HETATM   25  O5  UNL     1      -3.275 -10.638   8.208  1.00  0.00    -0.390 OA
HETATM   26  H44 UNL     1      -3.135 -11.612   8.179  1.00  0.00     0.210 HD
ENDBRANCH  24  25
BRANCH  24  27
HETATM   27  C29 UNL     1      -5.671 -10.762   8.063  1.00  0.00     0.158 C 
HETATM   28  O6  UNL     1      -5.363 -11.190   9.418  1.00  0.00    -0.373 OA
HETATM   29  C30 UNL     1      -6.268 -10.530  10.311  1.00  0.00     0.185 C 
HETATM   30  C31 UNL     1      -6.493  -9.192   9.655  1.00  0.00     0.028 C 
HETATM   31  C37 UNL     1      -5.708 -10.332  11.730  1.00  0.00     0.384 C 
HETATM   32  C32 UNL     1      -7.602  -8.450  10.382  1.00  0.00     0.053 C 
HETATM   33  C38 UNL     1      -6.715  -9.618   8.215  1.00  0.00     0.020 C 
HETATM   34  C33 UNL     1      -7.437  -8.545  11.922  1.00  0.00     0.309 C 
HETATM   35  N2  UNL     1      -6.133  -9.095  12.388  1.00  0.00     0.128 N 
HETATM   36  H55 UNL     1      -5.423  -8.392  12.172  1.00  0.00     0.320 HD
HETATM   37  C39 UNL     1      -6.687  -8.466   7.225  1.00  0.00     0.013 C 
BRANCH  34  38
HETATM   38  C34 UNL     1      -8.674  -9.194  12.589  1.00  0.00     0.233 C 
HETATM   39  O7  UNL     1      -9.447  -8.538  13.289  1.00  0.00    -0.277 OA
HETATM   40  N1  UNL     1      -8.778 -10.575  12.416  1.00  0.00    -0.249 NA
HETATM   41  C35 UNL     1      -8.990 -11.447  13.531  1.00  0.00     0.113 A 
HETATM   42  C36 UNL     1     -10.057 -11.221  12.524  1.00  0.00     0.113 A 
ENDBRANCH  34  38
BRANCH  31  43
HETATM   43  O8  UNL     1      -6.099 -11.408  12.561  1.00  0.00    -0.366 OA
HETATM   44  H57 UNL     1      -6.524 -10.949  13.308  1.00  0.00     0.212 HD
ENDBRANCH  31  43
ENDBRANCH  24  27
ENDBRANCH  20  24
ENDBRANCH  16  20
BRANCH  15  45
HETATM   45  C19 UNL     1      -4.101 -12.882   3.035  1.00  0.00    -0.002 C 
HETATM   46  C20 UNL     1      -4.777 -13.736   1.936  1.00  0.00     0.005 C 
HETATM   47  C21 UNL     1      -4.318 -15.201   1.942  1.00  0.00     0.000 C 
HETATM   48  C22 UNL     1      -2.958 -15.412   2.592  1.00  0.00     0.000 C 
HETATM   49  C23 UNL     1      -2.024 -14.255   2.286  1.00  0.00     0.000 C 
HETATM   50  C24 UNL     1      -2.584 -12.895   2.732  1.00  0.00     0.005 C 
ENDBRANCH  15  45
BRANCH  19  51
HETATM   51  O9  UNL     1      -5.201  -9.081   2.686  1.00  0.00    -0.384 OA
HETATM   52  H66 UNL     1      -4.964  -8.382   2.054  1.00  0.00     0.211 HD
ENDBRANCH  19  51
BRANCH   1  53
HETATM   53  O2  UNL     1      -8.176  -9.387  -4.058  1.00  0.00    -0.386 OA
BRANCH  53  54
HETATM   54  C4  UNL     1      -8.229  -7.981  -4.313  1.00  0.00     0.170 C 
BRANCH  54  55
HETATM   55  C3  UNL     1      -8.610  -7.723  -5.764  1.00  0.00     0.052 C 
BRANCH  55  56
HETATM   56  C2  UNL     1      -9.291  -6.372  -5.961  1.00  0.00     0.169 C 
BRANCH  56  57
HETATM   57  O1  UNL     1      -9.268  -5.627  -4.736  1.00  0.00    -0.396 OA
HETATM   58  C1  UNL     1      -9.725  -4.287  -4.898  1.00  0.00     0.201 C 
ENDBRANCH  56  57
ENDBRANCH  55  56
ENDBRANCH  54  55
ENDBRANCH  53  54
ENDBRANCH   1  53
TORSDOF 14
ENDMDL
MODEL 7
REMARK minimizedAffinity -10.3297434
REMARK CNNscore 0.316687018
REMARK CNNaffinity 7.4017005
REMARK  14 active torsions:
REMARK  status: ('A' for Active; 'I' for Inactive)
REMARK    1  A    between atoms: O1_2  and  C2_3 
REMARK    2  A    between atoms: C2_3  and  C3_4 
REMARK    3  A    between atoms: C3_4  and  C4_5 
REMARK    4  A    between atoms: C4_5  and  O2_6 
REMARK    5  A    between atoms: O2_6  and  C5_7 
REMARK    6  A    between atoms: C18_21  and  C19_22 
REMARK    7  A    between atoms: C25_28  and  C26_29 
REMARK    8  A    between atoms: C26_29  and  O4_31 
REMARK    9  A    between atoms: C26_29  and  C28_32 
REMARK   10  A    between atoms: C28_32  and  O5_33 
REMARK   11  A    between atoms: C28_32  and  C29_34 
REMARK   12  A    between atoms: C33_39  and  C34_40 
REMARK       I    between atoms: C34_40  and  N1_42 
REMARK   13  A    between atoms: C37_46  and  O8_47 
REMARK   14  A    between atoms: C42_52  and  O9_53 
ROOT
HETATM    1  C5  UNL     1       3.683   6.225  10.565  1.00  0.00     0.122 C 
HETATM    2  C6  UNL     1       3.294   6.974  11.846  1.00  0.00     0.033 C 
HETATM    3  C7  UNL     1       2.217   8.028  11.607  1.00  0.00     0.013 C 
HETATM    4  C8  UNL     1       0.901   7.507  10.912  1.00  0.00    -0.026 C 
HETATM    5  C9  UNL     1       0.577   8.545   9.801  1.00  0.00     0.016 C 
HETATM    6  C10 UNL     1       1.148   6.124  10.251  1.00  0.00     0.071 C 
HETATM    7  C11 UNL     1       2.526   6.097   9.563  1.00  0.00     0.045 C 
HETATM    8  C12 UNL     1       1.070   4.940  11.212  1.00  0.00     0.154 C 
HETATM    9  O3  UNL     1       1.577   3.851  10.955  1.00  0.00    -0.293 OA
HETATM   10  C13 UNL     1       0.302   5.059  12.463  1.00  0.00     0.057 C 
HETATM   11  C14 UNL     1      -0.379   6.172  12.761  1.00  0.00    -0.037 C 
HETATM   12  C15 UNL     1      -0.287   7.464  11.953  1.00  0.00     0.026 C 
HETATM   13  C16 UNL     1      -1.703   7.821  11.434  1.00  0.00     0.011 C 
HETATM   14  C17 UNL     1      -2.745   7.902  12.576  1.00  0.00     0.014 C 
HETATM   15  C18 UNL     1      -2.853   6.583  13.388  1.00  0.00     0.005 C 
HETATM   16  C25 UNL     1      -3.517   6.735  14.825  1.00  0.00     0.034 C 
HETATM   17  C40 UNL     1      -2.902   5.549  15.627  1.00  0.00     0.012 C 
HETATM   18  C41 UNL     1      -1.592   5.146  14.917  1.00  0.00     0.044 C 
HETATM   19  C42 UNL     1      -1.372   6.258  13.893  1.00  0.00     0.090 C 
ENDROOT
BRANCH  16  20
HETATM   20  C26 UNL     1      -5.002   7.089  15.149  1.00  0.00     0.087 C 
HETATM   21  C27 UNL     1      -5.085   8.552  15.656  1.00  0.00     0.049 C 
BRANCH  20  22
HETATM   22  O4  UNL     1      -5.367   6.301  16.326  1.00  0.00    -0.387 OA
HETATM   23  H42 UNL     1      -4.674   6.430  16.997  1.00  0.00     0.210 HD
ENDBRANCH  20  22
BRANCH  20  24
HETATM   24  C28 UNL     1      -6.181   6.853  14.135  1.00  0.00     0.181 C 
BRANCH  24  25
HETATM   25  O5  UNL     1      -6.479   8.163  13.588  1.00  0.00    -0.390 OA
HETATM   26  H44 UNL     1      -6.504   8.732  14.390  1.00  0.00     0.210 HD
ENDBRANCH  24  25
BRANCH  24  27
HETATM   27  C29 UNL     1      -7.524   6.268  14.634  1.00  0.00     0.158 C 
HETATM   28  O6  UNL     1      -8.224   7.228  15.471  1.00  0.00    -0.373 OA
HETATM   29  C30 UNL     1      -9.605   7.228  15.092  1.00  0.00     0.185 C 
HETATM   30  C31 UNL     1      -9.560   6.961  13.608  1.00  0.00     0.028 C 
HETATM   31  C37 UNL     1     -10.324   8.560  15.364  1.00  0.00     0.384 C 
HETATM   32  C32 UNL     1     -10.969   6.724  13.092  1.00  0.00     0.053 C 
HETATM   33  C38 UNL     1      -8.557   5.822  13.558  1.00  0.00     0.020 C 
HETATM   34  C33 UNL     1     -11.969   7.762  13.667  1.00  0.00     0.309 C 
HETATM   35  N2  UNL     1     -11.348   8.914  14.379  1.00  0.00     0.128 N 
HETATM   36  H55 UNL     1     -10.883   9.484  13.668  1.00  0.00     0.320 HD
HETATM   37  C39 UNL     1      -8.063   5.504  12.157  1.00  0.00     0.013 C 
BRANCH  34  38
HETATM   38  C34 UNL     1     -13.116   7.077  14.449  1.00  0.00     0.233 C 
HETATM   39  O7  UNL     1     -13.397   5.891  14.272  1.00  0.00    -0.277 OA
HETATM   40  N1  UNL     1     -13.851   7.926  15.278  1.00  0.00    -0.249 NA
HETATM   41  C35 UNL     1     -15.280   7.960  15.220  1.00  0.00     0.113 A 
HETATM   42  C36 UNL     1     -14.576   7.391  16.397  1.00  0.00     0.113 A 
ENDBRANCH  34  38
BRANCH  31  43
HETATM   43  O8  UNL     1     -10.952   8.523  16.631  1.00  0.00    -0.366 OA
HETATM   44  H57 UNL     1     -11.873   8.756  16.413  1.00  0.00     0.212 HD
ENDBRANCH  31  43
ENDBRANCH  24  27
ENDBRANCH  20  24
ENDBRANCH  16  20
BRANCH  15  45
HETATM   45  C19 UNL     1      -3.612   5.431  12.559  1.00  0.00    -0.002 C 
HETATM   46  C20 UNL     1      -2.683   4.526  11.716  1.00  0.00     0.005 C 
HETATM   47  C21 UNL     1      -3.437   3.692  10.672  1.00  0.00     0.000 C 
HETATM   48  C22 UNL     1      -4.906   3.477  11.006  1.00  0.00     0.000 C 
HETATM   49  C23 UNL     1      -5.103   3.301  12.502  1.00  0.00     0.000 C 
HETATM   50  C24 UNL     1      -4.572   4.487  13.323  1.00  0.00     0.005 C 
ENDBRANCH  15  45
BRANCH  19  51
HETATM   51  O9  UNL     1      -0.863   7.361  14.679  1.00  0.00    -0.384 OA
HETATM   52  H66 UNL     1       0.007   7.099  15.024  1.00  0.00     0.211 HD
ENDBRANCH  19  51
BRANCH   1  53
HETATM   53  O2  UNL     1       4.747   6.925   9.907  1.00  0.00    -0.386 OA
BRANCH  53  54
HETATM   54  C4  UNL     1       5.433   7.819  10.786  1.00  0.00     0.170 C 
BRANCH  54  55
HETATM   55  C3  UNL     1       6.684   7.154  11.343  1.00  0.00     0.052 C 
BRANCH  55  56
HETATM   56  C2  UNL     1       7.058   7.674  12.728  1.00  0.00     0.169 C 
BRANCH  56  57
HETATM   57  O1  UNL     1       8.484   7.766  12.850  1.00  0.00    -0.396 OA
HETATM   58  C1  UNL     1       8.920   7.789  14.205  1.00  0.00     0.201 C 
ENDBRANCH  56  57
ENDBRANCH  55  56
ENDBRANCH  54  55
ENDBRANCH  53  54
ENDBRANCH   1  53
TORSDOF 14
ENDMDL
MODEL 8
REMARK minimizedAffinity -7.49572372
REMARK CNNscore 0.311737984
REMARK CNNaffinity 6.32536459
REMARK  14 active torsions:
REMARK  status: ('A' for Active; 'I' for Inactive)
REMARK    1  A    between atoms: O1_2  and  C2_3 
REMARK    2  A    between atoms: C2_3  and  C3_4 
REMARK    3  A    between atoms: C3_4  and  C4_5 
REMARK    4  A    between atoms: C4_5  and  O2_6 
REMARK    5  A    between atoms: O2_6  and  C5_7 
REMARK    6  A    between atoms: C18_21  and  C19_22 
REMARK    7  A    between atoms: C25_28  and  C26_29 
REMARK    8  A    between atoms: C26_29  and  O4_31 
REMARK    9  A    between atoms: C26_29  and  C28_32 
REMARK   10  A    between atoms: C28_32  and  O5_33 
REMARK   11  A    between atoms: C28_32  and  C29_34 
REMARK   12  A    between atoms: C33_39  and  C34_40 
REMARK       I    between atoms: C34_40  and  N1_42 
REMARK   13  A    between atoms: C37_46  and  O8_47 
REMARK   14  A    between atoms: C42_52  and  O9_53 
ROOT
HETATM    1  C5  UNL     1       8.643  16.217  24.613  1.00  0.00     0.122 C 
HETATM    2  C6  UNL     1       7.131  16.005  24.772  1.00  0.00     0.033 C 
HETATM    3  C7  UNL     1       6.336  16.516  23.573  1.00  0.00     0.013 C 
HETATM    4  C8  UNL     1       6.778  15.943  22.172  1.00  0.00    -0.026 C 
HETATM    5  C9  UNL     1       6.851  17.172  21.223  1.00  0.00     0.016 C 
HETATM    6  C10 UNL     1       8.189  15.300  22.270  1.00  0.00     0.071 C 
HETATM    7  C11 UNL     1       9.112  16.162  23.152  1.00  0.00     0.045 C 
HETATM    8  C12 UNL     1       8.198  13.876  22.819  1.00  0.00     0.154 C 
HETATM    9  O3  UNL     1       9.208  13.360  23.292  1.00  0.00    -0.293 OA
HETATM   10  C13 UNL     1       6.986  13.043  22.721  1.00  0.00     0.057 C 
HETATM   11  C14 UNL     1       5.881  13.488  22.112  1.00  0.00    -0.037 C 
HETATM   12  C15 UNL     1       5.697  14.926  21.633  1.00  0.00     0.026 C 
HETATM   13  C16 UNL     1       5.439  14.903  20.104  1.00  0.00     0.011 C 
HETATM   14  C17 UNL     1       4.250  13.989  19.722  1.00  0.00     0.014 C 
HETATM   15  C18 UNL     1       4.442  12.522  20.195  1.00  0.00     0.005 C 
HETATM   16  C25 UNL     1       3.106  11.663  20.270  1.00  0.00     0.034 C 
HETATM   17  C40 UNL     1       3.436  10.588  21.349  1.00  0.00     0.012 C 
HETATM   18  C41 UNL     1       4.587  11.145  22.212  1.00  0.00     0.044 C 
HETATM   19  C42 UNL     1       4.710  12.601  21.767  1.00  0.00     0.090 C 
ENDROOT
BRANCH  16  20
HETATM   20  C26 UNL     1       2.214  11.193  19.079  1.00  0.00     0.087 C 
HETATM   21  C27 UNL     1       0.810  10.799  19.608  1.00  0.00     0.049 C 
BRANCH  20  22
HETATM   22  O4  UNL     1       2.773   9.922  18.622  1.00  0.00    -0.387 OA
HETATM   23  H42 UNL     1       2.891   9.351  19.400  1.00  0.00     0.210 HD
ENDBRANCH  20  22
BRANCH  20  24
HETATM   24  C28 UNL     1       2.023  12.036  17.764  1.00  0.00     0.181 C 
BRANCH  24  25
HETATM   25  O5  UNL     1       0.799  12.786  17.968  1.00  0.00    -0.390 OA
HETATM   26  H44 UNL     1       0.183  12.103  18.318  1.00  0.00     0.210 HD
ENDBRANCH  24  25
BRANCH  24  27
HETATM   27  C29 UNL     1       1.880  11.319  16.400  1.00  0.00     0.158 C 
HETATM   28  O6  UNL     1       2.503  10.006  16.442  1.00  0.00    -0.373 OA
HETATM   29  C30 UNL     1       1.623   9.074  15.803  1.00  0.00     0.185 C 
HETATM   30  C31 UNL     1       0.251   9.600  16.143  1.00  0.00     0.028 C 
HETATM   31  C37 UNL     1       1.772   7.630  16.310  1.00  0.00     0.384 C 
HETATM   32  C32 UNL     1      -0.797   8.829  15.357  1.00  0.00     0.053 C 
HETATM   33  C38 UNL     1       0.439  11.080  15.862  1.00  0.00     0.020 C 
HETATM   34  C33 UNL     1      -0.519   7.303  15.382  1.00  0.00     0.309 C 
HETATM   35  N2  UNL     1       0.526   6.863  16.348  1.00  0.00     0.128 N 
HETATM   36  H55 UNL     1       0.133   6.991  17.284  1.00  0.00     0.320 HD
HETATM   37  C39 UNL     1      -0.691  11.950  16.385  1.00  0.00     0.013 C 
BRANCH  34  38
HETATM   38  C34 UNL     1      -0.341   6.733  13.953  1.00  0.00     0.233 C 
HETATM   39  O7  UNL     1      -0.123   7.468  12.989  1.00  0.00    -0.277 OA
HETATM   40  N1  UNL     1      -0.546   5.357  13.840  1.00  0.00    -0.249 NA
HETATM   41  C35 UNL     1      -1.423   4.819  12.845  1.00  0.00     0.113 A 
HETATM   42  C36 UNL     1       0.046   4.627  12.753  1.00  0.00     0.113 A 
ENDBRANCH  34  38
BRANCH  31  43
HETATM   43  O8  UNL     1       2.680   6.919  15.491  1.00  0.00    -0.366 OA
HETATM   44  H57 UNL     1       2.157   6.141  15.229  1.00  0.00     0.212 HD
ENDBRANCH  31  43
ENDBRANCH  24  27
ENDBRANCH  20  24
ENDBRANCH  16  20
BRANCH  15  45
HETATM   45  C19 UNL     1       5.535  11.746  19.303  1.00  0.00    -0.002 C 
HETATM   46  C20 UNL     1       5.514  12.109  17.799  1.00  0.00     0.005 C 
HETATM   47  C21 UNL     1       6.292  11.115  16.927  1.00  0.00     0.000 C 
HETATM   48  C22 UNL     1       7.352  10.332  17.689  1.00  0.00     0.000 C 
HETATM   49  C23 UNL     1       8.016  11.201  18.744  1.00  0.00     0.000 C 
HETATM   50  C24 UNL     1       7.016  11.798  19.748  1.00  0.00     0.005 C 
ENDBRANCH  15  45
BRANCH  19  51
HETATM   51  O9  UNL     1       3.605  13.262  22.427  1.00  0.00    -0.384 OA
HETATM   52  H66 UNL     1       3.772  13.229  23.384  1.00  0.00     0.211 HD
ENDBRANCH  19  51
BRANCH   1  53
HETATM   53  O2  UNL     1       9.002  17.503  25.133  1.00  0.00    -0.386 OA
BRANCH  53  54
HETATM   54  C4  UNL     1      10.184  18.024  24.520  1.00  0.00     0.170 C 
BRANCH  54  55
HETATM   55  C3  UNL     1      10.184  19.545  24.585  1.00  0.00     0.052 C 
BRANCH  55  56
HETATM   56  C2  UNL     1      11.575  20.140  24.386  1.00  0.00     0.169 C 
BRANCH  56  57
HETATM   57  O1  UNL     1      11.893  21.021  25.472  1.00  0.00    -0.396 OA
HETATM   58  C1  UNL     1      13.176  20.762  26.033  1.00  0.00     0.201 C 
ENDBRANCH  56  57
ENDBRANCH  55  56
ENDBRANCH  54  55
ENDBRANCH  53  54
ENDBRANCH   1  53
TORSDOF 14
ENDMDL
MODEL 9
REMARK minimizedAffinity -8.62294197
REMARK CNNscore 0.298444182
REMARK CNNaffinity 6.86273003
REMARK  14 active torsions:
REMARK  status: ('A' for Active; 'I' for Inactive)
REMARK    1  A    between atoms: O1_2  and  C2_3 
REMARK    2  A    between atoms: C2_3  and  C3_4 
REMARK    3  A    between atoms: C3_4  and  C4_5 
REMARK    4  A    between atoms: C4_5  and  O2_6 
REMARK    5  A    between atoms: O2_6  and  C5_7 
REMARK    6  A    between atoms: C18_21  and  C19_22 
REMARK    7  A    between atoms: C25_28  and  C26_29 
REMARK    8  A    between atoms: C26_29  and  O4_31 
REMARK    9  A    between atoms: C26_29  and  C28_32 
REMARK   10  A    between atoms: C28_32  and  O5_33 
REMARK   11  A    between atoms: C28_32  and  C29_34 
REMARK   12  A    between atoms: C33_39  and  C34_40 
REMARK       I    between atoms: C34_40  and  N1_42 
REMARK   13  A    between atoms: C37_46  and  O8_47 
REMARK   14  A    between atoms: C42_52  and  O9_53 
ROOT
HETATM    1  C5  UNL     1      -4.548   6.364  13.879  1.00  0.00     0.122 C 
HETATM    2  C6  UNL     1      -3.235   6.217  14.660  1.00  0.00     0.033 C 
HETATM    3  C7  UNL     1      -2.092   7.021  14.046  1.00  0.00     0.013 C 
HETATM    4  C8  UNL     1      -2.381   8.557  13.835  1.00  0.00    -0.026 C 
HETATM    5  C9  UNL     1      -1.886   8.880  12.396  1.00  0.00     0.016 C 
HETATM    6  C10 UNL     1      -3.906   8.838  13.916  1.00  0.00     0.071 C 
HETATM    7  C11 UNL     1      -4.696   7.730  13.194  1.00  0.00     0.045 C 
HETATM    8  C12 UNL     1      -4.451   8.965  15.336  1.00  0.00     0.154 C 
HETATM    9  O3  UNL     1      -5.644   8.828  15.597  1.00  0.00    -0.293 OA
HETATM   10  C13 UNL     1      -3.548   9.338  16.440  1.00  0.00     0.057 C 
HETATM   11  C14 UNL     1      -2.258   9.621  16.220  1.00  0.00    -0.037 C 
HETATM   12  C15 UNL     1      -1.561   9.415  14.877  1.00  0.00     0.026 C 
HETATM   13  C16 UNL     1      -1.007  10.781  14.398  1.00  0.00     0.011 C 
HETATM   14  C17 UNL     1      -0.090  11.447  15.452  1.00  0.00     0.014 C 
HETATM   15  C18 UNL     1      -0.802  11.672  16.814  1.00  0.00     0.005 C 
HETATM   16  C25 UNL     1       0.174  11.893  18.050  1.00  0.00     0.034 C 
HETATM   17  C40 UNL     1      -0.678  11.412  19.263  1.00  0.00     0.012 C 
HETATM   18  C41 UNL     1      -1.767  10.468  18.713  1.00  0.00     0.044 C 
HETATM   19  C42 UNL     1      -1.358  10.242  17.258  1.00  0.00     0.090 C 
ENDROOT
BRANCH  16  20
HETATM   20  C26 UNL     1       1.114  13.111  18.308  1.00  0.00     0.087 C 
HETATM   21  C27 UNL     1       0.301  14.426  18.190  1.00  0.00     0.049 C 
BRANCH  20  22
HETATM   22  O4  UNL     1       2.029  13.174  17.169  1.00  0.00    -0.387 OA
HETATM   23  H42 UNL     1       1.496  13.130  16.356  1.00  0.00     0.210 HD
ENDBRANCH  20  22
BRANCH  20  24
HETATM   24  C28 UNL     1       2.047  13.222  19.569  1.00  0.00     0.181 C 
BRANCH  24  25
HETATM   25  O5  UNL     1       2.078  14.635  19.895  1.00  0.00    -0.390 OA
HETATM   26  H44 UNL     1       2.230  15.056  19.018  1.00  0.00     0.210 HD
ENDBRANCH  24  25
BRANCH  24  27
HETATM   27  C29 UNL     1       3.521  12.757  19.486  1.00  0.00     0.158 C 
HETATM   28  O6  UNL     1       4.423  13.838  19.846  1.00  0.00    -0.373 OA
HETATM   29  C30 UNL     1       5.434  13.308  20.709  1.00  0.00     0.185 C 
HETATM   30  C31 UNL     1       4.705  12.242  21.488  1.00  0.00     0.028 C 
HETATM   31  C37 UNL     1       6.035  14.344  21.674  1.00  0.00     0.384 C 
HETATM   32  C32 UNL     1       5.702  11.439  22.307  1.00  0.00     0.053 C 
HETATM   33  C38 UNL     1       3.944  11.549  20.372  1.00  0.00     0.020 C 
HETATM   34  C33 UNL     1       6.727  12.362  23.020  1.00  0.00     0.309 C 
HETATM   35  N2  UNL     1       6.402  13.815  22.989  1.00  0.00     0.128 N 
HETATM   36  H55 UNL     1       5.587  13.947  23.594  1.00  0.00     0.320 HD
HETATM   37  C39 UNL     1       2.872  10.592  20.864  1.00  0.00     0.013 C 
BRANCH  34  38
HETATM   38  C34 UNL     1       8.180  12.028  22.603  1.00  0.00     0.233 C 
HETATM   39  O7  UNL     1       8.966  11.489  23.383  1.00  0.00    -0.277 OA
HETATM   40  N1  UNL     1       8.543  12.472  21.330  1.00  0.00    -0.249 NA
HETATM   41  C35 UNL     1       9.739  13.229  21.125  1.00  0.00     0.113 A 
HETATM   42  C36 UNL     1       9.622  11.836  20.625  1.00  0.00     0.113 A 
ENDBRANCH  34  38
BRANCH  31  43
HETATM   43  O8  UNL     1       7.199  14.916  21.110  1.00  0.00    -0.366 OA
HETATM   44  H57 UNL     1       7.863  14.763  21.806  1.00  0.00     0.212 HD
ENDBRANCH  31  43
ENDBRANCH  24  27
ENDBRANCH  20  24
ENDBRANCH  16  20
BRANCH  15  45
HETATM   45  C19 UNL     1      -1.864  12.879  16.739  1.00  0.00    -0.002 C 
HETATM   46  C20 UNL     1      -1.780  13.732  15.451  1.00  0.00     0.005 C 
HETATM   47  C21 UNL     1      -2.530  15.066  15.559  1.00  0.00     0.000 C 
HETATM   48  C22 UNL     1      -3.625  15.068  16.616  1.00  0.00     0.000 C 
HETATM   49  C23 UNL     1      -4.324  13.721  16.676  1.00  0.00     0.000 C 
HETATM   50  C24 UNL     1      -3.362  12.555  16.956  1.00  0.00     0.005 C 
ENDBRANCH  15  45
BRANCH  19  51
HETATM   51  O9  UNL     1      -0.270   9.292  17.345  1.00  0.00    -0.384 OA
HETATM   52  H66 UNL     1      -0.635   8.458  17.684  1.00  0.00     0.211 HD
ENDBRANCH  19  51
BRANCH   1  53
HETATM   53  O2  UNL     1      -4.611   5.361  12.858  1.00  0.00    -0.386 OA
BRANCH  53  54
HETATM   54  C4  UNL     1      -5.375   4.223  13.263  1.00  0.00     0.170 C 
BRANCH  54  55
HETATM   55  C3  UNL     1      -6.230   3.723  12.107  1.00  0.00     0.052 C 
BRANCH  55  56
HETATM   56  C2  UNL     1      -7.164   2.588  12.515  1.00  0.00     0.169 C 
BRANCH  56  57
HETATM   57  O1  UNL     1      -8.445   3.115  12.887  1.00  0.00    -0.396 OA
HETATM   58  C1  UNL     1      -8.535   4.524  12.702  1.00  0.00     0.201 C 
ENDBRANCH  56  57
ENDBRANCH  55  56
ENDBRANCH  54  55
ENDBRANCH  53  54
ENDBRANCH   1  53
TORSDOF 14
ENDMDL
