MODEL 1
REMARK minimizedAffinity -10.1635141
REMARK  7 active torsions:
REMARK  status: ('A' for Active; 'I' for Inactive)
REMARK    1  A    between atoms: C2_2  and  C30_32 
REMARK    2  A    between atoms: C3_3  and  C4_4 
REMARK    3  A    between atoms: C4_4  and  O1_5 
REMARK    4  A    between atoms: C4_4  and  C5_6 
REMARK    5  A    between atoms: C5_6  and  C6_7 
REMARK    6  A    between atoms: C6_7  and  C8_9 
REMARK    7  A    between atoms: C30_32  and  O4_34 
ROOT
HETATM    1  C8  UNL     1      -3.921  50.104 -24.400  1.00  0.00    -0.002 C 
HETATM    2  C9  UNL     1      -5.186  49.443 -23.809  1.00  0.00     0.006 C 
HETATM    3  C10 UNL     1      -5.014  49.444 -22.275  1.00  0.00     0.011 C 
HETATM    4  C11 UNL     1      -3.831  50.396 -21.995  1.00  0.00    -0.032 C 
HETATM    5  C12 UNL     1      -4.412  51.844 -21.961  1.00  0.00     0.016 C 
HETATM    6  C13 UNL     1      -3.058  50.112 -20.677  1.00  0.00     0.004 C 
HETATM    7  C14 UNL     1      -3.807  50.530 -19.402  1.00  0.00     0.007 C 
HETATM    8  C15 UNL     1      -3.013  50.109 -18.167  1.00  0.00     0.007 C 
HETATM    9  C16 UNL     1      -1.731  50.944 -18.040  1.00  0.00     0.010 C 
HETATM   10  C17 UNL     1      -0.800  50.536 -16.851  1.00  0.00     0.018 C 
HETATM   11  C18 UNL     1      -1.359  51.084 -15.525  1.00  0.00     0.023 C 
HETATM   12  C19 UNL     1      -0.616  49.016 -16.703  1.00  0.00     0.023 C 
HETATM   13  C20 UNL     1       0.585  51.175 -17.049  1.00  0.00     0.135 C 
HETATM   14  O2  UNL     1       1.587  50.767 -16.462  1.00  0.00    -0.297 OA
HETATM   15  C21 UNL     1       0.659  52.410 -17.912  1.00  0.00     0.080 C 
HETATM   16  C22 UNL     1       0.088  52.167 -19.305  1.00  0.00     0.018 C 
HETATM   17  C23 UNL     1      -0.941  51.044 -19.346  1.00  0.00    -0.026 A 
HETATM   18  C24 UNL     1      -0.553  49.793 -20.091  1.00  0.00     0.021 A 
HETATM   19  C25 UNL     1      -1.619  50.694 -20.700  1.00  0.00    -0.027 A 
HETATM   20  C26 UNL     1      -1.197  51.513 -21.929  1.00  0.00     0.011 C 
HETATM   21  C27 UNL     1      -1.812  51.150 -23.292  1.00  0.00     0.011 C 
HETATM   22  C28 UNL     1      -2.900  50.078 -23.223  1.00  0.00    -0.032 C 
HETATM   23  C29 UNL     1      -2.202  48.696 -23.129  1.00  0.00     0.016 C 
ENDROOT
BRANCH   1  24
HETATM   24  C6  UNL     1      -3.520  49.744 -25.858  1.00  0.00    -0.011 C 
HETATM   25  C7  UNL     1      -4.283  48.477 -26.298  1.00  0.00     0.010 C 
BRANCH  24  26
HETATM   26  C5  UNL     1      -2.043  49.659 -26.316  1.00  0.00     0.040 C 
BRANCH  26  27
HETATM   27  C4  UNL     1      -1.369  50.875 -26.962  1.00  0.00     0.142 C 
BRANCH  27  28
HETATM   28  C3  UNL     1       0.093  50.903 -26.606  1.00  0.00     0.018 C 
HETATM   29  C2  UNL     1       1.114  51.458 -27.295  1.00  0.00     0.010 C 
HETATM   30  C1  UNL     1       1.011  52.182 -28.606  1.00  0.00     0.055 C 
BRANCH  29  31
HETATM   31  C30 UNL     1       2.506  51.386 -26.770  1.00  0.00     0.171 C 
HETATM   32  O3  UNL     1       2.876  50.664 -25.860  1.00  0.00    -0.646 OA
BRANCH  31  33
HETATM   33  O4  UNL     1       3.370  52.199 -27.397  1.00  0.00    -0.773 OA
HETATM   34  H46 UNL     1       4.223  52.027 -26.946  1.00  0.00     0.167 HD
ENDBRANCH  31  33
ENDBRANCH  29  31
ENDBRANCH  27  28
BRANCH  27  35
HETATM   35  O1  UNL     1      -1.933  52.078 -26.457  1.00  0.00    -0.392 OA
HETATM   36  H6  UNL     1      -1.376  52.813 -26.762  1.00  0.00     0.210 HD
ENDBRANCH  27  35
ENDBRANCH  26  27
ENDBRANCH  24  26
ENDBRANCH   1  24
TORSDOF 7
ENDMDL
MODEL 2
REMARK minimizedAffinity -9.97834778
REMARK  7 active torsions:
REMARK  status: ('A' for Active; 'I' for Inactive)
REMARK    1  A    between atoms: C2_2  and  C30_32 
REMARK    2  A    between atoms: C3_3  and  C4_4 
REMARK    3  A    between atoms: C4_4  and  O1_5 
REMARK    4  A    between atoms: C4_4  and  C5_6 
REMARK    5  A    between atoms: C5_6  and  C6_7 
REMARK    6  A    between atoms: C6_7  and  C8_9 
REMARK    7  A    between atoms: C30_32  and  O4_34 
ROOT
HETATM    1  C8  UNL     1      -0.974  49.465 -18.153  1.00  0.00    -0.002 C 
HETATM    2  C9  UNL     1      -2.188  48.511 -18.207  1.00  0.00     0.006 C 
HETATM    3  C10 UNL     1      -2.698  48.520 -19.664  1.00  0.00     0.011 C 
HETATM    4  C11 UNL     1      -1.582  49.200 -20.486  1.00  0.00    -0.032 C 
HETATM    5  C12 UNL     1      -0.533  48.097 -20.828  1.00  0.00     0.016 C 
HETATM    6  C13 UNL     1      -2.058  49.892 -21.793  1.00  0.00     0.004 C 
HETATM    7  C14 UNL     1      -2.418  48.920 -22.927  1.00  0.00     0.007 C 
HETATM    8  C15 UNL     1      -2.975  49.692 -24.122  1.00  0.00     0.007 C 
HETATM    9  C16 UNL     1      -1.871  50.524 -24.788  1.00  0.00     0.010 C 
HETATM   10  C17 UNL     1      -2.355  51.421 -25.975  1.00  0.00     0.018 C 
HETATM   11  C18 UNL     1      -2.556  50.567 -27.240  1.00  0.00     0.023 C 
HETATM   12  C19 UNL     1      -3.666  52.172 -25.689  1.00  0.00     0.023 C 
HETATM   13  C20 UNL     1      -1.266  52.456 -26.305  1.00  0.00     0.135 C 
HETATM   14  O2  UNL     1      -1.503  53.476 -26.953  1.00  0.00    -0.297 OA
HETATM   15  C21 UNL     1       0.150  52.122 -25.903  1.00  0.00     0.080 C 
HETATM   16  C22 UNL     1       0.264  51.830 -24.412  1.00  0.00     0.018 C 
HETATM   17  C23 UNL     1      -1.037  51.333 -23.794  1.00  0.00    -0.026 A 
HETATM   18  C24 UNL     1      -1.717  52.252 -22.811  1.00  0.00     0.021 A 
HETATM   19  C25 UNL     1      -1.066  50.982 -22.280  1.00  0.00    -0.027 A 
HETATM   20  C26 UNL     1       0.240  51.164 -21.492  1.00  0.00     0.011 C 
HETATM   21  C27 UNL     1       0.225  50.876 -19.981  1.00  0.00     0.011 C 
HETATM   22  C28 UNL     1      -1.093  50.296 -19.466  1.00  0.00    -0.032 C 
HETATM   23  C29 UNL     1      -2.093  51.468 -19.290  1.00  0.00     0.016 C 
ENDROOT
BRANCH   1  24
HETATM   24  C6  UNL     1      -0.613  50.114 -16.788  1.00  0.00    -0.011 C 
HETATM   25  C7  UNL     1      -1.721  49.794 -15.763  1.00  0.00     0.010 C 
BRANCH  24  26
HETATM   26  C5  UNL     1      -0.186  51.597 -16.660  1.00  0.00     0.040 C 
BRANCH  26  27
HETATM   27  C4  UNL     1       1.301  51.967 -16.631  1.00  0.00     0.142 C 
BRANCH  27  28
HETATM   28  C3  UNL     1       1.986  51.259 -15.493  1.00  0.00     0.018 C 
HETATM   29  C2  UNL     1       3.285  51.318 -15.129  1.00  0.00     0.010 C 
HETATM   30  C1  UNL     1       4.361  52.119 -15.803  1.00  0.00     0.055 C 
BRANCH  29  31
HETATM   31  C30 UNL     1       3.777  50.540 -13.957  1.00  0.00     0.171 C 
HETATM   32  O3  UNL     1       4.761  49.820 -13.956  1.00  0.00    -0.646 OA
BRANCH  31  33
HETATM   33  O4  UNL     1       3.038  50.695 -12.847  1.00  0.00    -0.773 OA
HETATM   34  H46 UNL     1       3.493  50.136 -12.184  1.00  0.00     0.167 HD
ENDBRANCH  31  33
ENDBRANCH  29  31
ENDBRANCH  27  28
BRANCH  27  35
HETATM   35  O1  UNL     1       1.459  53.360 -16.396  1.00  0.00    -0.392 OA
HETATM   36  H6  UNL     1       2.401  53.523 -16.223  1.00  0.00     0.210 HD
ENDBRANCH  27  35
ENDBRANCH  26  27
ENDBRANCH  24  26
ENDBRANCH   1  24
TORSDOF 7
ENDMDL
MODEL 3
REMARK minimizedAffinity -9.8489027
REMARK  7 active torsions:
REMARK  status: ('A' for Active; 'I' for Inactive)
REMARK    1  A    between atoms: C2_2  and  C30_32 
REMARK    2  A    between atoms: C3_3  and  C4_4 
REMARK    3  A    between atoms: C4_4  and  O1_5 
REMARK    4  A    between atoms: C4_4  and  C5_6 
REMARK    5  A    between atoms: C5_6  and  C6_7 
REMARK    6  A    between atoms: C6_7  and  C8_9 
REMARK    7  A    between atoms: C30_32  and  O4_34 
ROOT
HETATM    1  C8  UNL     1      -0.955  49.937 -17.972  1.00  0.00    -0.002 C 
HETATM    2  C9  UNL     1      -2.173  48.985 -17.957  1.00  0.00     0.006 C 
HETATM    3  C10 UNL     1      -2.682  48.890 -19.412  1.00  0.00     0.011 C 
HETATM    4  C11 UNL     1      -1.563  49.506 -20.280  1.00  0.00    -0.032 C 
HETATM    5  C12 UNL     1      -0.517  48.376 -20.540  1.00  0.00     0.016 C 
HETATM    6  C13 UNL     1      -2.036  50.102 -21.635  1.00  0.00     0.004 C 
HETATM    7  C14 UNL     1      -2.399  49.052 -22.696  1.00  0.00     0.007 C 
HETATM    8  C15 UNL     1      -2.952  49.737 -23.943  1.00  0.00     0.007 C 
HETATM    9  C16 UNL     1      -1.845  50.515 -24.668  1.00  0.00     0.010 C 
HETATM   10  C17 UNL     1      -2.325  51.326 -25.917  1.00  0.00     0.018 C 
HETATM   11  C18 UNL     1      -2.529  50.382 -27.117  1.00  0.00     0.023 C 
HETATM   12  C19 UNL     1      -3.633  52.100 -25.687  1.00  0.00     0.023 C 
HETATM   13  C20 UNL     1      -1.231  52.329 -26.320  1.00  0.00     0.135 C 
HETATM   14  O2  UNL     1      -1.464  53.301 -27.041  1.00  0.00    -0.297 OA
HETATM   15  C21 UNL     1       0.183  52.020 -25.894  1.00  0.00     0.080 C 
HETATM   16  C22 UNL     1       0.295  51.836 -24.385  1.00  0.00     0.018 C 
HETATM   17  C23 UNL     1      -1.008  51.391 -23.734  1.00  0.00    -0.026 A 
HETATM   18  C24 UNL     1      -1.686  52.381 -22.821  1.00  0.00     0.021 A 
HETATM   19  C25 UNL     1      -1.039  51.150 -22.198  1.00  0.00    -0.027 A 
HETATM   20  C26 UNL     1       0.267  51.385 -21.425  1.00  0.00     0.011 C 
HETATM   21  C27 UNL     1       0.250  51.206 -19.896  1.00  0.00     0.011 C 
HETATM   22  C28 UNL     1      -1.070  50.670 -19.343  1.00  0.00    -0.032 C 
HETATM   23  C29 UNL     1      -2.066  51.856 -19.253  1.00  0.00     0.016 C 
ENDROOT
BRANCH   1  24
HETATM   24  C6  UNL     1      -0.592  50.681 -16.657  1.00  0.00    -0.011 C 
HETATM   25  C7  UNL     1       0.933  50.611 -16.437  1.00  0.00     0.010 C 
BRANCH  24  26
HETATM   26  C5  UNL     1      -1.333  50.417 -15.323  1.00  0.00     0.040 C 
BRANCH  26  27
HETATM   27  C4  UNL     1      -1.000  51.254 -14.083  1.00  0.00     0.142 C 
BRANCH  27  28
HETATM   28  C3  UNL     1      -2.239  51.946 -13.580  1.00  0.00     0.018 C 
HETATM   29  C2  UNL     1      -2.511  52.376 -12.329  1.00  0.00     0.010 C 
HETATM   30  C1  UNL     1      -1.614  52.247 -11.131  1.00  0.00     0.055 C 
BRANCH  29  31
HETATM   31  C30 UNL     1      -3.804  53.051 -12.027  1.00  0.00     0.171 C 
HETATM   32  O3  UNL     1      -4.377  53.019 -10.951  1.00  0.00    -0.646 OA
BRANCH  31  33
HETATM   33  O4  UNL     1      -4.319  53.736 -13.060  1.00  0.00    -0.773 OA
HETATM   34  H46 UNL     1      -5.145  54.118 -12.698  1.00  0.00     0.167 HD
ENDBRANCH  31  33
ENDBRANCH  29  31
ENDBRANCH  27  28
BRANCH  27  35
HETATM   35  O1  UNL     1      -0.069  52.277 -14.412  1.00  0.00    -0.392 OA
HETATM   36  H6  UNL     1      -0.012  52.877 -13.651  1.00  0.00     0.210 HD
ENDBRANCH  27  35
ENDBRANCH  26  27
ENDBRANCH  24  26
ENDBRANCH   1  24
TORSDOF 7
ENDMDL
MODEL 4
REMARK minimizedAffinity -9.74156284
REMARK  7 active torsions:
REMARK  status: ('A' for Active; 'I' for Inactive)
REMARK    1  A    between atoms: C2_2  and  C30_32 
REMARK    2  A    between atoms: C3_3  and  C4_4 
REMARK    3  A    between atoms: C4_4  and  O1_5 
REMARK    4  A    between atoms: C4_4  and  C5_6 
REMARK    5  A    between atoms: C5_6  and  C6_7 
REMARK    6  A    between atoms: C6_7  and  C8_9 
REMARK    7  A    between atoms: C30_32  and  O4_34 
ROOT
HETATM    1  C8  UNL     1      -0.678  50.201 -21.429  1.00  0.00    -0.002 C 
HETATM    2  C9  UNL     1      -0.662  49.553 -20.026  1.00  0.00     0.006 C 
HETATM    3  C10 UNL     1      -1.941  48.694 -19.918  1.00  0.00     0.011 C 
HETATM    4  C11 UNL     1      -2.490  48.591 -21.357  1.00  0.00    -0.032 C 
HETATM    5  C12 UNL     1      -1.726  47.420 -22.051  1.00  0.00     0.016 C 
HETATM    6  C13 UNL     1      -4.021  48.350 -21.460  1.00  0.00     0.004 C 
HETATM    7  C14 UNL     1      -4.462  46.923 -21.098  1.00  0.00     0.007 C 
HETATM    8  C15 UNL     1      -5.986  46.823 -21.125  1.00  0.00     0.007 C 
HETATM    9  C16 UNL     1      -6.509  46.935 -22.563  1.00  0.00     0.010 C 
HETATM   10  C17 UNL     1      -8.068  46.929 -22.696  1.00  0.00     0.018 C 
HETATM   11  C18 UNL     1      -8.609  45.495 -22.548  1.00  0.00     0.023 C 
HETATM   12  C19 UNL     1      -8.780  47.819 -21.664  1.00  0.00     0.023 C 
HETATM   13  C20 UNL     1      -8.459  47.410 -24.103  1.00  0.00     0.135 C 
HETATM   14  O2  UNL     1      -9.592  47.813 -24.369  1.00  0.00    -0.297 OA
HETATM   15  C21 UNL     1      -7.428  47.263 -25.195  1.00  0.00     0.080 C 
HETATM   16  C22 UNL     1      -6.122  47.964 -24.843  1.00  0.00     0.018 C 
HETATM   17  C23 UNL     1      -5.897  48.101 -23.342  1.00  0.00    -0.026 A 
HETATM   18  C24 UNL     1      -5.942  49.495 -22.772  1.00  0.00     0.021 A 
HETATM   19  C25 UNL     1      -4.596  48.784 -22.835  1.00  0.00    -0.027 A 
HETATM   20  C26 UNL     1      -3.609  49.290 -23.897  1.00  0.00     0.011 C 
HETATM   21  C27 UNL     1      -2.339  50.019 -23.422  1.00  0.00     0.011 C 
HETATM   22  C28 UNL     1      -2.151  50.027 -21.905  1.00  0.00    -0.032 C 
HETATM   23  C29 UNL     1      -3.056  51.142 -21.319  1.00  0.00     0.016 C 
ENDROOT
BRANCH   1  24
HETATM   24  C6  UNL     1       0.113  51.523 -21.633  1.00  0.00    -0.011 C 
HETATM   25  C7  UNL     1       0.350  52.192 -20.263  1.00  0.00     0.010 C 
BRANCH  24  26
HETATM   26  C5  UNL     1      -0.306  52.588 -22.676  1.00  0.00     0.040 C 
BRANCH  26  27
HETATM   27  C4  UNL     1      -0.693  52.160 -24.096  1.00  0.00     0.142 C 
BRANCH  27  28
HETATM   28  C3  UNL     1       0.535  52.088 -24.965  1.00  0.00     0.018 C 
HETATM   29  C2  UNL     1       0.700  51.428 -26.131  1.00  0.00     0.010 C 
HETATM   30  C1  UNL     1      -0.331  50.591 -26.832  1.00  0.00     0.055 C 
BRANCH  29  31
HETATM   31  C30 UNL     1       2.002  51.485 -26.854  1.00  0.00     0.171 C 
HETATM   32  O3  UNL     1       2.160  51.918 -27.982  1.00  0.00    -0.646 OA
BRANCH  31  33
HETATM   33  O4  UNL     1       3.041  51.014 -26.147  1.00  0.00    -0.773 OA
HETATM   34  H46 UNL     1       3.804  51.128 -26.750  1.00  0.00     0.167 HD
ENDBRANCH  31  33
ENDBRANCH  29  31
ENDBRANCH  27  28
BRANCH  27  35
HETATM   35  O1  UNL     1      -1.552  53.126 -24.687  1.00  0.00    -0.392 OA
HETATM   36  H6  UNL     1      -1.640  52.903 -25.629  1.00  0.00     0.210 HD
ENDBRANCH  27  35
ENDBRANCH  26  27
ENDBRANCH  24  26
ENDBRANCH   1  24
TORSDOF 7
ENDMDL
MODEL 5
REMARK minimizedAffinity -9.62044907
REMARK  7 active torsions:
REMARK  status: ('A' for Active; 'I' for Inactive)
REMARK    1  A    between atoms: C2_2  and  C30_32 
REMARK    2  A    between atoms: C3_3  and  C4_4 
REMARK    3  A    between atoms: C4_4  and  O1_5 
REMARK    4  A    between atoms: C4_4  and  C5_6 
REMARK    5  A    between atoms: C5_6  and  C6_7 
REMARK    6  A    between atoms: C6_7  and  C8_9 
REMARK    7  A    between atoms: C30_32  and  O4_34 
ROOT
HETATM    1  C8  UNL     1      -2.028  48.915 -18.347  1.00  0.00    -0.002 C 
HETATM    2  C9  UNL     1      -3.240  48.030 -18.712  1.00  0.00     0.006 C 
HETATM    3  C10 UNL     1      -3.470  48.194 -20.231  1.00  0.00     0.011 C 
HETATM    4  C11 UNL     1      -2.200  48.891 -20.766  1.00  0.00    -0.032 C 
HETATM    5  C12 UNL     1      -1.141  47.772 -21.016  1.00  0.00     0.016 C 
HETATM    6  C13 UNL     1      -2.404  49.719 -22.064  1.00  0.00     0.004 C 
HETATM    7  C14 UNL     1      -2.577  48.871 -23.334  1.00  0.00     0.007 C 
HETATM    8  C15 UNL     1      -2.878  49.773 -24.529  1.00  0.00     0.007 C 
HETATM    9  C16 UNL     1      -1.645  50.607 -24.900  1.00  0.00     0.010 C 
HETATM   10  C17 UNL     1      -1.871  51.630 -26.062  1.00  0.00     0.018 C 
HETATM   11  C18 UNL     1      -1.861  50.903 -27.420  1.00  0.00     0.023 C 
HETATM   12  C19 UNL     1      -3.188  52.415 -25.947  1.00  0.00     0.023 C 
HETATM   13  C20 UNL     1      -0.708  52.635 -26.086  1.00  0.00     0.135 C 
HETATM   14  O2  UNL     1      -0.788  53.720 -26.664  1.00  0.00    -0.297 OA
HETATM   15  C21 UNL     1       0.597  52.198 -25.468  1.00  0.00     0.080 C 
HETATM   16  C22 UNL     1       0.424  51.768 -24.017  1.00  0.00     0.018 C 
HETATM   17  C23 UNL     1      -0.984  51.283 -23.696  1.00  0.00    -0.026 A 
HETATM   18  C24 UNL     1      -1.806  52.141 -22.769  1.00  0.00     0.021 A 
HETATM   19  C25 UNL     1      -1.305  50.798 -22.254  1.00  0.00    -0.027 A 
HETATM   20  C26 UNL     1      -0.162  50.846 -21.229  1.00  0.00     0.011 C 
HETATM   21  C27 UNL     1      -0.466  50.423 -19.780  1.00  0.00     0.011 C 
HETATM   22  C28 UNL     1      -1.874  49.865 -19.573  1.00  0.00    -0.032 C 
HETATM   23  C29 UNL     1      -2.852  51.064 -19.468  1.00  0.00     0.016 C 
ENDROOT
BRANCH   1  24
HETATM   24  C6  UNL     1      -1.906  49.420 -16.882  1.00  0.00    -0.011 C 
HETATM   25  C7  UNL     1      -2.861  50.613 -16.673  1.00  0.00     0.010 C 
BRANCH  24  26
HETATM   26  C5  UNL     1      -0.538  49.714 -16.216  1.00  0.00     0.040 C 
BRANCH  26  27
HETATM   27  C4  UNL     1      -0.393  50.896 -15.252  1.00  0.00     0.142 C 
BRANCH  27  28
HETATM   28  C3  UNL     1       1.049  51.319 -15.168  1.00  0.00     0.018 C 
HETATM   29  C2  UNL     1       1.780  51.994 -16.080  1.00  0.00     0.010 C 
HETATM   30  C1  UNL     1       1.303  52.479 -17.419  1.00  0.00     0.055 C 
BRANCH  29  31
HETATM   31  C30 UNL     1       3.207  52.329 -15.808  1.00  0.00     0.171 C 
HETATM   32  O3  UNL     1       4.105  52.289 -16.631  1.00  0.00    -0.646 OA
BRANCH  31  33
HETATM   33  O4  UNL     1       3.450  52.702 -14.542  1.00  0.00    -0.773 OA
HETATM   34  H46 UNL     1       4.411  52.891 -14.536  1.00  0.00     0.167 HD
ENDBRANCH  31  33
ENDBRANCH  29  31
ENDBRANCH  27  28
BRANCH  27  35
HETATM   35  O1  UNL     1      -0.781  50.513 -13.939  1.00  0.00    -0.392 OA
HETATM   36  H6  UNL     1      -0.522  51.230 -13.336  1.00  0.00     0.210 HD
ENDBRANCH  27  35
ENDBRANCH  26  27
ENDBRANCH  24  26
ENDBRANCH   1  24
TORSDOF 7
ENDMDL
MODEL 6
REMARK minimizedAffinity -9.56013298
REMARK  7 active torsions:
REMARK  status: ('A' for Active; 'I' for Inactive)
REMARK    1  A    between atoms: C2_2  and  C30_32 
REMARK    2  A    between atoms: C3_3  and  C4_4 
REMARK    3  A    between atoms: C4_4  and  O1_5 
REMARK    4  A    between atoms: C4_4  and  C5_6 
REMARK    5  A    between atoms: C5_6  and  C6_7 
REMARK    6  A    between atoms: C6_7  and  C8_9 
REMARK    7  A    between atoms: C30_32  and  O4_34 
ROOT
HETATM    1  C8  UNL     1      -0.285  51.462 -17.654  1.00  0.00    -0.002 C 
HETATM    2  C9  UNL     1       1.169  51.985 -17.689  1.00  0.00     0.006 C 
HETATM    3  C10 UNL     1       1.463  52.386 -19.151  1.00  0.00     0.011 C 
HETATM    4  C11 UNL     1       0.089  52.409 -19.855  1.00  0.00    -0.032 C 
HETATM    5  C12 UNL     1      -0.545  53.806 -19.568  1.00  0.00     0.016 C 
HETATM    6  C13 UNL     1       0.134  52.160 -21.388  1.00  0.00     0.004 C 
HETATM    7  C14 UNL     1       0.668  53.346 -22.206  1.00  0.00     0.007 C 
HETATM    8  C15 UNL     1       0.773  52.961 -23.680  1.00  0.00     0.007 C 
HETATM    9  C16 UNL     1      -0.623  52.788 -24.293  1.00  0.00     0.010 C 
HETATM   10  C17 UNL     1      -0.628  52.310 -25.783  1.00  0.00     0.018 C 
HETATM   11  C18 UNL     1      -0.298  53.486 -26.720  1.00  0.00     0.023 C 
HETATM   12  C19 UNL     1       0.365  51.172 -26.072  1.00  0.00     0.023 C 
HETATM   13  C20 UNL     1      -2.040  51.827 -26.155  1.00  0.00     0.135 C 
HETATM   14  O2  UNL     1      -2.253  51.106 -27.131  1.00  0.00    -0.297 OA
HETATM   15  C21 UNL     1      -3.192  52.366 -25.343  1.00  0.00     0.080 C 
HETATM   16  C22 UNL     1      -3.016  52.091 -23.854  1.00  0.00     0.018 C 
HETATM   17  C23 UNL     1      -1.559  51.931 -23.439  1.00  0.00    -0.026 A 
HETATM   18  C24 UNL     1      -1.126  50.558 -22.992  1.00  0.00     0.021 A 
HETATM   19  C25 UNL     1      -1.227  51.660 -21.945  1.00  0.00    -0.027 A 
HETATM   20  C26 UNL     1      -2.409  51.567 -20.969  1.00  0.00     0.011 C 
HETATM   21  C27 UNL     1      -2.112  51.246 -19.494  1.00  0.00     0.011 C 
HETATM   22  C28 UNL     1      -0.622  51.194 -19.151  1.00  0.00    -0.032 C 
HETATM   23  C29 UNL     1      -0.078  49.813 -19.601  1.00  0.00     0.016 C 
ENDROOT
BRANCH   1  24
HETATM   24  C6  UNL     1      -0.681  50.475 -16.521  1.00  0.00    -0.011 C 
HETATM   25  C7  UNL     1      -0.608  49.030 -17.056  1.00  0.00     0.010 C 
BRANCH  24  26
HETATM   26  C5  UNL     1      -1.960  50.660 -15.668  1.00  0.00     0.040 C 
BRANCH  26  27
HETATM   27  C4  UNL     1      -1.866  50.679 -14.138  1.00  0.00     0.142 C 
BRANCH  27  28
HETATM   28  C3  UNL     1      -2.830  51.689 -13.576  1.00  0.00     0.018 C 
HETATM   29  C2  UNL     1      -2.841  52.244 -12.345  1.00  0.00     0.010 C 
HETATM   30  C1  UNL     1      -1.870  51.962 -11.235  1.00  0.00     0.055 C 
BRANCH  29  31
HETATM   31  C30 UNL     1      -3.885  53.240 -11.974  1.00  0.00     0.171 C 
HETATM   32  O3  UNL     1      -4.347  53.388 -10.856  1.00  0.00    -0.646 OA
BRANCH  31  33
HETATM   33  O4  UNL     1      -4.299  54.006 -12.996  1.00  0.00    -0.773 OA
HETATM   34  H46 UNL     1      -4.964  54.599 -12.588  1.00  0.00     0.167 HD
ENDBRANCH  31  33
ENDBRANCH  29  31
ENDBRANCH  27  28
BRANCH  27  35
HETATM   35  O1  UNL     1      -0.567  51.087 -13.729  1.00  0.00    -0.392 OA
HETATM   36  H6  UNL     1      -0.598  51.244 -12.771  1.00  0.00     0.210 HD
ENDBRANCH  27  35
ENDBRANCH  26  27
ENDBRANCH  24  26
ENDBRANCH   1  24
TORSDOF 7
ENDMDL
MODEL 7
REMARK minimizedAffinity -9.49942493
REMARK  7 active torsions:
REMARK  status: ('A' for Active; 'I' for Inactive)
REMARK    1  A    between atoms: C2_2  and  C30_32 
REMARK    2  A    between atoms: C3_3  and  C4_4 
REMARK    3  A    between atoms: C4_4  and  O1_5 
REMARK    4  A    between atoms: C4_4  and  C5_6 
REMARK    5  A    between atoms: C5_6  and  C6_7 
REMARK    6  A    between atoms: C6_7  and  C8_9 
REMARK    7  A    between atoms: C30_32  and  O4_34 
ROOT
HETATM    1  C8  UNL     1      -0.572  51.496 -17.607  1.00  0.00    -0.002 C 
HETATM    2  C9  UNL     1       0.921  51.896 -17.623  1.00  0.00     0.006 C 
HETATM    3  C10 UNL     1       1.279  52.223 -19.089  1.00  0.00     0.011 C 
HETATM    4  C11 UNL     1      -0.073  52.335 -19.827  1.00  0.00    -0.032 C 
HETATM    5  C12 UNL     1      -0.594  53.789 -19.599  1.00  0.00     0.016 C 
HETATM    6  C13 UNL     1      -0.016  52.033 -21.350  1.00  0.00     0.004 C 
HETATM    7  C14 UNL     1       0.633  53.143 -22.191  1.00  0.00     0.007 C 
HETATM    8  C15 UNL     1       0.738  52.702 -23.649  1.00  0.00     0.007 C 
HETATM    9  C16 UNL     1      -0.655  52.624 -24.291  1.00  0.00     0.010 C 
HETATM   10  C17 UNL     1      -0.668  52.099 -25.765  1.00  0.00     0.018 C 
HETATM   11  C18 UNL     1      -0.220  53.213 -26.730  1.00  0.00     0.023 C 
HETATM   12  C19 UNL     1       0.233  50.875 -25.993  1.00  0.00     0.023 C 
HETATM   13  C20 UNL     1      -2.107  51.723 -26.156  1.00  0.00     0.135 C 
HETATM   14  O2  UNL     1      -2.357  50.989 -27.113  1.00  0.00    -0.297 OA
HETATM   15  C21 UNL     1      -3.226  52.382 -25.389  1.00  0.00     0.080 C 
HETATM   16  C22 UNL     1      -3.106  52.143 -23.888  1.00  0.00     0.018 C 
HETATM   17  C23 UNL     1      -1.677  51.877 -23.433  1.00  0.00    -0.026 A 
HETATM   18  C24 UNL     1      -1.370  50.488 -22.933  1.00  0.00     0.021 A 
HETATM   19  C25 UNL     1      -1.401  51.629 -21.924  1.00  0.00    -0.027 A 
HETATM   20  C26 UNL     1      -2.608  51.666 -20.974  1.00  0.00     0.011 C 
HETATM   21  C27 UNL     1      -2.370  51.370 -19.483  1.00  0.00     0.011 C 
HETATM   22  C28 UNL     1      -0.898  51.207 -19.103  1.00  0.00    -0.032 C 
HETATM   23  C29 UNL     1      -0.461  49.772 -19.496  1.00  0.00     0.016 C 
ENDROOT
BRANCH   1  24
HETATM   24  C6  UNL     1      -1.072  50.583 -16.454  1.00  0.00    -0.011 C 
HETATM   25  C7  UNL     1      -2.598  50.750 -16.297  1.00  0.00     0.010 C 
BRANCH  24  26
HETATM   26  C5  UNL     1      -0.397  50.561 -15.060  1.00  0.00     0.040 C 
BRANCH  26  27
HETATM   27  C4  UNL     1       0.680  51.595 -14.713  1.00  0.00     0.142 C 
BRANCH  27  28
HETATM   28  C3  UNL     1       1.806  50.934 -13.963  1.00  0.00     0.018 C 
HETATM   29  C2  UNL     1       3.131  50.999 -14.212  1.00  0.00     0.010 C 
HETATM   30  C1  UNL     1       3.790  51.759 -15.327  1.00  0.00     0.055 C 
BRANCH  29  31
HETATM   31  C30 UNL     1       4.100  50.272 -13.343  1.00  0.00     0.171 C 
HETATM   32  O3  UNL     1       5.033  49.598 -13.744  1.00  0.00    -0.646 OA
BRANCH  31  33
HETATM   33  O4  UNL     1       3.874  50.421 -12.028  1.00  0.00    -0.773 OA
HETATM   34  H46 UNL     1       4.589  49.899 -11.609  1.00  0.00     0.167 HD
ENDBRANCH  31  33
ENDBRANCH  29  31
ENDBRANCH  27  28
BRANCH  27  35
HETATM   35  O1  UNL     1       0.148  52.592 -13.850  1.00  0.00    -0.392 OA
HETATM   36  H6  UNL     1       0.892  53.127 -13.527  1.00  0.00     0.210 HD
ENDBRANCH  27  35
ENDBRANCH  26  27
ENDBRANCH  24  26
ENDBRANCH   1  24
TORSDOF 7
ENDMDL
MODEL 8
REMARK minimizedAffinity -9.48705864
REMARK  7 active torsions:
REMARK  status: ('A' for Active; 'I' for Inactive)
REMARK    1  A    between atoms: C2_2  and  C30_32 
REMARK    2  A    between atoms: C3_3  and  C4_4 
REMARK    3  A    between atoms: C4_4  and  O1_5 
REMARK    4  A    between atoms: C4_4  and  C5_6 
REMARK    5  A    between atoms: C5_6  and  C6_7 
REMARK    6  A    between atoms: C6_7  and  C8_9 
REMARK    7  A    between atoms: C30_32  and  O4_34 
ROOT
HETATM    1  C8  UNL     1      -5.274  48.751 -21.133  1.00  0.00    -0.002 C 
HETATM    2  C9  UNL     1      -5.763  47.751 -22.206  1.00  0.00     0.006 C 
HETATM    3  C10 UNL     1      -4.963  48.051 -23.492  1.00  0.00     0.011 C 
HETATM    4  C11 UNL     1      -3.806  48.973 -23.050  1.00  0.00    -0.032 C 
HETATM    5  C12 UNL     1      -2.666  48.048 -22.520  1.00  0.00     0.016 C 
HETATM    6  C13 UNL     1      -3.249  49.905 -24.162  1.00  0.00     0.004 C 
HETATM    7  C14 UNL     1      -2.390  49.190 -25.215  1.00  0.00     0.007 C 
HETATM    8  C15 UNL     1      -1.986  50.169 -26.315  1.00  0.00     0.007 C 
HETATM    9  C16 UNL     1      -0.988  51.203 -25.777  1.00  0.00     0.010 C 
HETATM   10  C17 UNL     1      -0.572  52.308 -26.803  1.00  0.00     0.018 C 
HETATM   11  C18 UNL     1       0.458  51.746 -27.802  1.00  0.00     0.023 C 
HETATM   12  C19 UNL     1      -1.751  52.884 -27.604  1.00  0.00     0.023 C 
HETATM   13  C20 UNL     1       0.117  53.462 -26.055  1.00  0.00     0.135 C 
HETATM   14  O2  UNL     1       0.244  54.582 -26.550  1.00  0.00    -0.297 OA
HETATM   15  C21 UNL     1       0.744  53.143 -24.720  1.00  0.00     0.080 C 
HETATM   16  C22 UNL     1      -0.261  52.534 -23.750  1.00  0.00     0.018 C 
HETATM   17  C23 UNL     1      -1.416  51.824 -24.446  1.00  0.00    -0.026 A 
HETATM   18  C24 UNL     1      -2.780  52.451 -24.311  1.00  0.00     0.021 A 
HETATM   19  C25 UNL     1      -2.512  51.142 -23.580  1.00  0.00    -0.027 A 
HETATM   20  C26 UNL     1      -2.358  51.232 -22.055  1.00  0.00     0.011 C 
HETATM   21  C27 UNL     1      -3.458  50.612 -21.174  1.00  0.00     0.011 C 
HETATM   22  C28 UNL     1      -4.525  49.843 -21.954  1.00  0.00    -0.032 C 
HETATM   23  C29 UNL     1      -5.524  50.875 -22.539  1.00  0.00     0.016 C 
ENDROOT
BRANCH   1  24
HETATM   24  C6  UNL     1      -6.238  49.100 -19.965  1.00  0.00    -0.011 C 
HETATM   25  C7  UNL     1      -5.630  48.604 -18.637  1.00  0.00     0.010 C 
BRANCH  24  26
HETATM   26  C5  UNL     1      -7.751  48.770 -20.011  1.00  0.00     0.040 C 
BRANCH  26  27
HETATM   27  C4  UNL     1      -8.237  47.354 -19.685  1.00  0.00     0.142 C 
BRANCH  27  28
HETATM   28  C3  UNL     1      -9.048  47.365 -18.417  1.00  0.00     0.018 C 
HETATM   29  C2  UNL     1     -10.357  47.654 -18.261  1.00  0.00     0.010 C 
HETATM   30  C1  UNL     1     -11.317  48.044 -19.348  1.00  0.00     0.055 C 
BRANCH  29  31
HETATM   31  C30 UNL     1     -10.986  47.604 -16.911  1.00  0.00     0.171 C 
HETATM   32  O3  UNL     1     -12.113  47.201 -16.677  1.00  0.00    -0.646 OA
BRANCH  31  33
HETATM   33  O4  UNL     1     -10.194  48.043 -15.921  1.00  0.00    -0.773 OA
HETATM   34  H46 UNL     1     -10.744  47.938 -15.117  1.00  0.00     0.167 HD
ENDBRANCH  31  33
ENDBRANCH  29  31
ENDBRANCH  27  28
BRANCH  27  35
HETATM   35  O1  UNL     1      -7.130  46.493 -19.451  1.00  0.00    -0.392 OA
HETATM   36  H6  UNL     1      -7.477  45.660 -19.092  1.00  0.00     0.210 HD
ENDBRANCH  27  35
ENDBRANCH  26  27
ENDBRANCH  24  26
ENDBRANCH   1  24
TORSDOF 7
ENDMDL
MODEL 9
REMARK minimizedAffinity -9.46922398
REMARK  7 active torsions:
REMARK  status: ('A' for Active; 'I' for Inactive)
REMARK    1  A    between atoms: C2_2  and  C30_32 
REMARK    2  A    between atoms: C3_3  and  C4_4 
REMARK    3  A    between atoms: C4_4  and  O1_5 
REMARK    4  A    between atoms: C4_4  and  C5_6 
REMARK    5  A    between atoms: C5_6  and  C6_7 
REMARK    6  A    between atoms: C6_7  and  C8_9 
REMARK    7  A    between atoms: C30_32  and  O4_34 
ROOT
HETATM    1  C8  UNL     1      -1.941  48.417 -18.495  1.00  0.00    -0.002 C 
HETATM    2  C9  UNL     1      -3.203  47.579 -18.798  1.00  0.00     0.006 C 
HETATM    3  C10 UNL     1      -3.546  47.811 -20.286  1.00  0.00     0.011 C 
HETATM    4  C11 UNL     1      -2.302  48.497 -20.892  1.00  0.00    -0.032 C 
HETATM    5  C12 UNL     1      -1.298  47.363 -21.270  1.00  0.00     0.016 C 
HETATM    6  C13 UNL     1      -2.583  49.383 -22.137  1.00  0.00     0.004 C 
HETATM    7  C14 UNL     1      -2.879  48.593 -23.421  1.00  0.00     0.007 C 
HETATM    8  C15 UNL     1      -3.247  49.552 -24.552  1.00  0.00     0.007 C 
HETATM    9  C16 UNL     1      -2.022  50.369 -24.987  1.00  0.00     0.010 C 
HETATM   10  C17 UNL     1      -2.310  51.444 -26.086  1.00  0.00     0.018 C 
HETATM   11  C18 UNL     1      -2.426  50.773 -27.468  1.00  0.00     0.023 C 
HETATM   12  C19 UNL     1      -3.591  52.257 -25.837  1.00  0.00     0.023 C 
HETATM   13  C20 UNL     1      -1.123  52.419 -26.163  1.00  0.00     0.135 C 
HETATM   14  O2  UNL     1      -1.218  53.529 -26.690  1.00  0.00    -0.297 OA
HETATM   15  C21 UNL     1       0.213  51.924 -25.668  1.00  0.00     0.080 C 
HETATM   16  C22 UNL     1       0.141  51.439 -24.225  1.00  0.00     0.018 C 
HETATM   17  C23 UNL     1      -1.251  50.976 -23.814  1.00  0.00    -0.026 A 
HETATM   18  C24 UNL     1      -1.973  51.817 -22.792  1.00  0.00     0.021 A 
HETATM   19  C25 UNL     1      -1.472  50.441 -22.371  1.00  0.00    -0.027 A 
HETATM   20  C26 UNL     1      -0.252  50.417 -21.438  1.00  0.00     0.011 C 
HETATM   21  C27 UNL     1      -0.454  49.943 -19.987  1.00  0.00     0.011 C 
HETATM   22  C28 UNL     1      -1.857  49.412 -19.692  1.00  0.00    -0.032 C 
HETATM   23  C29 UNL     1      -2.789  50.630 -19.463  1.00  0.00     0.016 C 
ENDROOT
BRANCH   1  24
HETATM   24  C6  UNL     1      -1.691  48.858 -17.026  1.00  0.00    -0.011 C 
HETATM   25  C7  UNL     1      -2.690  49.971 -16.651  1.00  0.00     0.010 C 
BRANCH  24  26
HETATM   26  C5  UNL     1      -0.280  49.211 -16.494  1.00  0.00     0.040 C 
BRANCH  26  27
HETATM   27  C4  UNL     1       0.050  50.654 -16.095  1.00  0.00     0.142 C 
BRANCH  27  28
HETATM   28  C3  UNL     1       0.121  51.525 -17.322  1.00  0.00     0.018 C 
HETATM   29  C2  UNL     1       1.095  52.387 -17.683  1.00  0.00     0.010 C 
HETATM   30  C1  UNL     1       2.351  52.680 -16.915  1.00  0.00     0.055 C 
BRANCH  29  31
HETATM   31  C30 UNL     1       0.986  53.162 -18.951  1.00  0.00     0.171 C 
HETATM   32  O3  UNL     1       1.682  52.994 -19.937  1.00  0.00    -0.646 OA
BRANCH  31  33
HETATM   33  O4  UNL     1       0.021  54.095 -18.941  1.00  0.00    -0.773 OA
HETATM   34  H46 UNL     1       0.077  54.498 -19.833  1.00  0.00     0.167 HD
ENDBRANCH  31  33
ENDBRANCH  29  31
ENDBRANCH  27  28
BRANCH  27  35
HETATM   35  O1  UNL     1       1.329  50.716 -15.479  1.00  0.00    -0.392 OA
HETATM   36  H6  UNL     1       1.567  51.654 -15.392  1.00  0.00     0.210 HD
ENDBRANCH  27  35
ENDBRANCH  26  27
ENDBRANCH  24  26
ENDBRANCH   1  24
TORSDOF 7
ENDMDL
