MODEL 1
REMARK minimizedAffinity -8.72233868
REMARK  6 active torsions:
REMARK  status: ('A' for Active; 'I' for Inactive)
REMARK    1  A    between atoms: C2_2  and  C4_4 
REMARK    2  A    between atoms: C11_11  and  C12_12 
REMARK    3  A    between atoms: C12_12  and  O2_14 
REMARK    4  A    between atoms: C21_23  and  O3_24 
REMARK    5  A    between atoms: C22_25  and  C24_27 
REMARK    6  A    between atoms: C24_27  and  O4_28 
ROOT
HETATM    1  C4  UNL     1      -5.731   4.466  13.657  1.00  0.00     0.018 C 
HETATM    2  C5  UNL     1      -7.285   4.479  13.606  1.00  0.00     0.010 C 
HETATM    3  C6  UNL     1      -7.729   5.912  13.950  1.00  0.00     0.010 C 
HETATM    4  C7  UNL     1      -6.532   6.508  14.703  1.00  0.00    -0.039 C 
HETATM    5  C8  UNL     1      -6.578   6.001  16.169  1.00  0.00     0.015 C 
HETATM    6  C9  UNL     1      -6.471   8.039  14.691  1.00  0.00     0.011 C 
HETATM    7  C10 UNL     1      -5.096   8.561  15.167  1.00  0.00     0.022 C 
HETATM    8  C11 UNL     1      -3.852   7.936  14.419  1.00  0.00     0.057 C 
HETATM    9  C13 UNL     1      -4.005   6.364  14.443  1.00  0.00     0.011 C 
HETATM   10  C14 UNL     1      -2.800   5.617  13.870  1.00  0.00     0.007 C 
HETATM   11  C15 UNL     1      -1.484   6.060  14.503  1.00  0.00     0.006 C 
HETATM   12  C16 UNL     1      -1.255   7.588  14.453  1.00  0.00     0.003 C 
HETATM   13  C17 UNL     1       0.230   8.033  14.899  1.00  0.00    -0.035 C 
HETATM   14  C18 UNL     1       0.748   7.129  16.048  1.00  0.00     0.016 C 
HETATM   15  C19 UNL     1       1.147   7.774  13.658  1.00  0.00     0.012 C 
HETATM   16  C20 UNL     1       2.540   8.377  13.750  1.00  0.00     0.033 C 
HETATM   17  C21 UNL     1       2.457   9.883  13.953  1.00  0.00     0.128 C 
HETATM   18  C22 UNL     1       1.717  10.271  15.256  1.00  0.00     0.007 C 
HETATM   19  C23 UNL     1       2.554   9.883  16.510  1.00  0.00     0.020 C 
HETATM   20  C25 UNL     1       0.283   9.566  15.310  1.00  0.00     0.007 C 
HETATM   21  C26 UNL     1      -0.802  10.318  14.516  1.00  0.00     0.007 C 
HETATM   22  C27 UNL     1      -2.219   9.910  14.920  1.00  0.00     0.011 C 
HETATM   23  C28 UNL     1      -2.452   8.380  15.100  1.00  0.00    -0.022 C 
HETATM   24  C29 UNL     1      -2.497   8.109  16.633  1.00  0.00     0.017 C 
HETATM   25  C30 UNL     1      -5.368   5.956  13.839  1.00  0.00     0.007 C 
ENDROOT
BRANCH   8  26
HETATM   26  C12 UNL     1      -3.947   8.496  12.967  1.00  0.00     0.149 C 
HETATM   27  O1  UNL     1      -3.011   8.721  12.214  1.00  0.00    -0.649 OA
BRANCH  26  28
HETATM   28  O2  UNL     1      -5.182   8.732  12.509  1.00  0.00    -0.776 OA
HETATM   29  H18 UNL     1      -5.036   9.058  11.597  1.00  0.00     0.167 HD
ENDBRANCH  26  28
ENDBRANCH   8  26
BRANCH   1  30
HETATM   30  C2  UNL     1      -5.171   3.696  12.469  1.00  0.00    -0.089 C 
HETATM   31  C1  UNL     1      -3.936   3.851  11.963  1.00  0.00     0.014 C 
HETATM   32  C3  UNL     1      -6.126   2.715  11.842  1.00  0.00     0.043 C 
ENDBRANCH   1  30
BRANCH  18  33
HETATM   33  C24 UNL     1       1.621  11.827  15.356  1.00  0.00     0.176 C 
BRANCH  33  34
HETATM   34  O4  UNL     1       1.970  12.475  14.136  1.00  0.00    -0.400 OA
HETATM   35  H39 UNL     1       1.748  13.418  14.243  1.00  0.00     0.209 HD
ENDBRANCH  33  34
ENDBRANCH  18  33
BRANCH  17  36
HETATM   36  O3  UNL     1       3.787  10.403  13.946  1.00  0.00    -0.395 OA
HETATM   37  H33 UNL     1       3.709  11.334  13.672  1.00  0.00     0.210 HD
ENDBRANCH  17  36
TORSDOF 6
ENDMDL
MODEL 2
REMARK minimizedAffinity -8.16767883
REMARK  6 active torsions:
REMARK  status: ('A' for Active; 'I' for Inactive)
REMARK    1  A    between atoms: C2_2  and  C4_4 
REMARK    2  A    between atoms: C11_11  and  C12_12 
REMARK    3  A    between atoms: C12_12  and  O2_14 
REMARK    4  A    between atoms: C21_23  and  O3_24 
REMARK    5  A    between atoms: C22_25  and  C24_27 
REMARK    6  A    between atoms: C24_27  and  O4_28 
ROOT
HETATM    1  C4  UNL     1       0.252  10.435  15.507  1.00  0.00     0.018 C 
HETATM    2  C5  UNL     1       1.781  10.664  15.345  1.00  0.00     0.010 C 
HETATM    3  C6  UNL     1       2.329   9.465  14.552  1.00  0.00     0.010 C 
HETATM    4  C7  UNL     1       1.281   8.364  14.759  1.00  0.00    -0.039 C 
HETATM    5  C8  UNL     1       1.518   7.721  16.150  1.00  0.00     0.015 C 
HETATM    6  C9  UNL     1       1.281   7.274  13.682  1.00  0.00     0.011 C 
HETATM    7  C10 UNL     1       0.013   6.393  13.757  1.00  0.00     0.022 C 
HETATM    8  C11 UNL     1      -1.351   7.191  13.757  1.00  0.00     0.057 C 
HETATM    9  C13 UNL     1      -1.262   8.314  14.864  1.00  0.00     0.011 C 
HETATM   10  C14 UNL     1      -2.567   9.083  15.072  1.00  0.00     0.007 C 
HETATM   11  C15 UNL     1      -3.758   8.158  15.310  1.00  0.00     0.006 C 
HETATM   12  C16 UNL     1      -3.928   7.074  14.221  1.00  0.00     0.003 C 
HETATM   13  C17 UNL     1      -5.313   6.255  14.337  1.00  0.00    -0.035 C 
HETATM   14  C18 UNL     1      -5.695   6.039  15.825  1.00  0.00     0.016 C 
HETATM   15  C19 UNL     1      -6.411   7.174  13.707  1.00  0.00     0.012 C 
HETATM   16  C20 UNL     1      -7.749   6.499  13.454  1.00  0.00     0.033 C 
HETATM   17  C21 UNL     1      -7.575   5.297  12.537  1.00  0.00     0.128 C 
HETATM   18  C22 UNL     1      -6.638   4.220  13.133  1.00  0.00     0.007 C 
HETATM   19  C23 UNL     1      -7.300   3.522  14.358  1.00  0.00     0.020 C 
HETATM   20  C25 UNL     1      -5.242   4.872  13.559  1.00  0.00     0.007 C 
HETATM   21  C26 UNL     1      -4.254   5.027  12.386  1.00  0.00     0.007 C 
HETATM   22  C27 UNL     1      -2.811   5.225  12.853  1.00  0.00     0.011 C 
HETATM   23  C28 UNL     1      -2.618   6.221  14.035  1.00  0.00    -0.022 C 
HETATM   24  C29 UNL     1      -2.362   5.364  15.309  1.00  0.00     0.017 C 
HETATM   25  C30 UNL     1      -0.019   9.200  14.619  1.00  0.00     0.007 C 
ENDROOT
BRANCH   8  26
HETATM   26  C12 UNL     1      -1.445   7.806  12.328  1.00  0.00     0.149 C 
HETATM   27  O1  UNL     1      -2.117   8.773  11.998  1.00  0.00    -0.649 OA
BRANCH  26  28
HETATM   28  O2  UNL     1      -0.700   7.217  11.386  1.00  0.00    -0.776 OA
HETATM   29  H18 UNL     1      -0.880   7.744  10.580  1.00  0.00     0.167 HD
ENDBRANCH  26  28
ENDBRANCH   8  26
BRANCH   1  30
HETATM   30  C2  UNL     1      -0.506  11.729  15.246  1.00  0.00    -0.089 C 
HETATM   31  C1  UNL     1      -1.836  11.822  15.075  1.00  0.00     0.014 C 
HETATM   32  C3  UNL     1       0.353  12.962  15.163  1.00  0.00     0.043 C 
ENDBRANCH   1  30
BRANCH  18  33
HETATM   33  C24 UNL     1      -6.464   3.055  12.107  1.00  0.00     0.176 C 
BRANCH  33  34
HETATM   34  O4  UNL     1      -7.366   1.978  12.346  1.00  0.00    -0.400 OA
HETATM   35  H39 UNL     1      -7.288   1.371  11.588  1.00  0.00     0.209 HD
ENDBRANCH  33  34
ENDBRANCH  18  33
BRANCH  17  36
HETATM   36  O3  UNL     1      -8.870   4.757  12.268  1.00  0.00    -0.395 OA
HETATM   37  H33 UNL     1      -8.793   4.293  11.415  1.00  0.00     0.210 HD
ENDBRANCH  17  36
TORSDOF 6
ENDMDL
MODEL 3
REMARK minimizedAffinity -8.00268269
REMARK  6 active torsions:
REMARK  status: ('A' for Active; 'I' for Inactive)
REMARK    1  A    between atoms: C2_2  and  C4_4 
REMARK    2  A    between atoms: C11_11  and  C12_12 
REMARK    3  A    between atoms: C12_12  and  O2_14 
REMARK    4  A    between atoms: C21_23  and  O3_24 
REMARK    5  A    between atoms: C22_25  and  C24_27 
REMARK    6  A    between atoms: C24_27  and  O4_28 
ROOT
HETATM    1  C4  UNL     1      -5.098   4.368  12.384  1.00  0.00     0.018 C 
HETATM    2  C5  UNL     1      -3.586   4.139  12.666  1.00  0.00     0.010 C 
HETATM    3  C6  UNL     1      -3.240   4.954  13.924  1.00  0.00     0.010 C 
HETATM    4  C7  UNL     1      -4.343   6.018  14.001  1.00  0.00    -0.039 C 
HETATM    5  C8  UNL     1      -3.992   7.156  13.008  1.00  0.00     0.015 C 
HETATM    6  C9  UNL     1      -4.563   6.606  15.399  1.00  0.00     0.011 C 
HETATM    7  C10 UNL     1      -5.882   7.410  15.481  1.00  0.00     0.022 C 
HETATM    8  C11 UNL     1      -7.165   6.634  14.982  1.00  0.00     0.057 C 
HETATM    9  C13 UNL     1      -6.849   6.029  13.557  1.00  0.00     0.011 C 
HETATM   10  C14 UNL     1      -8.051   5.362  12.887  1.00  0.00     0.007 C 
HETATM   11  C15 UNL     1      -9.276   6.271  12.849  1.00  0.00     0.006 C 
HETATM   12  C16 UNL     1      -9.667   6.844  14.231  1.00  0.00     0.003 C 
HETATM   13  C17 UNL     1     -11.090   7.603  14.235  1.00  0.00    -0.035 C 
HETATM   14  C18 UNL     1     -11.305   8.367  12.902  1.00  0.00     0.016 C 
HETATM   15  C19 UNL     1     -12.177   6.479  14.305  1.00  0.00     0.012 C 
HETATM   16  C20 UNL     1     -13.587   6.964  14.598  1.00  0.00     0.033 C 
HETATM   17  C21 UNL     1     -13.626   7.722  15.918  1.00  0.00     0.128 C 
HETATM   18  C22 UNL     1     -12.716   8.974  15.916  1.00  0.00     0.007 C 
HETATM   19  C23 UNL     1     -13.279  10.072  14.966  1.00  0.00     0.020 C 
HETATM   20  C25 UNL     1     -11.229   8.578  15.481  1.00  0.00     0.007 C 
HETATM   21  C26 UNL     1     -10.382   8.012  16.637  1.00  0.00     0.007 C 
HETATM   22  C27 UNL     1      -8.882   8.052  16.343  1.00  0.00     0.011 C 
HETATM   23  C28 UNL     1      -8.464   7.597  14.913  1.00  0.00    -0.022 C 
HETATM   24  C29 UNL     1      -8.127   8.888  14.110  1.00  0.00     0.017 C 
HETATM   25  C30 UNL     1      -5.575   5.155  13.624  1.00  0.00     0.007 C 
ENDROOT
BRANCH   8  26
HETATM   26  C12 UNL     1      -7.381   5.512  16.041  1.00  0.00     0.149 C 
HETATM   27  O1  UNL     1      -7.917   4.429  15.852  1.00  0.00    -0.649 OA
BRANCH  26  28
HETATM   28  O2  UNL     1      -6.913   5.766  17.269  1.00  0.00    -0.776 OA
HETATM   29  H18 UNL     1      -7.127   4.955  17.775  1.00  0.00     0.167 HD
ENDBRANCH  26  28
ENDBRANCH   8  26
BRANCH   1  30
HETATM   30  C2  UNL     1      -5.772   3.052  12.023  1.00  0.00    -0.089 C 
HETATM   31  C1  UNL     1      -6.994   2.674  12.434  1.00  0.00     0.014 C 
HETATM   32  C3  UNL     1      -4.952   2.136  11.153  1.00  0.00     0.043 C 
ENDBRANCH   1  30
BRANCH  18  33
HETATM   33  C24 UNL     1     -12.765   9.656  17.321  1.00  0.00     0.176 C 
BRANCH  33  34
HETATM   34  O4  UNL     1     -13.300   8.798  18.325  1.00  0.00    -0.400 OA
HETATM   35  H39 UNL     1     -13.163   9.245  19.180  1.00  0.00     0.209 HD
ENDBRANCH  33  34
ENDBRANCH  18  33
BRANCH  17  36
HETATM   36  O3  UNL     1     -14.984   8.078  16.182  1.00  0.00    -0.395 OA
HETATM   37  H33 UNL     1     -15.051   8.178  17.148  1.00  0.00     0.210 HD
ENDBRANCH  17  36
TORSDOF 6
ENDMDL
MODEL 4
REMARK minimizedAffinity -7.83496952
REMARK  6 active torsions:
REMARK  status: ('A' for Active; 'I' for Inactive)
REMARK    1  A    between atoms: C2_2  and  C4_4 
REMARK    2  A    between atoms: C11_11  and  C12_12 
REMARK    3  A    between atoms: C12_12  and  O2_14 
REMARK    4  A    between atoms: C21_23  and  O3_24 
REMARK    5  A    between atoms: C22_25  and  C24_27 
REMARK    6  A    between atoms: C24_27  and  O4_28 
ROOT
HETATM    1  C4  UNL     1      -0.584  11.034  17.943  1.00  0.00     0.018 C 
HETATM    2  C5  UNL     1      -1.892  11.016  18.784  1.00  0.00     0.010 C 
HETATM    3  C6  UNL     1      -2.801   9.937  18.168  1.00  0.00     0.010 C 
HETATM    4  C7  UNL     1      -2.273   9.770  16.737  1.00  0.00    -0.039 C 
HETATM    5  C8  UNL     1      -2.838  10.927  15.872  1.00  0.00     0.015 C 
HETATM    6  C9  UNL     1      -2.616   8.426  16.086  1.00  0.00     0.011 C 
HETATM    7  C10 UNL     1      -1.793   8.186  14.799  1.00  0.00     0.022 C 
HETATM    8  C11 UNL     1      -0.231   8.353  14.970  1.00  0.00     0.057 C 
HETATM    9  C13 UNL     1       0.040   9.739  15.677  1.00  0.00     0.011 C 
HETATM   10  C14 UNL     1       1.522  10.099  15.786  1.00  0.00     0.007 C 
HETATM   11  C15 UNL     1       2.246  10.005  14.446  1.00  0.00     0.006 C 
HETATM   12  C16 UNL     1       2.064   8.643  13.736  1.00  0.00     0.003 C 
HETATM   13  C17 UNL     1       3.015   8.455  12.448  1.00  0.00    -0.035 C 
HETATM   14  C18 UNL     1       3.178   9.798  11.689  1.00  0.00     0.016 C 
HETATM   15  C19 UNL     1       4.424   8.066  13.006  1.00  0.00     0.012 C 
HETATM   16  C20 UNL     1       5.414   7.568  11.966  1.00  0.00     0.033 C 
HETATM   17  C21 UNL     1       4.857   6.353  11.238  1.00  0.00     0.128 C 
HETATM   18  C22 UNL     1       3.538   6.657  10.488  1.00  0.00     0.007 C 
HETATM   19  C23 UNL     1       3.791   7.597   9.273  1.00  0.00     0.020 C 
HETATM   20  C25 UNL     1       2.473   7.316  11.482  1.00  0.00     0.007 C 
HETATM   21  C26 UNL     1       1.707   6.285  12.332  1.00  0.00     0.007 C 
HETATM   22  C27 UNL     1       0.422   6.854  12.935  1.00  0.00     0.011 C 
HETATM   23  C28 UNL     1       0.543   8.281  13.549  1.00  0.00    -0.022 C 
HETATM   24  C29 UNL     1      -0.113   9.265  12.536  1.00  0.00     0.017 C 
HETATM   25  C30 UNL     1      -0.746   9.817  17.005  1.00  0.00     0.007 C 
ENDROOT
BRANCH   8  26
HETATM   26  C12 UNL     1       0.194   7.158  15.876  1.00  0.00     0.149 C 
HETATM   27  O1  UNL     1       1.109   7.153  16.687  1.00  0.00    -0.649 OA
BRANCH  26  28
HETATM   28  O2  UNL     1      -0.535   6.043  15.757  1.00  0.00    -0.776 OA
HETATM   29  H18 UNL     1      -0.131   5.427  16.403  1.00  0.00     0.167 HD
ENDBRANCH  26  28
ENDBRANCH   8  26
BRANCH   1  30
HETATM   30  C2  UNL     1       0.630  11.121  18.858  1.00  0.00    -0.089 C 
HETATM   31  C1  UNL     1       0.667  11.777  20.030  1.00  0.00     0.014 C 
HETATM   32  C3  UNL     1       1.859  10.415  18.350  1.00  0.00     0.043 C 
ENDBRANCH   1  30
BRANCH  18  33
HETATM   33  C24 UNL     1       3.003   5.348   9.823  1.00  0.00     0.176 C 
BRANCH  33  34
HETATM   34  O4  UNL     1       2.937   5.445   8.403  1.00  0.00    -0.400 OA
HETATM   35  H39 UNL     1       2.734   4.552   8.069  1.00  0.00     0.209 HD
ENDBRANCH  33  34
ENDBRANCH  18  33
BRANCH  17  36
HETATM   36  O3  UNL     1       5.860   5.880  10.338  1.00  0.00    -0.395 OA
HETATM   37  H33 UNL     1       5.672   4.934  10.201  1.00  0.00     0.210 HD
ENDBRANCH  17  36
TORSDOF 6
ENDMDL
MODEL 5
REMARK minimizedAffinity -7.69171858
REMARK  6 active torsions:
REMARK  status: ('A' for Active; 'I' for Inactive)
REMARK    1  A    between atoms: C2_2  and  C4_4 
REMARK    2  A    between atoms: C11_11  and  C12_12 
REMARK    3  A    between atoms: C12_12  and  O2_14 
REMARK    4  A    between atoms: C21_23  and  O3_24 
REMARK    5  A    between atoms: C22_25  and  C24_27 
REMARK    6  A    between atoms: C24_27  and  O4_28 
ROOT
HETATM    1  C4  UNL     1       0.760  11.770  15.651  1.00  0.00     0.018 C 
HETATM    2  C5  UNL     1       0.296  12.883  16.633  1.00  0.00     0.010 C 
HETATM    3  C6  UNL     1      -1.151  12.546  17.035  1.00  0.00     0.010 C 
HETATM    4  C7  UNL     1      -1.653  11.632  15.910  1.00  0.00    -0.039 C 
HETATM    5  C8  UNL     1      -2.054  12.520  14.703  1.00  0.00     0.015 C 
HETATM    6  C9  UNL     1      -2.829  10.731  16.299  1.00  0.00     0.011 C 
HETATM    7  C10 UNL     1      -3.070   9.618  15.253  1.00  0.00     0.022 C 
HETATM    8  C11 UNL     1      -1.793   8.760  14.890  1.00  0.00     0.057 C 
HETATM    9  C13 UNL     1      -0.618   9.755  14.537  1.00  0.00     0.011 C 
HETATM   10  C14 UNL     1       0.648   9.063  14.032  1.00  0.00     0.007 C 
HETATM   11  C15 UNL     1       0.368   8.098  12.883  1.00  0.00     0.006 C 
HETATM   12  C16 UNL     1      -0.734   7.061  13.198  1.00  0.00     0.003 C 
HETATM   13  C17 UNL     1      -0.863   5.899  12.087  1.00  0.00    -0.035 C 
HETATM   14  C18 UNL     1      -0.609   6.471  10.668  1.00  0.00     0.016 C 
HETATM   15  C19 UNL     1       0.289   4.885  12.391  1.00  0.00     0.012 C 
HETATM   16  C20 UNL     1       0.197   3.564  11.644  1.00  0.00     0.033 C 
HETATM   17  C21 UNL     1      -1.120   2.867  11.952  1.00  0.00     0.128 C 
HETATM   18  C22 UNL     1      -2.353   3.704  11.531  1.00  0.00     0.007 C 
HETATM   19  C23 UNL     1      -2.461   3.795   9.981  1.00  0.00     0.020 C 
HETATM   20  C25 UNL     1      -2.272   5.169  12.166  1.00  0.00     0.007 C 
HETATM   21  C26 UNL     1      -2.772   5.236  13.621  1.00  0.00     0.007 C 
HETATM   22  C27 UNL     1      -3.106   6.661  14.065  1.00  0.00     0.011 C 
HETATM   23  C28 UNL     1      -2.073   7.752  13.655  1.00  0.00    -0.022 C 
HETATM   24  C29 UNL     1      -2.696   8.535  12.461  1.00  0.00     0.017 C 
HETATM   25  C30 UNL     1      -0.396  10.746  15.702  1.00  0.00     0.007 C 
ENDROOT
BRANCH   8  26
HETATM   26  C12 UNL     1      -1.483   7.952  16.186  1.00  0.00     0.149 C 
HETATM   27  O1  UNL     1      -0.381   7.579  16.562  1.00  0.00    -0.649 OA
BRANCH  26  28
HETATM   28  O2  UNL     1      -2.535   7.659  16.961  1.00  0.00    -0.776 OA
HETATM   29  H18 UNL     1      -2.143   7.172  17.715  1.00  0.00     0.167 HD
ENDBRANCH  26  28
ENDBRANCH   8  26
BRANCH   1  30
HETATM   30  C2  UNL     1       2.175  11.322  15.992  1.00  0.00    -0.089 C 
HETATM   31  C1  UNL     1       2.496  10.451  16.963  1.00  0.00     0.014 C 
HETATM   32  C3  UNL     1       3.258  11.953  15.156  1.00  0.00     0.043 C 
ENDBRANCH   1  30
BRANCH  18  33
HETATM   33  C24 UNL     1      -3.658   2.948  11.939  1.00  0.00     0.176 C 
BRANCH  33  34
HETATM   34  O4  UNL     1      -4.445   2.572  10.812  1.00  0.00    -0.400 OA
HETATM   35  H39 UNL     1      -5.153   1.991  11.143  1.00  0.00     0.209 HD
ENDBRANCH  33  34
ENDBRANCH  18  33
BRANCH  17  36
HETATM   36  O3  UNL     1      -1.114   1.599  11.294  1.00  0.00    -0.395 OA
HETATM   37  H33 UNL     1      -1.723   1.032  11.801  1.00  0.00     0.210 HD
ENDBRANCH  17  36
TORSDOF 6
ENDMDL
MODEL 6
REMARK minimizedAffinity -7.61657143
REMARK  6 active torsions:
REMARK  status: ('A' for Active; 'I' for Inactive)
REMARK    1  A    between atoms: C2_2  and  C4_4 
REMARK    2  A    between atoms: C11_11  and  C12_12 
REMARK    3  A    between atoms: C12_12  and  O2_14 
REMARK    4  A    between atoms: C21_23  and  O3_24 
REMARK    5  A    between atoms: C22_25  and  C24_27 
REMARK    6  A    between atoms: C24_27  and  O4_28 
ROOT
HETATM    1  C4  UNL     1       3.064   9.877  13.009  1.00  0.00     0.018 C 
HETATM    2  C5  UNL     1       4.313  10.459  13.729  1.00  0.00     0.010 C 
HETATM    3  C6  UNL     1       3.987  10.484  15.233  1.00  0.00     0.010 C 
HETATM    4  C7  UNL     1       2.454  10.459  15.288  1.00  0.00    -0.039 C 
HETATM    5  C8  UNL     1       1.934  11.895  15.017  1.00  0.00     0.015 C 
HETATM    6  C9  UNL     1       1.873   9.943  16.608  1.00  0.00     0.011 C 
HETATM    7  C10 UNL     1       0.364   9.631  16.488  1.00  0.00     0.022 C 
HETATM    8  C11 UNL     1      -0.024   8.680  15.286  1.00  0.00     0.057 C 
HETATM    9  C13 UNL     1       0.638   9.256  13.972  1.00  0.00     0.011 C 
HETATM   10  C14 UNL     1       0.236   8.511  12.699  1.00  0.00     0.007 C 
HETATM   11  C15 UNL     1      -1.278   8.382  12.552  1.00  0.00     0.006 C 
HETATM   12  C16 UNL     1      -1.971   7.766  13.789  1.00  0.00     0.003 C 
HETATM   13  C17 UNL     1      -3.525   7.408  13.546  1.00  0.00    -0.035 C 
HETATM   14  C18 UNL     1      -4.193   8.468  12.632  1.00  0.00     0.016 C 
HETATM   15  C19 UNL     1      -3.536   6.052  12.766  1.00  0.00     0.012 C 
HETATM   16  C20 UNL     1      -4.895   5.377  12.667  1.00  0.00     0.033 C 
HETATM   17  C21 UNL     1      -5.460   5.112  14.055  1.00  0.00     0.128 C 
HETATM   18  C22 UNL     1      -5.666   6.409  14.874  1.00  0.00     0.007 C 
HETATM   19  C23 UNL     1      -6.820   7.267  14.280  1.00  0.00     0.020 C 
HETATM   20  C25 UNL     1      -4.312   7.258  14.917  1.00  0.00     0.007 C 
HETATM   21  C26 UNL     1      -3.321   6.780  15.995  1.00  0.00     0.007 C 
HETATM   22  C27 UNL     1      -2.260   7.829  16.329  1.00  0.00     0.011 C 
HETATM   23  C28 UNL     1      -1.628   8.558  15.106  1.00  0.00    -0.022 C 
HETATM   24  C29 UNL     1      -2.266   9.977  15.049  1.00  0.00     0.017 C 
HETATM   25  C30 UNL     1       2.162   9.419  14.176  1.00  0.00     0.007 C 
ENDROOT
BRANCH   8  26
HETATM   26  C12 UNL     1       0.583   7.297  15.670  1.00  0.00     0.149 C 
HETATM   27  O1  UNL     1       1.164   7.023  16.710  1.00  0.00    -0.649 OA
BRANCH  26  28
HETATM   28  O2  UNL     1       0.430   6.319  14.769  1.00  0.00    -0.776 OA
HETATM   29  H18 UNL     1       0.857   5.543  15.190  1.00  0.00     0.167 HD
ENDBRANCH  26  28
ENDBRANCH   8  26
BRANCH   1  30
HETATM   30  C2  UNL     1       3.488   8.872  11.947  1.00  0.00    -0.089 C 
HETATM   31  C1  UNL     1       2.653   8.245  11.101  1.00  0.00     0.014 C 
HETATM   32  C3  UNL     1       4.966   8.583  11.901  1.00  0.00     0.043 C 
ENDBRANCH   1  30
BRANCH  18  33
HETATM   33  C24 UNL     1      -6.188   6.045  16.302  1.00  0.00     0.176 C 
BRANCH  33  34
HETATM   34  O4  UNL     1      -7.083   7.024  16.821  1.00  0.00    -0.400 OA
HETATM   35  H39 UNL     1      -7.464   6.653  17.637  1.00  0.00     0.209 HD
ENDBRANCH  33  34
ENDBRANCH  18  33
BRANCH  17  36
HETATM   36  O3  UNL     1      -6.692   4.404  13.901  1.00  0.00    -0.395 OA
HETATM   37  H33 UNL     1      -6.820   3.908  14.730  1.00  0.00     0.210 HD
ENDBRANCH  17  36
TORSDOF 6
ENDMDL
MODEL 7
REMARK minimizedAffinity -7.59211254
REMARK  6 active torsions:
REMARK  status: ('A' for Active; 'I' for Inactive)
REMARK    1  A    between atoms: C2_2  and  C4_4 
REMARK    2  A    between atoms: C11_11  and  C12_12 
REMARK    3  A    between atoms: C12_12  and  O2_14 
REMARK    4  A    between atoms: C21_23  and  O3_24 
REMARK    5  A    between atoms: C22_25  and  C24_27 
REMARK    6  A    between atoms: C24_27  and  O4_28 
ROOT
HETATM    1  C4  UNL     1       5.152   9.653  13.156  1.00  0.00     0.018 C 
HETATM    2  C5  UNL     1       6.313  10.299  13.964  1.00  0.00     0.010 C 
HETATM    3  C6  UNL     1       5.770  10.577  15.377  1.00  0.00     0.010 C 
HETATM    4  C7  UNL     1       4.247  10.615  15.197  1.00  0.00    -0.039 C 
HETATM    5  C8  UNL     1       3.858  12.005  14.631  1.00  0.00     0.015 C 
HETATM    6  C9  UNL     1       3.448  10.338  16.474  1.00  0.00     0.011 C 
HETATM    7  C10 UNL     1       1.957  10.063  16.170  1.00  0.00     0.022 C 
HETATM    8  C11 UNL     1       1.696   8.946  15.083  1.00  0.00     0.057 C 
HETATM    9  C13 UNL     1       2.577   9.280  13.815  1.00  0.00     0.011 C 
HETATM   10  C14 UNL     1       2.324   8.355  12.625  1.00  0.00     0.007 C 
HETATM   11  C15 UNL     1       0.844   8.256  12.266  1.00  0.00     0.006 C 
HETATM   12  C16 UNL     1      -0.060   7.872  13.460  1.00  0.00     0.003 C 
HETATM   13  C17 UNL     1      -1.579   7.534  13.036  1.00  0.00    -0.035 C 
HETATM   14  C18 UNL     1      -2.040   8.457  11.878  1.00  0.00     0.016 C 
HETATM   15  C19 UNL     1      -1.555   6.072  12.481  1.00  0.00     0.012 C 
HETATM   16  C20 UNL     1      -2.921   5.437  12.277  1.00  0.00     0.033 C 
HETATM   17  C21 UNL     1      -3.700   5.419  13.585  1.00  0.00     0.128 C 
HETATM   18  C22 UNL     1      -3.948   6.837  14.154  1.00  0.00     0.007 C 
HETATM   19  C23 UNL     1      -4.949   7.629  13.263  1.00  0.00     0.020 C 
HETATM   20  C25 UNL     1      -2.567   7.634  14.276  1.00  0.00     0.007 C 
HETATM   21  C26 UNL     1      -1.776   7.301  15.555  1.00  0.00     0.007 C 
HETATM   22  C27 UNL     1      -0.716   8.352  15.884  1.00  0.00     0.011 C 
HETATM   23  C28 UNL     1       0.132   8.853  14.677  1.00  0.00    -0.022 C 
HETATM   24  C29 UNL     1      -0.406  10.266  14.305  1.00  0.00     0.017 C 
HETATM   25  C30 UNL     1       4.061   9.420  14.225  1.00  0.00     0.007 C 
ENDROOT
BRANCH   8  26
HETATM   26  C12 UNL     1       2.156   7.622  15.764  1.00  0.00     0.149 C 
HETATM   27  O1  UNL     1       2.314   7.440  16.963  1.00  0.00    -0.649 OA
BRANCH  26  28
HETATM   28  O2  UNL     1       2.381   6.588  14.945  1.00  0.00    -0.776 OA
HETATM   29  H18 UNL     1       2.643   5.862  15.548  1.00  0.00     0.167 HD
ENDBRANCH  26  28
ENDBRANCH   8  26
BRANCH   1  30
HETATM   30  C2  UNL     1       5.668   8.476  12.340  1.00  0.00    -0.089 C 
HETATM   31  C1  UNL     1       6.140   7.328  12.856  1.00  0.00     0.014 C 
HETATM   32  C3  UNL     1       5.642   8.678  10.848  1.00  0.00     0.043 C 
ENDBRANCH   1  30
BRANCH  18  33
HETATM   33  C24 UNL     1      -4.695   6.726  15.521  1.00  0.00     0.176 C 
BRANCH  33  34
HETATM   34  O4  UNL     1      -5.248   7.970  15.944  1.00  0.00    -0.400 OA
HETATM   35  H39 UNL     1      -5.808   7.781  16.718  1.00  0.00     0.209 HD
ENDBRANCH  33  34
ENDBRANCH  18  33
BRANCH  17  36
HETATM   36  O3  UNL     1      -4.935   4.739  13.352  1.00  0.00    -0.395 OA
HETATM   37  H33 UNL     1      -5.213   4.388  14.217  1.00  0.00     0.210 HD
ENDBRANCH  17  36
TORSDOF 6
ENDMDL
MODEL 8
REMARK minimizedAffinity -7.54063416
REMARK  6 active torsions:
REMARK  status: ('A' for Active; 'I' for Inactive)
REMARK    1  A    between atoms: C2_2  and  C4_4 
REMARK    2  A    between atoms: C11_11  and  C12_12 
REMARK    3  A    between atoms: C12_12  and  O2_14 
REMARK    4  A    between atoms: C21_23  and  O3_24 
REMARK    5  A    between atoms: C22_25  and  C24_27 
REMARK    6  A    between atoms: C24_27  and  O4_28 
ROOT
HETATM    1  C4  UNL     1      -3.093   4.547  12.976  1.00  0.00     0.018 C 
HETATM    2  C5  UNL     1      -4.647   4.550  12.911  1.00  0.00     0.010 C 
HETATM    3  C6  UNL     1      -5.103   5.980  13.252  1.00  0.00     0.010 C 
HETATM    4  C7  UNL     1      -3.917   6.584  14.016  1.00  0.00    -0.039 C 
HETATM    5  C8  UNL     1      -3.973   6.076  15.481  1.00  0.00     0.015 C 
HETATM    6  C9  UNL     1      -3.865   8.115  14.005  1.00  0.00     0.011 C 
HETATM    7  C10 UNL     1      -2.498   8.646  14.493  1.00  0.00     0.022 C 
HETATM    8  C11 UNL     1      -1.244   8.030  13.756  1.00  0.00     0.057 C 
HETATM    9  C13 UNL     1      -1.386   6.457  13.778  1.00  0.00     0.011 C 
HETATM   10  C14 UNL     1      -0.171   5.717  13.216  1.00  0.00     0.007 C 
HETATM   11  C15 UNL     1       1.136   6.169  13.861  1.00  0.00     0.006 C 
HETATM   12  C16 UNL     1       1.356   7.699  13.813  1.00  0.00     0.003 C 
HETATM   13  C17 UNL     1       2.834   8.153  14.272  1.00  0.00    -0.035 C 
HETATM   14  C18 UNL     1       3.347   7.252  15.426  1.00  0.00     0.016 C 
HETATM   15  C19 UNL     1       3.763   7.901  13.040  1.00  0.00     0.012 C 
HETATM   16  C20 UNL     1       5.151   8.512  13.144  1.00  0.00     0.033 C 
HETATM   17  C21 UNL     1       5.056  10.018  13.347  1.00  0.00     0.128 C 
HETATM   18  C22 UNL     1       4.302  10.401  14.643  1.00  0.00     0.007 C 
HETATM   19  C23 UNL     1       5.131  10.018  15.904  1.00  0.00     0.020 C 
HETATM   20  C25 UNL     1       2.872   9.686  14.685  1.00  0.00     0.007 C 
HETATM   21  C26 UNL     1       1.790  10.432  13.881  1.00  0.00     0.007 C 
HETATM   22  C27 UNL     1       0.372  10.014  14.272  1.00  0.00     0.011 C 
HETATM   23  C28 UNL     1       0.147   8.482  14.449  1.00  0.00    -0.022 C 
HETATM   24  C29 UNL     1       0.090   8.210  15.982  1.00  0.00     0.017 C 
HETATM   25  C30 UNL     1      -2.742   6.040  13.162  1.00  0.00     0.007 C 
ENDROOT
BRANCH   8  26
HETATM   26  C12 UNL     1      -1.330   8.589  12.304  1.00  0.00     0.149 C 
HETATM   27  O1  UNL     1      -2.199   9.325  11.861  1.00  0.00    -0.649 OA
BRANCH  26  28
HETATM   28  O2  UNL     1      -0.339   8.233  11.478  1.00  0.00    -0.776 OA
HETATM   29  H18 UNL     1      -0.559   8.684  10.637  1.00  0.00     0.167 HD
ENDBRANCH  26  28
ENDBRANCH   8  26
BRANCH   1  30
HETATM   30  C2  UNL     1      -2.517   3.782  11.793  1.00  0.00    -0.089 C 
HETATM   31  C1  UNL     1      -1.295   3.225  11.755  1.00  0.00     0.014 C 
HETATM   32  C3  UNL     1      -3.425   3.690  10.595  1.00  0.00     0.043 C 
ENDBRANCH   1  30
BRANCH  18  33
HETATM   33  C24 UNL     1       4.195  11.956  14.743  1.00  0.00     0.176 C 
BRANCH  33  34
HETATM   34  O4  UNL     1       4.483  12.604  13.507  1.00  0.00    -0.400 OA
HETATM   35  H39 UNL     1       4.256  13.544  13.621  1.00  0.00     0.209 HD
ENDBRANCH  33  34
ENDBRANCH  18  33
BRANCH  17  36
HETATM   36  O3  UNL     1       6.383  10.547  13.352  1.00  0.00    -0.395 OA
HETATM   37  H33 UNL     1       6.301  11.478  13.078  1.00  0.00     0.210 HD
ENDBRANCH  17  36
TORSDOF 6
ENDMDL
MODEL 9
REMARK minimizedAffinity -7.51001024
REMARK  6 active torsions:
REMARK  status: ('A' for Active; 'I' for Inactive)
REMARK    1  A    between atoms: C2_2  and  C4_4 
REMARK    2  A    between atoms: C11_11  and  C12_12 
REMARK    3  A    between atoms: C12_12  and  O2_14 
REMARK    4  A    between atoms: C21_23  and  O3_24 
REMARK    5  A    between atoms: C22_25  and  C24_27 
REMARK    6  A    between atoms: C24_27  and  O4_28 
ROOT
HETATM    1  C4  UNL     1      -5.628   4.470  12.136  1.00  0.00     0.018 C 
HETATM    2  C5  UNL     1      -5.728   3.028  11.561  1.00  0.00     0.010 C 
HETATM    3  C6  UNL     1      -4.318   2.418  11.643  1.00  0.00     0.010 C 
HETATM    4  C7  UNL     1      -3.384   3.633  11.722  1.00  0.00    -0.039 C 
HETATM    5  C8  UNL     1      -3.199   4.199  10.290  1.00  0.00     0.015 C 
HETATM    6  C9  UNL     1      -2.013   3.342  12.341  1.00  0.00     0.011 C 
HETATM    7  C10 UNL     1      -1.256   4.643  12.694  1.00  0.00     0.022 C 
HETATM    8  C11 UNL     1      -2.073   5.668  13.578  1.00  0.00     0.057 C 
HETATM    9  C13 UNL     1      -3.481   5.888  12.897  1.00  0.00     0.011 C 
HETATM   10  C14 UNL     1      -4.333   6.964  13.572  1.00  0.00     0.007 C 
HETATM   11  C15 UNL     1      -3.582   8.282  13.741  1.00  0.00     0.006 C 
HETATM   12  C16 UNL     1      -2.220   8.133  14.457  1.00  0.00     0.003 C 
HETATM   13  C17 UNL     1      -1.540   9.541  14.850  1.00  0.00    -0.035 C 
HETATM   14  C18 UNL     1      -1.817  10.605  13.755  1.00  0.00     0.016 C 
HETATM   15  C19 UNL     1      -2.263  10.019  16.153  1.00  0.00     0.012 C 
HETATM   16  C20 UNL     1      -1.602  11.189  16.864  1.00  0.00     0.033 C 
HETATM   17  C21 UNL     1      -0.167  10.844  17.236  1.00  0.00     0.128 C 
HETATM   18  C22 UNL     1       0.710  10.520  16.002  1.00  0.00     0.007 C 
HETATM   19  C23 UNL     1       0.960  11.796  15.145  1.00  0.00     0.020 C 
HETATM   20  C25 UNL     1       0.019   9.385  15.113  1.00  0.00     0.007 C 
HETATM   21  C26 UNL     1       0.282   7.957  15.627  1.00  0.00     0.007 C 
HETATM   22  C27 UNL     1       0.011   6.889  14.567  1.00  0.00     0.011 C 
HETATM   23  C28 UNL     1      -1.295   7.079  13.741  1.00  0.00    -0.022 C 
HETATM   24  C29 UNL     1      -0.869   7.615  12.342  1.00  0.00     0.017 C 
HETATM   25  C30 UNL     1      -4.190   4.529  12.698  1.00  0.00     0.007 C 
ENDROOT
BRANCH   8  26
HETATM   26  C12 UNL     1      -2.213   4.966  14.962  1.00  0.00     0.149 C 
HETATM   27  O1  UNL     1      -3.243   4.836  15.608  1.00  0.00    -0.649 OA
BRANCH  26  28
HETATM   28  O2  UNL     1      -1.091   4.445  15.472  1.00  0.00    -0.776 OA
HETATM   29  H18 UNL     1      -1.381   4.046  16.318  1.00  0.00     0.167 HD
ENDBRANCH  26  28
ENDBRANCH   8  26
BRANCH   1  30
HETATM   30  C2  UNL     1      -6.807   4.753  13.056  1.00  0.00    -0.089 C 
HETATM   31  C1  UNL     1      -7.368   5.960  13.242  1.00  0.00     0.014 C 
HETATM   32  C3  UNL     1      -7.330   3.556  13.805  1.00  0.00     0.043 C 
ENDBRANCH   1  30
BRANCH  18  33
HETATM   33  C24 UNL     1       2.144  10.118  16.474  1.00  0.00     0.176 C 
BRANCH  33  34
HETATM   34  O4  UNL     1       2.175   9.708  17.838  1.00  0.00    -0.400 OA
HETATM   35  H39 UNL     1       3.064   9.345  18.003  1.00  0.00     0.209 HD
ENDBRANCH  33  34
ENDBRANCH  18  33
BRANCH  17  36
HETATM   36  O3  UNL     1       0.374  11.942  17.973  1.00  0.00    -0.395 OA
HETATM   37  H33 UNL     1       1.084  11.569  18.525  1.00  0.00     0.210 HD
ENDBRANCH  17  36
TORSDOF 6
ENDMDL
