MODEL 1
REMARK minimizedAffinity -8.27326012
REMARK CNNscore 0.483147562
REMARK CNNaffinity 6.75113153
REMARK  12 active torsions:
REMARK  status: ('A' for Active; 'I' for Inactive)
REMARK    1  A    between atoms: C3_3  and  O1_4 
REMARK    2  A    between atoms: N1_14  and  O2_16 
REMARK    3  A    between atoms: O2_16  and  C13_17 
REMARK    4  A    between atoms: C13_17  and  C14_18 
REMARK       I    between atoms: C14_18  and  N2_20 
REMARK    5  A    between atoms: N2_20  and  C15_21 
REMARK    6  A    between atoms: C15_21  and  C16_22 
REMARK    7  A    between atoms: C15_21  and  C27_38 
REMARK       I    between atoms: C16_22  and  N3_24 
REMARK    8  A    between atoms: N3_24  and  C17_25 
REMARK    9  A    between atoms: C17_25  and  C18_26 
REMARK   10  A    between atoms: C17_25  and  C20_30 
REMARK   11  A    between atoms: C18_26  and  C19_27 
REMARK   12  A    between atoms: C19_27  and  O6_29 
ROOT
HETATM    1  C1  UNL     1       3.851   3.809   9.586  1.00  0.00     0.015 C 
HETATM    2  C2  UNL     1       3.256   4.828   9.811  1.00  0.00    -0.078 C 
HETATM    3  C3  UNL     1       2.546   6.088  10.080  1.00  0.00     0.128 C 
HETATM    4  C4  UNL     1       1.971   6.709   8.803  1.00  0.00     0.052 C 
HETATM    5  C5  UNL     1       1.031   7.784   9.338  1.00  0.00     0.010 C 
HETATM    6  C6  UNL     1       0.380   7.143  10.573  1.00  0.00     0.002 C 
HETATM    7  C7  UNL     1      -0.054   8.112  11.696  1.00  0.00    -0.004 C 
HETATM    8  C8  UNL     1       0.951   9.206  12.115  1.00  0.00     0.010 C 
HETATM    9  C9  UNL     1       1.135   9.434  13.625  1.00  0.00     0.035 C 
HETATM   10  C10 UNL     1      -0.061   9.193  14.517  1.00  0.00    -0.069 C 
HETATM   11  C11 UNL     1      -0.086   9.713  15.759  1.00  0.00     0.030 C 
HETATM   12  C12 UNL     1      -1.202   9.432  16.713  1.00  0.00     0.032 C 
HETATM   13  N1  UNL     1      -1.406  10.040  17.846  1.00  0.00    -0.271 N 
ATOM     14  H1  UNL     1      -2.188   9.833  18.469  1.00  0.00     0.194 HD
HETATM   15  C30 UNL     1      -2.217   8.362  16.340  1.00  0.00     0.060 C 
HETATM   16  C31 UNL     1      -1.755   7.476  15.186  1.00  0.00     0.020 C 
HETATM   17  C32 UNL     1      -1.163   8.283  14.002  1.00  0.00    -0.016 C 
HETATM   18  C33 UNL     1      -2.284   9.172  13.396  1.00  0.00     0.020 C 
HETATM   19  C34 UNL     1      -0.597   7.314  12.903  1.00  0.00     0.002 C 
HETATM   20  C35 UNL     1       0.441   6.282  13.429  1.00  0.00     0.007 C 
HETATM   21  C36 UNL     1       1.650   6.046  12.514  1.00  0.00     0.014 C 
HETATM   22  C37 UNL     1       1.298   5.960  11.018  1.00  0.00     0.003 C 
HETATM   23  C38 UNL     1       0.522   4.636  10.769  1.00  0.00     0.020 C 
ENDROOT
BRANCH   3  24
HETATM   24  O1  UNL     1       3.487   7.019  10.618  1.00  0.00    -0.377 OA
HETATM   25  H2  UNL     1       4.265   7.005  10.035  1.00  0.00     0.211 HD
ENDBRANCH   3  24
BRANCH  13  26
HETATM   26  O2  UNL     1      -0.428  11.012  18.113  1.00  0.00    -0.271 OA
BRANCH  26  27
HETATM   27  C13 UNL     1      -0.204  11.078  19.512  1.00  0.00     0.303 C 
BRANCH  27  28
HETATM   28  C14 UNL     1       1.249  10.831  19.925  1.00  0.00     0.244 C 
HETATM   29  O3  UNL     1       2.103  10.325  19.196  1.00  0.00    -0.271 OA
HETATM   30  N2  UNL     1       1.522  11.245  21.222  1.00  0.00    -0.346 N 
HETATM   31  H16 UNL     1       0.898  11.944  21.611  1.00  0.00     0.163 HD
BRANCH  30  32
HETATM   32  C15 UNL     1       2.894  11.304  21.725  1.00  0.00     0.180 C 
BRANCH  32  33
HETATM   33  C16 UNL     1       3.120  12.752  22.216  1.00  0.00     0.241 C 
HETATM   34  O4  UNL     1       2.289  13.337  22.910  1.00  0.00    -0.271 OA
HETATM   35  N3  UNL     1       4.334  13.301  21.865  1.00  0.00    -0.354 N 
HETATM   36  H18 UNL     1       4.948  12.772  21.258  1.00  0.00     0.162 HD
BRANCH  35  37
HETATM   37  C17 UNL     1       4.781  14.621  22.339  1.00  0.00     0.098 C 
BRANCH  37  38
HETATM   38  C18 UNL     1       4.249  15.688  21.377  1.00  0.00     0.135 C 
BRANCH  38  39
HETATM   39  C19 UNL     1       3.614  16.869  22.046  1.00  0.00     0.141 C 
HETATM   40  O5  UNL     1       4.026  18.015  22.004  1.00  0.00    -0.650 OA
BRANCH  39  41
HETATM   41  O6  UNL     1       2.461  16.582  22.672  1.00  0.00    -0.776 OA
HETATM   42  H22 UNL     1       2.141  17.447  23.007  1.00  0.00     0.167 HD
ENDBRANCH  39  41
ENDBRANCH  38  39
ENDBRANCH  37  38
BRANCH  37  43
HETATM   43  C20 UNL     1       6.320  14.558  22.554  1.00  0.00     0.014 C 
HETATM   44  C21 UNL     1       6.837  13.149  22.864  1.00  0.00     0.033 C 
HETATM   45  C22 UNL     1       8.356  13.158  22.983  1.00  0.00     0.169 C 
HETATM   46  O7  UNL     1       8.791  14.080  23.979  1.00  0.00    -0.381 OA
HETATM   47  C23 UNL     1       8.384  15.443  23.782  1.00  0.00     0.054 C 
HETATM   48  C24 UNL     1       9.128  16.069  22.594  1.00  0.00     0.045 C 
HETATM   49  C25 UNL     1       8.799  16.195  25.056  1.00  0.00     0.045 C 
HETATM   50  C26 UNL     1       6.850  15.528  23.624  1.00  0.00     0.044 C 
ENDBRANCH  37  43
ENDBRANCH  35  37
ENDBRANCH  32  33
BRANCH  32  51
HETATM   51  C27 UNL     1       3.119  10.247  22.833  1.00  0.00     0.009 C 
HETATM   52  C28 UNL     1       2.541   8.880  22.452  1.00  0.00     0.012 C 
HETATM   53  C29 UNL     1       4.586  10.087  23.246  1.00  0.00     0.012 C 
ENDBRANCH  32  51
ENDBRANCH  30  32
ENDBRANCH  27  28
ENDBRANCH  26  27
ENDBRANCH  13  26
TORSDOF 12
ENDMDL
MODEL 2
REMARK minimizedAffinity -7.68647814
REMARK CNNscore 0.374421239
REMARK CNNaffinity 7.27433538
REMARK  12 active torsions:
REMARK  status: ('A' for Active; 'I' for Inactive)
REMARK    1  A    between atoms: C3_3  and  O1_4 
REMARK    2  A    between atoms: N1_14  and  O2_16 
REMARK    3  A    between atoms: O2_16  and  C13_17 
REMARK    4  A    between atoms: C13_17  and  C14_18 
REMARK       I    between atoms: C14_18  and  N2_20 
REMARK    5  A    between atoms: N2_20  and  C15_21 
REMARK    6  A    between atoms: C15_21  and  C16_22 
REMARK    7  A    between atoms: C15_21  and  C27_38 
REMARK       I    between atoms: C16_22  and  N3_24 
REMARK    8  A    between atoms: N3_24  and  C17_25 
REMARK    9  A    between atoms: C17_25  and  C18_26 
REMARK   10  A    between atoms: C17_25  and  C20_30 
REMARK   11  A    between atoms: C18_26  and  C19_27 
REMARK   12  A    between atoms: C19_27  and  O6_29 
ROOT
HETATM    1  C1  UNL     1       1.979   6.863   8.373  1.00  0.00     0.015 C 
HETATM    2  C2  UNL     1       1.676   6.640   9.513  1.00  0.00    -0.078 C 
HETATM    3  C3  UNL     1       1.310   6.344  10.907  1.00  0.00     0.128 C 
HETATM    4  C4  UNL     1       2.540   6.230  11.814  1.00  0.00     0.052 C 
HETATM    5  C5  UNL     1       1.936   6.253  13.214  1.00  0.00     0.010 C 
HETATM    6  C6  UNL     1       0.796   7.278  13.122  1.00  0.00     0.002 C 
HETATM    7  C7  UNL     1      -0.400   7.054  14.075  1.00  0.00    -0.004 C 
HETATM    8  C8  UNL     1      -0.963   5.621  14.181  1.00  0.00     0.010 C 
HETATM    9  C9  UNL     1      -2.494   5.475  14.151  1.00  0.00     0.035 C 
HETATM   10  C10 UNL     1      -3.313   6.602  14.739  1.00  0.00    -0.069 C 
HETATM   11  C11 UNL     1      -4.599   6.388  15.078  1.00  0.00     0.030 C 
HETATM   12  C12 UNL     1      -5.478   7.488  15.580  1.00  0.00     0.032 C 
HETATM   13  N1  UNL     1      -6.656   7.339  16.110  1.00  0.00    -0.271 N 
ATOM     14  H1  UNL     1      -7.226   8.111  16.456  1.00  0.00     0.194 HD
HETATM   15  C30 UNL     1      -4.962   8.917  15.497  1.00  0.00     0.060 C 
HETATM   16  C31 UNL     1      -3.745   9.062  14.588  1.00  0.00     0.020 C 
HETATM   17  C32 UNL     1      -2.669   7.974  14.839  1.00  0.00    -0.016 C 
HETATM   18  C33 UNL     1      -2.113   8.147  16.279  1.00  0.00     0.020 C 
HETATM   19  C34 UNL     1      -1.501   8.102  13.796  1.00  0.00     0.002 C 
HETATM   20  C35 UNL     1      -1.960   8.080  12.311  1.00  0.00     0.007 C 
HETATM   21  C36 UNL     1      -1.072   7.261  11.364  1.00  0.00     0.014 C 
HETATM   22  C37 UNL     1       0.437   7.437  11.610  1.00  0.00     0.003 C 
HETATM   23  C38 UNL     1       0.845   8.871  11.173  1.00  0.00     0.020 C 
ENDROOT
BRANCH   3  24
HETATM   24  O1  UNL     1       0.648   5.078  10.930  1.00  0.00    -0.377 OA
HETATM   25  H2  UNL     1       1.200   4.459  10.422  1.00  0.00     0.211 HD
ENDBRANCH   3  24
BRANCH  13  26
HETATM   26  O2  UNL     1      -7.055   5.992  16.152  1.00  0.00    -0.271 OA
BRANCH  26  27
HETATM   27  C13 UNL     1      -8.469   5.920  16.071  1.00  0.00     0.303 C 
BRANCH  27  28
HETATM   28  C14 UNL     1      -9.081   6.824  14.999  1.00  0.00     0.244 C 
HETATM   29  O3  UNL     1      -8.600   6.999  13.879  1.00  0.00    -0.271 OA
HETATM   30  N2  UNL     1     -10.257   7.437  15.414  1.00  0.00    -0.346 N 
HETATM   31  H16 UNL     1     -10.755   6.987  16.174  1.00  0.00     0.163 HD
BRANCH  30  32
HETATM   32  C15 UNL     1     -11.110   8.157  14.468  1.00  0.00     0.180 C 
BRANCH  32  33
HETATM   33  C16 UNL     1     -12.480   7.442  14.480  1.00  0.00     0.241 C 
HETATM   34  O4  UNL     1     -12.569   6.214  14.451  1.00  0.00    -0.271 OA
HETATM   35  N3  UNL     1     -13.570   8.277  14.581  1.00  0.00    -0.354 N 
HETATM   36  H18 UNL     1     -13.417   9.278  14.558  1.00  0.00     0.162 HD
BRANCH  35  37
HETATM   37  C17 UNL     1     -14.948   7.780  14.728  1.00  0.00     0.098 C 
BRANCH  37  38
HETATM   38  C18 UNL     1     -15.816   8.427  13.645  1.00  0.00     0.135 C 
BRANCH  38  39
HETATM   39  C19 UNL     1     -15.223   8.395  12.269  1.00  0.00     0.141 C 
HETATM   40  O5  UNL     1     -14.408   9.188  11.830  1.00  0.00    -0.650 OA
BRANCH  39  41
HETATM   41  O6  UNL     1     -15.615   7.342  11.534  1.00  0.00    -0.776 OA
HETATM   42  H22 UNL     1     -15.110   7.425  10.697  1.00  0.00     0.167 HD
ENDBRANCH  39  41
ENDBRANCH  38  39
ENDBRANCH  37  38
BRANCH  37  43
HETATM   43  C20 UNL     1     -15.379   7.988  16.207  1.00  0.00     0.014 C 
HETATM   44  C21 UNL     1     -14.240   8.470  17.114  1.00  0.00     0.033 C 
HETATM   45  C22 UNL     1     -14.760   8.725  18.524  1.00  0.00     0.169 C 
HETATM   46  O7  UNL     1     -15.373   7.559  19.067  1.00  0.00    -0.381 OA
HETATM   47  C23 UNL     1     -16.472   7.027  18.312  1.00  0.00     0.054 C 
HETATM   48  C24 UNL     1     -17.694   7.953  18.401  1.00  0.00     0.045 C 
HETATM   49  C25 UNL     1     -16.834   5.692  18.980  1.00  0.00     0.045 C 
HETATM   50  C26 UNL     1     -16.042   6.760  16.853  1.00  0.00     0.044 C 
ENDBRANCH  37  43
ENDBRANCH  35  37
ENDBRANCH  32  33
BRANCH  32  51
HETATM   51  C27 UNL     1     -11.204   9.655  14.843  1.00  0.00     0.009 C 
HETATM   52  C28 UNL     1     -12.339  10.366  14.099  1.00  0.00     0.012 C 
HETATM   53  C29 UNL     1     -11.342   9.906  16.349  1.00  0.00     0.012 C 
ENDBRANCH  32  51
ENDBRANCH  30  32
ENDBRANCH  27  28
ENDBRANCH  26  27
ENDBRANCH  13  26
TORSDOF 12
ENDMDL
MODEL 3
REMARK minimizedAffinity -7.96911287
REMARK CNNscore 0.195921555
REMARK CNNaffinity 5.87100554
REMARK  12 active torsions:
REMARK  status: ('A' for Active; 'I' for Inactive)
REMARK    1  A    between atoms: C3_3  and  O1_4 
REMARK    2  A    between atoms: N1_14  and  O2_16 
REMARK    3  A    between atoms: O2_16  and  C13_17 
REMARK    4  A    between atoms: C13_17  and  C14_18 
REMARK       I    between atoms: C14_18  and  N2_20 
REMARK    5  A    between atoms: N2_20  and  C15_21 
REMARK    6  A    between atoms: C15_21  and  C16_22 
REMARK    7  A    between atoms: C15_21  and  C27_38 
REMARK       I    between atoms: C16_22  and  N3_24 
REMARK    8  A    between atoms: N3_24  and  C17_25 
REMARK    9  A    between atoms: C17_25  and  C18_26 
REMARK   10  A    between atoms: C17_25  and  C20_30 
REMARK   11  A    between atoms: C18_26  and  C19_27 
REMARK   12  A    between atoms: C19_27  and  O6_29 
ROOT
HETATM    1  C1  UNL     1      20.156  12.054  19.098  1.00  0.00     0.015 C 
HETATM    2  C2  UNL     1      18.984  12.205  19.310  1.00  0.00    -0.078 C 
HETATM    3  C3  UNL     1      17.548  12.372  19.583  1.00  0.00     0.128 C 
HETATM    4  C4  UNL     1      17.293  13.037  20.939  1.00  0.00     0.052 C 
HETATM    5  C5  UNL     1      15.814  13.400  20.870  1.00  0.00     0.010 C 
HETATM    6  C6  UNL     1      15.602  13.865  19.422  1.00  0.00     0.002 C 
HETATM    7  C7  UNL     1      14.189  13.646  18.835  1.00  0.00    -0.004 C 
HETATM    8  C8  UNL     1      13.532  12.269  19.067  1.00  0.00     0.010 C 
HETATM    9  C9  UNL     1      12.835  11.622  17.858  1.00  0.00     0.035 C 
HETATM   10  C10 UNL     1      12.201  12.546  16.843  1.00  0.00    -0.069 C 
HETATM   11  C11 UNL     1      11.282  12.066  15.984  1.00  0.00     0.030 C 
HETATM   12  C12 UNL     1      10.689  12.914  14.904  1.00  0.00     0.032 C 
HETATM   13  N1  UNL     1       9.666  12.599  14.164  1.00  0.00    -0.271 N 
ATOM     14  H1  UNL     1       9.278  13.207  13.443  1.00  0.00     0.194 HD
HETATM   15  C30 UNL     1      11.305  14.280  14.641  1.00  0.00     0.060 C 
HETATM   16  C31 UNL     1      12.672  14.456  15.296  1.00  0.00     0.020 C 
HETATM   17  C32 UNL     1      12.704  13.978  16.771  1.00  0.00    -0.016 C 
HETATM   18  C33 UNL     1      11.745  14.872  17.604  1.00  0.00     0.020 C 
HETATM   19  C34 UNL     1      14.161  14.071  17.350  1.00  0.00     0.002 C 
HETATM   20  C35 UNL     1      15.235  13.320  16.512  1.00  0.00     0.007 C 
HETATM   21  C36 UNL     1      16.276  12.544  17.329  1.00  0.00     0.014 C 
HETATM   22  C37 UNL     1      16.783  13.294  18.575  1.00  0.00     0.003 C 
HETATM   23  C38 UNL     1      17.657  14.491  18.109  1.00  0.00     0.020 C 
ENDROOT
BRANCH   3  24
HETATM   24  O1  UNL     1      16.954  11.073  19.629  1.00  0.00    -0.377 OA
HETATM   25  H2  UNL     1      17.508  10.528  20.214  1.00  0.00     0.211 HD
ENDBRANCH   3  24
BRANCH  13  26
HETATM   26  O2  UNL     1       9.158  11.326  14.473  1.00  0.00    -0.271 OA
BRANCH  26  27
HETATM   27  C13 UNL     1       8.475  10.809  13.341  1.00  0.00     0.303 C 
BRANCH  27  28
HETATM   28  C14 UNL     1       7.832   9.440  13.571  1.00  0.00     0.244 C 
HETATM   29  O3  UNL     1       8.245   8.603  14.375  1.00  0.00    -0.271 OA
HETATM   30  N2  UNL     1       6.713   9.226  12.776  1.00  0.00    -0.346 N 
HETATM   31  H16 UNL     1       6.249  10.055  12.421  1.00  0.00     0.163 HD
BRANCH  30  32
HETATM   32  C15 UNL     1       5.831   8.081  13.002  1.00  0.00     0.180 C 
BRANCH  32  33
HETATM   33  C16 UNL     1       4.414   8.657  13.228  1.00  0.00     0.241 C 
HETATM   34  O4  UNL     1       4.200   9.870  13.219  1.00  0.00    -0.271 OA
HETATM   35  N3  UNL     1       3.422   7.715  13.381  1.00  0.00    -0.354 N 
HETATM   36  H18 UNL     1       3.683   6.737  13.418  1.00  0.00     0.162 HD
BRANCH  35  37
HETATM   37  C17 UNL     1       1.996   8.065  13.487  1.00  0.00     0.098 C 
BRANCH  37  38
HETATM   38  C18 UNL     1       1.450   7.490  14.797  1.00  0.00     0.135 C 
BRANCH  38  39
HETATM   39  C19 UNL     1       2.412   7.536  15.945  1.00  0.00     0.141 C 
HETATM   40  O5  UNL     1       2.376   8.330  16.870  1.00  0.00    -0.650 OA
BRANCH  39  41
HETATM   41  O6  UNL     1       3.324   6.551  15.928  1.00  0.00    -0.776 OA
HETATM   42  H22 UNL     1       3.837   6.677  16.755  1.00  0.00     0.167 HD
ENDBRANCH  39  41
ENDBRANCH  38  39
ENDBRANCH  37  38
BRANCH  37  43
HETATM   43  C20 UNL     1       1.295   7.628  12.169  1.00  0.00     0.014 C 
HETATM   44  C21 UNL     1       1.155   6.108  12.026  1.00  0.00     0.033 C 
HETATM   45  C22 UNL     1       0.391   5.766  10.753  1.00  0.00     0.169 C 
HETATM   46  O7  UNL     1       1.028   6.319   9.604  1.00  0.00    -0.381 OA
HETATM   47  C23 UNL     1       1.195   7.745   9.615  1.00  0.00     0.054 C 
HETATM   48  C24 UNL     1      -0.157   8.455   9.453  1.00  0.00     0.045 C 
HETATM   49  C25 UNL     1       2.059   8.077   8.388  1.00  0.00     0.045 C 
HETATM   50  C26 UNL     1       1.943   8.189  10.891  1.00  0.00     0.044 C 
ENDBRANCH  37  43
ENDBRANCH  35  37
ENDBRANCH  32  33
BRANCH  32  51
HETATM   51  C27 UNL     1       5.901   7.091  11.816  1.00  0.00     0.009 C 
HETATM   52  C28 UNL     1       5.633   7.779  10.474  1.00  0.00     0.012 C 
HETATM   53  C29 UNL     1       7.217   6.311  11.739  1.00  0.00     0.012 C 
ENDBRANCH  32  51
ENDBRANCH  30  32
ENDBRANCH  27  28
ENDBRANCH  26  27
ENDBRANCH  13  26
TORSDOF 12
ENDMDL
MODEL 4
REMARK minimizedAffinity -8.9629755
REMARK CNNscore 0.17258282
REMARK CNNaffinity 6.61556387
REMARK  12 active torsions:
REMARK  status: ('A' for Active; 'I' for Inactive)
REMARK    1  A    between atoms: C3_3  and  O1_4 
REMARK    2  A    between atoms: N1_14  and  O2_16 
REMARK    3  A    between atoms: O2_16  and  C13_17 
REMARK    4  A    between atoms: C13_17  and  C14_18 
REMARK       I    between atoms: C14_18  and  N2_20 
REMARK    5  A    between atoms: N2_20  and  C15_21 
REMARK    6  A    between atoms: C15_21  and  C16_22 
REMARK    7  A    between atoms: C15_21  and  C27_38 
REMARK       I    between atoms: C16_22  and  N3_24 
REMARK    8  A    between atoms: N3_24  and  C17_25 
REMARK    9  A    between atoms: C17_25  and  C18_26 
REMARK   10  A    between atoms: C17_25  and  C20_30 
REMARK   11  A    between atoms: C18_26  and  C19_27 
REMARK   12  A    between atoms: C19_27  and  O6_29 
ROOT
HETATM    1  C1  UNL     1      -7.358   8.081  15.742  1.00  0.00     0.015 C 
HETATM    2  C2  UNL     1      -6.425   7.432  15.352  1.00  0.00    -0.078 C 
HETATM    3  C3  UNL     1      -5.286   6.622  14.893  1.00  0.00     0.128 C 
HETATM    4  C4  UNL     1      -5.738   5.372  14.131  1.00  0.00     0.052 C 
HETATM    5  C5  UNL     1      -4.448   4.879  13.486  1.00  0.00     0.010 C 
HETATM    6  C6  UNL     1      -3.722   6.162  13.052  1.00  0.00     0.002 C 
HETATM    7  C7  UNL     1      -2.179   6.093  13.014  1.00  0.00    -0.004 C 
HETATM    8  C8  UNL     1      -1.468   5.447  14.222  1.00  0.00     0.010 C 
HETATM    9  C9  UNL     1      -0.232   6.180  14.771  1.00  0.00     0.035 C 
HETATM   10  C10 UNL     1       0.612   6.956  13.786  1.00  0.00    -0.069 C 
HETATM   11  C11 UNL     1       1.872   7.301  14.111  1.00  0.00     0.030 C 
HETATM   12  C12 UNL     1       2.720   8.143  13.212  1.00  0.00     0.032 C 
HETATM   13  N1  UNL     1       3.995   8.359  13.350  1.00  0.00    -0.271 N 
ATOM     14  H1  UNL     1       4.548   8.930  12.710  1.00  0.00     0.194 HD
HETATM   15  C30 UNL     1       2.060   8.799  12.008  1.00  0.00     0.060 C 
HETATM   16  C31 UNL     1       0.536   8.782  12.077  1.00  0.00     0.020 C 
HETATM   17  C32 UNL     1      -0.037   7.401  12.486  1.00  0.00    -0.016 C 
HETATM   18  C33 UNL     1       0.323   6.367  11.384  1.00  0.00     0.020 C 
HETATM   19  C34 UNL     1      -1.596   7.479  12.658  1.00  0.00     0.002 C 
HETATM   20  C35 UNL     1      -2.080   8.581  13.643  1.00  0.00     0.007 C 
HETATM   21  C36 UNL     1      -3.229   8.169  14.572  1.00  0.00     0.014 C 
HETATM   22  C37 UNL     1      -4.327   7.338  13.883  1.00  0.00     0.003 C 
HETATM   23  C38 UNL     1      -5.104   8.262  12.904  1.00  0.00     0.020 C 
ENDROOT
BRANCH   3  24
HETATM   24  O1  UNL     1      -4.567   6.180  16.045  1.00  0.00    -0.377 OA
HETATM   25  H2  UNL     1      -5.219   5.808  16.663  1.00  0.00     0.211 HD
ENDBRANCH   3  24
BRANCH  13  26
HETATM   26  O2  UNL     1       4.524   7.717  14.482  1.00  0.00    -0.271 OA
BRANCH  26  27
HETATM   27  C13 UNL     1       5.941   7.726  14.405  1.00  0.00     0.303 C 
BRANCH  27  28
HETATM   28  C14 UNL     1       6.557   9.127  14.382  1.00  0.00     0.244 C 
HETATM   29  O3  UNL     1       6.336   9.969  13.511  1.00  0.00    -0.271 OA
HETATM   30  N2  UNL     1       7.401   9.366  15.459  1.00  0.00    -0.346 N 
HETATM   31  H16 UNL     1       7.257   8.789  16.280  1.00  0.00     0.163 HD
BRANCH  30  32
HETATM   32  C15 UNL     1       7.908  10.710  15.739  1.00  0.00     0.180 C 
BRANCH  32  33
HETATM   33  C16 UNL     1       8.301  10.727  17.234  1.00  0.00     0.241 C 
HETATM   34  O4  UNL     1       8.531   9.689  17.854  1.00  0.00    -0.271 OA
HETATM   35  N3  UNL     1       8.424  11.982  17.787  1.00  0.00    -0.354 N 
HETATM   36  H18 UNL     1       8.179  12.787  17.224  1.00  0.00     0.162 HD
BRANCH  35  37
HETATM   37  C17 UNL     1       8.905  12.207  19.161  1.00  0.00     0.098 C 
BRANCH  37  38
HETATM   38  C18 UNL     1      10.075  11.255  19.428  1.00  0.00     0.135 C 
BRANCH  38  39
HETATM   39  C19 UNL     1      11.232  11.878  20.148  1.00  0.00     0.141 C 
HETATM   40  O5  UNL     1      12.274  11.314  20.436  1.00  0.00    -0.650 OA
BRANCH  39  41
HETATM   41  O6  UNL     1      11.068  13.184  20.410  1.00  0.00    -0.776 OA
HETATM   42  H22 UNL     1      11.914  13.460  20.825  1.00  0.00     0.167 HD
ENDBRANCH  39  41
ENDBRANCH  38  39
ENDBRANCH  37  38
BRANCH  37  43
HETATM   43  C20 UNL     1       7.682  12.121  20.117  1.00  0.00     0.014 C 
HETATM   44  C21 UNL     1       6.334  12.093  19.387  1.00  0.00     0.033 C 
HETATM   45  C22 UNL     1       5.196  11.928  20.386  1.00  0.00     0.169 C 
HETATM   46  O7  UNL     1       5.213  12.965  21.365  1.00  0.00    -0.381 OA
HETATM   47  C23 UNL     1       6.422  13.073  22.131  1.00  0.00     0.054 C 
HETATM   48  C24 UNL     1       6.565  11.887  23.096  1.00  0.00     0.045 C 
HETATM   49  C25 UNL     1       6.277  14.355  22.967  1.00  0.00     0.045 C 
HETATM   50  C26 UNL     1       7.641  13.219  21.193  1.00  0.00     0.044 C 
ENDBRANCH  37  43
ENDBRANCH  35  37
ENDBRANCH  32  33
BRANCH  32  51
HETATM   51  C27 UNL     1       9.086  11.059  14.799  1.00  0.00     0.009 C 
HETATM   52  C28 UNL     1       9.303  12.571  14.683  1.00  0.00     0.012 C 
HETATM   53  C29 UNL     1      10.405  10.379  15.183  1.00  0.00     0.012 C 
ENDBRANCH  32  51
ENDBRANCH  30  32
ENDBRANCH  27  28
ENDBRANCH  26  27
ENDBRANCH  13  26
TORSDOF 12
ENDMDL
MODEL 5
REMARK minimizedAffinity -8.2403326
REMARK CNNscore 0.164754942
REMARK CNNaffinity 5.93605423
REMARK  12 active torsions:
REMARK  status: ('A' for Active; 'I' for Inactive)
REMARK    1  A    between atoms: C3_3  and  O1_4 
REMARK    2  A    between atoms: N1_14  and  O2_16 
REMARK    3  A    between atoms: O2_16  and  C13_17 
REMARK    4  A    between atoms: C13_17  and  C14_18 
REMARK       I    between atoms: C14_18  and  N2_20 
REMARK    5  A    between atoms: N2_20  and  C15_21 
REMARK    6  A    between atoms: C15_21  and  C16_22 
REMARK    7  A    between atoms: C15_21  and  C27_38 
REMARK       I    between atoms: C16_22  and  N3_24 
REMARK    8  A    between atoms: N3_24  and  C17_25 
REMARK    9  A    between atoms: C17_25  and  C18_26 
REMARK   10  A    between atoms: C17_25  and  C20_30 
REMARK   11  A    between atoms: C18_26  and  C19_27 
REMARK   12  A    between atoms: C19_27  and  O6_29 
ROOT
HETATM    1  C1  UNL     1       1.857   6.832   6.669  1.00  0.00     0.015 C 
HETATM    2  C2  UNL     1       1.937   7.100   7.837  1.00  0.00    -0.078 C 
HETATM    3  C3  UNL     1       2.019   7.445   9.264  1.00  0.00     0.128 C 
HETATM    4  C4  UNL     1       0.901   6.787  10.080  1.00  0.00     0.052 C 
HETATM    5  C5  UNL     1       1.357   7.000  11.520  1.00  0.00     0.010 C 
HETATM    6  C6  UNL     1       2.878   6.793  11.474  1.00  0.00     0.002 C 
HETATM    7  C7  UNL     1       3.705   7.573  12.521  1.00  0.00    -0.004 C 
HETATM    8  C8  UNL     1       3.364   9.064  12.725  1.00  0.00     0.010 C 
HETATM    9  C9  UNL     1       4.551  10.039  12.815  1.00  0.00     0.035 C 
HETATM   10  C10 UNL     1       5.835   9.518  13.419  1.00  0.00    -0.069 C 
HETATM   11  C11 UNL     1       6.766  10.385  13.861  1.00  0.00     0.030 C 
HETATM   12  C12 UNL     1       8.090   9.926  14.384  1.00  0.00     0.032 C 
HETATM   13  N1  UNL     1       8.960  10.667  15.006  1.00  0.00    -0.271 N 
ATOM     14  H1  UNL     1       9.850  10.319  15.363  1.00  0.00     0.194 HD
HETATM   15  C30 UNL     1       8.467   8.463  14.206  1.00  0.00     0.060 C 
HETATM   16  C31 UNL     1       7.576   7.734  13.204  1.00  0.00     0.020 C 
HETATM   17  C32 UNL     1       6.067   8.017  13.416  1.00  0.00    -0.016 C 
HETATM   18  C33 UNL     1       5.646   7.457  14.803  1.00  0.00     0.020 C 
HETATM   19  C34 UNL     1       5.214   7.339  12.285  1.00  0.00     0.002 C 
HETATM   20  C35 UNL     1       5.641   7.723  10.840  1.00  0.00     0.007 C 
HETATM   21  C36 UNL     1       4.486   7.977   9.863  1.00  0.00     0.014 C 
HETATM   22  C37 UNL     1       3.325   6.973   9.988  1.00  0.00     0.003 C 
HETATM   23  C38 UNL     1       3.808   5.592   9.465  1.00  0.00     0.020 C 
ENDROOT
BRANCH   3  24
HETATM   24  O1  UNL     1       1.857   8.859   9.386  1.00  0.00    -0.377 OA
HETATM   25  H2  UNL     1       1.074   9.102   8.863  1.00  0.00     0.211 HD
ENDBRANCH   3  24
BRANCH  13  26
HETATM   26  O2  UNL     1       8.534  11.999  15.131  1.00  0.00    -0.271 OA
BRANCH  26  27
HETATM   27  C13 UNL     1       8.375  12.313  16.505  1.00  0.00     0.303 C 
BRANCH  27  28
HETATM   28  C14 UNL     1       7.026  12.947  16.851  1.00  0.00     0.244 C 
HETATM   29  O3  UNL     1       5.935  12.481  16.523  1.00  0.00    -0.271 OA
HETATM   30  N2  UNL     1       7.150  14.118  17.588  1.00  0.00    -0.346 N 
HETATM   31  H16 UNL     1       8.017  14.237  18.100  1.00  0.00     0.163 HD
BRANCH  30  32
HETATM   32  C15 UNL     1       5.984  14.751  18.205  1.00  0.00     0.180 C 
BRANCH  32  33
HETATM   33  C16 UNL     1       5.715  13.985  19.521  1.00  0.00     0.241 C 
HETATM   34  O4  UNL     1       4.795  13.174  19.621  1.00  0.00    -0.271 OA
HETATM   35  N3  UNL     1       6.611  14.241  20.535  1.00  0.00    -0.354 N 
HETATM   36  H18 UNL     1       7.317  14.952  20.390  1.00  0.00     0.162 HD
BRANCH  35  37
HETATM   37  C17 UNL     1       6.592  13.522  21.820  1.00  0.00     0.098 C 
BRANCH  37  38
HETATM   38  C18 UNL     1       7.666  12.431  21.781  1.00  0.00     0.135 C 
BRANCH  38  39
HETATM   39  C19 UNL     1       8.534  12.369  23.001  1.00  0.00     0.141 C 
HETATM   40  O5  UNL     1       8.936  13.329  23.635  1.00  0.00    -0.650 OA
BRANCH  39  41
HETATM   41  O6  UNL     1       8.800  11.119  23.414  1.00  0.00    -0.776 OA
HETATM   42  H22 UNL     1       9.321  11.239  24.238  1.00  0.00     0.167 HD
ENDBRANCH  39  41
ENDBRANCH  38  39
ENDBRANCH  37  38
BRANCH  37  43
HETATM   43  C20 UNL     1       5.129  13.074  22.097  1.00  0.00     0.014 C 
HETATM   44  C21 UNL     1       4.362  14.027  23.022  1.00  0.00     0.033 C 
HETATM   45  C22 UNL     1       2.919  13.562  23.179  1.00  0.00     0.169 C 
HETATM   46  O7  UNL     1       2.858  12.227  23.675  1.00  0.00    -0.381 OA
HETATM   47  C23 UNL     1       3.525  11.238  22.876  1.00  0.00     0.054 C 
HETATM   48  C24 UNL     1       2.768  10.997  21.562  1.00  0.00     0.045 C 
HETATM   49  C25 UNL     1       3.486   9.939  23.696  1.00  0.00     0.045 C 
HETATM   50  C26 UNL     1       4.997  11.642  22.642  1.00  0.00     0.044 C 
ENDBRANCH  37  43
ENDBRANCH  35  37
ENDBRANCH  32  33
BRANCH  32  51
HETATM   51  C27 UNL     1       6.231  16.262  18.423  1.00  0.00     0.009 C 
HETATM   52  C28 UNL     1       7.495  16.749  17.708  1.00  0.00     0.012 C 
HETATM   53  C29 UNL     1       5.043  17.145  18.024  1.00  0.00     0.012 C 
ENDBRANCH  32  51
ENDBRANCH  30  32
ENDBRANCH  27  28
ENDBRANCH  26  27
ENDBRANCH  13  26
TORSDOF 12
ENDMDL
MODEL 6
REMARK minimizedAffinity -9.00537205
REMARK CNNscore 0.14366436
REMARK CNNaffinity 5.46891785
REMARK  12 active torsions:
REMARK  status: ('A' for Active; 'I' for Inactive)
REMARK    1  A    between atoms: C3_3  and  O1_4 
REMARK    2  A    between atoms: N1_14  and  O2_16 
REMARK    3  A    between atoms: O2_16  and  C13_17 
REMARK    4  A    between atoms: C13_17  and  C14_18 
REMARK       I    between atoms: C14_18  and  N2_20 
REMARK    5  A    between atoms: N2_20  and  C15_21 
REMARK    6  A    between atoms: C15_21  and  C16_22 
REMARK    7  A    between atoms: C15_21  and  C27_38 
REMARK       I    between atoms: C16_22  and  N3_24 
REMARK    8  A    between atoms: N3_24  and  C17_25 
REMARK    9  A    between atoms: C17_25  and  C18_26 
REMARK   10  A    between atoms: C17_25  and  C20_30 
REMARK   11  A    between atoms: C18_26  and  C19_27 
REMARK   12  A    between atoms: C19_27  and  O6_29 
ROOT
HETATM    1  C1  UNL     1       7.394  17.165  22.996  1.00  0.00     0.015 C 
HETATM    2  C2  UNL     1       7.176  16.019  22.710  1.00  0.00    -0.078 C 
HETATM    3  C3  UNL     1       6.930  14.614  22.350  1.00  0.00     0.128 C 
HETATM    4  C4  UNL     1       7.579  13.643  23.343  1.00  0.00     0.052 C 
HETATM    5  C5  UNL     1       6.941  12.306  22.980  1.00  0.00     0.010 C 
HETATM    6  C6  UNL     1       5.480  12.653  22.661  1.00  0.00     0.002 C 
HETATM    7  C7  UNL     1       4.767  11.735  21.642  1.00  0.00    -0.004 C 
HETATM    8  C8  UNL     1       5.536  11.378  20.352  1.00  0.00     0.010 C 
HETATM    9  C9  UNL     1       4.749  11.453  19.033  1.00  0.00     0.035 C 
HETATM   10  C10 UNL     1       3.271  11.139  19.085  1.00  0.00    -0.069 C 
HETATM   11  C11 UNL     1       2.612  10.828  17.953  1.00  0.00     0.030 C 
HETATM   12  C12 UNL     1       1.136  10.596  17.934  1.00  0.00     0.032 C 
HETATM   13  N1  UNL     1       0.455  10.105  16.939  1.00  0.00    -0.271 N 
ATOM     14  H1  UNL     1      -0.553   9.946  16.964  1.00  0.00     0.194 HD
HETATM   15  C30 UNL     1       0.338  10.933  19.184  1.00  0.00     0.060 C 
HETATM   16  C31 UNL     1       1.116  11.791  20.177  1.00  0.00     0.020 C 
HETATM   17  C32 UNL     1       2.559  11.279  20.420  1.00  0.00    -0.016 C 
HETATM   18  C33 UNL     1       2.484   9.875  21.081  1.00  0.00     0.020 C 
HETATM   19  C34 UNL     1       3.346  12.268  21.353  1.00  0.00     0.002 C 
HETATM   20  C35 UNL     1       3.369  13.741  20.855  1.00  0.00     0.007 C 
HETATM   21  C36 UNL     1       4.714  14.463  21.012  1.00  0.00     0.014 C 
HETATM   22  C37 UNL     1       5.425  14.183  22.348  1.00  0.00     0.003 C 
HETATM   23  C38 UNL     1       4.625  14.873  23.488  1.00  0.00     0.020 C 
ENDROOT
BRANCH   3  24
HETATM   24  O1  UNL     1       7.525  14.375  21.074  1.00  0.00    -0.377 OA
HETATM   25  H2  UNL     1       8.432  14.724  21.113  1.00  0.00     0.211 HD
ENDBRANCH   3  24
BRANCH  13  26
HETATM   26  O2  UNL     1       1.266   9.819  15.828  1.00  0.00    -0.271 OA
BRANCH  26  27
HETATM   27  C13 UNL     1       1.129   8.448  15.490  1.00  0.00     0.303 C 
BRANCH  27  28
HETATM   28  C14 UNL     1       0.002   8.158  14.497  1.00  0.00     0.244 C 
HETATM   29  O3  UNL     1      -1.151   8.576  14.611  1.00  0.00    -0.271 OA
HETATM   30  N2  UNL     1       0.411   7.369  13.429  1.00  0.00    -0.346 N 
HETATM   31  H16 UNL     1       1.404   7.366  13.226  1.00  0.00     0.163 HD
BRANCH  30  32
HETATM   32  C15 UNL     1      -0.450   7.167  12.264  1.00  0.00     0.180 C 
BRANCH  32  33
HETATM   33  C16 UNL     1       0.371   7.608  11.030  1.00  0.00     0.241 C 
HETATM   34  O4  UNL     1      -0.165   8.120  10.047  1.00  0.00    -0.271 OA
HETATM   35  N3  UNL     1       1.732   7.434  11.146  1.00  0.00    -0.354 N 
HETATM   36  H18 UNL     1       2.092   6.968  11.970  1.00  0.00     0.162 HD
BRANCH  35  37
HETATM   37  C17 UNL     1       2.687   7.902  10.129  1.00  0.00     0.098 C 
BRANCH  37  38
HETATM   38  C18 UNL     1       2.537   7.025   8.882  1.00  0.00     0.135 C 
BRANCH  38  39
HETATM   39  C19 UNL     1       2.254   7.781   7.620  1.00  0.00     0.141 C 
HETATM   40  O5  UNL     1       1.386   7.506   6.808  1.00  0.00    -0.650 OA
BRANCH  39  41
HETATM   41  O6  UNL     1       3.010   8.880   7.463  1.00  0.00    -0.776 OA
HETATM   42  H22 UNL     1       2.677   9.292   6.637  1.00  0.00     0.167 HD
ENDBRANCH  39  41
ENDBRANCH  38  39
ENDBRANCH  37  38
BRANCH  37  43
HETATM   43  C20 UNL     1       4.094   7.972  10.787  1.00  0.00     0.014 C 
HETATM   44  C21 UNL     1       4.969   9.108  10.245  1.00  0.00     0.033 C 
HETATM   45  C22 UNL     1       6.295   9.158  10.994  1.00  0.00     0.169 C 
HETATM   46  O7  UNL     1       6.983   7.913  10.907  1.00  0.00    -0.381 OA
HETATM   47  C23 UNL     1       6.268   6.773  11.408  1.00  0.00     0.054 C 
HETATM   48  C24 UNL     1       6.154   6.830  12.938  1.00  0.00     0.045 C 
HETATM   49  C25 UNL     1       7.118   5.547  11.038  1.00  0.00     0.045 C 
HETATM   50  C26 UNL     1       4.891   6.658  10.719  1.00  0.00     0.044 C 
ENDBRANCH  37  43
ENDBRANCH  35  37
ENDBRANCH  32  33
BRANCH  32  51
HETATM   51  C27 UNL     1      -0.927   5.697  12.181  1.00  0.00     0.009 C 
HETATM   52  C28 UNL     1       0.203   4.747  11.774  1.00  0.00     0.012 C 
HETATM   53  C29 UNL     1      -1.588   5.189  13.467  1.00  0.00     0.012 C 
ENDBRANCH  32  51
ENDBRANCH  30  32
ENDBRANCH  27  28
ENDBRANCH  26  27
ENDBRANCH  13  26
TORSDOF 12
ENDMDL
MODEL 7
REMARK minimizedAffinity -7.88923502
REMARK CNNscore 0.141134098
REMARK CNNaffinity 6.29656076
REMARK  12 active torsions:
REMARK  status: ('A' for Active; 'I' for Inactive)
REMARK    1  A    between atoms: C3_3  and  O1_4 
REMARK    2  A    between atoms: N1_14  and  O2_16 
REMARK    3  A    between atoms: O2_16  and  C13_17 
REMARK    4  A    between atoms: C13_17  and  C14_18 
REMARK       I    between atoms: C14_18  and  N2_20 
REMARK    5  A    between atoms: N2_20  and  C15_21 
REMARK    6  A    between atoms: C15_21  and  C16_22 
REMARK    7  A    between atoms: C15_21  and  C27_38 
REMARK       I    between atoms: C16_22  and  N3_24 
REMARK    8  A    between atoms: N3_24  and  C17_25 
REMARK    9  A    between atoms: C17_25  and  C18_26 
REMARK   10  A    between atoms: C17_25  and  C20_30 
REMARK   11  A    between atoms: C18_26  and  C19_27 
REMARK   12  A    between atoms: C19_27  and  O6_29 
ROOT
HETATM    1  C1  UNL     1      -0.024   2.939  11.745  1.00  0.00     0.015 C 
HETATM    2  C2  UNL     1      -0.018   4.136  11.846  1.00  0.00    -0.078 C 
HETATM    3  C3  UNL     1       0.011   5.602  11.964  1.00  0.00     0.128 C 
HETATM    4  C4  UNL     1      -0.065   6.292  10.598  1.00  0.00     0.052 C 
HETATM    5  C5  UNL     1      -0.346   7.745  10.964  1.00  0.00     0.010 C 
HETATM    6  C6  UNL     1      -1.321   7.661  12.147  1.00  0.00     0.002 C 
HETATM    7  C7  UNL     1      -1.269   8.827  13.159  1.00  0.00    -0.004 C 
HETATM    8  C8  UNL     1       0.125   9.291  13.634  1.00  0.00     0.010 C 
HETATM    9  C9  UNL     1       0.292   9.549  15.141  1.00  0.00     0.035 C 
HETATM   10  C10 UNL     1      -0.916  10.049  15.900  1.00  0.00    -0.069 C 
HETATM   11  C11 UNL     1      -0.756  10.635  17.102  1.00  0.00     0.030 C 
HETATM   12  C12 UNL     1      -1.921  11.066  17.934  1.00  0.00     0.032 C 
HETATM   13  N1  UNL     1      -1.861  11.807  19.002  1.00  0.00    -0.271 N 
ATOM     14  H1  UNL     1      -2.678  12.096  19.540  1.00  0.00     0.194 HD
HETATM   15  C30 UNL     1      -3.313  10.633  17.503  1.00  0.00     0.060 C 
HETATM   16  C31 UNL     1      -3.297   9.520  16.459  1.00  0.00     0.020 C 
HETATM   17  C32 UNL     1      -2.290   9.781  15.309  1.00  0.00    -0.016 C 
HETATM   18  C33 UNL     1      -2.740  11.049  14.532  1.00  0.00     0.020 C 
HETATM   19  C34 UNL     1      -2.231   8.550  14.336  1.00  0.00     0.002 C 
HETATM   20  C35 UNL     1      -1.921   7.195  15.032  1.00  0.00     0.007 C 
HETATM   21  C36 UNL     1      -0.947   6.280  14.277  1.00  0.00     0.014 C 
HETATM   22  C37 UNL     1      -1.185   6.228  12.757  1.00  0.00     0.003 C 
HETATM   23  C38 UNL     1      -2.515   5.470  12.490  1.00  0.00     0.020 C 
ENDROOT
BRANCH   3  24
HETATM   24  O1  UNL     1       1.257   5.972  12.557  1.00  0.00    -0.377 OA
HETATM   25  H2  UNL     1       1.955   5.501  12.070  1.00  0.00     0.211 HD
ENDBRANCH   3  24
BRANCH  13  26
HETATM   26  O2  UNL     1      -0.542  12.166  19.328  1.00  0.00    -0.271 OA
BRANCH  26  27
HETATM   27  C13 UNL     1       0.080  11.088  20.010  1.00  0.00     0.303 C 
BRANCH  27  28
HETATM   28  C14 UNL     1       1.471  11.414  20.557  1.00  0.00     0.244 C 
HETATM   29  O3  UNL     1       1.790  12.498  21.047  1.00  0.00    -0.271 OA
HETATM   30  N2  UNL     1       2.358  10.350  20.452  1.00  0.00    -0.346 N 
HETATM   31  H16 UNL     1       1.945   9.427  20.375  1.00  0.00     0.163 HD
BRANCH  30  32
HETATM   32  C15 UNL     1       3.661  10.382  21.117  1.00  0.00     0.180 C 
BRANCH  32  33
HETATM   33  C16 UNL     1       4.610  11.168  20.183  1.00  0.00     0.241 C 
HETATM   34  O4  UNL     1       4.237  11.589  19.088  1.00  0.00    -0.271 OA
HETATM   35  N3  UNL     1       5.867  11.401  20.695  1.00  0.00    -0.354 N 
HETATM   36  H18 UNL     1       6.112  10.986  21.585  1.00  0.00     0.162 HD
BRANCH  35  37
HETATM   37  C17 UNL     1       6.869  12.231  20.007  1.00  0.00     0.098 C 
BRANCH  37  38
HETATM   38  C18 UNL     1       7.562  11.376  18.942  1.00  0.00     0.135 C 
BRANCH  38  39
HETATM   39  C19 UNL     1       8.129  12.151  17.792  1.00  0.00     0.141 C 
HETATM   40  O5  UNL     1       9.013  11.768  17.045  1.00  0.00    -0.650 OA
BRANCH  39  41
HETATM   41  O6  UNL     1       7.523  13.331  17.582  1.00  0.00    -0.776 OA
HETATM   42  H22 UNL     1       7.957  13.690  16.778  1.00  0.00     0.167 HD
ENDBRANCH  39  41
ENDBRANCH  38  39
ENDBRANCH  37  38
BRANCH  37  43
HETATM   43  C20 UNL     1       7.771  12.891  21.089  1.00  0.00     0.014 C 
HETATM   44  C21 UNL     1       8.139  11.946  22.239  1.00  0.00     0.033 C 
HETATM   45  C22 UNL     1       9.083  12.640  23.212  1.00  0.00     0.169 C 
HETATM   46  O7  UNL     1       8.510  13.843  23.718  1.00  0.00    -0.381 OA
HETATM   47  C23 UNL     1       8.145  14.819  22.730  1.00  0.00     0.054 C 
HETATM   48  C24 UNL     1       9.394  15.446  22.094  1.00  0.00     0.045 C 
HETATM   49  C25 UNL     1       7.389  15.922  23.488  1.00  0.00     0.045 C 
HETATM   50  C26 UNL     1       7.202  14.192  21.680  1.00  0.00     0.044 C 
ENDBRANCH  37  43
ENDBRANCH  35  37
ENDBRANCH  32  33
BRANCH  32  51
HETATM   51  C27 UNL     1       3.543  11.008  22.527  1.00  0.00     0.009 C 
HETATM   52  C28 UNL     1       3.690   9.962  23.636  1.00  0.00     0.012 C 
HETATM   53  C29 UNL     1       4.523  12.161  22.775  1.00  0.00     0.012 C 
ENDBRANCH  32  51
ENDBRANCH  30  32
ENDBRANCH  27  28
ENDBRANCH  26  27
ENDBRANCH  13  26
TORSDOF 12
ENDMDL
MODEL 8
REMARK minimizedAffinity -7.68096685
REMARK CNNscore 0.130776808
REMARK CNNaffinity 6.21098328
REMARK  12 active torsions:
REMARK  status: ('A' for Active; 'I' for Inactive)
REMARK    1  A    between atoms: C3_3  and  O1_4 
REMARK    2  A    between atoms: N1_14  and  O2_16 
REMARK    3  A    between atoms: O2_16  and  C13_17 
REMARK    4  A    between atoms: C13_17  and  C14_18 
REMARK       I    between atoms: C14_18  and  N2_20 
REMARK    5  A    between atoms: N2_20  and  C15_21 
REMARK    6  A    between atoms: C15_21  and  C16_22 
REMARK    7  A    between atoms: C15_21  and  C27_38 
REMARK       I    between atoms: C16_22  and  N3_24 
REMARK    8  A    between atoms: N3_24  and  C17_25 
REMARK    9  A    between atoms: C17_25  and  C18_26 
REMARK   10  A    between atoms: C17_25  and  C20_30 
REMARK   11  A    between atoms: C18_26  and  C19_27 
REMARK   12  A    between atoms: C19_27  and  O6_29 
ROOT
HETATM    1  C1  UNL     1      -6.525   8.315  15.864  1.00  0.00     0.015 C 
HETATM    2  C2  UNL     1      -5.685   7.622  15.358  1.00  0.00    -0.078 C 
HETATM    3  C3  UNL     1      -4.659   6.758  14.755  1.00  0.00     0.128 C 
HETATM    4  C4  UNL     1      -5.273   5.590  13.977  1.00  0.00     0.052 C 
HETATM    5  C5  UNL     1      -4.088   5.041  13.191  1.00  0.00     0.010 C 
HETATM    6  C6  UNL     1      -3.305   6.289  12.757  1.00  0.00     0.002 C 
HETATM    7  C7  UNL     1      -1.781   6.109  12.572  1.00  0.00    -0.004 C 
HETATM    8  C8  UNL     1      -1.020   5.344  13.675  1.00  0.00     0.010 C 
HETATM    9  C9  UNL     1       0.314   5.951  14.143  1.00  0.00     0.035 C 
HETATM   10  C10 UNL     1       1.126   6.717  13.125  1.00  0.00    -0.069 C 
HETATM   11  C11 UNL     1       2.434   6.949  13.349  1.00  0.00     0.030 C 
HETATM   12  C12 UNL     1       3.262   7.777  12.418  1.00  0.00     0.032 C 
HETATM   13  N1  UNL     1       4.557   7.889  12.449  1.00  0.00    -0.271 N 
ATOM     14  H1  UNL     1       5.095   8.453  11.789  1.00  0.00     0.194 HD
HETATM   15  C30 UNL     1       2.552   8.546  11.315  1.00  0.00     0.060 C 
HETATM   16  C31 UNL     1       1.043   8.639  11.524  1.00  0.00     0.020 C 
HETATM   17  C32 UNL     1       0.402   7.283  11.915  1.00  0.00    -0.016 C 
HETATM   18  C33 UNL     1       0.580   6.289  10.733  1.00  0.00     0.020 C 
HETATM   19  C34 UNL     1      -1.125   7.466  12.234  1.00  0.00     0.002 C 
HETATM   20  C35 UNL     1      -1.431   8.543  13.313  1.00  0.00     0.007 C 
HETATM   21  C36 UNL     1      -2.522   8.164  14.323  1.00  0.00     0.014 C 
HETATM   22  C37 UNL     1      -3.739   7.457  13.698  1.00  0.00     0.003 C 
HETATM   23  C38 UNL     1      -4.524   8.490  12.843  1.00  0.00     0.020 C 
ENDROOT
BRANCH   3  24
HETATM   24  O1  UNL     1      -3.877   6.198  15.812  1.00  0.00    -0.377 OA
HETATM   25  H2  UNL     1      -4.500   5.841  16.468  1.00  0.00     0.211 HD
ENDBRANCH   3  24
BRANCH  13  26
HETATM   26  O2  UNL     1       5.133   7.146  13.493  1.00  0.00    -0.271 OA
BRANCH  26  27
HETATM   27  C13 UNL     1       6.013   7.980  14.231  1.00  0.00     0.303 C 
BRANCH  27  28
HETATM   28  C14 UNL     1       5.307   8.936  15.194  1.00  0.00     0.244 C 
HETATM   29  O3  UNL     1       4.193   8.738  15.680  1.00  0.00    -0.271 OA
HETATM   30  N2  UNL     1       6.059  10.069  15.482  1.00  0.00    -0.346 N 
HETATM   31  H16 UNL     1       7.060   9.992  15.338  1.00  0.00     0.163 HD
BRANCH  30  32
HETATM   32  C15 UNL     1       5.664  10.990  16.547  1.00  0.00     0.180 C 
BRANCH  32  33
HETATM   33  C16 UNL     1       6.828  11.009  17.565  1.00  0.00     0.241 C 
HETATM   34  O4  UNL     1       6.720  10.500  18.680  1.00  0.00    -0.271 OA
HETATM   35  N3  UNL     1       7.992  11.583  17.104  1.00  0.00    -0.354 N 
HETATM   36  H18 UNL     1       7.989  12.016  16.189  1.00  0.00     0.162 HD
BRANCH  35  37
HETATM   37  C17 UNL     1       9.242  11.588  17.881  1.00  0.00     0.098 C 
BRANCH  37  38
HETATM   38  C18 UNL     1       9.073  12.541  19.068  1.00  0.00     0.135 C 
BRANCH  38  39
HETATM   39  C19 UNL     1       9.396  11.938  20.401  1.00  0.00     0.141 C 
HETATM   40  O5  UNL     1      10.378  11.261  20.655  1.00  0.00    -0.650 OA
BRANCH  39  41
HETATM   41  O6  UNL     1       8.524  12.263  21.369  1.00  0.00    -0.776 OA
HETATM   42  H22 UNL     1       8.892  11.849  22.180  1.00  0.00     0.167 HD
ENDBRANCH  39  41
ENDBRANCH  38  39
ENDBRANCH  37  38
BRANCH  37  43
HETATM   43  C20 UNL     1      10.415  11.871  16.900  1.00  0.00     0.014 C 
HETATM   44  C21 UNL     1      10.304  11.108  15.576  1.00  0.00     0.033 C 
HETATM   45  C22 UNL     1      11.444  11.499  14.643  1.00  0.00     0.169 C 
HETATM   46  O7  UNL     1      12.712  11.264  15.251  1.00  0.00    -0.381 OA
HETATM   47  C23 UNL     1      12.941  11.948  16.492  1.00  0.00     0.054 C 
HETATM   48  C24 UNL     1      13.108  13.457  16.261  1.00  0.00     0.045 C 
HETATM   49  C25 UNL     1      14.268  11.398  17.037  1.00  0.00     0.045 C 
HETATM   50  C26 UNL     1      11.812  11.629  17.497  1.00  0.00     0.044 C 
ENDBRANCH  37  43
ENDBRANCH  35  37
ENDBRANCH  32  33
BRANCH  32  51
HETATM   51  C27 UNL     1       5.339  12.388  15.972  1.00  0.00     0.009 C 
HETATM   52  C28 UNL     1       5.468  13.491  17.027  1.00  0.00     0.012 C 
HETATM   53  C29 UNL     1       6.171  12.758  14.739  1.00  0.00     0.012 C 
ENDBRANCH  32  51
ENDBRANCH  30  32
ENDBRANCH  27  28
ENDBRANCH  26  27
ENDBRANCH  13  26
TORSDOF 12
ENDMDL
MODEL 9
REMARK minimizedAffinity -8.78113747
REMARK CNNscore 0.126973093
REMARK CNNaffinity 5.61012411
REMARK  12 active torsions:
REMARK  status: ('A' for Active; 'I' for Inactive)
REMARK    1  A    between atoms: C3_3  and  O1_4 
REMARK    2  A    between atoms: N1_14  and  O2_16 
REMARK    3  A    between atoms: O2_16  and  C13_17 
REMARK    4  A    between atoms: C13_17  and  C14_18 
REMARK       I    between atoms: C14_18  and  N2_20 
REMARK    5  A    between atoms: N2_20  and  C15_21 
REMARK    6  A    between atoms: C15_21  and  C16_22 
REMARK    7  A    between atoms: C15_21  and  C27_38 
REMARK       I    between atoms: C16_22  and  N3_24 
REMARK    8  A    between atoms: N3_24  and  C17_25 
REMARK    9  A    between atoms: C17_25  and  C18_26 
REMARK   10  A    between atoms: C17_25  and  C20_30 
REMARK   11  A    between atoms: C18_26  and  C19_27 
REMARK   12  A    between atoms: C19_27  and  O6_29 
ROOT
HETATM    1  C1  UNL     1       8.150  19.292  22.640  1.00  0.00     0.015 C 
HETATM    2  C2  UNL     1       8.112  18.092  22.625  1.00  0.00    -0.078 C 
HETATM    3  C3  UNL     1       8.086  16.621  22.594  1.00  0.00     0.128 C 
HETATM    4  C4  UNL     1       9.011  16.007  23.649  1.00  0.00     0.052 C 
HETATM    5  C5  UNL     1       8.590  14.541  23.662  1.00  0.00     0.010 C 
HETATM    6  C6  UNL     1       7.063  14.580  23.506  1.00  0.00     0.002 C 
HETATM    7  C7  UNL     1       6.416  13.361  22.811  1.00  0.00    -0.004 C 
HETATM    8  C8  UNL     1       7.082  12.848  21.517  1.00  0.00     0.010 C 
HETATM    9  C9  UNL     1       6.147  12.506  20.345  1.00  0.00     0.035 C 
HETATM   10  C10 UNL     1       4.767  11.989  20.683  1.00  0.00    -0.069 C 
HETATM   11  C11 UNL     1       4.049  11.337  19.749  1.00  0.00     0.030 C 
HETATM   12  C12 UNL     1       2.647  10.883  20.002  1.00  0.00     0.032 C 
HETATM   13  N1  UNL     1       1.957  10.085  19.241  1.00  0.00    -0.271 N 
ATOM     14  H1  UNL     1       1.005   9.783  19.449  1.00  0.00     0.194 HD
HETATM   15  C30 UNL     1       1.952  11.364  21.266  1.00  0.00     0.060 C 
HETATM   16  C31 UNL     1       2.671  12.530  21.938  1.00  0.00     0.020 C 
HETATM   17  C32 UNL     1       4.201  12.312  22.056  1.00  0.00    -0.016 C 
HETATM   18  C33 UNL     1       4.460  11.096  22.987  1.00  0.00     0.020 C 
HETATM   19  C34 UNL     1       4.898  13.592  22.642  1.00  0.00     0.002 C 
HETATM   20  C35 UNL     1       4.594  14.903  21.862  1.00  0.00     0.007 C 
HETATM   21  C36 UNL     1       5.794  15.839  21.665  1.00  0.00     0.014 C 
HETATM   22  C37 UNL     1       6.695  15.975  22.907  1.00  0.00     0.003 C 
HETATM   23  C38 UNL     1       5.920  16.771  23.994  1.00  0.00     0.020 C 
ENDROOT
BRANCH   3  24
HETATM   24  O1  UNL     1       8.562  16.199  21.315  1.00  0.00    -0.377 OA
HETATM   25  H2  UNL     1       9.389  16.682  21.145  1.00  0.00     0.211 HD
ENDBRANCH   3  24
BRANCH  13  26
HETATM   26  O2  UNL     1       2.672   9.687  18.099  1.00  0.00    -0.271 OA
BRANCH  26  27
HETATM   27  C13 UNL     1       1.771   9.533  17.013  1.00  0.00     0.303 C 
BRANCH  27  28
HETATM   28  C14 UNL     1       2.154   8.421  16.035  1.00  0.00     0.244 C 
HETATM   29  O3  UNL     1       1.611   7.316  15.990  1.00  0.00    -0.271 OA
HETATM   30  N2  UNL     1       3.189   8.782  15.181  1.00  0.00    -0.346 N 
HETATM   31  H16 UNL     1       3.332   9.776  15.044  1.00  0.00     0.163 HD
BRANCH  30  32
HETATM   32  C15 UNL     1       3.549   7.949  14.034  1.00  0.00     0.180 C 
BRANCH  32  33
HETATM   33  C16 UNL     1       2.270   7.808  13.176  1.00  0.00     0.241 C 
HETATM   34  O4  UNL     1       1.560   8.777  12.911  1.00  0.00    -0.271 OA
HETATM   35  N3  UNL     1       2.029   6.539  12.696  1.00  0.00    -0.354 N 
HETATM   36  H18 UNL     1       2.638   5.786  12.992  1.00  0.00     0.162 HD
BRANCH  35  37
HETATM   37  C17 UNL     1       0.931   6.232  11.766  1.00  0.00     0.098 C 
BRANCH  37  38
HETATM   38  C18 UNL     1       0.855   4.712  11.590  1.00  0.00     0.135 C 
BRANCH  38  39
HETATM   39  C19 UNL     1      -0.538   4.162  11.527  1.00  0.00     0.141 C 
HETATM   40  O5  UNL     1      -0.931   3.317  10.741  1.00  0.00    -0.650 OA
BRANCH  39  41
HETATM   41  O6  UNL     1      -1.351   4.633  12.486  1.00  0.00    -0.776 OA
HETATM   42  H22 UNL     1      -2.195   4.148  12.352  1.00  0.00     0.167 HD
ENDBRANCH  39  41
ENDBRANCH  38  39
ENDBRANCH  37  38
BRANCH  37  43
HETATM   43  C20 UNL     1       1.133   7.089  10.485  1.00  0.00     0.014 C 
HETATM   44  C21 UNL     1      -0.159   7.734   9.969  1.00  0.00     0.033 C 
HETATM   45  C22 UNL     1       0.136   8.617   8.763  1.00  0.00     0.169 C 
HETATM   46  O7  UNL     1       0.773   7.877   7.725  1.00  0.00    -0.381 OA
HETATM   47  C23 UNL     1       2.011   7.244   8.086  1.00  0.00     0.054 C 
HETATM   48  C24 UNL     1       3.117   8.288   8.295  1.00  0.00     0.045 C 
HETATM   49  C25 UNL     1       2.400   6.368   6.885  1.00  0.00     0.045 C 
HETATM   50  C26 UNL     1       1.812   6.343   9.323  1.00  0.00     0.044 C 
ENDBRANCH  37  43
ENDBRANCH  35  37
ENDBRANCH  32  33
BRANCH  32  51
HETATM   51  C27 UNL     1       4.735   8.567  13.257  1.00  0.00     0.009 C 
HETATM   52  C28 UNL     1       4.309   9.108  11.889  1.00  0.00     0.012 C 
HETATM   53  C29 UNL     1       5.478   9.660  14.032  1.00  0.00     0.012 C 
ENDBRANCH  32  51
ENDBRANCH  30  32
ENDBRANCH  27  28
ENDBRANCH  26  27
ENDBRANCH  13  26
TORSDOF 12
ENDMDL
