MODEL 1
REMARK minimizedAffinity -11.2002335
REMARK CNNscore 0.520463824
REMARK CNNaffinity 8.54401684
REMARK  13 active torsions:
REMARK  status: ('A' for Active; 'I' for Inactive)
REMARK    1  A    between atoms: C5_6  and  C6_7 
REMARK    2  A    between atoms: C5_6  and  C31_35 
REMARK    3  A    between atoms: C23_24  and  O2_25 
REMARK    4  A    between atoms: C30_33  and  O4_34 
REMARK    5  A    between atoms: C32_37  and  C33_38 
REMARK    6  A    between atoms: C33_38  and  O6_40 
REMARK    7  A    between atoms: C33_38  and  C35_41 
REMARK    8  A    between atoms: C35_41  and  C37_43 
REMARK    9  A    between atoms: C35_41  and  C38_45 
REMARK   10  A    between atoms: C37_43  and  O7_44 
REMARK   11  A    between atoms: C38_45  and  C39_46 
REMARK   12  A    between atoms: C39_46  and  C40_47 
REMARK   13  A    between atoms: C43_51  and  N2_52 
ROOT
HETATM    1  C1  UNL     1       1.151  51.737 -27.868  1.00  0.00     0.010 C 
HETATM    2  C2  UNL     1       0.122  52.226 -26.850  1.00  0.00    -0.014 C 
HETATM    3  C3  UNL     1       0.681  53.371 -26.021  1.00  0.00     0.030 C 
HETATM    4  C4  UNL     1      -0.287  53.801 -24.931  1.00  0.00     0.169 C 
HETATM    5  O1  UNL     1      -1.427  52.965 -24.803  1.00  0.00    -0.377 OA
HETATM    6  C5  UNL     1      -1.207  51.532 -24.735  1.00  0.00     0.094 C 
HETATM    7  C45 UNL     1      -0.327  51.080 -25.930  1.00  0.00     0.045 C 
ENDROOT
BRANCH   6   8
HETATM    8  C6  UNL     1      -2.678  50.980 -24.797  1.00  0.00     0.035 C 
HETATM    9  C7  UNL     1      -3.004  50.159 -26.113  1.00  0.00     0.016 C 
HETATM   10  C8  UNL     1      -4.012  49.084 -25.686  1.00  0.00     0.026 C 
HETATM   11  C9  UNL     1      -5.122  48.653 -26.636  1.00  0.00     0.013 C 
HETATM   12  C30 UNL     1      -4.608  49.678 -24.418  1.00  0.00     0.094 C 
HETATM   13  C10 UNL     1      -6.051  47.634 -25.920  1.00  0.00     0.043 C 
HETATM   14  C11 UNL     1      -6.240  47.857 -24.429  1.00  0.00    -0.006 C 
HETATM   15  C12 UNL     1      -5.548  48.777 -23.729  1.00  0.00    -0.030 C 
HETATM   16  C26 UNL     1      -7.349  47.121 -23.739  1.00  0.00     0.161 C 
HETATM   17  C13 UNL     1      -5.865  49.129 -22.312  1.00  0.00     0.032 C 
HETATM   18  C14 UNL     1      -4.982  50.204 -21.572  1.00  0.00    -0.004 C 
HETATM   19  C20 UNL     1      -6.245  47.854 -21.503  1.00  0.00    -0.014 C 
HETATM   20  C15 UNL     1      -4.465  49.803 -20.169  1.00  0.00     0.014 C 
HETATM   21  C27 UNL     1      -3.891  50.958 -22.416  1.00  0.00     0.018 C 
HETATM   22  C16 UNL     1      -5.336  48.796 -19.367  1.00  0.00     0.013 C 
HETATM   23  C17 UNL     1      -4.485  47.582 -19.137  1.00  0.00    -0.026 C 
HETATM   24  C25 UNL     1      -6.633  48.425 -20.111  1.00  0.00     0.006 C 
HETATM   25  C18 UNL     1      -4.348  46.673 -20.109  1.00  0.00    -0.029 C 
HETATM   26  C19 UNL     1      -5.095  46.771 -21.406  1.00  0.00     0.038 C 
HETATM   27  C24 UNL     1      -7.607  47.486 -19.399  1.00  0.00     0.037 C 
HETATM   28  C23 UNL     1      -8.931  47.391 -20.185  1.00  0.00     0.119 C 
HETATM   29  C22 UNL     1      -8.792  47.665 -21.696  1.00  0.00     0.045 C 
HETATM   30  C21 UNL     1      -7.446  47.139 -22.207  1.00  0.00     0.072 C 
HETATM   31  C28 UNL     1      -3.367  50.160 -23.632  1.00  0.00    -0.002 C 
HETATM   32  C29 UNL     1      -2.460  49.036 -23.094  1.00  0.00     0.019 C 
HETATM   33  O3  UNL     1      -8.166  46.494 -24.414  1.00  0.00    -0.292 OA
BRANCH  28  34
HETATM   34  O2  UNL     1      -9.456  46.080 -19.982  1.00  0.00    -0.396 OA
HETATM   35  H30 UNL     1     -10.332  46.042 -20.405  1.00  0.00     0.210 HD
ENDBRANCH  28  34
BRANCH  12  36
HETATM   36  O4  UNL     1      -5.453  50.810 -24.721  1.00  0.00    -0.384 OA
HETATM   37  H39 UNL     1      -5.222  51.175 -25.588  1.00  0.00     0.211 HD
ENDBRANCH  12  36
ENDBRANCH   6   8
BRANCH   6  38
HETATM   38  C31 UNL     1      -0.643  51.221 -23.353  1.00  0.00     0.189 A 
HETATM   39  O5  UNL     1       0.628  51.790 -23.031  1.00  0.00    -0.369 OA
HETATM   40  C32 UNL     1      -0.478  52.242 -22.228  1.00  0.00     0.189 A 
BRANCH  40  41
HETATM   41  C33 UNL     1      -0.475  51.797 -20.760  1.00  0.00     0.092 C 
HETATM   42  C34 UNL     1      -0.104  50.299 -20.657  1.00  0.00     0.049 C 
BRANCH  41  43
HETATM   43  O6  UNL     1      -1.826  51.866 -20.258  1.00  0.00    -0.387 OA
HETATM   44  H45 UNL     1      -2.305  52.557 -20.751  1.00  0.00     0.210 HD
ENDBRANCH  41  43
BRANCH  41  45
HETATM   45  C35 UNL     1       0.439  52.707 -19.802  1.00  0.00     0.011 C 
HETATM   46  C36 UNL     1      -0.293  54.051 -19.532  1.00  0.00     0.020 C 
BRANCH  45  47
HETATM   47  C37 UNL     1       1.769  53.100 -20.515  1.00  0.00     0.176 C 
BRANCH  47  48
HETATM   48  O7  UNL     1       1.764  54.450 -20.947  1.00  0.00    -0.400 OA
HETATM   49  H51 UNL     1       2.622  54.619 -21.379  1.00  0.00     0.209 HD
ENDBRANCH  47  48
ENDBRANCH  45  47
BRANCH  45  50
HETATM   50  C38 UNL     1       0.709  51.970 -18.445  1.00  0.00     0.019 C 
BRANCH  50  51
HETATM   51  C39 UNL     1       1.475  52.733 -17.343  1.00  0.00     0.039 C 
BRANCH  51  52
HETATM   52  C40 UNL     1       1.935  51.903 -16.166  1.00  0.00    -0.054 A 
HETATM   53  C41 UNL     1       3.206  52.093 -15.613  1.00  0.00     0.024 A 
HETATM   54  C42 UNL     1       3.611  51.307 -14.542  1.00  0.00     0.090 A 
HETATM   55  N1  UNL     1       2.786  50.367 -14.062  1.00  0.00    -0.357 N 
HETATM   56  C43 UNL     1       1.570  50.135 -14.564  1.00  0.00     0.077 A 
HETATM   57  H58 UNL     1       3.066  49.777 -13.281  1.00  0.00     0.166 HD
HETATM   58  C44 UNL     1       1.118  50.896 -15.636  1.00  0.00     0.049 A 
BRANCH  56  59
HETATM   59  N2  UNL     1       0.841  49.104 -13.989  1.00  0.00    -0.289 NA
HETATM   60  H59 UNL     1       0.653  48.368 -14.678  1.00  0.00     0.125 HD
HETATM   61  H60 UNL     1      -0.087  49.428 -13.699  1.00  0.00     0.125 HD
ENDBRANCH  56  59
ENDBRANCH  51  52
ENDBRANCH  50  51
ENDBRANCH  45  50
ENDBRANCH  41  45
ENDBRANCH  40  41
ENDBRANCH   6  38
TORSDOF 13
ENDMDL
MODEL 2
REMARK minimizedAffinity -8.94921875
REMARK CNNscore 0.457085073
REMARK CNNaffinity 6.68987226
REMARK  13 active torsions:
REMARK  status: ('A' for Active; 'I' for Inactive)
REMARK    1  A    between atoms: C5_6  and  C6_7 
REMARK    2  A    between atoms: C5_6  and  C31_35 
REMARK    3  A    between atoms: C23_24  and  O2_25 
REMARK    4  A    between atoms: C30_33  and  O4_34 
REMARK    5  A    between atoms: C32_37  and  C33_38 
REMARK    6  A    between atoms: C33_38  and  O6_40 
REMARK    7  A    between atoms: C33_38  and  C35_41 
REMARK    8  A    between atoms: C35_41  and  C37_43 
REMARK    9  A    between atoms: C35_41  and  C38_45 
REMARK   10  A    between atoms: C37_43  and  O7_44 
REMARK   11  A    between atoms: C38_45  and  C39_46 
REMARK   12  A    between atoms: C39_46  and  C40_47 
REMARK   13  A    between atoms: C43_51  and  N2_52 
ROOT
HETATM    1  C1  UNL     1     -10.883  43.798 -30.522  1.00  0.00     0.010 C 
HETATM    2  C2  UNL     1     -11.766  44.896 -29.933  1.00  0.00    -0.014 C 
HETATM    3  C3  UNL     1     -11.583  46.202 -30.689  1.00  0.00     0.030 C 
HETATM    4  C4  UNL     1     -12.371  47.336 -30.054  1.00  0.00     0.169 C 
HETATM    5  O1  UNL     1     -12.983  46.997 -28.818  1.00  0.00    -0.377 OA
HETATM    6  C5  UNL     1     -12.161  46.342 -27.818  1.00  0.00     0.094 C 
HETATM    7  C45 UNL     1     -11.464  45.104 -28.442  1.00  0.00     0.045 C 
ENDROOT
BRANCH   6   8
HETATM    8  C6  UNL     1     -13.226  45.974 -26.721  1.00  0.00     0.035 C 
HETATM    9  C7  UNL     1     -13.833  47.228 -25.964  1.00  0.00     0.016 C 
HETATM   10  C8  UNL     1     -15.280  46.844 -25.629  1.00  0.00     0.026 C 
HETATM   11  C9  UNL     1     -15.919  47.318 -24.330  1.00  0.00     0.013 C 
HETATM   12  C30 UNL     1     -15.234  45.323 -25.667  1.00  0.00     0.094 C 
HETATM   13  C10 UNL     1     -17.341  46.708 -24.199  1.00  0.00     0.043 C 
HETATM   14  C11 UNL     1     -17.511  45.313 -24.777  1.00  0.00    -0.006 C 
HETATM   15  C12 UNL     1     -16.551  44.687 -25.484  1.00  0.00    -0.030 C 
HETATM   16  C26 UNL     1     -18.747  44.544 -24.416  1.00  0.00     0.161 C 
HETATM   17  C13 UNL     1     -16.640  43.251 -25.887  1.00  0.00     0.032 C 
HETATM   18  C14 UNL     1     -15.472  42.617 -26.734  1.00  0.00    -0.004 C 
HETATM   19  C20 UNL     1     -18.093  42.893 -26.315  1.00  0.00    -0.014 C 
HETATM   20  C15 UNL     1     -15.903  41.825 -27.991  1.00  0.00     0.014 C 
HETATM   21  C27 UNL     1     -14.197  43.499 -26.994  1.00  0.00     0.018 C 
HETATM   22  C16 UNL     1     -17.310  41.165 -27.950  1.00  0.00     0.013 C 
HETATM   23  C17 UNL     1     -18.107  41.784 -29.060  1.00  0.00    -0.026 C 
HETATM   24  C25 UNL     1     -18.010  41.367 -26.593  1.00  0.00     0.006 C 
HETATM   25  C18 UNL     1     -18.676  42.981 -28.881  1.00  0.00    -0.029 C 
HETATM   26  C19 UNL     1     -18.628  43.700 -27.566  1.00  0.00     0.038 C 
HETATM   27  C24 UNL     1     -19.379  40.712 -26.404  1.00  0.00     0.037 C 
HETATM   28  C23 UNL     1     -19.833  40.834 -24.934  1.00  0.00     0.119 C 
HETATM   29  C22 UNL     1     -19.234  42.042 -24.185  1.00  0.00     0.045 C 
HETATM   30  C21 UNL     1     -19.071  43.230 -25.140  1.00  0.00     0.072 C 
HETATM   31  C28 UNL     1     -14.465  45.021 -26.975  1.00  0.00    -0.002 C 
HETATM   32  C29 UNL     1     -15.220  45.377 -28.271  1.00  0.00     0.019 C 
HETATM   33  O3  UNL     1     -19.500  44.987 -23.549  1.00  0.00    -0.292 OA
BRANCH  28  34
HETATM   34  O2  UNL     1     -21.257  40.928 -24.933  1.00  0.00    -0.396 OA
HETATM   35  H30 UNL     1     -21.555  40.921 -24.006  1.00  0.00     0.210 HD
ENDBRANCH  28  34
BRANCH  12  36
HETATM   36  O4  UNL     1     -14.494  44.797 -24.544  1.00  0.00    -0.384 OA
HETATM   37  H39 UNL     1     -13.904  45.476 -24.186  1.00  0.00     0.211 HD
ENDBRANCH  12  36
ENDBRANCH   6   8
BRANCH   6  38
HETATM   38  C31 UNL     1     -11.226  47.395 -27.233  1.00  0.00     0.189 A 
HETATM   39  O5  UNL     1     -11.521  47.860 -25.914  1.00  0.00    -0.369 OA
HETATM   40  C32 UNL     1     -10.271  47.162 -26.063  1.00  0.00     0.189 A 
BRANCH  40  41
HETATM   41  C33 UNL     1      -9.000  48.006 -25.908  1.00  0.00     0.092 C 
HETATM   42  C34 UNL     1      -8.718  48.276 -24.412  1.00  0.00     0.049 C 
BRANCH  41  43
HETATM   43  O6  UNL     1      -9.246  49.312 -26.468  1.00  0.00    -0.387 OA
HETATM   44  H45 UNL     1      -9.916  49.227 -27.171  1.00  0.00     0.210 HD
ENDBRANCH  41  43
BRANCH  41  45
HETATM   45  C35 UNL     1      -7.716  47.397 -26.658  1.00  0.00     0.011 C 
HETATM   46  C36 UNL     1      -7.654  47.970 -28.101  1.00  0.00     0.020 C 
BRANCH  45  47
HETATM   47  C37 UNL     1      -7.857  45.854 -26.835  1.00  0.00     0.176 C 
BRANCH  47  48
HETATM   48  O7  UNL     1      -7.869  45.174 -25.591  1.00  0.00    -0.400 OA
HETATM   49  H51 UNL     1      -7.960  44.222 -25.782  1.00  0.00     0.209 HD
ENDBRANCH  47  48
ENDBRANCH  45  47
BRANCH  45  50
HETATM   50  C38 UNL     1      -6.404  47.771 -25.885  1.00  0.00     0.019 C 
BRANCH  50  51
HETATM   51  C39 UNL     1      -5.141  48.096 -26.710  1.00  0.00     0.039 C 
BRANCH  51  52
HETATM   52  C40 UNL     1      -4.062  48.867 -25.985  1.00  0.00    -0.054 A 
HETATM   53  C41 UNL     1      -2.846  49.156 -26.615  1.00  0.00     0.024 A 
HETATM   54  C42 UNL     1      -1.865  49.853 -25.921  1.00  0.00     0.090 A 
HETATM   55  N1  UNL     1      -2.088  50.226 -24.654  1.00  0.00    -0.357 N 
HETATM   56  C43 UNL     1      -3.224  49.962 -24.004  1.00  0.00     0.077 A 
HETATM   57  H58 UNL     1      -1.380  50.733 -24.127  1.00  0.00     0.166 HD
HETATM   58  C44 UNL     1      -4.237  49.267 -24.654  1.00  0.00     0.049 A 
BRANCH  56  59
HETATM   59  N2  UNL     1      -3.300  50.377 -22.682  1.00  0.00    -0.289 NA
HETATM   60  H59 UNL     1      -3.410  49.572 -22.057  1.00  0.00     0.125 HD
HETATM   61  H60 UNL     1      -4.140  50.943 -22.523  1.00  0.00     0.125 HD
ENDBRANCH  56  59
ENDBRANCH  51  52
ENDBRANCH  50  51
ENDBRANCH  45  50
ENDBRANCH  41  45
ENDBRANCH  40  41
ENDBRANCH   6  38
TORSDOF 13
ENDMDL
MODEL 3
REMARK minimizedAffinity -10.5753155
REMARK CNNscore 0.424902886
REMARK CNNaffinity 7.90690613
REMARK  13 active torsions:
REMARK  status: ('A' for Active; 'I' for Inactive)
REMARK    1  A    between atoms: C5_6  and  C6_7 
REMARK    2  A    between atoms: C5_6  and  C31_35 
REMARK    3  A    between atoms: C23_24  and  O2_25 
REMARK    4  A    between atoms: C30_33  and  O4_34 
REMARK    5  A    between atoms: C32_37  and  C33_38 
REMARK    6  A    between atoms: C33_38  and  O6_40 
REMARK    7  A    between atoms: C33_38  and  C35_41 
REMARK    8  A    between atoms: C35_41  and  C37_43 
REMARK    9  A    between atoms: C35_41  and  C38_45 
REMARK   10  A    between atoms: C37_43  and  O7_44 
REMARK   11  A    between atoms: C38_45  and  C39_46 
REMARK   12  A    between atoms: C39_46  and  C40_47 
REMARK   13  A    between atoms: C43_51  and  N2_52 
ROOT
HETATM    1  C1  UNL     1       4.473  49.577 -13.746  1.00  0.00     0.010 C 
HETATM    2  C2  UNL     1       3.291  49.927 -12.845  1.00  0.00    -0.014 C 
HETATM    3  C3  UNL     1       2.349  48.741 -12.701  1.00  0.00     0.030 C 
HETATM    4  C4  UNL     1       1.111  49.100 -11.896  1.00  0.00     0.169 C 
HETATM    5  O1  UNL     1       1.005  50.480 -11.577  1.00  0.00    -0.377 OA
HETATM    6  C5  UNL     1       1.190  51.435 -12.654  1.00  0.00     0.094 C 
HETATM    7  C45 UNL     1       2.526  51.143 -13.388  1.00  0.00     0.045 C 
ENDROOT
BRANCH   6   8
HETATM    8  C6  UNL     1       1.191  52.800 -11.872  1.00  0.00     0.035 C 
HETATM    9  C7  UNL     1      -0.216  53.190 -11.255  1.00  0.00     0.016 C 
HETATM   10  C8  UNL     1       0.101  53.952  -9.961  1.00  0.00     0.026 C 
HETATM   11  C9  UNL     1      -0.780  55.113  -9.519  1.00  0.00     0.013 C 
HETATM   12  C30 UNL     1       1.524  54.435 -10.205  1.00  0.00     0.094 C 
HETATM   13  C10 UNL     1      -0.180  55.762  -8.242  1.00  0.00     0.043 C 
HETATM   14  C11 UNL     1       1.337  55.758  -8.157  1.00  0.00    -0.006 C 
HETATM   15  C12 UNL     1       2.122  55.116  -9.044  1.00  0.00    -0.030 C 
HETATM   16  C26 UNL     1       1.990  56.630  -7.127  1.00  0.00     0.161 C 
HETATM   17  C13 UNL     1       3.608  55.268  -9.076  1.00  0.00     0.032 C 
HETATM   18  C14 UNL     1       4.441  54.456 -10.139  1.00  0.00    -0.004 C 
HETATM   19  C20 UNL     1       4.183  55.328  -7.630  1.00  0.00    -0.014 C 
HETATM   20  C15 UNL     1       5.664  53.682  -9.591  1.00  0.00     0.014 C 
HETATM   21  C27 UNL     1       3.644  53.627 -11.211  1.00  0.00     0.018 C 
HETATM   22  C16 UNL     1       6.343  54.264  -8.319  1.00  0.00     0.013 C 
HETATM   23  C17 UNL     1       6.224  53.216  -7.252  1.00  0.00    -0.026 C 
HETATM   24  C25 UNL     1       5.697  55.586  -7.866  1.00  0.00     0.006 C 
HETATM   25  C18 UNL     1       5.080  53.091  -6.570  1.00  0.00    -0.029 C 
HETATM   26  C19 UNL     1       3.925  54.028  -6.766  1.00  0.00     0.038 C 
HETATM   27  C24 UNL     1       6.315  56.292  -6.657  1.00  0.00     0.037 C 
HETATM   28  C23 UNL     1       5.686  57.689  -6.474  1.00  0.00     0.119 C 
HETATM   29  C22 UNL     1       4.255  57.819  -7.034  1.00  0.00     0.045 C 
HETATM   30  C21 UNL     1       3.495  56.500  -6.853  1.00  0.00     0.072 C 
HETATM   31  C28 UNL     1       2.240  53.177 -10.749  1.00  0.00    -0.002 C 
HETATM   32  C29 UNL     1       2.431  52.042  -9.723  1.00  0.00     0.019 C 
HETATM   33  O3  UNL     1       1.303  57.435  -6.497  1.00  0.00    -0.292 OA
BRANCH  28  34
HETATM   34  O2  UNL     1       5.682  57.976  -5.077  1.00  0.00    -0.396 OA
HETATM   35  H30 UNL     1       5.364  58.889  -4.962  1.00  0.00     0.210 HD
ENDBRANCH  28  34
BRANCH  12  36
HETATM   36  O4  UNL     1       1.555  55.475 -11.207  1.00  0.00    -0.384 OA
HETATM   37  H39 UNL     1       0.759  55.433 -11.756  1.00  0.00     0.211 HD
ENDBRANCH  12  36
ENDBRANCH   6   8
BRANCH   6  38
HETATM   38  C31 UNL     1      -0.059  51.390 -13.526  1.00  0.00     0.189 A 
HETATM   39  O5  UNL     1      -0.079  52.247 -14.670  1.00  0.00    -0.369 OA
HETATM   40  C32 UNL     1      -0.111  50.835 -14.949  1.00  0.00     0.189 A 
BRANCH  40  41
HETATM   41  C33 UNL     1      -1.421  50.288 -15.529  1.00  0.00     0.092 C 
HETATM   42  C34 UNL     1      -2.626  51.071 -14.959  1.00  0.00     0.049 C 
BRANCH  41  43
HETATM   43  O6  UNL     1      -1.608  48.941 -15.048  1.00  0.00    -0.387 OA
HETATM   44  H45 UNL     1      -0.733  48.549 -14.875  1.00  0.00     0.210 HD
ENDBRANCH  41  43
BRANCH  41  45
HETATM   45  C35 UNL     1      -1.450  50.231 -17.135  1.00  0.00     0.011 C 
HETATM   46  C36 UNL     1      -2.633  51.097 -17.650  1.00  0.00     0.020 C 
BRANCH  45  47
HETATM   47  C37 UNL     1      -1.753  48.784 -17.633  1.00  0.00     0.176 C 
BRANCH  47  48
HETATM   48  O7  UNL     1      -0.940  48.419 -18.735  1.00  0.00    -0.400 OA
HETATM   49  H51 UNL     1      -1.185  47.509 -18.987  1.00  0.00     0.209 HD
ENDBRANCH  47  48
ENDBRANCH  45  47
BRANCH  45  50
HETATM   50  C38 UNL     1      -0.102  50.773 -17.724  1.00  0.00     0.019 C 
BRANCH  50  51
HETATM   51  C39 UNL     1      -0.045  52.249 -18.170  1.00  0.00     0.039 C 
BRANCH  51  52
HETATM   52  C40 UNL     1       0.235  52.484 -19.637  1.00  0.00    -0.054 A 
HETATM   53  C41 UNL     1      -0.196  51.566 -20.601  1.00  0.00     0.024 A 
HETATM   54  C42 UNL     1       0.087  51.798 -21.941  1.00  0.00     0.090 A 
HETATM   55  N1  UNL     1       0.783  52.888 -22.292  1.00  0.00    -0.357 N 
HETATM   56  C43 UNL     1       1.230  53.785 -21.409  1.00  0.00     0.077 A 
HETATM   57  H58 UNL     1       1.005  53.072 -23.267  1.00  0.00     0.166 HD
HETATM   58  C44 UNL     1       0.972  53.599 -20.056  1.00  0.00     0.049 A 
BRANCH  56  59
HETATM   59  N2  UNL     1       1.968  54.846 -21.914  1.00  0.00    -0.289 NA
HETATM   60  H59 UNL     1       2.923  54.831 -21.539  1.00  0.00     0.125 HD
HETATM   61  H60 UNL     1       1.583  55.743 -21.602  1.00  0.00     0.125 HD
ENDBRANCH  56  59
ENDBRANCH  51  52
ENDBRANCH  50  51
ENDBRANCH  45  50
ENDBRANCH  41  45
ENDBRANCH  40  41
ENDBRANCH   6  38
TORSDOF 13
ENDMDL
MODEL 4
REMARK minimizedAffinity -9.81480312
REMARK CNNscore 0.420247585
REMARK CNNaffinity 7.38195944
REMARK  13 active torsions:
REMARK  status: ('A' for Active; 'I' for Inactive)
REMARK    1  A    between atoms: C5_6  and  C6_7 
REMARK    2  A    between atoms: C5_6  and  C31_35 
REMARK    3  A    between atoms: C23_24  and  O2_25 
REMARK    4  A    between atoms: C30_33  and  O4_34 
REMARK    5  A    between atoms: C32_37  and  C33_38 
REMARK    6  A    between atoms: C33_38  and  O6_40 
REMARK    7  A    between atoms: C33_38  and  C35_41 
REMARK    8  A    between atoms: C35_41  and  C37_43 
REMARK    9  A    between atoms: C35_41  and  C38_45 
REMARK   10  A    between atoms: C37_43  and  O7_44 
REMARK   11  A    between atoms: C38_45  and  C39_46 
REMARK   12  A    between atoms: C39_46  and  C40_47 
REMARK   13  A    between atoms: C43_51  and  N2_52 
ROOT
HETATM    1  C1  UNL     1      -5.984  44.977 -17.314  1.00  0.00     0.010 C 
HETATM    2  C2  UNL     1      -4.611  45.608 -17.088  1.00  0.00    -0.014 C 
HETATM    3  C3  UNL     1      -3.775  44.762 -16.141  1.00  0.00     0.030 C 
HETATM    4  C4  UNL     1      -2.447  45.425 -15.817  1.00  0.00     0.169 C 
HETATM    5  O1  UNL     1      -2.317  46.744 -16.325  1.00  0.00    -0.377 OA
HETATM    6  C5  UNL     1      -3.406  47.670 -16.080  1.00  0.00     0.094 C 
HETATM    7  C45 UNL     1      -4.746  47.035 -16.539  1.00  0.00     0.045 C 
ENDROOT
BRANCH   6   8
HETATM    8  C6  UNL     1      -2.973  48.910 -16.945  1.00  0.00     0.035 C 
HETATM    9  C7  UNL     1      -1.465  49.350 -16.730  1.00  0.00     0.016 C 
HETATM   10  C8  UNL     1      -1.000  49.894 -18.088  1.00  0.00     0.026 C 
HETATM   11  C9  UNL     1      -0.030  51.067 -18.153  1.00  0.00     0.013 C 
HETATM   12  C30 UNL     1      -2.314  50.262 -18.762  1.00  0.00     0.094 C 
HETATM   13  C10 UNL     1       0.194  51.474 -19.634  1.00  0.00     0.043 C 
HETATM   14  C11 UNL     1      -1.010  51.308 -20.547  1.00  0.00    -0.006 C 
HETATM   15  C12 UNL     1      -2.156  50.717 -20.154  1.00  0.00    -0.030 C 
HETATM   16  C26 UNL     1      -0.971  51.963 -21.895  1.00  0.00     0.161 C 
HETATM   17  C13 UNL     1      -3.401  50.724 -20.980  1.00  0.00     0.032 C 
HETATM   18  C14 UNL     1      -4.684  49.985 -20.441  1.00  0.00    -0.004 C 
HETATM   19  C20 UNL     1      -3.058  50.530 -22.487  1.00  0.00    -0.014 C 
HETATM   20  C15 UNL     1      -5.379  49.026 -21.438  1.00  0.00     0.014 C 
HETATM   21  C27 UNL     1      -4.628  49.393 -18.987  1.00  0.00     0.018 C 
HETATM   22  C16 UNL     1      -5.224  49.360 -22.949  1.00  0.00     0.013 C 
HETATM   23  C17 UNL     1      -4.517  48.195 -23.575  1.00  0.00    -0.026 C 
HETATM   24  C25 UNL     1      -4.441  50.666 -23.180  1.00  0.00     0.006 C 
HETATM   25  C18 UNL     1      -3.187  48.092 -23.472  1.00  0.00    -0.029 C 
HETATM   26  C19 UNL     1      -2.350  49.157 -22.828  1.00  0.00     0.038 C 
HETATM   27  C24 UNL     1      -4.272  51.137 -24.626  1.00  0.00     0.037 C 
HETATM   28  C23 UNL     1      -3.658  52.552 -24.660  1.00  0.00     0.119 C 
HETATM   29  C22 UNL     1      -2.794  52.897 -23.430  1.00  0.00     0.045 C 
HETATM   30  C21 UNL     1      -2.058  51.648 -22.933  1.00  0.00     0.072 C 
HETATM   31  C28 UNL     1      -3.205  49.025 -18.506  1.00  0.00    -0.002 C 
HETATM   32  C29 UNL     1      -2.777  47.748 -19.257  1.00  0.00     0.019 C 
HETATM   33  O3  UNL     1      -0.053  52.740 -22.161  1.00  0.00    -0.292 OA
BRANCH  28  34
HETATM   34  O2  UNL     1      -2.866  52.646 -25.843  1.00  0.00    -0.396 OA
HETATM   35  H30 UNL     1      -2.544  53.562 -25.913  1.00  0.00     0.210 HD
ENDBRANCH  28  34
BRANCH  12  36
HETATM   36  O4  UNL     1      -2.911  51.421 -18.139  1.00  0.00    -0.384 OA
HETATM   37  H39 UNL     1      -2.565  51.532 -17.242  1.00  0.00     0.211 HD
ENDBRANCH  12  36
ENDBRANCH   6   8
BRANCH   6  38
HETATM   38  C31 UNL     1      -3.342  48.073 -14.611  1.00  0.00     0.189 A 
HETATM   39  O5  UNL     1      -2.137  47.762 -13.908  1.00  0.00    -0.369 OA
HETATM   40  C32 UNL     1      -2.435  49.164 -14.043  1.00  0.00     0.189 A 
BRANCH  40  41
HETATM   41  C33 UNL     1      -2.811  49.905 -12.754  1.00  0.00     0.092 C 
HETATM   42  C34 UNL     1      -1.903  49.445 -11.590  1.00  0.00     0.049 C 
BRANCH  41  43
HETATM   43  O6  UNL     1      -4.136  49.493 -12.360  1.00  0.00    -0.387 OA
HETATM   44  H45 UNL     1      -4.633  49.237 -13.158  1.00  0.00     0.210 HD
ENDBRANCH  41  43
BRANCH  41  45
HETATM   45  C35 UNL     1      -2.831  51.505 -12.902  1.00  0.00     0.011 C 
HETATM   46  C36 UNL     1      -3.365  51.876 -14.314  1.00  0.00     0.020 C 
BRANCH  45  47
HETATM   47  C37 UNL     1      -1.385  52.085 -12.845  1.00  0.00     0.176 C 
BRANCH  47  48
HETATM   48  O7  UNL     1      -0.672  51.861 -14.050  1.00  0.00    -0.400 OA
HETATM   49  H51 UNL     1       0.215  52.249 -13.938  1.00  0.00     0.209 HD
ENDBRANCH  47  48
ENDBRANCH  45  47
BRANCH  45  50
HETATM   50  C38 UNL     1      -3.751  52.143 -11.805  1.00  0.00     0.019 C 
BRANCH  50  51
HETATM   51  C39 UNL     1      -3.486  53.606 -11.394  1.00  0.00     0.039 C 
BRANCH  51  52
HETATM   52  C40 UNL     1      -2.555  53.802 -10.220  1.00  0.00    -0.054 A 
HETATM   53  C41 UNL     1      -1.662  54.879 -10.189  1.00  0.00     0.024 A 
HETATM   54  C42 UNL     1      -0.806  55.028  -9.105  1.00  0.00     0.090 A 
HETATM   55  N1  UNL     1      -0.835  54.131  -8.111  1.00  0.00    -0.357 N 
HETATM   56  C43 UNL     1      -1.657  53.078  -8.100  1.00  0.00     0.077 A 
HETATM   57  H58 UNL     1      -0.212  54.219  -7.311  1.00  0.00     0.166 HD
HETATM   58  C44 UNL     1      -2.533  52.885  -9.161  1.00  0.00     0.049 A 
BRANCH  56  59
HETATM   59  N2  UNL     1      -1.550  52.211  -7.021  1.00  0.00    -0.289 NA
HETATM   60  H59 UNL     1      -1.264  51.278  -7.336  1.00  0.00     0.125 HD
HETATM   61  H60 UNL     1      -2.461  52.065  -6.576  1.00  0.00     0.125 HD
ENDBRANCH  56  59
ENDBRANCH  51  52
ENDBRANCH  50  51
ENDBRANCH  45  50
ENDBRANCH  41  45
ENDBRANCH  40  41
ENDBRANCH   6  38
TORSDOF 13
ENDMDL
MODEL 5
REMARK minimizedAffinity -9.40456772
REMARK CNNscore 0.312566072
REMARK CNNaffinity 7.31515741
REMARK  13 active torsions:
REMARK  status: ('A' for Active; 'I' for Inactive)
REMARK    1  A    between atoms: C5_6  and  C6_7 
REMARK    2  A    between atoms: C5_6  and  C31_35 
REMARK    3  A    between atoms: C23_24  and  O2_25 
REMARK    4  A    between atoms: C30_33  and  O4_34 
REMARK    5  A    between atoms: C32_37  and  C33_38 
REMARK    6  A    between atoms: C33_38  and  O6_40 
REMARK    7  A    between atoms: C33_38  and  C35_41 
REMARK    8  A    between atoms: C35_41  and  C37_43 
REMARK    9  A    between atoms: C35_41  and  C38_45 
REMARK   10  A    between atoms: C37_43  and  O7_44 
REMARK   11  A    between atoms: C38_45  and  C39_46 
REMARK   12  A    between atoms: C39_46  and  C40_47 
REMARK   13  A    between atoms: C43_51  and  N2_52 
ROOT
HETATM    1  C1  UNL     1       5.294  49.113 -10.139  1.00  0.00     0.010 C 
HETATM    2  C2  UNL     1       3.984  49.889 -10.258  1.00  0.00    -0.014 C 
HETATM    3  C3  UNL     1       2.929  49.064 -10.978  1.00  0.00     0.030 C 
HETATM    4  C4  UNL     1       1.652  49.857 -11.202  1.00  0.00     0.169 C 
HETATM    5  O1  UNL     1       1.748  51.227 -10.844  1.00  0.00    -0.377 OA
HETATM    6  C5  UNL     1       2.889  51.974 -11.341  1.00  0.00     0.094 C 
HETATM    7  C45 UNL     1       4.200  51.222 -10.989  1.00  0.00     0.045 C 
ENDROOT
BRANCH   6   8
HETATM    8  C6  UNL     1       2.729  53.342 -10.583  1.00  0.00     0.035 C 
HETATM    9  C7  UNL     1       1.252  53.638 -10.089  1.00  0.00     0.016 C 
HETATM   10  C8  UNL     1       1.407  54.432  -8.785  1.00  0.00     0.026 C 
HETATM   11  C9  UNL     1       0.413  55.531  -8.434  1.00  0.00     0.013 C 
HETATM   12  C30 UNL     1       2.807  55.012  -8.918  1.00  0.00     0.094 C 
HETATM   13  C10 UNL     1       0.859  56.233  -7.122  1.00  0.00     0.043 C 
HETATM   14  C11 UNL     1       2.360  56.337  -6.913  1.00  0.00    -0.006 C 
HETATM   15  C12 UNL     1       3.259  55.745  -7.723  1.00  0.00    -0.030 C 
HETATM   16  C26 UNL     1       2.863  57.263  -5.846  1.00  0.00     0.161 C 
HETATM   17  C13 UNL     1       4.728  56.001  -7.635  1.00  0.00     0.032 C 
HETATM   18  C14 UNL     1       5.700  55.241  -8.614  1.00  0.00    -0.004 C 
HETATM   19  C20 UNL     1       5.176  56.115  -6.148  1.00  0.00    -0.014 C 
HETATM   20  C15 UNL     1       6.925  54.561  -7.956  1.00  0.00     0.014 C 
HETATM   21  C27 UNL     1       5.055  54.348  -9.736  1.00  0.00     0.018 C 
HETATM   22  C16 UNL     1       7.454  55.201  -6.642  1.00  0.00     0.013 C 
HETATM   23  C17 UNL     1       7.321  54.157  -5.573  1.00  0.00    -0.026 C 
HETATM   24  C25 UNL     1       6.682  56.478  -6.263  1.00  0.00     0.006 C 
HETATM   25  C18 UNL     1       6.136  53.957  -4.985  1.00  0.00    -0.029 C 
HETATM   26  C19 UNL     1       4.939  54.808  -5.289  1.00  0.00     0.038 C 
HETATM   27  C24 UNL     1       7.147  57.236  -5.019  1.00  0.00     0.037 C 
HETATM   28  C23 UNL     1       6.409  58.588  -4.909  1.00  0.00     0.119 C 
HETATM   29  C22 UNL     1       5.024  58.610  -5.585  1.00  0.00     0.045 C 
HETATM   30  C21 UNL     1       4.345  57.242  -5.448  1.00  0.00     0.072 C 
HETATM   31  C28 UNL     1       3.652  53.803  -9.383  1.00  0.00    -0.002 C 
HETATM   32  C29 UNL     1       3.837  52.694  -8.328  1.00  0.00     0.019 C 
HETATM   33  O3  UNL     1       2.072  58.023  -5.286  1.00  0.00    -0.292 OA
BRANCH  28  34
HETATM   34  O2  UNL     1       6.269  58.886  -3.521  1.00  0.00    -0.396 OA
HETATM   35  H30 UNL     1       5.880  59.775  -3.445  1.00  0.00     0.210 HD
ENDBRANCH  28  34
BRANCH  12  36
HETATM   36  O4  UNL     1       2.849  56.043  -9.930  1.00  0.00    -0.384 OA
HETATM   37  H39 UNL     1       2.106  55.939 -10.542  1.00  0.00     0.211 HD
ENDBRANCH  12  36
ENDBRANCH   6   8
BRANCH   6  38
HETATM   38  C31 UNL     1       2.658  52.227 -12.827  1.00  0.00     0.189 A 
HETATM   39  O5  UNL     1       3.543  51.572 -13.738  1.00  0.00    -0.369 OA
HETATM   40  C32 UNL     1       2.160  51.181 -13.824  1.00  0.00     0.189 A 
BRANCH  40  41
HETATM   41  C33 UNL     1       1.414  51.603 -15.095  1.00  0.00     0.092 C 
HETATM   42  C34 UNL     1       2.422  51.987 -16.203  1.00  0.00     0.049 C 
BRANCH  41  43
HETATM   43  O6  UNL     1       0.698  52.826 -14.822  1.00  0.00    -0.387 OA
HETATM   44  H45 UNL     1       0.479  52.852 -13.873  1.00  0.00     0.210 HD
ENDBRANCH  41  43
BRANCH  41  45
HETATM   45  C35 UNL     1       0.340  50.525 -15.611  1.00  0.00     0.011 C 
HETATM   46  C36 UNL     1      -1.077  50.959 -15.144  1.00  0.00     0.020 C 
BRANCH  45  47
HETATM   47  C37 UNL     1       0.584  49.137 -14.944  1.00  0.00     0.176 C 
BRANCH  47  48
HETATM   48  O7  UNL     1       0.681  48.095 -15.901  1.00  0.00    -0.400 OA
HETATM   49  H51 UNL     1       0.833  47.266 -15.412  1.00  0.00     0.209 HD
ENDBRANCH  47  48
ENDBRANCH  45  47
BRANCH  45  50
HETATM   50  C38 UNL     1       0.373  50.427 -17.175  1.00  0.00     0.019 C 
BRANCH  50  51
HETATM   51  C39 UNL     1      -0.600  51.313 -17.981  1.00  0.00     0.039 C 
BRANCH  51  52
HETATM   52  C40 UNL     1      -0.121  51.743 -19.348  1.00  0.00    -0.054 A 
HETATM   53  C41 UNL     1      -0.327  50.927 -20.466  1.00  0.00     0.024 A 
HETATM   54  C42 UNL     1       0.137  51.339 -21.709  1.00  0.00     0.090 A 
HETATM   55  N1  UNL     1       0.789  52.503 -21.819  1.00  0.00    -0.357 N 
HETATM   56  C43 UNL     1       1.025  53.311 -20.782  1.00  0.00     0.077 A 
HETATM   57  H58 UNL     1       1.142  52.820 -22.720  1.00  0.00     0.166 HD
HETATM   58  C44 UNL     1       0.581  52.944 -19.517  1.00  0.00     0.049 A 
BRANCH  56  59
HETATM   59  N2  UNL     1       1.746  54.468 -21.040  1.00  0.00    -0.289 NA
HETATM   60  H59 UNL     1       2.630  54.465 -20.521  1.00  0.00     0.125 HD
HETATM   61  H60 UNL     1       1.248  55.295 -20.695  1.00  0.00     0.125 HD
ENDBRANCH  56  59
ENDBRANCH  51  52
ENDBRANCH  50  51
ENDBRANCH  45  50
ENDBRANCH  41  45
ENDBRANCH  40  41
ENDBRANCH   6  38
TORSDOF 13
ENDMDL
MODEL 6
REMARK minimizedAffinity -10.2787733
REMARK CNNscore 0.312078297
REMARK CNNaffinity 7.96415472
REMARK  13 active torsions:
REMARK  status: ('A' for Active; 'I' for Inactive)
REMARK    1  A    between atoms: C5_6  and  C6_7 
REMARK    2  A    between atoms: C5_6  and  C31_35 
REMARK    3  A    between atoms: C23_24  and  O2_25 
REMARK    4  A    between atoms: C30_33  and  O4_34 
REMARK    5  A    between atoms: C32_37  and  C33_38 
REMARK    6  A    between atoms: C33_38  and  O6_40 
REMARK    7  A    between atoms: C33_38  and  C35_41 
REMARK    8  A    between atoms: C35_41  and  C37_43 
REMARK    9  A    between atoms: C35_41  and  C38_45 
REMARK   10  A    between atoms: C37_43  and  O7_44 
REMARK   11  A    between atoms: C38_45  and  C39_46 
REMARK   12  A    between atoms: C39_46  and  C40_47 
REMARK   13  A    between atoms: C43_51  and  N2_52 
ROOT
HETATM    1  C1  UNL     1      -3.183  48.891 -27.700  1.00  0.00     0.010 C 
HETATM    2  C2  UNL     1      -3.850  49.470 -26.454  1.00  0.00    -0.014 C 
HETATM    3  C3  UNL     1      -2.939  50.476 -25.769  1.00  0.00     0.030 C 
HETATM    4  C4  UNL     1      -3.539  50.984 -24.468  1.00  0.00     0.169 C 
HETATM    5  O1  UNL     1      -4.730  50.318 -24.079  1.00  0.00    -0.377 OA
HETATM    6  C5  UNL     1      -4.725  48.867 -24.089  1.00  0.00     0.094 C 
HETATM    7  C45 UNL     1      -4.238  48.355 -25.471  1.00  0.00     0.045 C 
ENDROOT
BRANCH   6   8
HETATM    8  C6  UNL     1      -6.235  48.540 -23.797  1.00  0.00     0.035 C 
HETATM    9  C7  UNL     1      -6.859  47.455 -24.770  1.00  0.00     0.016 C 
HETATM   10  C8  UNL     1      -7.889  46.692 -23.926  1.00  0.00     0.026 C 
HETATM   11  C9  UNL     1      -9.180  46.191 -24.559  1.00  0.00     0.013 C 
HETATM   12  C30 UNL     1      -8.200  47.683 -22.813  1.00  0.00     0.094 C 
HETATM   13  C10 UNL     1     -10.078  45.547 -23.468  1.00  0.00     0.043 C 
HETATM   14  C11 UNL     1      -9.991  46.183 -22.091  1.00  0.00    -0.006 C 
HETATM   15  C12 UNL     1      -9.100  47.145 -21.779  1.00  0.00    -0.030 C 
HETATM   16  C26 UNL     1     -11.041  45.828 -21.081  1.00  0.00     0.161 C 
HETATM   17  C13 UNL     1      -9.138  47.904 -20.492  1.00  0.00     0.032 C 
HETATM   18  C14 UNL     1      -8.036  48.995 -20.212  1.00  0.00    -0.004 C 
HETATM   19  C20 UNL     1      -9.508  46.959 -19.311  1.00  0.00    -0.014 C 
HETATM   20  C15 UNL     1      -7.338  48.910 -18.834  1.00  0.00     0.014 C 
HETATM   21  C27 UNL     1      -7.029  49.329 -21.371  1.00  0.00     0.018 C 
HETATM   22  C16 UNL     1      -8.163  48.291 -17.671  1.00  0.00     0.013 C 
HETATM   23  C17 UNL     1      -7.417  47.071 -17.218  1.00  0.00    -0.026 C 
HETATM   24  C25 UNL     1      -9.597  47.930 -18.101  1.00  0.00     0.006 C 
HETATM   25  C18 UNL     1      -7.540  45.927 -17.899  1.00  0.00    -0.029 C 
HETATM   26  C19 UNL     1      -8.478  45.784 -19.061  1.00  0.00     0.038 C 
HETATM   27  C24 UNL     1     -10.531  47.367 -17.029  1.00  0.00     0.037 C 
HETATM   28  C23 UNL     1     -11.971  47.262 -17.575  1.00  0.00     0.119 C 
HETATM   29  C22 UNL     1     -12.058  47.101 -19.106  1.00  0.00     0.045 C 
HETATM   30  C21 UNL     1     -10.878  46.267 -19.618  1.00  0.00     0.072 C 
HETATM   31  C28 UNL     1      -6.801  48.169 -22.367  1.00  0.00    -0.002 C 
HETATM   32  C29 UNL     1      -5.939  47.108 -21.655  1.00  0.00     0.019 C 
HETATM   33  O3  UNL     1     -12.020  45.171 -21.435  1.00  0.00    -0.292 OA
BRANCH  28  34
HETATM   34  O2  UNL     1     -12.589  46.144 -16.940  1.00  0.00    -0.396 OA
HETATM   35  H30 UNL     1     -13.522  46.123 -17.216  1.00  0.00     0.210 HD
ENDBRANCH  28  34
BRANCH  12  36
HETATM   36  O4  UNL     1      -8.961  48.804 -23.313  1.00  0.00    -0.384 OA
HETATM   37  H39 UNL     1      -8.841  48.888 -24.270  1.00  0.00     0.211 HD
ENDBRANCH  12  36
ENDBRANCH   6   8
BRANCH   6  38
HETATM   38  C31 UNL     1      -3.901  48.404 -22.892  1.00  0.00     0.189 A 
HETATM   39  O5  UNL     1      -2.523  48.111 -23.131  1.00  0.00    -0.369 OA
HETATM   40  C32 UNL     1      -2.780  49.211 -22.239  1.00  0.00     0.189 A 
BRANCH  40  41
HETATM   41  C33 UNL     1      -2.411  48.990 -20.766  1.00  0.00     0.092 C 
HETATM   42  C34 UNL     1      -1.354  47.868 -20.644  1.00  0.00     0.049 C 
BRANCH  41  43
HETATM   43  O6  UNL     1      -3.567  48.472 -20.077  1.00  0.00    -0.387 OA
HETATM   44  H45 UNL     1      -4.368  48.793 -20.529  1.00  0.00     0.210 HD
ENDBRANCH  41  43
BRANCH  41  45
HETATM   45  C35 UNL     1      -1.955  50.327 -20.000  1.00  0.00     0.011 C 
HETATM   46  C36 UNL     1      -0.834  49.971 -18.985  1.00  0.00     0.020 C 
BRANCH  45  47
HETATM   47  C37 UNL     1      -3.123  50.897 -19.138  1.00  0.00     0.176 C 
BRANCH  47  48
HETATM   48  O7  UNL     1      -2.659  51.767 -18.119  1.00  0.00    -0.400 OA
HETATM   49  H51 UNL     1      -3.440  52.081 -17.628  1.00  0.00     0.209 HD
ENDBRANCH  47  48
ENDBRANCH  45  47
BRANCH  45  50
HETATM   50  C38 UNL     1      -1.424  51.389 -21.024  1.00  0.00     0.019 C 
BRANCH  50  51
HETATM   51  C39 UNL     1       0.096  51.447 -21.289  1.00  0.00     0.039 C 
BRANCH  51  52
HETATM   52  C40 UNL     1       0.573  52.607 -22.132  1.00  0.00    -0.054 A 
HETATM   53  C41 UNL     1       1.231  53.693 -21.543  1.00  0.00     0.024 A 
HETATM   54  C42 UNL     1       1.646  54.754 -22.338  1.00  0.00     0.090 A 
HETATM   55  N1  UNL     1       1.398  54.731 -23.654  1.00  0.00    -0.357 N 
HETATM   56  C43 UNL     1       0.761  53.727 -24.261  1.00  0.00     0.077 A 
HETATM   57  H58 UNL     1       1.689  55.501 -24.253  1.00  0.00     0.166 HD
HETATM   58  C44 UNL     1       0.326  52.642 -23.510  1.00  0.00     0.049 A 
BRANCH  56  59
HETATM   59  N2  UNL     1       0.542  53.857 -25.626  1.00  0.00    -0.289 NA
HETATM   60  H59 UNL     1      -0.463  53.876 -25.829  1.00  0.00     0.125 HD
HETATM   61  H60 UNL     1       0.892  53.039 -26.133  1.00  0.00     0.125 HD
ENDBRANCH  56  59
ENDBRANCH  51  52
ENDBRANCH  50  51
ENDBRANCH  45  50
ENDBRANCH  41  45
ENDBRANCH  40  41
ENDBRANCH   6  38
TORSDOF 13
ENDMDL
MODEL 7
REMARK minimizedAffinity -9.2695179
REMARK CNNscore 0.306507677
REMARK CNNaffinity 6.4680233
REMARK  13 active torsions:
REMARK  status: ('A' for Active; 'I' for Inactive)
REMARK    1  A    between atoms: C5_6  and  C6_7 
REMARK    2  A    between atoms: C5_6  and  C31_35 
REMARK    3  A    between atoms: C23_24  and  O2_25 
REMARK    4  A    between atoms: C30_33  and  O4_34 
REMARK    5  A    between atoms: C32_37  and  C33_38 
REMARK    6  A    between atoms: C33_38  and  O6_40 
REMARK    7  A    between atoms: C33_38  and  C35_41 
REMARK    8  A    between atoms: C35_41  and  C37_43 
REMARK    9  A    between atoms: C35_41  and  C38_45 
REMARK   10  A    between atoms: C37_43  and  O7_44 
REMARK   11  A    between atoms: C38_45  and  C39_46 
REMARK   12  A    between atoms: C39_46  and  C40_47 
REMARK   13  A    between atoms: C43_51  and  N2_52 
ROOT
HETATM    1  C1  UNL     1     -14.013  41.308 -26.862  1.00  0.00     0.010 C 
HETATM    2  C2  UNL     1     -14.937  42.511 -27.038  1.00  0.00    -0.014 C 
HETATM    3  C3  UNL     1     -15.391  42.639 -28.483  1.00  0.00     0.030 C 
HETATM    4  C4  UNL     1     -16.225  43.891 -28.702  1.00  0.00     0.169 C 
HETATM    5  O1  UNL     1     -16.282  44.755 -27.577  1.00  0.00    -0.377 OA
HETATM    6  C5  UNL     1     -15.031  45.100 -26.928  1.00  0.00     0.094 C 
HETATM    7  C45 UNL     1     -14.245  43.805 -26.586  1.00  0.00     0.045 C 
ENDROOT
BRANCH   6   8
HETATM    8  C6  UNL     1     -15.534  45.880 -25.659  1.00  0.00     0.035 C 
HETATM    9  C7  UNL     1     -17.103  45.817 -25.443  1.00  0.00     0.016 C 
HETATM   10  C8  UNL     1     -17.309  45.838 -23.922  1.00  0.00     0.026 C 
HETATM   11  C9  UNL     1     -18.508  46.560 -23.321  1.00  0.00     0.013 C 
HETATM   12  C30 UNL     1     -16.014  46.466 -23.425  1.00  0.00     0.094 C 
HETATM   13  C10 UNL     1     -18.418  46.512 -21.771  1.00  0.00     0.043 C 
HETATM   14  C11 UNL     1     -17.013  46.560 -21.195  1.00  0.00    -0.006 C 
HETATM   15  C12 UNL     1     -15.903  46.504 -21.956  1.00  0.00    -0.030 C 
HETATM   16  C26 UNL     1     -16.859  46.831 -19.728  1.00  0.00     0.161 C 
HETATM   17  C13 UNL     1     -14.531  46.743 -21.415  1.00  0.00     0.032 C 
HETATM   18  C14 UNL     1     -13.293  46.632 -22.385  1.00  0.00    -0.004 C 
HETATM   19  C20 UNL     1     -14.379  46.100 -20.005  1.00  0.00    -0.014 C 
HETATM   20  C15 UNL     1     -12.115  45.765 -21.878  1.00  0.00     0.014 C 
HETATM   21  C27 UNL     1     -13.581  46.411 -23.914  1.00  0.00     0.018 C 
HETATM   22  C16 UNL     1     -11.935  45.666 -20.337  1.00  0.00     0.013 C 
HETATM   23  C17 UNL     1     -12.094  44.218 -19.979  1.00  0.00    -0.026 C 
HETATM   24  C25 UNL     1     -12.952  46.535 -19.574  1.00  0.00     0.006 C 
HETATM   25  C18 UNL     1     -13.319  43.694 -19.859  1.00  0.00    -0.029 C 
HETATM   26  C19 UNL     1     -14.560  44.528 -19.977  1.00  0.00     0.038 C 
HETATM   27  C24 UNL     1     -12.840  46.571 -18.049  1.00  0.00     0.037 C 
HETATM   28  C23 UNL     1     -13.786  47.643 -17.468  1.00  0.00     0.119 C 
HETATM   29  C22 UNL     1     -15.015  47.948 -18.348  1.00  0.00     0.045 C 
HETATM   30  C21 UNL     1     -15.486  46.674 -19.059  1.00  0.00     0.072 C 
HETATM   31  C28 UNL     1     -14.923  45.702 -24.210  1.00  0.00    -0.002 C 
HETATM   32  C29 UNL     1     -14.759  44.219 -23.822  1.00  0.00     0.019 C 
HETATM   33  O3  UNL     1     -17.845  47.163 -19.070  1.00  0.00    -0.292 OA
BRANCH  28  34
HETATM   34  O2  UNL     1     -14.217  47.183 -16.188  1.00  0.00    -0.396 OA
HETATM   35  H30 UNL     1     -14.747  47.892 -15.780  1.00  0.00     0.210 HD
ENDBRANCH  28  34
BRANCH  12  36
HETATM   36  O4  UNL     1     -15.954  47.869 -23.762  1.00  0.00    -0.384 OA
HETATM   37  H39 UNL     1     -16.551  48.061 -24.500  1.00  0.00     0.211 HD
ENDBRANCH  12  36
ENDBRANCH   6   8
BRANCH   6  38
HETATM   38  C31 UNL     1     -14.303  46.087 -27.833  1.00  0.00     0.189 A 
HETATM   39  O5  UNL     1     -13.741  47.243 -27.207  1.00  0.00    -0.369 OA
HETATM   40  C32 UNL     1     -12.796  46.342 -27.814  1.00  0.00     0.189 A 
BRANCH  40  41
HETATM   41  C33 UNL     1     -12.073  46.859 -29.063  1.00  0.00     0.092 C 
HETATM   42  C34 UNL     1     -12.500  48.314 -29.364  1.00  0.00     0.049 C 
BRANCH  41  43
HETATM   43  O6  UNL     1     -12.535  46.106 -30.204  1.00  0.00    -0.387 OA
HETATM   44  H45 UNL     1     -12.808  45.221 -29.902  1.00  0.00     0.210 HD
ENDBRANCH  41  43
BRANCH  41  45
HETATM   45  C35 UNL     1     -10.474  46.705 -29.003  1.00  0.00     0.011 C 
HETATM   46  C36 UNL     1     -10.073  45.342 -29.634  1.00  0.00     0.020 C 
BRANCH  45  47
HETATM   47  C37 UNL     1      -9.979  46.636 -27.527  1.00  0.00     0.176 C 
BRANCH  47  48
HETATM   48  O7  UNL     1      -9.905  47.919 -26.928  1.00  0.00    -0.400 OA
HETATM   49  H51 UNL     1      -9.591  47.794 -26.014  1.00  0.00     0.209 HD
ENDBRANCH  47  48
ENDBRANCH  45  47
BRANCH  45  50
HETATM   50  C38 UNL     1      -9.784  47.874 -29.789  1.00  0.00     0.019 C 
BRANCH  50  51
HETATM   51  C39 UNL     1      -9.638  47.736 -31.319  1.00  0.00     0.039 C 
BRANCH  51  52
HETATM   52  C40 UNL     1      -8.223  47.737 -31.848  1.00  0.00    -0.054 A 
HETATM   53  C41 UNL     1      -7.133  47.797 -30.971  1.00  0.00     0.024 A 
HETATM   54  C42 UNL     1      -5.843  47.812 -31.484  1.00  0.00     0.090 A 
HETATM   55  N1  UNL     1      -5.657  47.785 -32.810  1.00  0.00    -0.357 N 
HETATM   56  C43 UNL     1      -6.662  47.744 -33.689  1.00  0.00     0.077 A 
HETATM   57  H58 UNL     1      -4.719  47.802 -33.206  1.00  0.00     0.166 HD
HETATM   58  C44 UNL     1      -7.972  47.726 -33.226  1.00  0.00     0.049 A 
BRANCH  56  59
HETATM   59  N2  UNL     1      -6.320  47.757 -35.034  1.00  0.00    -0.289 NA
HETATM   60  H59 UNL     1      -6.694  48.594 -35.492  1.00  0.00     0.125 HD
HETATM   61  H60 UNL     1      -6.755  46.974 -35.531  1.00  0.00     0.125 HD
ENDBRANCH  56  59
ENDBRANCH  51  52
ENDBRANCH  50  51
ENDBRANCH  45  50
ENDBRANCH  41  45
ENDBRANCH  40  41
ENDBRANCH   6  38
TORSDOF 13
ENDMDL
MODEL 8
REMARK minimizedAffinity -10.4887476
REMARK CNNscore 0.291252255
REMARK CNNaffinity 7.6313653
REMARK  13 active torsions:
REMARK  status: ('A' for Active; 'I' for Inactive)
REMARK    1  A    between atoms: C5_6  and  C6_7 
REMARK    2  A    between atoms: C5_6  and  C31_35 
REMARK    3  A    between atoms: C23_24  and  O2_25 
REMARK    4  A    between atoms: C30_33  and  O4_34 
REMARK    5  A    between atoms: C32_37  and  C33_38 
REMARK    6  A    between atoms: C33_38  and  O6_40 
REMARK    7  A    between atoms: C33_38  and  C35_41 
REMARK    8  A    between atoms: C35_41  and  C37_43 
REMARK    9  A    between atoms: C35_41  and  C38_45 
REMARK   10  A    between atoms: C37_43  and  O7_44 
REMARK   11  A    between atoms: C38_45  and  C39_46 
REMARK   12  A    between atoms: C39_46  and  C40_47 
REMARK   13  A    between atoms: C43_51  and  N2_52 
ROOT
HETATM    1  C1  UNL     1      -2.947  48.786 -10.994  1.00  0.00     0.010 C 
HETATM    2  C2  UNL     1      -2.781  50.277 -11.282  1.00  0.00    -0.014 C 
HETATM    3  C3  UNL     1      -3.191  50.602 -12.710  1.00  0.00     0.030 C 
HETATM    4  C4  UNL     1      -2.932  52.061 -13.051  1.00  0.00     0.169 C 
HETATM    5  O1  UNL     1      -2.230  52.777 -12.046  1.00  0.00    -0.377 OA
HETATM    6  C5  UNL     1      -1.026  52.173 -11.506  1.00  0.00     0.094 C 
HETATM    7  C45 UNL     1      -1.333  50.726 -11.035  1.00  0.00     0.045 C 
ENDROOT
BRANCH   6   8
HETATM    8  C6  UNL     1      -0.678  53.154 -10.327  1.00  0.00     0.035 C 
HETATM    9  C7  UNL     1      -1.471  52.858  -8.987  1.00  0.00     0.016 C 
HETATM   10  C8  UNL     1      -0.515  53.244  -7.851  1.00  0.00     0.026 C 
HETATM   11  C9  UNL     1      -1.056  53.862  -6.568  1.00  0.00     0.013 C 
HETATM   12  C30 UNL     1       0.438  54.212  -8.539  1.00  0.00     0.094 C 
HETATM   13  C10 UNL     1       0.126  54.245  -5.637  1.00  0.00     0.043 C 
HETATM   14  C11 UNL     1       1.391  54.706  -6.342  1.00  0.00    -0.006 C 
HETATM   15  C12 UNL     1       1.548  54.659  -7.679  1.00  0.00    -0.030 C 
HETATM   16  C26 UNL     1       2.450  55.381  -5.523  1.00  0.00     0.161 C 
HETATM   17  C13 UNL     1       2.705  55.285  -8.387  1.00  0.00     0.032 C 
HETATM   18  C14 UNL     1       2.809  55.154  -9.954  1.00  0.00    -0.004 C 
HETATM   19  C20 UNL     1       4.018  55.081  -7.575  1.00  0.00    -0.014 C 
HETATM   20  C15 UNL     1       4.180  54.690 -10.502  1.00  0.00     0.014 C 
HETATM   21  C27 UNL     1       1.606  54.485 -10.712  1.00  0.00     0.018 C 
HETATM   22  C16 UNL     1       5.428  55.039  -9.644  1.00  0.00     0.013 C 
HETATM   23  C17 UNL     1       6.056  53.735  -9.250  1.00  0.00    -0.026 C 
HETATM   24  C25 UNL     1       5.067  55.874  -8.401  1.00  0.00     0.006 C 
HETATM   25  C18 UNL     1       5.556  53.043  -8.220  1.00  0.00    -0.029 C 
HETATM   26  C19 UNL     1       4.436  53.568  -7.372  1.00  0.00     0.038 C 
HETATM   27  C24 UNL     1       6.219  56.334  -7.506  1.00  0.00     0.037 C 
HETATM   28  C23 UNL     1       5.705  57.325  -6.440  1.00  0.00     0.119 C 
HETATM   29  C22 UNL     1       4.217  57.149  -6.077  1.00  0.00     0.045 C 
HETATM   30  C21 UNL     1       3.828  55.667  -6.136  1.00  0.00     0.072 C 
HETATM   31  C28 UNL     1       0.796  53.485  -9.856  1.00  0.00    -0.002 C 
HETATM   32  C29 UNL     1       1.654  52.216  -9.687  1.00  0.00     0.019 C 
HETATM   33  O3  UNL     1       2.206  55.685  -4.355  1.00  0.00    -0.292 OA
BRANCH  28  34
HETATM   34  O2  UNL     1       6.506  57.150  -5.273  1.00  0.00    -0.396 OA
HETATM   35  H30 UNL     1       6.243  57.829  -4.627  1.00  0.00     0.210 HD
ENDBRANCH  28  34
BRANCH  12  36
HETATM   36  O4  UNL     1      -0.221  55.461  -8.844  1.00  0.00    -0.384 OA
HETATM   37  H39 UNL     1      -1.180  55.334  -8.869  1.00  0.00     0.211 HD
ENDBRANCH  12  36
ENDBRANCH   6   8
BRANCH   6  38
HETATM   38  C31 UNL     1       0.064  52.299 -12.564  1.00  0.00     0.189 A 
HETATM   39  O5  UNL     1       1.229  51.488 -12.390  1.00  0.00    -0.369 OA
HETATM   40  C32 UNL     1       0.442  51.206 -13.563  1.00  0.00     0.189 A 
BRANCH  40  41
HETATM   41  C33 UNL     1       1.082  51.564 -14.911  1.00  0.00     0.092 C 
HETATM   42  C34 UNL     1       2.595  51.250 -14.883  1.00  0.00     0.049 C 
BRANCH  41  43
HETATM   43  O6  UNL     1       1.015  52.994 -15.084  1.00  0.00    -0.387 OA
HETATM   44  H45 UNL     1       0.242  53.331 -14.596  1.00  0.00     0.210 HD
ENDBRANCH  41  43
BRANCH  41  45
HETATM   45  C35 UNL     1       0.355  50.893 -16.177  1.00  0.00     0.011 C 
HETATM   46  C36 UNL     1      -1.184  51.037 -16.012  1.00  0.00     0.020 C 
BRANCH  45  47
HETATM   47  C37 UNL     1       0.621  49.357 -16.220  1.00  0.00     0.176 C 
BRANCH  47  48
HETATM   48  O7  UNL     1      -0.308  48.678 -17.048  1.00  0.00    -0.400 OA
HETATM   49  H51 UNL     1      -0.077  47.731 -17.025  1.00  0.00     0.209 HD
ENDBRANCH  47  48
ENDBRANCH  45  47
BRANCH  45  50
HETATM   50  C38 UNL     1       0.812  51.595 -17.503  1.00  0.00     0.019 C 
BRANCH  50  51
HETATM   51  C39 UNL     1      -0.265  52.277 -18.373  1.00  0.00     0.039 C 
BRANCH  51  52
HETATM   52  C40 UNL     1       0.117  52.532 -19.813  1.00  0.00    -0.054 A 
HETATM   53  C41 UNL     1      -0.210  51.608 -20.812  1.00  0.00     0.024 A 
HETATM   54  C42 UNL     1       0.166  51.858 -22.125  1.00  0.00     0.090 A 
HETATM   55  N1  UNL     1       0.849  52.973 -22.417  1.00  0.00    -0.357 N 
HETATM   56  C43 UNL     1       1.198  53.878 -21.499  1.00  0.00     0.077 A 
HETATM   57  H58 UNL     1       1.138  53.172 -23.372  1.00  0.00     0.166 HD
HETATM   58  C44 UNL     1       0.846  53.673 -20.171  1.00  0.00     0.049 A 
BRANCH  56  59
HETATM   59  N2  UNL     1       1.938  54.966 -21.942  1.00  0.00    -0.289 NA
HETATM   60  H59 UNL     1       2.861  54.979 -21.496  1.00  0.00     0.125 HD
HETATM   61  H60 UNL     1       1.500  55.847 -21.656  1.00  0.00     0.125 HD
ENDBRANCH  56  59
ENDBRANCH  51  52
ENDBRANCH  50  51
ENDBRANCH  45  50
ENDBRANCH  41  45
ENDBRANCH  40  41
ENDBRANCH   6  38
TORSDOF 13
ENDMDL
MODEL 9
REMARK minimizedAffinity -10.113018
REMARK CNNscore 0.280779421
REMARK CNNaffinity 7.62054443
REMARK  13 active torsions:
REMARK  status: ('A' for Active; 'I' for Inactive)
REMARK    1  A    between atoms: C5_6  and  C6_7 
REMARK    2  A    between atoms: C5_6  and  C31_35 
REMARK    3  A    between atoms: C23_24  and  O2_25 
REMARK    4  A    between atoms: C30_33  and  O4_34 
REMARK    5  A    between atoms: C32_37  and  C33_38 
REMARK    6  A    between atoms: C33_38  and  O6_40 
REMARK    7  A    between atoms: C33_38  and  C35_41 
REMARK    8  A    between atoms: C35_41  and  C37_43 
REMARK    9  A    between atoms: C35_41  and  C38_45 
REMARK   10  A    between atoms: C37_43  and  O7_44 
REMARK   11  A    between atoms: C38_45  and  C39_46 
REMARK   12  A    between atoms: C39_46  and  C40_47 
REMARK   13  A    between atoms: C43_51  and  N2_52 
ROOT
HETATM    1  C1  UNL     1       3.793  50.607 -14.179  1.00  0.00     0.010 C 
HETATM    2  C2  UNL     1       2.665  50.281 -13.202  1.00  0.00    -0.014 C 
HETATM    3  C3  UNL     1       2.244  48.826 -13.325  1.00  0.00     0.030 C 
HETATM    4  C4  UNL     1       1.051  48.508 -12.439  1.00  0.00     0.169 C 
HETATM    5  O1  UNL     1       0.480  49.642 -11.804  1.00  0.00    -0.377 OA
HETATM    6  C5  UNL     1       0.190  50.800 -12.629  1.00  0.00     0.094 C 
HETATM    7  C45 UNL     1       1.456  51.200 -13.432  1.00  0.00     0.045 C 
ENDROOT
BRANCH   6   8
HETATM    8  C6  UNL     1      -0.229  51.863 -11.550  1.00  0.00     0.035 C 
HETATM    9  C7  UNL     1      -1.214  51.304 -10.441  1.00  0.00     0.016 C 
HETATM   10  C8  UNL     1      -0.862  52.067  -9.157  1.00  0.00     0.026 C 
HETATM   11  C9  UNL     1      -1.954  52.444  -8.164  1.00  0.00     0.013 C 
HETATM   12  C30 UNL     1      -0.186  53.320  -9.695  1.00  0.00     0.094 C 
HETATM   13  C10 UNL     1      -1.341  53.290  -7.015  1.00  0.00     0.043 C 
HETATM   14  C11 UNL     1      -0.196  54.205  -7.415  1.00  0.00    -0.006 C 
HETATM   15  C12 UNL     1       0.360  54.194  -8.642  1.00  0.00    -0.030 C 
HETATM   16  C26 UNL     1       0.232  55.266  -6.447  1.00  0.00     0.161 C 
HETATM   17  C13 UNL     1       1.350  55.217  -9.097  1.00  0.00     0.032 C 
HETATM   18  C14 UNL     1       1.960  55.105 -10.545  1.00  0.00    -0.004 C 
HETATM   19  C20 UNL     1       2.334  55.576  -7.945  1.00  0.00    -0.014 C 
HETATM   20  C15 UNL     1       3.501  55.218 -10.639  1.00  0.00     0.014 C 
HETATM   21  C27 UNL     1       1.386  53.992 -11.495  1.00  0.00     0.018 C 
HETATM   22  C16 UNL     1       4.206  56.058  -9.537  1.00  0.00     0.013 C 
HETATM   23  C17 UNL     1       5.129  55.126  -8.812  1.00  0.00    -0.026 C 
HETATM   24  C25 UNL     1       3.202  56.705  -8.565  1.00  0.00     0.006 C 
HETATM   25  C18 UNL     1       4.644  54.314  -7.866  1.00  0.00    -0.029 C 
HETATM   26  C19 UNL     1       3.210  54.363  -7.428  1.00  0.00     0.038 C 
HETATM   27  C24 UNL     1       3.769  57.609  -7.469  1.00  0.00     0.037 C 
HETATM   28  C23 UNL     1       2.625  58.333  -6.728  1.00  0.00     0.119 C 
HETATM   29  C22 UNL     1       1.279  57.582  -6.753  1.00  0.00     0.045 C 
HETATM   30  C21 UNL     1       1.515  56.069  -6.705  1.00  0.00     0.072 C 
HETATM   31  C28 UNL     1       0.796  52.770 -10.755  1.00  0.00    -0.002 C 
HETATM   32  C29 UNL     1       1.977  51.957 -10.187  1.00  0.00     0.019 C 
HETATM   33  O3  UNL     1      -0.447  55.473  -5.440  1.00  0.00    -0.292 OA
BRANCH  28  34
HETATM   34  O2  UNL     1       3.043  58.521  -5.376  1.00  0.00    -0.396 OA
HETATM   35  H30 UNL     1       2.362  59.051  -4.925  1.00  0.00     0.210 HD
ENDBRANCH  28  34
BRANCH  12  36
HETATM   36  O4  UNL     1      -1.143  54.192 -10.336  1.00  0.00    -0.384 OA
HETATM   37  H39 UNL     1      -1.929  53.690 -10.597  1.00  0.00     0.211 HD
ENDBRANCH  12  36
ENDBRANCH   6   8
BRANCH   6  38
HETATM   38  C31 UNL     1      -1.039  50.468 -13.468  1.00  0.00     0.189 A 
HETATM   39  O5  UNL     1      -1.903  51.555 -13.806  1.00  0.00    -0.369 OA
HETATM   40  C32 UNL     1      -1.253  50.907 -14.916  1.00  0.00     0.189 A 
BRANCH  40  41
HETATM   41  C33 UNL     1      -2.158  50.100 -15.855  1.00  0.00     0.092 C 
HETATM   42  C34 UNL     1      -3.289  50.997 -16.407  1.00  0.00     0.049 C 
BRANCH  41  43
HETATM   43  O6  UNL     1      -2.843  49.095 -15.079  1.00  0.00    -0.387 OA
HETATM   44  H45 UNL     1      -2.287  48.860 -14.314  1.00  0.00     0.210 HD
ENDBRANCH  41  43
BRANCH  41  45
HETATM   45  C35 UNL     1      -1.368  49.341 -17.030  1.00  0.00     0.011 C 
HETATM   46  C36 UNL     1      -2.098  48.007 -17.352  1.00  0.00     0.020 C 
BRANCH  45  47
HETATM   47  C37 UNL     1       0.059  48.924 -16.561  1.00  0.00     0.176 C 
BRANCH  47  48
HETATM   48  O7  UNL     1       0.038  47.753 -15.762  1.00  0.00    -0.400 OA
HETATM   49  H51 UNL     1       0.959  47.558 -15.510  1.00  0.00     0.209 HD
ENDBRANCH  47  48
ENDBRANCH  45  47
BRANCH  45  50
HETATM   50  C38 UNL     1      -1.313  50.236 -18.317  1.00  0.00     0.019 C 
BRANCH  50  51
HETATM   51  C39 UNL     1      -0.233  51.336 -18.391  1.00  0.00     0.039 C 
BRANCH  51  52
HETATM   52  C40 UNL     1       0.044  51.894 -19.768  1.00  0.00    -0.054 A 
HETATM   53  C41 UNL     1      -0.429  51.241 -20.911  1.00  0.00     0.024 A 
HETATM   54  C42 UNL     1      -0.147  51.767 -22.165  1.00  0.00     0.090 A 
HETATM   55  N1  UNL     1       0.587  52.883 -22.266  1.00  0.00    -0.357 N 
HETATM   56  C43 UNL     1       1.074  53.535 -21.208  1.00  0.00     0.077 A 
HETATM   57  H58 UNL     1       0.809  53.280 -23.176  1.00  0.00     0.166 HD
HETATM   58  C44 UNL     1       0.820  53.050 -19.930  1.00  0.00     0.049 A 
BRANCH  56  59
HETATM   59  N2  UNL     1       1.849  54.657 -21.465  1.00  0.00    -0.289 NA
HETATM   60  H59 UNL     1       2.805  54.522 -21.119  1.00  0.00     0.125 HD
HETATM   61  H60 UNL     1       1.500  55.470 -20.948  1.00  0.00     0.125 HD
ENDBRANCH  56  59
ENDBRANCH  51  52
ENDBRANCH  50  51
ENDBRANCH  45  50
ENDBRANCH  41  45
ENDBRANCH  40  41
ENDBRANCH   6  38
TORSDOF 13
ENDMDL
