MODEL 1
REMARK minimizedAffinity -6.46014643
REMARK CNNscore 0.396963418
REMARK CNNaffinity 6.01370382
REMARK  9 active torsions:
REMARK  status: ('A' for Active; 'I' for Inactive)
REMARK    1  A    between atoms: C2_2  and  O1_3 
REMARK    2  A    between atoms: O1_3  and  C3_4 
REMARK    3  A    between atoms: C14_15  and  O2_16 
REMARK    4  A    between atoms: O2_16  and  C15_17 
REMARK    5  A    between atoms: C21_24  and  O4_25 
REMARK    6  A    between atoms: O4_25  and  C22_26 
REMARK    7  A    between atoms: C24_29  and  O6_30 
REMARK    8  A    between atoms: C25_31  and  O7_32 
REMARK    9  A    between atoms: C26_33  and  O8_34 
ROOT
HETATM    1  C3  UNL     1      16.404  11.187   2.811  1.00  0.00     0.260 C 
HETATM    2  C4  UNL     1      17.132  12.531   2.978  1.00  0.00     0.065 C 
HETATM    3  C5  UNL     1      16.991  13.058   4.411  1.00  0.00    -0.007 C 
HETATM    4  C6  UNL     1      17.818  14.327   4.604  1.00  0.00     0.010 C 
HETATM    5  C7  UNL     1      15.487  13.292   4.670  1.00  0.00     0.027 C 
HETATM    6  C8  UNL     1      14.605  12.195   3.995  1.00  0.00     0.130 C 
HETATM    7  C9  UNL     1      13.445  11.896   4.977  1.00  0.00     0.042 C 
HETATM    8  C10 UNL     1      13.421  13.110   5.925  1.00  0.00    -0.029 C 
HETATM    9  C11 UNL     1      12.724  14.270   5.125  1.00  0.00     0.016 C 
HETATM   10  C12 UNL     1      12.640  13.002   7.277  1.00  0.00     0.006 C 
HETATM   11  C13 UNL     1      12.208  11.595   7.710  1.00  0.00     0.039 C 
HETATM   12  C14 UNL     1      11.354  11.593   9.011  1.00  0.00     0.138 C 
HETATM   13  C17 UNL     1      11.199  12.987   9.704  1.00  0.00     0.035 C 
HETATM   14  C18 UNL     1      10.466  13.004  11.117  1.00  0.00    -0.015 C 
HETATM   15  C19 UNL     1       9.690  11.705  11.439  1.00  0.00     0.018 C 
HETATM   16  C20 UNL     1       9.384  14.120  11.122  1.00  0.00     0.018 C 
HETATM   17  C21 UNL     1      11.477  13.269  12.280  1.00  0.00     0.133 C 
HETATM   18  C27 UNL     1      12.289  14.565  12.091  1.00  0.00     0.034 C 
HETATM   19  C28 UNL     1      12.516  14.974  10.635  1.00  0.00     0.013 C 
HETATM   20  C29 UNL     1      12.540  13.768   9.737  1.00  0.00    -0.025 A 
HETATM   21  C30 UNL     1      13.856  13.043   9.668  1.00  0.00     0.021 A 
HETATM   22  C31 UNL     1      13.347  13.756   8.425  1.00  0.00    -0.027 A 
HETATM   23  C32 UNL     1      14.147  14.970   7.982  1.00  0.00     0.011 C 
HETATM   24  C33 UNL     1      15.185  14.668   6.881  1.00  0.00     0.011 C 
HETATM   25  C34 UNL     1      14.959  13.338   6.140  1.00  0.00    -0.030 C 
HETATM   26  C35 UNL     1      15.655  12.200   6.940  1.00  0.00     0.016 C 
HETATM   27  O9  UNL     1      15.347  11.007   3.757  1.00  0.00    -0.356 OA
ENDROOT
BRANCH  17  28
HETATM   28  O4  UNL     1      12.330  12.118  12.403  1.00  0.00    -0.353 OA
BRANCH  28  29
HETATM   29  C22 UNL     1      12.083  11.294  13.555  1.00  0.00     0.291 C 
HETATM   30  O5  UNL     1      11.791  12.044  14.730  1.00  0.00    -0.356 OA
HETATM   31  C23 UNL     1      12.914  12.793  15.207  1.00  0.00     0.205 C 
HETATM   32  C24 UNL     1      14.108  11.898  15.559  1.00  0.00     0.173 C 
HETATM   33  C25 UNL     1      14.514  11.067  14.343  1.00  0.00     0.182 C 
HETATM   34  C26 UNL     1      13.289  10.340  13.769  1.00  0.00     0.204 C 
BRANCH  32  35
HETATM   35  O6  UNL     1      13.771  11.024  16.641  1.00  0.00    -0.391 OA
HETATM   36  H39 UNL     1      13.418  11.572  17.362  1.00  0.00     0.210 HD
ENDBRANCH  32  35
BRANCH  33  37
HETATM   37  O7  UNL     1      15.126  11.914  13.363  1.00  0.00    -0.390 OA
HETATM   38  H41 UNL     1      15.234  11.360  12.566  1.00  0.00     0.210 HD
ENDBRANCH  33  37
BRANCH  34  39
HETATM   39  O8  UNL     1      13.666   9.677  12.551  1.00  0.00    -0.388 OA
HETATM   40  H43 UNL     1      13.265  10.202  11.830  1.00  0.00     0.210 HD
ENDBRANCH  34  39
ENDBRANCH  28  29
ENDBRANCH  17  28
BRANCH  12  41
HETATM   41  O2  UNL     1      10.031  11.125   8.635  1.00  0.00    -0.316 OA
BRANCH  41  42
HETATM   42  C15 UNL     1       9.952  10.410   7.478  1.00  0.00     0.255 C 
HETATM   43  C16 UNL     1       9.498  11.296   6.356  1.00  0.00     0.126 C 
HETATM   44  O3  UNL     1      10.210   9.220   7.351  1.00  0.00    -0.266 OA
ENDBRANCH  41  42
ENDBRANCH  12  41
BRANCH   1  45
HETATM   45  O1  UNL     1      15.928  11.099   1.468  1.00  0.00    -0.362 OA
BRANCH  45  46
HETATM   46  C2  UNL     1      15.985  12.343   0.772  1.00  0.00     0.166 C 
HETATM   47  C1  UNL     1      15.051  12.330  -0.426  1.00  0.00     0.033 C 
ENDBRANCH  45  46
ENDBRANCH   1  45
TORSDOF 9
ENDMDL
MODEL 2
REMARK minimizedAffinity -7.11631155
REMARK CNNscore 0.396479338
REMARK CNNaffinity 6.37983894
REMARK  9 active torsions:
REMARK  status: ('A' for Active; 'I' for Inactive)
REMARK    1  A    between atoms: C2_2  and  O1_3 
REMARK    2  A    between atoms: O1_3  and  C3_4 
REMARK    3  A    between atoms: C14_15  and  O2_16 
REMARK    4  A    between atoms: O2_16  and  C15_17 
REMARK    5  A    between atoms: C21_24  and  O4_25 
REMARK    6  A    between atoms: O4_25  and  C22_26 
REMARK    7  A    between atoms: C24_29  and  O6_30 
REMARK    8  A    between atoms: C25_31  and  O7_32 
REMARK    9  A    between atoms: C26_33  and  O8_34 
ROOT
HETATM    1  C3  UNL     1     -16.035   7.264  13.472  1.00  0.00     0.260 C 
HETATM    2  C4  UNL     1     -16.325   7.294  14.981  1.00  0.00     0.065 C 
HETATM    3  C5  UNL     1     -16.209   5.892  15.591  1.00  0.00    -0.007 C 
HETATM    4  C6  UNL     1     -16.376   5.946  17.108  1.00  0.00     0.010 C 
HETATM    5  C7  UNL     1     -17.277   5.005  14.915  1.00  0.00     0.027 C 
HETATM    6  C8  UNL     1     -17.439   5.346  13.400  1.00  0.00     0.130 C 
HETATM    7  C9  UNL     1     -17.663   4.000  12.666  1.00  0.00     0.042 C 
HETATM    8  C10 UNL     1     -18.085   3.022  13.779  1.00  0.00    -0.029 C 
HETATM    9  C11 UNL     1     -19.591   3.343  14.090  1.00  0.00     0.016 C 
HETATM   10  C12 UNL     1     -18.032   1.483  13.496  1.00  0.00     0.006 C 
HETATM   11  C13 UNL     1     -17.274   1.042  12.238  1.00  0.00     0.039 C 
HETATM   12  C14 UNL     1     -17.357  -0.491  11.982  1.00  0.00     0.138 C 
HETATM   13  C17 UNL     1     -18.077  -1.312  13.102  1.00  0.00     0.035 C 
HETATM   14  C18 UNL     1     -18.048  -2.897  12.957  1.00  0.00    -0.015 C 
HETATM   15  C19 UNL     1     -17.633  -3.393  11.553  1.00  0.00     0.018 C 
HETATM   16  C20 UNL     1     -19.482  -3.459  13.164  1.00  0.00     0.018 C 
HETATM   17  C21 UNL     1     -17.089  -3.547  14.007  1.00  0.00     0.133 C 
HETATM   18  C27 UNL     1     -17.428  -3.156  15.458  1.00  0.00     0.034 C 
HETATM   19  C28 UNL     1     -18.085  -1.784  15.617  1.00  0.00     0.013 C 
HETATM   20  C29 UNL     1     -17.650  -0.851  14.522  1.00  0.00    -0.025 A 
HETATM   21  C30 UNL     1     -16.327  -0.169  14.744  1.00  0.00     0.021 A 
HETATM   22  C31 UNL     1     -17.593   0.673  14.735  1.00  0.00    -0.027 A 
HETATM   23  C32 UNL     1     -17.985   1.297  16.066  1.00  0.00     0.011 C 
HETATM   24  C33 UNL     1     -17.509   2.754  16.238  1.00  0.00     0.011 C 
HETATM   25  C34 UNL     1     -17.105   3.452  14.927  1.00  0.00    -0.030 C 
HETATM   26  C35 UNL     1     -15.613   3.127  14.632  1.00  0.00     0.016 C 
HETATM   27  O9  UNL     1     -16.278   5.982  12.885  1.00  0.00    -0.356 OA
ENDROOT
BRANCH  17  28
HETATM   28  O4  UNL     1     -15.739  -3.193  13.660  1.00  0.00    -0.353 OA
BRANCH  28  29
HETATM   29  C22 UNL     1     -14.960  -4.251  13.077  1.00  0.00     0.291 C 
HETATM   30  O5  UNL     1     -14.977  -5.451  13.847  1.00  0.00    -0.356 OA
HETATM   31  C23 UNL     1     -14.301  -5.318  15.101  1.00  0.00     0.205 C 
HETATM   32  C24 UNL     1     -12.824  -4.940  14.934  1.00  0.00     0.173 C 
HETATM   33  C25 UNL     1     -12.705  -3.642  14.138  1.00  0.00     0.182 C 
HETATM   34  C26 UNL     1     -13.512  -3.747  12.835  1.00  0.00     0.204 C 
BRANCH  32  35
HETATM   35  O6  UNL     1     -12.120  -5.982  14.253  1.00  0.00    -0.391 OA
HETATM   36  H39 UNL     1     -12.299  -6.814  14.723  1.00  0.00     0.210 HD
ENDBRANCH  32  35
BRANCH  33  37
HETATM   37  O7  UNL     1     -13.147  -2.542  14.941  1.00  0.00    -0.390 OA
HETATM   38  H41 UNL     1     -13.179  -1.772  14.339  1.00  0.00     0.210 HD
ENDBRANCH  33  37
BRANCH  34  39
HETATM   39  O8  UNL     1     -13.497  -2.472  12.171  1.00  0.00    -0.388 OA
HETATM   40  H43 UNL     1     -14.392  -2.100  12.295  1.00  0.00     0.210 HD
ENDBRANCH  34  39
ENDBRANCH  28  29
ENDBRANCH  17  28
BRANCH  12  41
HETATM   41  O2  UNL     1     -18.101  -0.664  10.746  1.00  0.00    -0.316 OA
BRANCH  41  42
HETATM   42  C15 UNL     1     -19.317  -0.051  10.685  1.00  0.00     0.255 C 
HETATM   43  C16 UNL     1     -20.411  -1.076  10.730  1.00  0.00     0.126 C 
HETATM   44  O3  UNL     1     -19.509   1.155  10.607  1.00  0.00    -0.266 OA
ENDBRANCH  41  42
ENDBRANCH  12  41
BRANCH   1  45
HETATM   45  O1  UNL     1     -16.812   8.285  12.846  1.00  0.00    -0.362 OA
BRANCH  45  46
HETATM   46  C2  UNL     1     -16.080   9.026  11.871  1.00  0.00     0.166 C 
HETATM   47  C1  UNL     1     -14.739   9.470  12.429  1.00  0.00     0.033 C 
ENDBRANCH  45  46
ENDBRANCH   1  45
TORSDOF 9
ENDMDL
MODEL 3
REMARK minimizedAffinity -6.19366693
REMARK CNNscore 0.368576765
REMARK CNNaffinity 6.46935272
REMARK  9 active torsions:
REMARK  status: ('A' for Active; 'I' for Inactive)
REMARK    1  A    between atoms: C2_2  and  O1_3 
REMARK    2  A    between atoms: O1_3  and  C3_4 
REMARK    3  A    between atoms: C14_15  and  O2_16 
REMARK    4  A    between atoms: O2_16  and  C15_17 
REMARK    5  A    between atoms: C21_24  and  O4_25 
REMARK    6  A    between atoms: O4_25  and  C22_26 
REMARK    7  A    between atoms: C24_29  and  O6_30 
REMARK    8  A    between atoms: C25_31  and  O7_32 
REMARK    9  A    between atoms: C26_33  and  O8_34 
ROOT
HETATM    1  C3  UNL     1      -5.494 -10.088   7.946  1.00  0.00     0.260 C 
HETATM    2  C4  UNL     1      -4.061  -9.665   7.582  1.00  0.00     0.065 C 
HETATM    3  C5  UNL     1      -3.952  -9.324   6.091  1.00  0.00    -0.007 C 
HETATM    4  C6  UNL     1      -2.561  -8.787   5.760  1.00  0.00     0.010 C 
HETATM    5  C7  UNL     1      -4.290 -10.604   5.298  1.00  0.00     0.027 C 
HETATM    6  C8  UNL     1      -5.432 -11.422   5.979  1.00  0.00     0.130 C 
HETATM    7  C9  UNL     1      -6.312 -11.988   4.836  1.00  0.00     0.042 C 
HETATM    8  C10 UNL     1      -5.423 -11.888   3.582  1.00  0.00    -0.029 C 
HETATM    9  C11 UNL     1      -4.407 -13.084   3.675  1.00  0.00     0.016 C 
HETATM   10  C12 UNL     1      -6.088 -12.009   2.170  1.00  0.00     0.006 C 
HETATM   11  C13 UNL     1      -7.618 -11.911   2.120  1.00  0.00     0.039 C 
HETATM   12  C14 UNL     1      -8.198 -12.140   0.694  1.00  0.00     0.138 C 
HETATM   13  C17 UNL     1      -7.129 -12.299  -0.437  1.00  0.00     0.035 C 
HETATM   14  C18 UNL     1      -7.677 -12.380  -1.930  1.00  0.00    -0.015 C 
HETATM   15  C19 UNL     1      -9.196 -12.655  -2.029  1.00  0.00     0.018 C 
HETATM   16  C20 UNL     1      -7.011 -13.581  -2.659  1.00  0.00     0.018 C 
HETATM   17  C21 UNL     1      -7.366 -11.068  -2.722  1.00  0.00     0.133 C 
HETATM   18  C27 UNL     1      -5.869 -10.705  -2.728  1.00  0.00     0.034 C 
HETATM   19  C28 UNL     1      -5.087 -11.185  -1.504  1.00  0.00     0.013 C 
HETATM   20  C29 UNL     1      -5.980 -11.266  -0.297  1.00  0.00    -0.025 A 
HETATM   21  C30 UNL     1      -6.196  -9.968   0.433  1.00  0.00     0.021 A 
HETATM   22  C31 UNL     1      -5.426 -11.080   1.129  1.00  0.00    -0.027 A 
HETATM   23  C32 UNL     1      -3.949 -10.813   1.371  1.00  0.00     0.011 C 
HETATM   24  C33 UNL     1      -3.633 -10.273   2.782  1.00  0.00     0.011 C 
HETATM   25  C34 UNL     1      -4.758 -10.486   3.812  1.00  0.00    -0.030 C 
HETATM   26  C35 UNL     1      -5.754  -9.295   3.710  1.00  0.00     0.016 C 
HETATM   27  O9  UNL     1      -6.222 -10.602   6.828  1.00  0.00    -0.356 OA
ENDROOT
BRANCH  17  28
HETATM   28  O4  UNL     1      -8.169 -10.010  -2.168  1.00  0.00    -0.353 OA
BRANCH  28  29
HETATM   29  C22 UNL     1      -9.115  -9.421  -3.076  1.00  0.00     0.291 C 
HETATM   30  O5  UNL     1      -8.516  -8.527  -4.010  1.00  0.00    -0.356 OA
HETATM   31  C23 UNL     1      -8.002  -7.341  -3.396  1.00  0.00     0.205 C 
HETATM   32  C24 UNL     1      -9.090  -6.537  -2.674  1.00  0.00     0.173 C 
HETATM   33  C25 UNL     1      -9.777  -7.411  -1.627  1.00  0.00     0.182 C 
HETATM   34  C26 UNL     1     -10.242  -8.729  -2.264  1.00  0.00     0.204 C 
BRANCH  32  35
HETATM   35  O6  UNL     1     -10.063  -6.065  -3.613  1.00  0.00    -0.391 OA
HETATM   36  H39 UNL     1      -9.585  -5.602  -4.322  1.00  0.00     0.210 HD
ENDBRANCH  32  35
BRANCH  33  37
HETATM   37  O7  UNL     1      -8.883  -7.644  -0.533  1.00  0.00    -0.390 OA
HETATM   38  H41 UNL     1      -9.322  -8.313   0.028  1.00  0.00     0.210 HD
ENDBRANCH  33  37
BRANCH  34  39
HETATM   39  O8  UNL     1     -10.760  -9.589  -1.235  1.00  0.00    -0.388 OA
HETATM   40  H43 UNL     1     -10.086 -10.284  -1.108  1.00  0.00     0.210 HD
ENDBRANCH  34  39
ENDBRANCH  28  29
ENDBRANCH  17  28
BRANCH  12  41
HETATM   41  O2  UNL     1      -8.975 -13.365   0.757  1.00  0.00    -0.316 OA
BRANCH  41  42
HETATM   42  C15 UNL     1     -10.176 -13.284   1.396  1.00  0.00     0.255 C 
HETATM   43  C16 UNL     1     -10.345 -14.451   2.324  1.00  0.00     0.126 C 
HETATM   44  O3  UNL     1     -11.007 -12.397   1.252  1.00  0.00    -0.266 OA
ENDBRANCH  41  42
ENDBRANCH  12  41
BRANCH   1  45
HETATM   45  O1  UNL     1      -5.425 -11.036   9.010  1.00  0.00    -0.362 OA
BRANCH  45  46
HETATM   46  C2  UNL     1      -5.049 -10.453  10.257  1.00  0.00     0.166 C 
HETATM   47  C1  UNL     1      -5.936 -10.965  11.378  1.00  0.00     0.033 C 
ENDBRANCH  45  46
ENDBRANCH   1  45
TORSDOF 9
ENDMDL
MODEL 4
REMARK minimizedAffinity -6.56851149
REMARK CNNscore 0.34070608
REMARK CNNaffinity 5.97922564
REMARK  9 active torsions:
REMARK  status: ('A' for Active; 'I' for Inactive)
REMARK    1  A    between atoms: C2_2  and  O1_3 
REMARK    2  A    between atoms: O1_3  and  C3_4 
REMARK    3  A    between atoms: C14_15  and  O2_16 
REMARK    4  A    between atoms: O2_16  and  C15_17 
REMARK    5  A    between atoms: C21_24  and  O4_25 
REMARK    6  A    between atoms: O4_25  and  C22_26 
REMARK    7  A    between atoms: C24_29  and  O6_30 
REMARK    8  A    between atoms: C25_31  and  O7_32 
REMARK    9  A    between atoms: C26_33  and  O8_34 
ROOT
HETATM    1  C3  UNL     1     -15.414   7.294  11.914  1.00  0.00     0.260 C 
HETATM    2  C4  UNL     1     -15.303   7.833  13.349  1.00  0.00     0.065 C 
HETATM    3  C5  UNL     1     -15.388   6.694  14.372  1.00  0.00    -0.007 C 
HETATM    4  C6  UNL     1     -15.153   7.219  15.787  1.00  0.00     0.010 C 
HETATM    5  C7  UNL     1     -16.775   6.034  14.214  1.00  0.00     0.027 C 
HETATM    6  C8  UNL     1     -17.218   5.971  12.718  1.00  0.00     0.130 C 
HETATM    7  C9  UNL     1     -17.942   4.615  12.529  1.00  0.00     0.042 C 
HETATM    8  C10 UNL     1     -18.302   4.169  13.959  1.00  0.00    -0.029 C 
HETATM    9  C11 UNL     1     -19.556   5.019  14.375  1.00  0.00     0.016 C 
HETATM   10  C12 UNL     1     -18.701   2.676  14.210  1.00  0.00     0.006 C 
HETATM   11  C13 UNL     1     -18.412   1.687  13.074  1.00  0.00     0.039 C 
HETATM   12  C14 UNL     1     -18.931   0.250  13.370  1.00  0.00     0.138 C 
HETATM   13  C17 UNL     1     -19.530   0.043  14.801  1.00  0.00     0.035 C 
HETATM   14  C18 UNL     1     -19.928  -1.446  15.199  1.00  0.00    -0.015 C 
HETATM   15  C19 UNL     1     -20.010  -2.418  13.999  1.00  0.00     0.018 C 
HETATM   16  C20 UNL     1     -21.359  -1.450  15.807  1.00  0.00     0.018 C 
HETATM   17  C21 UNL     1     -18.929  -2.042  16.243  1.00  0.00     0.133 C 
HETATM   18  C27 UNL     1     -18.789  -1.177  17.509  1.00  0.00     0.034 C 
HETATM   19  C28 UNL     1     -19.028   0.319  17.295  1.00  0.00     0.013 C 
HETATM   20  C29 UNL     1     -18.663   0.724  15.894  1.00  0.00    -0.025 A 
HETATM   21  C30 UNL     1     -17.201   0.992  15.661  1.00  0.00     0.021 A 
HETATM   22  C31 UNL     1     -18.182   2.150  15.566  1.00  0.00    -0.027 A 
HETATM   23  C32 UNL     1     -18.064   3.210  16.650  1.00  0.00     0.011 C 
HETATM   24  C33 UNL     1     -17.218   4.432  16.241  1.00  0.00     0.011 C 
HETATM   25  C34 UNL     1     -16.993   4.574  14.724  1.00  0.00    -0.030 C 
HETATM   26  C35 UNL     1     -15.748   3.730  14.327  1.00  0.00     0.016 C 
HETATM   27  O9  UNL     1     -16.102   6.043  11.842  1.00  0.00    -0.356 OA
ENDROOT
BRANCH  17  28
HETATM   28  O4  UNL     1     -17.663  -2.240  15.589  1.00  0.00    -0.353 OA
BRANCH  28  29
HETATM   29  C22 UNL     1     -16.750  -3.113  16.275  1.00  0.00     0.291 C 
HETATM   30  O5  UNL     1     -15.547  -2.463  16.677  1.00  0.00    -0.356 OA
HETATM   31  C23 UNL     1     -14.725  -2.077  15.571  1.00  0.00     0.205 C 
HETATM   32  C24 UNL     1     -14.297  -3.275  14.714  1.00  0.00     0.173 C 
HETATM   33  C25 UNL     1     -15.529  -4.024  14.212  1.00  0.00     0.182 C 
HETATM   34  C26 UNL     1     -16.462  -4.352  15.387  1.00  0.00     0.204 C 
BRANCH  32  35
HETATM   35  O6  UNL     1     -13.478  -4.164  15.479  1.00  0.00    -0.391 OA
HETATM   36  H39 UNL     1     -12.760  -3.639  15.872  1.00  0.00     0.210 HD
ENDBRANCH  32  35
BRANCH  33  37
HETATM   37  O7  UNL     1     -16.197  -3.240  13.216  1.00  0.00    -0.390 OA
HETATM   38  H41 UNL     1     -17.040  -3.702  13.039  1.00  0.00     0.210 HD
ENDBRANCH  33  37
BRANCH  34  39
HETATM   39  O8  UNL     1     -17.673  -4.933  14.875  1.00  0.00    -0.388 OA
HETATM   40  H43 UNL     1     -18.357  -4.242  14.970  1.00  0.00     0.210 HD
ENDBRANCH  34  39
ENDBRANCH  28  29
ENDBRANCH  17  28
BRANCH  12  41
HETATM   41  O2  UNL     1     -19.977  -0.019  12.399  1.00  0.00    -0.316 OA
BRANCH  41  42
HETATM   42  C15 UNL     1     -19.585  -0.091  11.095  1.00  0.00     0.255 C 
HETATM   43  C16 UNL     1     -20.513   0.713  10.234  1.00  0.00     0.126 C 
HETATM   44  O3  UNL     1     -18.620  -0.712  10.670  1.00  0.00    -0.266 OA
ENDBRANCH  41  42
ENDBRANCH  12  41
BRANCH   1  45
HETATM   45  O1  UNL     1     -16.045   8.289  11.109  1.00  0.00    -0.362 OA
BRANCH  45  46
HETATM   46  C2  UNL     1     -16.298   9.502  11.814  1.00  0.00     0.166 C 
HETATM   47  C1  UNL     1     -17.694  10.019  11.512  1.00  0.00     0.033 C 
ENDBRANCH  45  46
ENDBRANCH   1  45
TORSDOF 9
ENDMDL
MODEL 5
REMARK minimizedAffinity -6.34571457
REMARK CNNscore 0.326300442
REMARK CNNaffinity 6.17830706
REMARK  9 active torsions:
REMARK  status: ('A' for Active; 'I' for Inactive)
REMARK    1  A    between atoms: C2_2  and  O1_3 
REMARK    2  A    between atoms: O1_3  and  C3_4 
REMARK    3  A    between atoms: C14_15  and  O2_16 
REMARK    4  A    between atoms: O2_16  and  C15_17 
REMARK    5  A    between atoms: C21_24  and  O4_25 
REMARK    6  A    between atoms: O4_25  and  C22_26 
REMARK    7  A    between atoms: C24_29  and  O6_30 
REMARK    8  A    between atoms: C25_31  and  O7_32 
REMARK    9  A    between atoms: C26_33  and  O8_34 
ROOT
HETATM    1  C3  UNL     1     -14.554   2.468  24.821  1.00  0.00     0.260 C 
HETATM    2  C4  UNL     1     -16.048   2.637  24.499  1.00  0.00     0.065 C 
HETATM    3  C5  UNL     1     -16.258   3.687  23.402  1.00  0.00    -0.007 C 
HETATM    4  C6  UNL     1     -17.730   3.760  22.999  1.00  0.00     0.010 C 
HETATM    5  C7  UNL     1     -15.730   5.033  23.943  1.00  0.00     0.027 C 
HETATM    6  C8  UNL     1     -14.446   4.843  24.811  1.00  0.00     0.130 C 
HETATM    7  C9  UNL     1     -13.517   6.041  24.491  1.00  0.00     0.042 C 
HETATM    8  C10 UNL     1     -14.446   7.086  23.846  1.00  0.00    -0.029 C 
HETATM    9  C11 UNL     1     -15.241   7.749  25.029  1.00  0.00     0.016 C 
HETATM   10  C12 UNL     1     -13.813   8.274  23.046  1.00  0.00     0.006 C 
HETATM   11  C13 UNL     1     -12.324   8.151  22.698  1.00  0.00     0.039 C 
HETATM   12  C14 UNL     1     -11.756   9.416  21.993  1.00  0.00     0.138 C 
HETATM   13  C17 UNL     1     -12.815  10.518  21.654  1.00  0.00     0.035 C 
HETATM   14  C18 UNL     1     -12.305  11.757  20.796  1.00  0.00    -0.015 C 
HETATM   15  C19 UNL     1     -10.766  11.884  20.725  1.00  0.00     0.018 C 
HETATM   16  C20 UNL     1     -12.778  13.077  21.467  1.00  0.00     0.018 C 
HETATM   17  C21 UNL     1     -12.858  11.703  19.334  1.00  0.00     0.133 C 
HETATM   18  C27 UNL     1     -14.395  11.613  19.272  1.00  0.00     0.034 C 
HETATM   19  C28 UNL     1     -15.047  10.924  20.471  1.00  0.00     0.013 C 
HETATM   20  C29 UNL     1     -14.119   9.907  21.075  1.00  0.00    -0.025 A 
HETATM   21  C30 UNL     1     -14.105   8.565  20.396  1.00  0.00     0.021 A 
HETATM   22  C31 UNL     1     -14.653   8.664  21.811  1.00  0.00    -0.027 A 
HETATM   23  C32 UNL     1     -16.147   8.420  21.963  1.00  0.00     0.011 C 
HETATM   24  C33 UNL     1     -16.508   6.976  22.365  1.00  0.00     0.011 C 
HETATM   25  C34 UNL     1     -15.333   6.162  22.939  1.00  0.00    -0.030 C 
HETATM   26  C35 UNL     1     -14.558   5.511  21.759  1.00  0.00     0.016 C 
HETATM   27  O9  UNL     1     -13.782   3.627  24.497  1.00  0.00    -0.356 OA
ENDROOT
BRANCH  17  28
HETATM   28  O4  UNL     1     -12.231  10.598  18.659  1.00  0.00    -0.353 OA
BRANCH  28  29
HETATM   29  C22 UNL     1     -11.238  10.960  17.685  1.00  0.00     0.291 C 
HETATM   30  O5  UNL     1     -11.682  11.964  16.776  1.00  0.00    -0.356 OA
HETATM   31  C23 UNL     1     -12.719  11.505  15.902  1.00  0.00     0.205 C 
HETATM   32  C24 UNL     1     -12.276  10.316  15.041  1.00  0.00     0.173 C 
HETATM   33  C25 UNL     1     -11.804   9.172  15.936  1.00  0.00     0.182 C 
HETATM   34  C26 UNL     1     -10.762   9.684  16.941  1.00  0.00     0.204 C 
BRANCH  32  35
HETATM   35  O6  UNL     1     -11.213  10.706  14.167  1.00  0.00    -0.391 OA
HETATM   36  H39 UNL     1     -11.505  11.500  13.686  1.00  0.00     0.210 HD
ENDBRANCH  32  35
BRANCH  33  37
HETATM   37  O7  UNL     1     -12.928   8.584  16.600  1.00  0.00    -0.390 OA
HETATM   38  H41 UNL     1     -12.552   7.962  17.253  1.00  0.00     0.210 HD
ENDBRANCH  33  37
BRANCH  34  39
HETATM   39  O8  UNL     1     -10.435   8.626  17.857  1.00  0.00    -0.388 OA
HETATM   40  H43 UNL     1     -10.865   8.865  18.701  1.00  0.00     0.210 HD
ENDBRANCH  34  39
ENDBRANCH  28  29
ENDBRANCH  17  28
BRANCH  12  41
HETATM   41  O2  UNL     1     -10.780   9.992  22.901  1.00  0.00    -0.316 OA
BRANCH  41  42
HETATM   42  C15 UNL     1     -11.234  10.322  24.143  1.00  0.00     0.255 C 
HETATM   43  C16 UNL     1     -11.056   9.163  25.079  1.00  0.00     0.126 C 
HETATM   44  O3  UNL     1     -11.717  11.398  24.468  1.00  0.00    -0.266 OA
ENDBRANCH  41  42
ENDBRANCH  12  41
BRANCH   1  45
HETATM   45  O1  UNL     1     -14.429   2.122  26.201  1.00  0.00    -0.362 OA
BRANCH  45  46
HETATM   46  C2  UNL     1     -13.083   1.864  26.594  1.00  0.00     0.166 C 
HETATM   47  C1  UNL     1     -12.919   2.039  28.093  1.00  0.00     0.033 C 
ENDBRANCH  45  46
ENDBRANCH   1  45
TORSDOF 9
ENDMDL
MODEL 6
REMARK minimizedAffinity -6.15422916
REMARK CNNscore 0.296326339
REMARK CNNaffinity 5.78157806
REMARK  9 active torsions:
REMARK  status: ('A' for Active; 'I' for Inactive)
REMARK    1  A    between atoms: C2_2  and  O1_3 
REMARK    2  A    between atoms: O1_3  and  C3_4 
REMARK    3  A    between atoms: C14_15  and  O2_16 
REMARK    4  A    between atoms: O2_16  and  C15_17 
REMARK    5  A    between atoms: C21_24  and  O4_25 
REMARK    6  A    between atoms: O4_25  and  C22_26 
REMARK    7  A    between atoms: C24_29  and  O6_30 
REMARK    8  A    between atoms: C25_31  and  O7_32 
REMARK    9  A    between atoms: C26_33  and  O8_34 
ROOT
HETATM    1  C3  UNL     1       1.367  10.874  20.175  1.00  0.00     0.260 C 
HETATM    2  C4  UNL     1       2.017   9.807  21.070  1.00  0.00     0.065 C 
HETATM    3  C5  UNL     1       2.941  10.451  22.110  1.00  0.00    -0.007 C 
HETATM    4  C6  UNL     1       3.486   9.399  23.074  1.00  0.00     0.010 C 
HETATM    5  C7  UNL     1       4.063  11.181  21.342  1.00  0.00     0.027 C 
HETATM    6  C8  UNL     1       3.530  11.850  20.035  1.00  0.00     0.130 C 
HETATM    7  C9  UNL     1       4.274  13.202  19.897  1.00  0.00     0.042 C 
HETATM    8  C10 UNL     1       5.501  13.061  20.818  1.00  0.00    -0.029 C 
HETATM    9  C11 UNL     1       6.533  12.173  20.033  1.00  0.00     0.016 C 
HETATM   10  C12 UNL     1       6.286  14.349  21.238  1.00  0.00     0.006 C 
HETATM   11  C13 UNL     1       5.603  15.693  20.954  1.00  0.00     0.039 C 
HETATM   12  C14 UNL     1       6.494  16.917  21.311  1.00  0.00     0.138 C 
HETATM   13  C17 UNL     1       7.854  16.568  22.002  1.00  0.00     0.035 C 
HETATM   14  C18 UNL     1       8.725  17.794  22.524  1.00  0.00    -0.015 C 
HETATM   15  C19 UNL     1       8.287  19.164  21.956  1.00  0.00     0.018 C 
HETATM   16  C20 UNL     1      10.194  17.622  22.046  1.00  0.00     0.018 C 
HETATM   17  C21 UNL     1       8.705  17.884  24.085  1.00  0.00     0.133 C 
HETATM   18  C27 UNL     1       9.160  16.582  24.771  1.00  0.00     0.034 C 
HETATM   19  C28 UNL     1       8.890  15.306  23.973  1.00  0.00     0.013 C 
HETATM   20  C29 UNL     1       7.685  15.472  23.089  1.00  0.00    -0.025 A 
HETATM   21  C30 UNL     1       6.358  15.253  23.761  1.00  0.00     0.021 A 
HETATM   22  C31 UNL     1       6.806  14.272  22.690  1.00  0.00    -0.027 A 
HETATM   23  C32 UNL     1       7.128  12.866  23.170  1.00  0.00     0.011 C 
HETATM   24  C33 UNL     1       5.963  11.868  23.013  1.00  0.00     0.011 C 
HETATM   25  C34 UNL     1       4.855  12.328  22.047  1.00  0.00    -0.030 C 
HETATM   26  C35 UNL     1       3.841  13.204  22.837  1.00  0.00     0.016 C 
HETATM   27  O9  UNL     1       2.130  12.081  20.105  1.00  0.00    -0.356 OA
ENDROOT
BRANCH  17  28
HETATM   28  O4  UNL     1       7.380  18.267  24.493  1.00  0.00    -0.353 OA
BRANCH  28  29
HETATM   29  C22 UNL     1       7.305  19.472  25.273  1.00  0.00     0.291 C 
HETATM   30  O5  UNL     1       8.129  19.442  26.435  1.00  0.00    -0.356 OA
HETATM   31  C23 UNL     1       7.680  18.497  27.412  1.00  0.00     0.205 C 
HETATM   32  C24 UNL     1       6.259  18.793  27.905  1.00  0.00     0.173 C 
HETATM   33  C25 UNL     1       5.292  18.820  26.723  1.00  0.00     0.182 C 
HETATM   34  C26 UNL     1       5.822  19.760  25.629  1.00  0.00     0.204 C 
BRANCH  32  35
HETATM   35  O6  UNL     1       6.221  20.055  28.579  1.00  0.00    -0.391 OA
HETATM   36  H39 UNL     1       6.918  20.046  29.257  1.00  0.00     0.210 HD
ENDBRANCH  32  35
BRANCH  33  37
HETATM   37  O7  UNL     1       5.103  17.491  26.224  1.00  0.00    -0.390 OA
HETATM   38  H41 UNL     1       4.594  17.590  25.396  1.00  0.00     0.210 HD
ENDBRANCH  33  37
BRANCH  34  39
HETATM   39  O8  UNL     1       4.970  19.664  24.476  1.00  0.00    -0.388 OA
HETATM   40  H43 UNL     1       5.480  19.160  23.812  1.00  0.00     0.210 HD
ENDBRANCH  34  39
ENDBRANCH  28  29
ENDBRANCH  17  28
BRANCH  12  41
HETATM   41  O2  UNL     1       6.785  17.595  20.059  1.00  0.00    -0.316 OA
BRANCH  41  42
HETATM   42  C15 UNL     1       7.271  16.816  19.052  1.00  0.00     0.255 C 
HETATM   43  C16 UNL     1       8.714  17.142  18.802  1.00  0.00     0.126 C 
HETATM   44  O3  UNL     1       6.642  15.969  18.433  1.00  0.00    -0.266 OA
ENDBRANCH  41  42
ENDBRANCH  12  41
BRANCH   1  45
HETATM   45  O1  UNL     1       1.158  10.308  18.881  1.00  0.00    -0.362 OA
BRANCH  45  46
HETATM   46  C2  UNL     1       0.126  10.960  18.144  1.00  0.00     0.166 C 
HETATM   47  C1  UNL     1      -1.146  11.054  18.969  1.00  0.00     0.033 C 
ENDBRANCH  45  46
ENDBRANCH   1  45
TORSDOF 9
ENDMDL
MODEL 7
REMARK minimizedAffinity -6.09731483
REMARK CNNscore 0.287706941
REMARK CNNaffinity 6.01291418
REMARK  9 active torsions:
REMARK  status: ('A' for Active; 'I' for Inactive)
REMARK    1  A    between atoms: C2_2  and  O1_3 
REMARK    2  A    between atoms: O1_3  and  C3_4 
REMARK    3  A    between atoms: C14_15  and  O2_16 
REMARK    4  A    between atoms: O2_16  and  C15_17 
REMARK    5  A    between atoms: C21_24  and  O4_25 
REMARK    6  A    between atoms: O4_25  and  C22_26 
REMARK    7  A    between atoms: C24_29  and  O6_30 
REMARK    8  A    between atoms: C25_31  and  O7_32 
REMARK    9  A    between atoms: C26_33  and  O8_34 
ROOT
HETATM    1  C3  UNL     1     -13.692   3.510  24.387  1.00  0.00     0.260 C 
HETATM    2  C4  UNL     1     -15.214   3.488  24.173  1.00  0.00     0.065 C 
HETATM    3  C5  UNL     1     -15.603   4.267  22.912  1.00  0.00    -0.007 C 
HETATM    4  C6  UNL     1     -17.100   4.138  22.636  1.00  0.00     0.010 C 
HETATM    5  C7  UNL     1     -15.170   5.734  23.124  1.00  0.00     0.027 C 
HETATM    6  C8  UNL     1     -13.815   5.832  23.893  1.00  0.00     0.130 C 
HETATM    7  C9  UNL     1     -13.031   7.008  23.257  1.00  0.00     0.042 C 
HETATM    8  C10 UNL     1     -14.102   7.819  22.503  1.00  0.00    -0.029 C 
HETATM    9  C11 UNL     1     -14.869   8.646  23.596  1.00  0.00     0.016 C 
HETATM   10  C12 UNL     1     -13.645   8.862  21.428  1.00  0.00     0.006 C 
HETATM   11  C13 UNL     1     -12.180   8.789  20.979  1.00  0.00     0.039 C 
HETATM   12  C14 UNL     1     -11.789   9.923  19.987  1.00  0.00     0.138 C 
HETATM   13  C17 UNL     1     -12.971  10.841  19.532  1.00  0.00     0.035 C 
HETATM   14  C18 UNL     1     -12.646  11.913  18.401  1.00  0.00    -0.015 C 
HETATM   15  C19 UNL     1     -11.135  12.146  18.168  1.00  0.00     0.018 C 
HETATM   16  C20 UNL     1     -13.195  13.301  18.834  1.00  0.00     0.018 C 
HETATM   17  C21 UNL     1     -13.295  11.513  17.035  1.00  0.00     0.133 C 
HETATM   18  C27 UNL     1     -14.816  11.290  17.130  1.00  0.00     0.034 C 
HETATM   19  C28 UNL     1     -15.311  10.814  18.497  1.00  0.00     0.013 C 
HETATM   20  C29 UNL     1     -14.248  10.022  19.206  1.00  0.00    -0.025 A 
HETATM   21  C30 UNL     1     -14.153   8.573  18.811  1.00  0.00     0.021 A 
HETATM   22  C31 UNL     1     -14.605   8.919  20.220  1.00  0.00    -0.027 A 
HETATM   23  C32 UNL     1     -16.053   8.594  20.551  1.00  0.00     0.011 C 
HETATM   24  C33 UNL     1     -16.243   7.240  21.266  1.00  0.00     0.011 C 
HETATM   25  C34 UNL     1     -14.958   6.659  21.883  1.00  0.00    -0.030 C 
HETATM   26  C35 UNL     1     -14.209   5.841  20.791  1.00  0.00     0.016 C 
HETATM   27  O9  UNL     1     -13.061   4.635  23.770  1.00  0.00    -0.356 OA
ENDROOT
BRANCH  17  28
HETATM   28  O4  UNL     1     -12.614  10.346  16.541  1.00  0.00    -0.353 OA
BRANCH  28  29
HETATM   29  C22 UNL     1     -12.677  10.158  15.117  1.00  0.00     0.291 C 
HETATM   30  O5  UNL     1     -13.634   9.178  14.722  1.00  0.00    -0.356 OA
HETATM   31  C23 UNL     1     -13.274   7.853  15.124  1.00  0.00     0.205 C 
HETATM   32  C24 UNL     1     -11.934   7.404  14.528  1.00  0.00     0.173 C 
HETATM   33  C25 UNL     1     -10.833   8.386  14.923  1.00  0.00     0.182 C 
HETATM   34  C26 UNL     1     -11.259   9.822  14.582  1.00  0.00     0.204 C 
BRANCH  32  35
HETATM   35  O6  UNL     1     -12.024   7.337  13.102  1.00  0.00    -0.391 OA
HETATM   36  H39 UNL     1     -12.797   6.790  12.881  1.00  0.00     0.210 HD
ENDBRANCH  32  35
BRANCH  33  37
HETATM   37  O7  UNL     1     -10.537   8.244  16.317  1.00  0.00    -0.390 OA
HETATM   38  H41 UNL     1      -9.936   8.982  16.535  1.00  0.00     0.210 HD
ENDBRANCH  33  37
BRANCH  34  39
HETATM   39  O8  UNL     1     -10.271  10.736  15.085  1.00  0.00    -0.388 OA
HETATM   40  H43 UNL     1     -10.678  11.163  15.863  1.00  0.00     0.210 HD
ENDBRANCH  34  39
ENDBRANCH  28  29
ENDBRANCH  17  28
BRANCH  12  41
HETATM   41  O2  UNL     1     -10.810  10.750  20.670  1.00  0.00    -0.316 OA
BRANCH  41  42
HETATM   42  C15 UNL     1     -11.209  11.303  21.851  1.00  0.00     0.255 C 
HETATM   43  C16 UNL     1     -10.446  10.692  22.988  1.00  0.00     0.126 C 
HETATM   44  O3  UNL     1     -12.059  12.173  21.984  1.00  0.00    -0.266 OA
ENDBRANCH  41  42
ENDBRANCH  12  41
BRANCH   1  45
HETATM   45  O1  UNL     1     -13.436   3.468  25.791  1.00  0.00    -0.362 OA
BRANCH  45  46
HETATM   46  C2  UNL     1     -12.889   2.223  26.223  1.00  0.00     0.166 C 
HETATM   47  C1  UNL     1     -11.861   1.714  25.228  1.00  0.00     0.033 C 
ENDBRANCH  45  46
ENDBRANCH   1  45
TORSDOF 9
ENDMDL
MODEL 8
REMARK minimizedAffinity -6.57915401
REMARK CNNscore 0.263101906
REMARK CNNaffinity 6.20129395
REMARK  9 active torsions:
REMARK  status: ('A' for Active; 'I' for Inactive)
REMARK    1  A    between atoms: C2_2  and  O1_3 
REMARK    2  A    between atoms: O1_3  and  C3_4 
REMARK    3  A    between atoms: C14_15  and  O2_16 
REMARK    4  A    between atoms: O2_16  and  C15_17 
REMARK    5  A    between atoms: C21_24  and  O4_25 
REMARK    6  A    between atoms: O4_25  and  C22_26 
REMARK    7  A    between atoms: C24_29  and  O6_30 
REMARK    8  A    between atoms: C25_31  and  O7_32 
REMARK    9  A    between atoms: C26_33  and  O8_34 
ROOT
HETATM    1  C3  UNL     1      -2.788   5.440  12.391  1.00  0.00     0.260 C 
HETATM    2  C4  UNL     1      -4.217   5.810  12.822  1.00  0.00     0.065 C 
HETATM    3  C5  UNL     1      -4.312   7.294  13.192  1.00  0.00    -0.007 C 
HETATM    4  C6  UNL     1      -5.757   7.683  13.499  1.00  0.00     0.010 C 
HETATM    5  C7  UNL     1      -3.372   7.532  14.393  1.00  0.00     0.027 C 
HETATM    6  C8  UNL     1      -2.064   6.688  14.281  1.00  0.00     0.130 C 
HETATM    7  C9  UNL     1      -0.915   7.582  14.811  1.00  0.00     0.042 C 
HETATM    8  C10 UNL     1      -1.627   8.681  15.621  1.00  0.00    -0.029 C 
HETATM    9  C11 UNL     1      -2.026   8.022  16.990  1.00  0.00     0.016 C 
HETATM   10  C12 UNL     1      -0.836   9.981  15.994  1.00  0.00     0.006 C 
HETATM   11  C13 UNL     1       0.495  10.207  15.267  1.00  0.00     0.039 C 
HETATM   12  C14 UNL     1       1.258  11.466  15.770  1.00  0.00     0.138 C 
HETATM   13  C17 UNL     1       0.486  12.334  16.818  1.00  0.00     0.035 C 
HETATM   14  C18 UNL     1       1.163  13.711  17.241  1.00  0.00    -0.015 C 
HETATM   15  C19 UNL     1       2.651  13.831  16.841  1.00  0.00     0.018 C 
HETATM   16  C20 UNL     1       1.162  13.830  18.792  1.00  0.00     0.018 C 
HETATM   17  C21 UNL     1       0.395  14.932  16.638  1.00  0.00     0.133 C 
HETATM   18  C27 UNL     1      -1.102  14.945  17.002  1.00  0.00     0.034 C 
HETATM   19  C28 UNL     1      -1.718  13.565  17.239  1.00  0.00     0.013 C 
HETATM   20  C29 UNL     1      -1.006  12.516  16.431  1.00  0.00    -0.025 A 
HETATM   21  C30 UNL     1      -1.450  12.394  14.999  1.00  0.00     0.021 A 
HETATM   22  C31 UNL     1      -1.727  11.242  15.951  1.00  0.00    -0.027 A 
HETATM   23  C32 UNL     1      -3.189  10.992  16.284  1.00  0.00     0.011 C 
HETATM   24  C33 UNL     1      -3.849   9.896  15.422  1.00  0.00     0.011 C 
HETATM   25  C34 UNL     1      -2.855   8.976  14.689  1.00  0.00    -0.030 C 
HETATM   26  C35 UNL     1      -2.470   9.640  13.336  1.00  0.00     0.016 C 
HETATM   27  O9  UNL     1      -1.799   6.318  12.935  1.00  0.00    -0.356 OA
ENDROOT
BRANCH  17  28
HETATM   28  O4  UNL     1       0.598  14.929  15.214  1.00  0.00    -0.353 OA
BRANCH  28  29
HETATM   29  C22 UNL     1       0.422  16.201  14.567  1.00  0.00     0.291 C 
HETATM   30  O5  UNL     1      -0.732  16.251  13.731  1.00  0.00    -0.356 OA
HETATM   31  C23 UNL     1      -0.622  15.410  12.579  1.00  0.00     0.205 C 
HETATM   32  C24 UNL     1       0.567  15.788  11.688  1.00  0.00     0.173 C 
HETATM   33  C25 UNL     1       1.862  15.736  12.496  1.00  0.00     0.182 C 
HETATM   34  C26 UNL     1       1.713  16.560  13.784  1.00  0.00     0.204 C 
BRANCH  32  35
HETATM   35  O6  UNL     1       0.390  17.105  11.158  1.00  0.00    -0.391 OA
HETATM   36  H39 UNL     1      -0.488  17.138  10.740  1.00  0.00     0.210 HD
ENDBRANCH  32  35
BRANCH  33  37
HETATM   37  O7  UNL     1       2.197  14.373  12.782  1.00  0.00    -0.390 OA
HETATM   38  H41 UNL     1       2.945  14.412  13.410  1.00  0.00     0.210 HD
ENDBRANCH  33  37
BRANCH  34  39
HETATM   39  O8  UNL     1       2.889  16.385  14.591  1.00  0.00    -0.388 OA
HETATM   40  H43 UNL     1       2.618  15.810  15.332  1.00  0.00     0.210 HD
ENDBRANCH  34  39
ENDBRANCH  28  29
ENDBRANCH  17  28
BRANCH  12  41
HETATM   41  O2  UNL     1       2.480  10.987  16.392  1.00  0.00    -0.316 OA
BRANCH  41  42
HETATM   42  C15 UNL     1       2.340   9.974  17.293  1.00  0.00     0.255 C 
HETATM   43  C16 UNL     1       2.284  10.528  18.686  1.00  0.00     0.126 C 
HETATM   44  O3  UNL     1       2.265   8.782  17.026  1.00  0.00    -0.266 OA
ENDBRANCH  41  42
ENDBRANCH  12  41
BRANCH   1  45
HETATM   45  O1  UNL     1      -2.546   4.082  12.759  1.00  0.00    -0.362 OA
BRANCH  45  46
HETATM   46  C2  UNL     1      -3.658   3.226  12.503  1.00  0.00     0.166 C 
HETATM   47  C1  UNL     1      -3.217   1.984  11.750  1.00  0.00     0.033 C 
ENDBRANCH  45  46
ENDBRANCH   1  45
TORSDOF 9
ENDMDL
MODEL 9
REMARK minimizedAffinity -6.20000982
REMARK CNNscore 0.246635735
REMARK CNNaffinity 5.52559328
REMARK  9 active torsions:
REMARK  status: ('A' for Active; 'I' for Inactive)
REMARK    1  A    between atoms: C2_2  and  O1_3 
REMARK    2  A    between atoms: O1_3  and  C3_4 
REMARK    3  A    between atoms: C14_15  and  O2_16 
REMARK    4  A    between atoms: O2_16  and  C15_17 
REMARK    5  A    between atoms: C21_24  and  O4_25 
REMARK    6  A    between atoms: O4_25  and  C22_26 
REMARK    7  A    between atoms: C24_29  and  O6_30 
REMARK    8  A    between atoms: C25_31  and  O7_32 
REMARK    9  A    between atoms: C26_33  and  O8_34 
ROOT
HETATM    1  C3  UNL     1     -11.903  -3.999  -5.396  1.00  0.00     0.260 C 
HETATM    2  C4  UNL     1     -11.764  -4.067  -6.926  1.00  0.00     0.065 C 
HETATM    3  C5  UNL     1     -12.847  -3.228  -7.614  1.00  0.00    -0.007 C 
HETATM    4  C6  UNL     1     -12.629  -3.199  -9.126  1.00  0.00     0.010 C 
HETATM    5  C7  UNL     1     -14.214  -3.833  -7.230  1.00  0.00     0.027 C 
HETATM    6  C8  UNL     1     -14.230  -4.334  -5.751  1.00  0.00     0.130 C 
HETATM    7  C9  UNL     1     -15.632  -3.995  -5.186  1.00  0.00     0.042 C 
HETATM    8  C10 UNL     1     -16.502  -3.758  -6.434  1.00  0.00    -0.029 C 
HETATM    9  C11 UNL     1     -16.845  -5.183  -7.001  1.00  0.00     0.016 C 
HETATM   10  C12 UNL     1     -17.878  -3.027  -6.272  1.00  0.00     0.006 C 
HETATM   11  C13 UNL     1     -18.128  -2.324  -4.932  1.00  0.00     0.039 C 
HETATM   12  C14 UNL     1     -19.554  -1.711  -4.823  1.00  0.00     0.138 C 
HETATM   13  C17 UNL     1     -20.419  -1.807  -6.124  1.00  0.00     0.035 C 
HETATM   14  C18 UNL     1     -21.822  -1.057  -6.105  1.00  0.00    -0.015 C 
HETATM   15  C19 UNL     1     -22.298  -0.647  -4.692  1.00  0.00     0.018 C 
HETATM   16  C20 UNL     1     -22.927  -2.018  -6.628  1.00  0.00     0.018 C 
HETATM   17  C21 UNL     1     -21.796   0.224  -7.002  1.00  0.00     0.133 C 
HETATM   18  C27 UNL     1     -21.370  -0.064  -8.454  1.00  0.00     0.034 C 
HETATM   19  C28 UNL     1     -20.433  -1.261  -8.624  1.00  0.00     0.013 C 
HETATM   20  C29 UNL     1     -19.594  -1.462  -7.393  1.00  0.00    -0.025 A 
HETATM   21  C30 UNL     1     -18.365  -0.599  -7.301  1.00  0.00     0.021 A 
HETATM   22  C31 UNL     1     -18.194  -2.100  -7.467  1.00  0.00    -0.027 A 
HETATM   23  C32 UNL     1     -17.607  -2.559  -8.793  1.00  0.00     0.011 C 
HETATM   24  C33 UNL     1     -16.085  -2.805  -8.752  1.00  0.00     0.011 C 
HETATM   25  C34 UNL     1     -15.500  -2.953  -7.335  1.00  0.00    -0.030 C 
HETATM   26  C35 UNL     1     -15.165  -1.536  -6.787  1.00  0.00     0.016 C 
HETATM   27  O9  UNL     1     -13.233  -3.687  -4.973  1.00  0.00    -0.356 OA
ENDROOT
BRANCH  17  28
HETATM   28  O4  UNL     1     -20.935   1.191  -6.375  1.00  0.00    -0.353 OA
BRANCH  28  29
HETATM   29  C22 UNL     1     -21.297   2.565  -6.593  1.00  0.00     0.291 C 
HETATM   30  O5  UNL     1     -20.614   3.158  -7.695  1.00  0.00    -0.356 OA
HETATM   31  C23 UNL     1     -19.211   3.314  -7.462  1.00  0.00     0.205 C 
HETATM   32  C24 UNL     1     -18.914   4.203  -6.248  1.00  0.00     0.173 C 
HETATM   33  C25 UNL     1     -19.588   3.628  -5.004  1.00  0.00     0.182 C 
HETATM   34  C26 UNL     1     -21.076   3.367  -5.283  1.00  0.00     0.204 C 
BRANCH  32  35
HETATM   35  O6  UNL     1     -19.392   5.532  -6.478  1.00  0.00    -0.391 OA
HETATM   36  H39 UNL     1     -19.029   5.831  -7.328  1.00  0.00     0.210 HD
ENDBRANCH  32  35
BRANCH  33  37
HETATM   37  O7  UNL     1     -18.913   2.432  -4.599  1.00  0.00    -0.390 OA
HETATM   38  H41 UNL     1     -19.467   2.042  -3.894  1.00  0.00     0.210 HD
ENDBRANCH  33  37
BRANCH  34  39
HETATM   39  O8  UNL     1     -21.656   2.703  -4.148  1.00  0.00    -0.388 OA
HETATM   40  H43 UNL     1     -21.792   1.776  -4.427  1.00  0.00     0.210 HD
ENDBRANCH  34  39
ENDBRANCH  28  29
ENDBRANCH  17  28
BRANCH  12  41
HETATM   41  O2  UNL     1     -20.238  -2.442  -3.771  1.00  0.00    -0.316 OA
BRANCH  41  42
HETATM   42  C15 UNL     1     -20.768  -3.648  -4.123  1.00  0.00     0.255 C 
HETATM   43  C16 UNL     1     -21.892  -4.005  -3.196  1.00  0.00     0.126 C 
HETATM   44  O3  UNL     1     -20.398  -4.350  -5.054  1.00  0.00    -0.266 OA
ENDBRANCH  41  42
ENDBRANCH  12  41
BRANCH   1  45
HETATM   45  O1  UNL     1     -11.454  -5.239  -4.850  1.00  0.00    -0.362 OA
BRANCH  45  46
HETATM   46  C2  UNL     1     -10.091  -5.525  -5.157  1.00  0.00     0.166 C 
HETATM   47  C1  UNL     1      -9.321  -5.883  -3.898  1.00  0.00     0.033 C 
ENDBRANCH  45  46
ENDBRANCH   1  45
TORSDOF 9
ENDMDL
