MODEL 1
REMARK minimizedAffinity -10.0945311
REMARK  12 active torsions:
REMARK  status: ('A' for Active; 'I' for Inactive)
REMARK    1  A    between atoms: C2_2  and  C3_3 
REMARK    2  A    between atoms: C2_2  and  C26_31 
REMARK    3  A    between atoms: C3_3  and  C4_4 
REMARK    4  A    between atoms: C4_4  and  C5_5 
REMARK    5  A    between atoms: C5_5  and  C7_7 
REMARK    6  A    between atoms: C8_8  and  O1_9 
REMARK    7  A    between atoms: C9_10  and  O2_11 
REMARK    8  A    between atoms: C20_22  and  O3_23 
REMARK    9  A    between atoms: C23_26  and  O4_27 
REMARK   10  A    between atoms: C25_29  and  O5_30 
REMARK   11  A    between atoms: C26_31  and  C28_33 
REMARK   12  A    between atoms: C28_33  and  O6_34 
ROOT
HETATM    1  C7  UNL     1      -2.166   7.438  12.749  1.00  0.00     0.029 C 
HETATM    2  C8  UNL     1      -2.068   5.891  12.527  1.00  0.00     0.152 C 
HETATM    3  C9  UNL     1      -3.299   5.254  13.218  1.00  0.00     0.155 C 
HETATM    4  C10 UNL     1      -4.194   6.447  13.535  1.00  0.00     0.060 C 
HETATM    5  C11 UNL     1      -3.157   7.553  13.960  1.00  0.00    -0.029 C 
HETATM    6  C12 UNL     1      -2.399   7.290  15.287  1.00  0.00     0.016 C 
HETATM    7  C13 UNL     1      -3.914   8.894  14.083  1.00  0.00     0.011 C 
HETATM    8  C14 UNL     1      -5.170   8.806  14.979  1.00  0.00     0.009 C 
HETATM    9  C15 UNL     1      -6.116   7.689  14.500  1.00  0.00     0.029 C 
HETATM   10  C16 UNL     1      -7.536   7.640  15.156  1.00  0.00    -0.031 C 
HETATM   11  C17 UNL     1      -7.500   7.048  16.586  1.00  0.00     0.016 C 
HETATM   12  C18 UNL     1      -8.190   9.050  15.246  1.00  0.00     0.012 C 
HETATM   13  C19 UNL     1      -9.673   9.015  15.640  1.00  0.00     0.032 C 
HETATM   14  C20 UNL     1     -10.502   8.051  14.792  1.00  0.00     0.118 C 
HETATM   15  C21 UNL     1      -9.859   6.668  14.644  1.00  0.00     0.039 C 
HETATM   16  C22 UNL     1      -8.408   6.803  14.165  1.00  0.00     0.025 C 
HETATM   17  C23 UNL     1      -7.731   5.520  13.620  1.00  0.00     0.126 C 
HETATM   18  C24 UNL     1      -6.377   5.140  14.217  1.00  0.00     0.071 C 
HETATM   19  C25 UNL     1      -5.394   6.297  14.505  1.00  0.00     0.071 C 
ENDROOT
BRANCH   1  20
HETATM   20  C5  UNL     1      -0.781   8.158  12.786  1.00  0.00    -0.011 C 
HETATM   21  C6  UNL     1      -0.745   9.300  13.809  1.00  0.00     0.010 C 
BRANCH  20  22
HETATM   22  C4  UNL     1      -0.428   8.713  11.376  1.00  0.00     0.009 C 
BRANCH  22  23
HETATM   23  C3  UNL     1       0.764   7.997  10.715  1.00  0.00     0.034 C 
BRANCH  23  24
HETATM   24  C2  UNL     1       0.782   7.931   9.188  1.00  0.00    -0.083 C 
HETATM   25  C1  UNL     1      -0.238   8.354   8.419  1.00  0.00     0.015 C 
BRANCH  24  26
HETATM   26  C26 UNL     1       2.068   7.314   8.606  1.00  0.00     0.033 C 
HETATM   27  C27 UNL     1       1.951   6.833   7.152  1.00  0.00     0.017 C 
BRANCH  26  28
HETATM   28  C28 UNL     1       3.276   8.261   8.756  1.00  0.00     0.172 C 
BRANCH  28  29
HETATM   29  O6  UNL     1       3.363   9.192   7.681  1.00  0.00    -0.400 OA
HETATM   30  H48 UNL     1       2.505   9.652   7.637  1.00  0.00     0.209 HD
ENDBRANCH  28  29
ENDBRANCH  26  28
ENDBRANCH  24  26
ENDBRANCH  23  24
ENDBRANCH  22  23
ENDBRANCH  20  22
ENDBRANCH   1  20
BRANCH   2  31
HETATM   31  O1  UNL     1      -0.879   5.340  13.089  1.00  0.00    -0.393 OA
HETATM   32  H13 UNL     1      -0.771   4.443  12.732  1.00  0.00     0.210 HD
ENDBRANCH   2  31
BRANCH   3  33
HETATM   33  O2  UNL     1      -3.939   4.348  12.327  1.00  0.00    -0.392 OA
HETATM   34  H15 UNL     1      -3.339   3.595  12.187  1.00  0.00     0.210 HD
ENDBRANCH   3  33
BRANCH  19  35
HETATM   35  O5  UNL     1      -4.881   6.036  15.818  1.00  0.00    -0.389 OA
HETATM   36  H41 UNL     1      -4.486   5.148  15.825  1.00  0.00     0.210 HD
ENDBRANCH  19  35
BRANCH  17  37
HETATM   37  O4  UNL     1      -8.605   4.395  13.700  1.00  0.00    -0.395 OA
HETATM   38  H38 UNL     1      -8.722   4.174  14.641  1.00  0.00     0.210 HD
ENDBRANCH  17  37
BRANCH  14  39
HETATM   39  O3  UNL     1     -11.790   7.919  15.383  1.00  0.00    -0.396 OA
HETATM   40  H33 UNL     1     -12.306   7.310  14.826  1.00  0.00     0.210 HD
ENDBRANCH  14  39
TORSDOF 12
ENDMDL
MODEL 2
REMARK minimizedAffinity -10.0061378
REMARK  12 active torsions:
REMARK  status: ('A' for Active; 'I' for Inactive)
REMARK    1  A    between atoms: C2_2  and  C3_3 
REMARK    2  A    between atoms: C2_2  and  C26_31 
REMARK    3  A    between atoms: C3_3  and  C4_4 
REMARK    4  A    between atoms: C4_4  and  C5_5 
REMARK    5  A    between atoms: C5_5  and  C7_7 
REMARK    6  A    between atoms: C8_8  and  O1_9 
REMARK    7  A    between atoms: C9_10  and  O2_11 
REMARK    8  A    between atoms: C20_22  and  O3_23 
REMARK    9  A    between atoms: C23_26  and  O4_27 
REMARK   10  A    between atoms: C25_29  and  O5_30 
REMARK   11  A    between atoms: C26_31  and  C28_33 
REMARK   12  A    between atoms: C28_33  and  O6_34 
ROOT
HETATM    1  C7  UNL     1      -0.551   6.643  11.210  1.00  0.00     0.029 C 
HETATM    2  C8  UNL     1      -0.396   5.103  10.976  1.00  0.00     0.152 C 
HETATM    3  C9  UNL     1      -1.494   4.402  11.816  1.00  0.00     0.155 C 
HETATM    4  C10 UNL     1      -2.407   5.546  12.243  1.00  0.00     0.060 C 
HETATM    5  C11 UNL     1      -1.388   6.711  12.536  1.00  0.00    -0.029 C 
HETATM    6  C12 UNL     1      -0.456   6.498  13.757  1.00  0.00     0.016 C 
HETATM    7  C13 UNL     1      -2.198   8.007  12.753  1.00  0.00     0.011 C 
HETATM    8  C14 UNL     1      -3.325   7.856  13.800  1.00  0.00     0.009 C 
HETATM    9  C15 UNL     1      -4.259   6.685  13.443  1.00  0.00     0.029 C 
HETATM   10  C16 UNL     1      -5.581   6.560  14.272  1.00  0.00    -0.031 C 
HETATM   11  C17 UNL     1      -5.333   5.981  15.685  1.00  0.00     0.016 C 
HETATM   12  C18 UNL     1      -6.297   7.933  14.444  1.00  0.00     0.012 C 
HETATM   13  C19 UNL     1      -7.714   7.818  15.021  1.00  0.00     0.032 C 
HETATM   14  C20 UNL     1      -8.588   6.804  14.282  1.00  0.00     0.118 C 
HETATM   15  C21 UNL     1      -7.892   5.458  14.054  1.00  0.00     0.039 C 
HETATM   16  C22 UNL     1      -6.523   5.671  13.397  1.00  0.00     0.025 C 
HETATM   17  C23 UNL     1      -5.849   4.424  12.770  1.00  0.00     0.126 C 
HETATM   18  C24 UNL     1      -4.411   4.123  13.193  1.00  0.00     0.071 C 
HETATM   19  C25 UNL     1      -3.466   5.336  13.356  1.00  0.00     0.071 C 
ENDROOT
BRANCH   1  20
HETATM   20  C5  UNL     1       0.784   7.439  11.073  1.00  0.00    -0.011 C 
HETATM   21  C6  UNL     1       0.823   8.673  11.983  1.00  0.00     0.010 C 
BRANCH  20  22
HETATM   22  C4  UNL     1       0.999   7.876   9.595  1.00  0.00     0.009 C 
BRANCH  22  23
HETATM   23  C3  UNL     1       2.444   7.676   9.100  1.00  0.00     0.034 C 
BRANCH  23  24
HETATM   24  C2  UNL     1       2.810   6.298   8.550  1.00  0.00    -0.083 C 
HETATM   25  C1  UNL     1       2.611   5.939   7.268  1.00  0.00     0.015 C 
BRANCH  24  26
HETATM   26  C26 UNL     1       3.410   5.346   9.601  1.00  0.00     0.033 C 
HETATM   27  C27 UNL     1       3.956   4.025   9.039  1.00  0.00     0.017 C 
BRANCH  26  28
HETATM   28  C28 UNL     1       4.488   6.044  10.456  1.00  0.00     0.172 C 
BRANCH  28  29
HETATM   29  O6  UNL     1       5.679   5.268  10.553  1.00  0.00    -0.400 OA
HETATM   30  H48 UNL     1       5.964   5.075   9.642  1.00  0.00     0.209 HD
ENDBRANCH  28  29
ENDBRANCH  26  28
ENDBRANCH  24  26
ENDBRANCH  23  24
ENDBRANCH  22  23
ENDBRANCH  20  22
ENDBRANCH   1  20
BRANCH   2  31
HETATM   31  O1  UNL     1       0.882   4.622  11.384  1.00  0.00    -0.393 OA
HETATM   32  H13 UNL     1       0.995   3.730  11.016  1.00  0.00     0.210 HD
ENDBRANCH   2  31
BRANCH   3  33
HETATM   33  O2  UNL     1      -2.188   3.457  11.010  1.00  0.00    -0.392 OA
HETATM   34  H15 UNL     1      -1.569   2.738  10.796  1.00  0.00     0.210 HD
ENDBRANCH   3  33
BRANCH  19  35
HETATM   35  O5  UNL     1      -2.779   5.111  14.594  1.00  0.00    -0.389 OA
HETATM   36  H41 UNL     1      -2.337   4.246  14.550  1.00  0.00     0.210 HD
ENDBRANCH  19  35
BRANCH  17  37
HETATM   37  O4  UNL     1      -6.641   3.252  12.958  1.00  0.00    -0.395 OA
HETATM   38  H38 UNL     1      -6.627   3.032  13.906  1.00  0.00     0.210 HD
ENDBRANCH  17  37
BRANCH  14  39
HETATM   39  O3  UNL     1      -9.782   6.604  15.030  1.00  0.00    -0.396 OA
HETATM   40  H33 UNL     1     -10.329   5.965  14.542  1.00  0.00     0.210 HD
ENDBRANCH  14  39
TORSDOF 12
ENDMDL
MODEL 3
REMARK minimizedAffinity -9.52438927
REMARK  12 active torsions:
REMARK  status: ('A' for Active; 'I' for Inactive)
REMARK    1  A    between atoms: C2_2  and  C3_3 
REMARK    2  A    between atoms: C2_2  and  C26_31 
REMARK    3  A    between atoms: C3_3  and  C4_4 
REMARK    4  A    between atoms: C4_4  and  C5_5 
REMARK    5  A    between atoms: C5_5  and  C7_7 
REMARK    6  A    between atoms: C8_8  and  O1_9 
REMARK    7  A    between atoms: C9_10  and  O2_11 
REMARK    8  A    between atoms: C20_22  and  O3_23 
REMARK    9  A    between atoms: C23_26  and  O4_27 
REMARK   10  A    between atoms: C25_29  and  O5_30 
REMARK   11  A    between atoms: C26_31  and  C28_33 
REMARK   12  A    between atoms: C28_33  and  O6_34 
ROOT
HETATM    1  C7  UNL     1      -0.567   6.452  11.211  1.00  0.00     0.029 C 
HETATM    2  C8  UNL     1      -0.441   4.906  11.004  1.00  0.00     0.152 C 
HETATM    3  C9  UNL     1      -1.555   4.241  11.851  1.00  0.00     0.155 C 
HETATM    4  C10 UNL     1      -2.447   5.409  12.257  1.00  0.00     0.060 C 
HETATM    5  C11 UNL     1      -1.406   6.559  12.533  1.00  0.00    -0.029 C 
HETATM    6  C12 UNL     1      -0.482   6.349  13.760  1.00  0.00     0.016 C 
HETATM    7  C13 UNL     1      -2.191   7.875  12.726  1.00  0.00     0.011 C 
HETATM    8  C14 UNL     1      -3.324   7.763  13.771  1.00  0.00     0.009 C 
HETATM    9  C15 UNL     1      -4.280   6.604  13.431  1.00  0.00     0.029 C 
HETATM   10  C16 UNL     1      -5.607   6.520  14.257  1.00  0.00    -0.031 C 
HETATM   11  C17 UNL     1      -5.374   5.960  15.681  1.00  0.00     0.016 C 
HETATM   12  C18 UNL     1      -6.296   7.909  14.404  1.00  0.00     0.012 C 
HETATM   13  C19 UNL     1      -7.717   7.831  14.978  1.00  0.00     0.032 C 
HETATM   14  C20 UNL     1      -8.608   6.822  14.254  1.00  0.00     0.118 C 
HETATM   15  C21 UNL     1      -7.937   5.459  14.050  1.00  0.00     0.039 C 
HETATM   16  C22 UNL     1      -6.562   5.634  13.394  1.00  0.00     0.025 C 
HETATM   17  C23 UNL     1      -5.911   4.364  12.791  1.00  0.00     0.126 C 
HETATM   18  C24 UNL     1      -4.481   4.042  13.223  1.00  0.00     0.071 C 
HETATM   19  C25 UNL     1      -3.513   5.239  13.369  1.00  0.00     0.071 C 
ENDROOT
BRANCH   1  20
HETATM   20  C5  UNL     1       0.784   7.220  11.066  1.00  0.00    -0.011 C 
HETATM   21  C6  UNL     1       0.688   8.670  11.557  1.00  0.00     0.010 C 
BRANCH  20  22
HETATM   22  C4  UNL     1       1.253   7.205   9.582  1.00  0.00     0.009 C 
BRANCH  22  23
HETATM   23  C3  UNL     1       2.726   7.613   9.399  1.00  0.00     0.034 C 
BRANCH  23  24
HETATM   24  C2  UNL     1       3.791   6.615   9.855  1.00  0.00    -0.083 C 
HETATM   25  C1  UNL     1       3.691   5.288   9.656  1.00  0.00     0.015 C 
BRANCH  24  26
HETATM   26  C26 UNL     1       4.981   7.264  10.585  1.00  0.00     0.033 C 
HETATM   27  C27 UNL     1       4.596   8.238  11.708  1.00  0.00     0.017 C 
BRANCH  26  28
HETATM   28  C28 UNL     1       5.971   6.207  11.116  1.00  0.00     0.172 C 
BRANCH  28  29
HETATM   29  O6  UNL     1       5.956   6.125  12.538  1.00  0.00    -0.400 OA
HETATM   30  H48 UNL     1       5.031   5.965  12.800  1.00  0.00     0.209 HD
ENDBRANCH  28  29
ENDBRANCH  26  28
ENDBRANCH  24  26
ENDBRANCH  23  24
ENDBRANCH  22  23
ENDBRANCH  20  22
ENDBRANCH   1  20
BRANCH   2  31
HETATM   31  O1  UNL     1       0.827   4.407  11.424  1.00  0.00    -0.393 OA
HETATM   32  H13 UNL     1       0.923   3.507  11.072  1.00  0.00     0.210 HD
ENDBRANCH   2  31
BRANCH   3  33
HETATM   33  O2  UNL     1      -2.265   3.296  11.060  1.00  0.00    -0.392 OA
HETATM   34  H15 UNL     1      -1.659   2.561  10.860  1.00  0.00     0.210 HD
ENDBRANCH   3  33
BRANCH  19  35
HETATM   35  O5  UNL     1      -2.834   5.022  14.613  1.00  0.00    -0.389 OA
HETATM   36  H41 UNL     1      -2.409   4.148  14.586  1.00  0.00     0.210 HD
ENDBRANCH  19  35
BRANCH  17  37
HETATM   37  O4  UNL     1      -6.727   3.211  12.996  1.00  0.00    -0.395 OA
HETATM   38  H38 UNL     1      -6.720   3.006  13.948  1.00  0.00     0.210 HD
ENDBRANCH  17  37
BRANCH  14  39
HETATM   39  O3  UNL     1      -9.808   6.658  15.001  1.00  0.00    -0.396 OA
HETATM   40  H33 UNL     1     -10.366   6.021  14.521  1.00  0.00     0.210 HD
ENDBRANCH  14  39
TORSDOF 12
ENDMDL
MODEL 4
REMARK minimizedAffinity -9.52268505
REMARK  12 active torsions:
REMARK  status: ('A' for Active; 'I' for Inactive)
REMARK    1  A    between atoms: C2_2  and  C3_3 
REMARK    2  A    between atoms: C2_2  and  C26_31 
REMARK    3  A    between atoms: C3_3  and  C4_4 
REMARK    4  A    between atoms: C4_4  and  C5_5 
REMARK    5  A    between atoms: C5_5  and  C7_7 
REMARK    6  A    between atoms: C8_8  and  O1_9 
REMARK    7  A    between atoms: C9_10  and  O2_11 
REMARK    8  A    between atoms: C20_22  and  O3_23 
REMARK    9  A    between atoms: C23_26  and  O4_27 
REMARK   10  A    between atoms: C25_29  and  O5_30 
REMARK   11  A    between atoms: C26_31  and  C28_33 
REMARK   12  A    between atoms: C28_33  and  O6_34 
ROOT
HETATM    1  C7  UNL     1      -6.179   5.739  13.318  1.00  0.00     0.029 C 
HETATM    2  C8  UNL     1      -7.196   4.676  12.783  1.00  0.00     0.152 C 
HETATM    3  C9  UNL     1      -8.607   5.134  13.226  1.00  0.00     0.155 C 
HETATM    4  C10 UNL     1      -8.388   6.560  13.718  1.00  0.00     0.060 C 
HETATM    5  C11 UNL     1      -6.995   6.464  14.446  1.00  0.00    -0.029 C 
HETATM    6  C12 UNL     1      -6.971   5.613  15.741  1.00  0.00     0.016 C 
HETATM    7  C13 UNL     1      -6.538   7.899  14.789  1.00  0.00     0.011 C 
HETATM    8  C14 UNL     1      -7.609   8.717  15.546  1.00  0.00     0.009 C 
HETATM    9  C15 UNL     1      -8.939   8.740  14.771  1.00  0.00     0.029 C 
HETATM   10  C16 UNL     1     -10.038   9.726  15.289  1.00  0.00    -0.031 C 
HETATM   11  C17 UNL     1     -10.745   9.198  16.560  1.00  0.00     0.016 C 
HETATM   12  C18 UNL     1      -9.456  11.132  15.624  1.00  0.00     0.012 C 
HETATM   13  C19 UNL     1     -10.531  12.195  15.885  1.00  0.00     0.032 C 
HETATM   14  C20 UNL     1     -11.596  12.261  14.791  1.00  0.00     0.118 C 
HETATM   15  C21 UNL     1     -12.153  10.887  14.405  1.00  0.00     0.039 C 
HETATM   16  C22 UNL     1     -11.009   9.920  14.079  1.00  0.00     0.025 C 
HETATM   17  C23 UNL     1     -11.388   8.617  13.330  1.00  0.00     0.126 C 
HETATM   18  C24 UNL     1     -10.907   7.299  13.937  1.00  0.00     0.071 C 
HETATM   19  C25 UNL     1      -9.483   7.289  14.538  1.00  0.00     0.071 C 
ENDROOT
BRANCH   1  20
HETATM   20  C5  UNL     1      -4.759   5.161  13.613  1.00  0.00    -0.011 C 
HETATM   21  C6  UNL     1      -3.642   6.153  13.265  1.00  0.00     0.010 C 
BRANCH  20  22
HETATM   22  C4  UNL     1      -4.544   3.838  12.823  1.00  0.00     0.009 C 
BRANCH  22  23
HETATM   23  C3  UNL     1      -3.221   3.802  12.035  1.00  0.00     0.034 C 
BRANCH  23  24
HETATM   24  C2  UNL     1      -2.730   2.436  11.554  1.00  0.00    -0.083 C 
HETATM   25  C1  UNL     1      -3.464   1.313  11.653  1.00  0.00     0.015 C 
BRANCH  24  26
HETATM   26  C26 UNL     1      -1.308   2.458  10.965  1.00  0.00     0.033 C 
HETATM   27  C27 UNL     1      -0.279   3.245  11.790  1.00  0.00     0.017 C 
BRANCH  26  28
HETATM   28  C28 UNL     1      -0.784   1.034  10.683  1.00  0.00     0.172 C 
BRANCH  28  29
HETATM   29  O6  UNL     1      -0.821   0.715   9.295  1.00  0.00    -0.400 OA
HETATM   30  H48 UNL     1      -0.328   1.415   8.832  1.00  0.00     0.209 HD
ENDBRANCH  28  29
ENDBRANCH  26  28
ENDBRANCH  24  26
ENDBRANCH  23  24
ENDBRANCH  22  23
ENDBRANCH  20  22
ENDBRANCH   1  20
BRANCH   2  31
HETATM   31  O1  UNL     1      -6.940   3.375  13.307  1.00  0.00    -0.393 OA
HETATM   32  H13 UNL     1      -7.448   2.738  12.778  1.00  0.00     0.210 HD
ENDBRANCH   2  31
BRANCH   3  33
HETATM   33  O2  UNL     1      -9.498   5.098  12.117  1.00  0.00    -0.392 OA
HETATM   34  H15 UNL     1      -9.626   4.166  11.869  1.00  0.00     0.210 HD
ENDBRANCH   3  33
BRANCH  19  35
HETATM   35  O5  UNL     1      -9.614   6.625  15.802  1.00  0.00    -0.389 OA
HETATM   36  H41 UNL     1     -10.006   5.748  15.651  1.00  0.00     0.210 HD
ENDBRANCH  19  35
BRANCH  17  37
HETATM   37  O4  UNL     1     -12.794   8.536  13.103  1.00  0.00    -0.395 OA
HETATM   38  H38 UNL     1     -13.228   8.405  13.964  1.00  0.00     0.210 HD
ENDBRANCH  17  37
BRANCH  14  39
HETATM   39  O3  UNL     1     -12.656  13.099  15.239  1.00  0.00    -0.396 OA
HETATM   40  H33 UNL     1     -13.319  13.137  14.528  1.00  0.00     0.210 HD
ENDBRANCH  14  39
TORSDOF 12
ENDMDL
MODEL 5
REMARK minimizedAffinity -9.510849
REMARK  12 active torsions:
REMARK  status: ('A' for Active; 'I' for Inactive)
REMARK    1  A    between atoms: C2_2  and  C3_3 
REMARK    2  A    between atoms: C2_2  and  C26_31 
REMARK    3  A    between atoms: C3_3  and  C4_4 
REMARK    4  A    between atoms: C4_4  and  C5_5 
REMARK    5  A    between atoms: C5_5  and  C7_7 
REMARK    6  A    between atoms: C8_8  and  O1_9 
REMARK    7  A    between atoms: C9_10  and  O2_11 
REMARK    8  A    between atoms: C20_22  and  O3_23 
REMARK    9  A    between atoms: C23_26  and  O4_27 
REMARK   10  A    between atoms: C25_29  and  O5_30 
REMARK   11  A    between atoms: C26_31  and  C28_33 
REMARK   12  A    between atoms: C28_33  and  O6_34 
ROOT
HETATM    1  C7  UNL     1      -4.980   7.536  13.783  1.00  0.00     0.029 C 
HETATM    2  C8  UNL     1      -4.732   8.849  14.598  1.00  0.00     0.152 C 
HETATM    3  C9  UNL     1      -3.198   9.019  14.732  1.00  0.00     0.155 C 
HETATM    4  C10 UNL     1      -2.633   7.995  13.753  1.00  0.00     0.060 C 
HETATM    5  C11 UNL     1      -3.615   6.775  13.926  1.00  0.00    -0.029 C 
HETATM    6  C12 UNL     1      -3.556   6.055  15.298  1.00  0.00     0.016 C 
HETATM    7  C13 UNL     1      -3.297   5.749  12.817  1.00  0.00     0.011 C 
HETATM    8  C14 UNL     1      -1.801   5.370  12.744  1.00  0.00     0.009 C 
HETATM    9  C15 UNL     1      -0.919   6.624  12.594  1.00  0.00     0.029 C 
HETATM   10  C16 UNL     1       0.592   6.385  12.263  1.00  0.00    -0.031 C 
HETATM   11  C17 UNL     1       1.396   5.922  13.502  1.00  0.00     0.016 C 
HETATM   12  C18 UNL     1       0.788   5.316  11.148  1.00  0.00     0.012 C 
HETATM   13  C19 UNL     1       2.225   5.241  10.616  1.00  0.00     0.032 C 
HETATM   14  C20 UNL     1       2.794   6.601  10.212  1.00  0.00     0.118 C 
HETATM   15  C21 UNL     1       2.572   7.687  11.270  1.00  0.00     0.039 C 
HETATM   16  C22 UNL     1       1.095   7.744  11.675  1.00  0.00     0.025 C 
HETATM   17  C23 UNL     1       0.631   9.004  12.450  1.00  0.00     0.126 C 
HETATM   18  C24 UNL     1      -0.118   8.777  13.762  1.00  0.00     0.071 C 
HETATM   19  C25 UNL     1      -1.132   7.611  13.792  1.00  0.00     0.071 C 
ENDROOT
BRANCH   1  20
HETATM   20  C5  UNL     1      -6.325   6.823  14.128  1.00  0.00    -0.011 C 
HETATM   21  C6  UNL     1      -6.819   7.163  15.540  1.00  0.00     0.010 C 
BRANCH  20  22
HETATM   22  C4  UNL     1      -6.166   5.281  13.991  1.00  0.00     0.009 C 
BRANCH  22  23
HETATM   23  C3  UNL     1      -6.591   4.741  12.613  1.00  0.00     0.034 C 
BRANCH  23  24
HETATM   24  C2  UNL     1      -6.730   3.226  12.467  1.00  0.00    -0.083 C 
HETATM   25  C1  UNL     1      -7.776   2.532  12.954  1.00  0.00     0.015 C 
BRANCH  24  26
HETATM   26  C26 UNL     1      -5.553   2.559  11.732  1.00  0.00     0.033 C 
HETATM   27  C27 UNL     1      -5.840   1.147  11.200  1.00  0.00     0.017 C 
BRANCH  26  28
HETATM   28  C28 UNL     1      -5.008   3.452  10.598  1.00  0.00     0.172 C 
BRANCH  28  29
HETATM   29  O6  UNL     1      -5.435   3.007   9.314  1.00  0.00    -0.400 OA
HETATM   30  H48 UNL     1      -6.407   2.957   9.343  1.00  0.00     0.209 HD
ENDBRANCH  28  29
ENDBRANCH  26  28
ENDBRANCH  24  26
ENDBRANCH  23  24
ENDBRANCH  22  23
ENDBRANCH  20  22
ENDBRANCH   1  20
BRANCH   2  31
HETATM   31  O1  UNL     1      -5.312   8.793  15.899  1.00  0.00    -0.393 OA
HETATM   32  H13 UNL     1      -5.318   9.695  16.260  1.00  0.00     0.210 HD
ENDBRANCH   2  31
BRANCH   3  33
HETATM   33  O2  UNL     1      -2.825  10.343  14.370  1.00  0.00    -0.392 OA
HETATM   34  H15 UNL     1      -3.183  10.947  15.044  1.00  0.00     0.210 HD
ENDBRANCH   3  33
BRANCH  19  35
HETATM   35  O5  UNL     1      -0.875   6.922  15.023  1.00  0.00    -0.389 OA
HETATM   36  H41 UNL     1      -0.955   7.558  15.755  1.00  0.00     0.210 HD
ENDBRANCH  19  35
BRANCH  17  37
HETATM   37  O4  UNL     1       1.717   9.900  12.685  1.00  0.00    -0.395 OA
HETATM   38  H38 UNL     1       2.316   9.480  13.327  1.00  0.00     0.210 HD
ENDBRANCH  17  37
BRANCH  14  39
HETATM   39  O3  UNL     1       4.187   6.454   9.961  1.00  0.00    -0.396 OA
HETATM   40  H33 UNL     1       4.530   7.326   9.697  1.00  0.00     0.210 HD
ENDBRANCH  14  39
TORSDOF 12
ENDMDL
MODEL 6
REMARK minimizedAffinity -9.50734615
REMARK  12 active torsions:
REMARK  status: ('A' for Active; 'I' for Inactive)
REMARK    1  A    between atoms: C2_2  and  C3_3 
REMARK    2  A    between atoms: C2_2  and  C26_31 
REMARK    3  A    between atoms: C3_3  and  C4_4 
REMARK    4  A    between atoms: C4_4  and  C5_5 
REMARK    5  A    between atoms: C5_5  and  C7_7 
REMARK    6  A    between atoms: C8_8  and  O1_9 
REMARK    7  A    between atoms: C9_10  and  O2_11 
REMARK    8  A    between atoms: C20_22  and  O3_23 
REMARK    9  A    between atoms: C23_26  and  O4_27 
REMARK   10  A    between atoms: C25_29  and  O5_30 
REMARK   11  A    between atoms: C26_31  and  C28_33 
REMARK   12  A    between atoms: C28_33  and  O6_34 
ROOT
HETATM    1  C7  UNL     1       1.663   7.080  10.038  1.00  0.00     0.029 C 
HETATM    2  C8  UNL     1       2.072   5.590  10.293  1.00  0.00     0.152 C 
HETATM    3  C9  UNL     1       1.138   5.045  11.402  1.00  0.00     0.155 C 
HETATM    4  C10 UNL     1       0.056   6.113  11.521  1.00  0.00     0.060 C 
HETATM    5  C11 UNL     1       0.869   7.450  11.340  1.00  0.00    -0.029 C 
HETATM    6  C12 UNL     1       1.862   7.792  12.482  1.00  0.00     0.016 C 
HETATM    7  C13 UNL     1      -0.143   8.608  11.203  1.00  0.00     0.011 C 
HETATM    8  C14 UNL     1      -1.194   8.638  12.336  1.00  0.00     0.009 C 
HETATM    9  C15 UNL     1      -1.925   7.287  12.450  1.00  0.00     0.029 C 
HETATM   10  C16 UNL     1      -3.180   7.242  13.384  1.00  0.00    -0.031 C 
HETATM   11  C17 UNL     1      -2.792   7.202  14.882  1.00  0.00     0.016 C 
HETATM   12  C18 UNL     1      -4.114   8.470  13.173  1.00  0.00     0.012 C 
HETATM   13  C19 UNL     1      -5.472   8.337  13.875  1.00  0.00     0.032 C 
HETATM   14  C20 UNL     1      -6.182   7.017  13.573  1.00  0.00     0.118 C 
HETATM   15  C21 UNL     1      -5.273   5.793  13.725  1.00  0.00     0.039 C 
HETATM   16  C22 UNL     1      -3.982   5.983  12.921  1.00  0.00     0.025 C 
HETATM   17  C23 UNL     1      -3.124   4.718  12.667  1.00  0.00     0.126 C 
HETATM   18  C24 UNL     1      -1.644   4.794  13.040  1.00  0.00     0.071 C 
HETATM   19  C25 UNL     1      -0.916   6.121  12.728  1.00  0.00     0.071 C 
ENDROOT
BRANCH   1  20
HETATM   20  C5  UNL     1       2.838   7.980   9.543  1.00  0.00    -0.011 C 
HETATM   21  C6  UNL     1       2.746   8.286   8.043  1.00  0.00     0.010 C 
BRANCH  20  22
HETATM   22  C4  UNL     1       4.203   7.299   9.851  1.00  0.00     0.009 C 
BRANCH  22  23
HETATM   23  C3  UNL     1       5.191   8.214  10.597  1.00  0.00     0.034 C 
BRANCH  23  24
HETATM   24  C2  UNL     1       6.223   7.541  11.502  1.00  0.00    -0.083 C 
HETATM   25  C1  UNL     1       6.937   6.462  11.130  1.00  0.00     0.015 C 
BRANCH  24  26
HETATM   26  C26 UNL     1       6.358   8.195  12.889  1.00  0.00     0.033 C 
HETATM   27  C27 UNL     1       5.166   9.068  13.309  1.00  0.00     0.017 C 
BRANCH  26  28
HETATM   28  C28 UNL     1       6.666   7.154  13.985  1.00  0.00     0.172 C 
BRANCH  28  29
HETATM   29  O6  UNL     1       5.611   7.052  14.938  1.00  0.00    -0.400 OA
HETATM   30  H48 UNL     1       4.797   6.867  14.436  1.00  0.00     0.209 HD
ENDBRANCH  28  29
ENDBRANCH  26  28
ENDBRANCH  24  26
ENDBRANCH  23  24
ENDBRANCH  22  23
ENDBRANCH  20  22
ENDBRANCH   1  20
BRANCH   2  31
HETATM   31  O1  UNL     1       3.427   5.469  10.722  1.00  0.00    -0.393 OA
HETATM   32  H13 UNL     1       3.678   4.534  10.648  1.00  0.00     0.210 HD
ENDBRANCH   2  31
BRANCH   3  33
HETATM   33  O2  UNL     1       0.590   3.795  11.001  1.00  0.00    -0.392 OA
HETATM   34  H15 UNL     1       1.317   3.148  10.974  1.00  0.00     0.210 HD
ENDBRANCH   3  33
BRANCH  19  35
HETATM   35  O5  UNL     1      -0.162   6.421  13.911  1.00  0.00    -0.389 OA
HETATM   36  H41 UNL     1       0.420   5.667  14.106  1.00  0.00     0.210 HD
ENDBRANCH  19  35
BRANCH  17  37
HETATM   37  O4  UNL     1      -3.698   3.566  13.285  1.00  0.00    -0.395 OA
HETATM   38  H38 UNL     1      -3.617   3.673  14.249  1.00  0.00     0.210 HD
ENDBRANCH  17  37
BRANCH  14  39
HETATM   39  O3  UNL     1      -7.300   6.894  14.445  1.00  0.00    -0.396 OA
HETATM   40  H33 UNL     1      -7.745   6.055  14.233  1.00  0.00     0.210 HD
ENDBRANCH  14  39
TORSDOF 12
ENDMDL
MODEL 7
REMARK minimizedAffinity -9.14894485
REMARK  12 active torsions:
REMARK  status: ('A' for Active; 'I' for Inactive)
REMARK    1  A    between atoms: C2_2  and  C3_3 
REMARK    2  A    between atoms: C2_2  and  C26_31 
REMARK    3  A    between atoms: C3_3  and  C4_4 
REMARK    4  A    between atoms: C4_4  and  C5_5 
REMARK    5  A    between atoms: C5_5  and  C7_7 
REMARK    6  A    between atoms: C8_8  and  O1_9 
REMARK    7  A    between atoms: C9_10  and  O2_11 
REMARK    8  A    between atoms: C20_22  and  O3_23 
REMARK    9  A    between atoms: C23_26  and  O4_27 
REMARK   10  A    between atoms: C25_29  and  O5_30 
REMARK   11  A    between atoms: C26_31  and  C28_33 
REMARK   12  A    between atoms: C28_33  and  O6_34 
ROOT
HETATM    1  C7  UNL     1      -0.035   5.766  12.715  1.00  0.00     0.029 C 
HETATM    2  C8  UNL     1       0.137   4.818  11.481  1.00  0.00     0.152 C 
HETATM    3  C9  UNL     1       1.458   5.219  10.779  1.00  0.00     0.155 C 
HETATM    4  C10 UNL     1       2.133   6.148  11.783  1.00  0.00     0.060 C 
HETATM    5  C11 UNL     1       0.920   6.963  12.369  1.00  0.00    -0.029 C 
HETATM    6  C12 UNL     1       0.216   7.927  11.379  1.00  0.00     0.016 C 
HETATM    7  C13 UNL     1       1.434   7.781  13.573  1.00  0.00     0.011 C 
HETATM    8  C14 UNL     1       2.685   8.628  13.247  1.00  0.00     0.009 C 
HETATM    9  C15 UNL     1       3.809   7.754  12.663  1.00  0.00     0.029 C 
HETATM   10  C16 UNL     1       5.216   8.424  12.512  1.00  0.00    -0.031 C 
HETATM   11  C17 UNL     1       5.280   9.382  11.298  1.00  0.00     0.016 C 
HETATM   12  C18 UNL     1       5.617   9.240  13.777  1.00  0.00     0.012 C 
HETATM   13  C19 UNL     1       7.082   9.694  13.775  1.00  0.00     0.032 C 
HETATM   14  C20 UNL     1       8.067   8.561  13.487  1.00  0.00     0.118 C 
HETATM   15  C21 UNL     1       7.672   7.709  12.276  1.00  0.00     0.039 C 
HETATM   16  C22 UNL     1       6.221   7.232  12.410  1.00  0.00     0.025 C 
HETATM   17  C23 UNL     1       5.777   6.079  11.474  1.00  0.00     0.126 C 
HETATM   18  C24 UNL     1       4.507   6.300  10.652  1.00  0.00     0.071 C 
HETATM   19  C25 UNL     1       3.339   7.025  11.358  1.00  0.00     0.071 C 
ENDROOT
BRANCH   1  20
HETATM   20  C5  UNL     1      -1.522   6.026  13.109  1.00  0.00    -0.011 C 
HETATM   21  C6  UNL     1      -1.667   6.507  14.558  1.00  0.00     0.010 C 
BRANCH  20  22
HETATM   22  C4  UNL     1      -2.365   4.734  12.904  1.00  0.00     0.009 C 
BRANCH  22  23
HETATM   23  C3  UNL     1      -3.880   4.996  12.812  1.00  0.00     0.034 C 
BRANCH  23  24
HETATM   24  C2  UNL     1      -4.787   3.788  12.583  1.00  0.00    -0.083 C 
HETATM   25  C1  UNL     1      -4.394   2.687  11.916  1.00  0.00     0.015 C 
BRANCH  24  26
HETATM   26  C26 UNL     1      -6.203   3.952  13.166  1.00  0.00     0.033 C 
HETATM   27  C27 UNL     1      -6.803   5.358  13.016  1.00  0.00     0.017 C 
BRANCH  26  28
HETATM   28  C28 UNL     1      -7.178   2.897  12.606  1.00  0.00     0.172 C 
BRANCH  28  29
HETATM   29  O6  UNL     1      -8.520   3.131  13.025  1.00  0.00    -0.400 OA
HETATM   30  H48 UNL     1      -8.738   4.045  12.769  1.00  0.00     0.209 HD
ENDBRANCH  28  29
ENDBRANCH  26  28
ENDBRANCH  24  26
ENDBRANCH  23  24
ENDBRANCH  22  23
ENDBRANCH  20  22
ENDBRANCH   1  20
BRANCH   2  31
HETATM   31  O1  UNL     1      -0.940   4.939  10.555  1.00  0.00    -0.393 OA
HETATM   32  H13 UNL     1      -0.891   4.187   9.943  1.00  0.00     0.210 HD
ENDBRANCH   2  31
BRANCH   3  33
HETATM   33  O2  UNL     1       2.246   4.060  10.534  1.00  0.00    -0.392 OA
HETATM   34  H15 UNL     1       1.785   3.523   9.866  1.00  0.00     0.210 HD
ENDBRANCH   3  33
BRANCH  19  35
HETATM   35  O5  UNL     1       2.876   7.999  10.413  1.00  0.00    -0.389 OA
HETATM   36  H41 UNL     1       2.641   7.542   9.588  1.00  0.00     0.210 HD
ENDBRANCH  19  35
BRANCH  17  37
HETATM   37  O4  UNL     1       6.832   5.682  10.598  1.00  0.00    -0.395 OA
HETATM   38  H38 UNL     1       6.983   6.406   9.966  1.00  0.00     0.210 HD
ENDBRANCH  17  37
BRANCH  14  39
HETATM   39  O3  UNL     1       9.358   9.124  13.277  1.00  0.00    -0.396 OA
HETATM   40  H33 UNL     1       9.972   8.389  13.104  1.00  0.00     0.210 HD
ENDBRANCH  14  39
TORSDOF 12
ENDMDL
MODEL 8
REMARK minimizedAffinity -8.93371582
REMARK  12 active torsions:
REMARK  status: ('A' for Active; 'I' for Inactive)
REMARK    1  A    between atoms: C2_2  and  C3_3 
REMARK    2  A    between atoms: C2_2  and  C26_31 
REMARK    3  A    between atoms: C3_3  and  C4_4 
REMARK    4  A    between atoms: C4_4  and  C5_5 
REMARK    5  A    between atoms: C5_5  and  C7_7 
REMARK    6  A    between atoms: C8_8  and  O1_9 
REMARK    7  A    between atoms: C9_10  and  O2_11 
REMARK    8  A    between atoms: C20_22  and  O3_23 
REMARK    9  A    between atoms: C23_26  and  O4_27 
REMARK   10  A    between atoms: C25_29  and  O5_30 
REMARK   11  A    between atoms: C26_31  and  C28_33 
REMARK   12  A    between atoms: C28_33  and  O6_34 
ROOT
HETATM    1  C7  UNL     1      -3.048   8.363  14.147  1.00  0.00     0.029 C 
HETATM    2  C8  UNL     1      -2.751   7.753  15.558  1.00  0.00     0.152 C 
HETATM    3  C9  UNL     1      -1.351   7.094  15.484  1.00  0.00     0.155 C 
HETATM    4  C10 UNL     1      -0.781   7.603  14.164  1.00  0.00     0.060 C 
HETATM    5  C11 UNL     1      -2.040   7.597  13.219  1.00  0.00    -0.029 C 
HETATM    6  C12 UNL     1      -2.610   6.199  12.866  1.00  0.00     0.016 C 
HETATM    7  C13 UNL     1      -1.654   8.318  11.908  1.00  0.00     0.011 C 
HETATM    8  C14 UNL     1      -0.361   7.767  11.267  1.00  0.00     0.009 C 
HETATM    9  C15 UNL     1       0.809   7.794  12.267  1.00  0.00     0.029 C 
HETATM   10  C16 UNL     1       2.235   7.497  11.692  1.00  0.00    -0.031 C 
HETATM   11  C17 UNL     1       2.453   5.990  11.420  1.00  0.00     0.016 C 
HETATM   12  C18 UNL     1       2.501   8.260  10.360  1.00  0.00     0.012 C 
HETATM   13  C19 UNL     1       3.964   8.202   9.903  1.00  0.00     0.032 C 
HETATM   14  C20 UNL     1       4.957   8.595  10.997  1.00  0.00     0.118 C 
HETATM   15  C21 UNL     1       4.690   7.897  12.335  1.00  0.00     0.039 C 
HETATM   16  C22 UNL     1       3.225   8.083  12.750  1.00  0.00     0.025 C 
HETATM   17  C23 UNL     1       2.873   7.763  14.225  1.00  0.00     0.126 C 
HETATM   18  C24 UNL     1       1.710   6.802  14.470  1.00  0.00     0.071 C 
HETATM   19  C25 UNL     1       0.480   6.948  13.545  1.00  0.00     0.071 C 
ENDROOT
BRANCH   1  20
HETATM   20  C5  UNL     1      -4.566   8.421  13.792  1.00  0.00    -0.011 C 
HETATM   21  C6  UNL     1      -5.429   8.843  14.988  1.00  0.00     0.010 C 
BRANCH  20  22
HETATM   22  C4  UNL     1      -5.048   7.038  13.267  1.00  0.00     0.009 C 
BRANCH  22  23
HETATM   23  C3  UNL     1      -6.359   6.558  13.916  1.00  0.00     0.034 C 
BRANCH  23  24
HETATM   24  C2  UNL     1      -7.162   5.493  13.167  1.00  0.00    -0.083 C 
HETATM   25  C1  UNL     1      -8.300   5.761  12.501  1.00  0.00     0.015 C 
BRANCH  24  26
HETATM   26  C26 UNL     1      -6.562   4.079  13.263  1.00  0.00     0.033 C 
HETATM   27  C27 UNL     1      -7.593   2.943  13.327  1.00  0.00     0.017 C 
BRANCH  26  28
HETATM   28  C28 UNL     1      -5.548   3.810  12.132  1.00  0.00     0.172 C 
BRANCH  28  29
HETATM   29  O6  UNL     1      -5.777   2.557  11.493  1.00  0.00    -0.400 OA
HETATM   30  H48 UNL     1      -6.705   2.558  11.198  1.00  0.00     0.209 HD
ENDBRANCH  28  29
ENDBRANCH  26  28
ENDBRANCH  24  26
ENDBRANCH  23  24
ENDBRANCH  22  23
ENDBRANCH  20  22
ENDBRANCH   1  20
BRANCH   2  31
HETATM   31  O1  UNL     1      -3.712   6.769  15.932  1.00  0.00    -0.393 OA
HETATM   32  H13 UNL     1      -3.605   6.596  16.882  1.00  0.00     0.210 HD
ENDBRANCH   2  31
BRANCH   3  33
HETATM   33  O2  UNL     1      -0.560   7.514  16.588  1.00  0.00    -0.392 OA
HETATM   34  H15 UNL     1      -0.950   7.135  17.395  1.00  0.00     0.210 HD
ENDBRANCH   3  33
BRANCH  19  35
HETATM   35  O5  UNL     1       0.145   5.610  13.152  1.00  0.00    -0.389 OA
HETATM   36  H41 UNL     1      -0.002   5.080  13.954  1.00  0.00     0.210 HD
ENDBRANCH  19  35
BRANCH  17  37
HETATM   37  O4  UNL     1       4.014   7.301  14.946  1.00  0.00    -0.395 OA
HETATM   38  H38 UNL     1       4.249   6.422  14.602  1.00  0.00     0.210 HD
ENDBRANCH  17  37
BRANCH  14  39
HETATM   39  O3  UNL     1       6.272   8.285  10.549  1.00  0.00    -0.396 OA
HETATM   40  H33 UNL     1       6.890   8.550  11.253  1.00  0.00     0.210 HD
ENDBRANCH  14  39
TORSDOF 12
ENDMDL
MODEL 9
REMARK minimizedAffinity -8.83698273
REMARK  12 active torsions:
REMARK  status: ('A' for Active; 'I' for Inactive)
REMARK    1  A    between atoms: C2_2  and  C3_3 
REMARK    2  A    between atoms: C2_2  and  C26_31 
REMARK    3  A    between atoms: C3_3  and  C4_4 
REMARK    4  A    between atoms: C4_4  and  C5_5 
REMARK    5  A    between atoms: C5_5  and  C7_7 
REMARK    6  A    between atoms: C8_8  and  O1_9 
REMARK    7  A    between atoms: C9_10  and  O2_11 
REMARK    8  A    between atoms: C20_22  and  O3_23 
REMARK    9  A    between atoms: C23_26  and  O4_27 
REMARK   10  A    between atoms: C25_29  and  O5_30 
REMARK   11  A    between atoms: C26_31  and  C28_33 
REMARK   12  A    between atoms: C28_33  and  O6_34 
ROOT
HETATM    1  C7  UNL     1      -2.337   7.857  13.137  1.00  0.00     0.029 C 
HETATM    2  C8  UNL     1      -2.160   6.332  12.832  1.00  0.00     0.152 C 
HETATM    3  C9  UNL     1      -3.401   5.606  13.408  1.00  0.00     0.155 C 
HETATM    4  C10 UNL     1      -4.364   6.741  13.738  1.00  0.00     0.060 C 
HETATM    5  C11 UNL     1      -3.402   7.860  14.290  1.00  0.00    -0.029 C 
HETATM    6  C12 UNL     1      -2.713   7.547  15.643  1.00  0.00     0.016 C 
HETATM    7  C13 UNL     1      -4.222   9.159  14.443  1.00  0.00     0.011 C 
HETATM    8  C14 UNL     1      -5.524   8.968  15.253  1.00  0.00     0.009 C 
HETATM    9  C15 UNL     1      -6.390   7.845  14.654  1.00  0.00     0.029 C 
HETATM   10  C16 UNL     1      -7.844   7.700  15.217  1.00  0.00    -0.031 C 
HETATM   11  C17 UNL     1      -7.866   7.025  16.610  1.00  0.00     0.016 C 
HETATM   12  C18 UNL     1      -8.562   9.075  15.349  1.00  0.00     0.012 C 
HETATM   13  C19 UNL     1     -10.063   8.957  15.648  1.00  0.00     0.032 C 
HETATM   14  C20 UNL     1     -10.798   8.014  14.696  1.00  0.00     0.118 C 
HETATM   15  C21 UNL     1     -10.088   6.670  14.508  1.00  0.00     0.039 C 
HETATM   16  C22 UNL     1      -8.619   6.891  14.127  1.00  0.00     0.025 C 
HETATM   17  C23 UNL     1      -7.856   5.671  13.551  1.00  0.00     0.126 C 
HETATM   18  C24 UNL     1      -6.524   5.309  14.208  1.00  0.00     0.071 C 
HETATM   19  C25 UNL     1      -5.611   6.485  14.622  1.00  0.00     0.071 C 
ENDROOT
BRANCH   1  20
HETATM   20  C5  UNL     1      -0.989   8.628  13.301  1.00  0.00    -0.011 C 
HETATM   21  C6  UNL     1      -1.201  10.094  13.699  1.00  0.00     0.010 C 
BRANCH  20  22
HETATM   22  C4  UNL     1      -0.170   8.562  11.979  1.00  0.00     0.009 C 
BRANCH  22  23
HETATM   23  C3  UNL     1       1.257   8.013  12.168  1.00  0.00     0.034 C 
BRANCH  23  24
HETATM   24  C2  UNL     1       2.121   8.667  13.246  1.00  0.00    -0.083 C 
HETATM   25  C1  UNL     1       2.559   9.937  13.170  1.00  0.00     0.015 C 
BRANCH  24  26
HETATM   26  C26 UNL     1       2.466   7.732  14.421  1.00  0.00     0.033 C 
HETATM   27  C27 UNL     1       3.885   7.899  14.983  1.00  0.00     0.017 C 
BRANCH  26  28
HETATM   28  C28 UNL     1       1.429   7.837  15.559  1.00  0.00     0.172 C 
BRANCH  28  29
HETATM   29  O6  UNL     1       1.759   6.999  16.662  1.00  0.00    -0.400 OA
HETATM   30  H48 UNL     1       2.664   7.233  16.932  1.00  0.00     0.209 HD
ENDBRANCH  28  29
ENDBRANCH  26  28
ENDBRANCH  24  26
ENDBRANCH  23  24
ENDBRANCH  22  23
ENDBRANCH  20  22
ENDBRANCH   1  20
BRANCH   2  31
HETATM   31  O1  UNL     1      -0.983   5.795  13.434  1.00  0.00    -0.393 OA
HETATM   32  H13 UNL     1      -0.816   4.926  13.033  1.00  0.00     0.210 HD
ENDBRANCH   2  31
BRANCH   3  33
HETATM   33  O2  UNL     1      -3.947   4.731  12.428  1.00  0.00    -0.392 OA
HETATM   34  H15 UNL     1      -3.307   4.012  12.282  1.00  0.00     0.210 HD
ENDBRANCH   3  33
BRANCH  19  35
HETATM   35  O5  UNL     1      -5.165   6.166  15.947  1.00  0.00    -0.389 OA
HETATM   36  H41 UNL     1      -4.734   5.295  15.926  1.00  0.00     0.210 HD
ENDBRANCH  19  35
BRANCH  17  37
HETATM   37  O4  UNL     1      -8.683   4.509  13.512  1.00  0.00    -0.395 OA
HETATM   38  H38 UNL     1      -8.846   4.228  14.430  1.00  0.00     0.210 HD
ENDBRANCH  17  37
BRANCH  14  39
HETATM   39  O3  UNL     1     -12.112   7.796  15.198  1.00  0.00    -0.396 OA
HETATM   40  H33 UNL     1     -12.567   7.202  14.576  1.00  0.00     0.210 HD
ENDBRANCH  14  39
TORSDOF 12
ENDMDL
