MODEL 1
REMARK minimizedAffinity -9.3771925
REMARK  6 active torsions:
REMARK  status: ('A' for Active; 'I' for Inactive)
REMARK    1  A    between atoms: C4_4  and  C5_5 
REMARK    2  A    between atoms: C5_5  and  O1_6 
REMARK    3  A    between atoms: C5_5  and  C6_7 
REMARK    4  A    between atoms: C6_7  and  C7_8 
REMARK    5  A    between atoms: C7_8  and  C9_10 
REMARK    6  A    between atoms: C30_32  and  O3_33 
ROOT
HETATM    1  C9  UNL     1      -1.866  51.259 -23.334  1.00  0.00    -0.002 C 
HETATM    2  C10 UNL     1      -2.905  52.156 -24.067  1.00  0.00     0.007 C 
HETATM    3  C11 UNL     1      -4.285  51.485 -23.925  1.00  0.00     0.015 C 
HETATM    4  C12 UNL     1      -3.992  50.070 -23.402  1.00  0.00    -0.010 C 
HETATM    5  C13 UNL     1      -3.646  49.196 -24.650  1.00  0.00     0.021 C 
HETATM    6  C14 UNL     1      -5.084  49.284 -22.673  1.00  0.00    -0.039 C 
HETATM    7  C15 UNL     1      -4.746  48.352 -21.741  1.00  0.00    -0.066 C 
HETATM    8  C16 UNL     1      -3.280  48.122 -21.342  1.00  0.00     0.036 C 
HETATM    9  C17 UNL     1      -2.208  49.007 -22.008  1.00  0.00     0.015 C 
HETATM   10  C18 UNL     1      -2.779  50.364 -22.436  1.00  0.00    -0.029 C 
HETATM   11  C19 UNL     1      -3.194  51.167 -21.165  1.00  0.00     0.016 C 
HETATM   12  C20 UNL     1      -5.803  47.450 -21.041  1.00  0.00    -0.015 C 
HETATM   13  C21 UNL     1      -5.645  46.036 -21.651  1.00  0.00     0.020 C 
HETATM   14  C22 UNL     1      -5.538  47.381 -19.510  1.00  0.00     0.021 C 
HETATM   15  C23 UNL     1      -6.733  46.992 -18.642  1.00  0.00     0.080 C 
HETATM   16  C24 UNL     1      -7.855  46.352 -19.423  1.00  0.00     0.135 C 
HETATM   17  O2  UNL     1      -8.347  45.288 -19.052  1.00  0.00    -0.297 OA
HETATM   18  C25 UNL     1      -8.398  47.135 -20.626  1.00  0.00     0.018 C 
HETATM   19  C26 UNL     1      -9.036  46.159 -21.635  1.00  0.00     0.023 C 
HETATM   20  C27 UNL     1      -9.526  48.042 -20.090  1.00  0.00     0.023 C 
HETATM   21  C28 UNL     1      -7.252  48.025 -21.229  1.00  0.00     0.016 C 
HETATM   22  C29 UNL     1      -7.489  48.433 -22.693  1.00  0.00     0.043 C 
HETATM   23  C30 UNL     1      -6.507  49.523 -23.122  1.00  0.00     0.148 C 
ENDROOT
BRANCH   1  24
HETATM   24  C7  UNL     1      -0.705  52.090 -22.705  1.00  0.00    -0.011 C 
HETATM   25  C8  UNL     1      -0.064  51.375 -21.507  1.00  0.00     0.010 C 
BRANCH  24  26
HETATM   26  C6  UNL     1       0.419  52.374 -23.750  1.00  0.00     0.040 C 
BRANCH  26  27
HETATM   27  C5  UNL     1       0.147  53.575 -24.677  1.00  0.00     0.141 C 
BRANCH  27  28
HETATM   28  C4  UNL     1       0.046  53.135 -26.117  1.00  0.00     0.006 C 
HETATM   29  C2  UNL     1       0.881  52.304 -26.779  1.00  0.00    -0.089 C 
HETATM   30  C1  UNL     1       0.664  51.999 -28.238  1.00  0.00     0.042 C 
HETATM   31  C3  UNL     1       2.062  51.600 -26.162  1.00  0.00     0.042 C 
ENDBRANCH  27  28
BRANCH  27  32
HETATM   32  O1  UNL     1       1.215  54.511 -24.555  1.00  0.00    -0.392 OA
HETATM   33  H9  UNL     1       1.584  54.658 -25.449  1.00  0.00     0.210 HD
ENDBRANCH  27  32
ENDBRANCH  26  27
ENDBRANCH  24  26
ENDBRANCH   1  24
BRANCH  23  34
HETATM   34  O3  UNL     1      -6.963  50.761 -22.581  1.00  0.00    -0.391 OA
HETATM   35  H48 UNL     1      -6.482  50.909 -21.748  1.00  0.00     0.210 HD
ENDBRANCH  23  34
TORSDOF 6
ENDMDL
MODEL 2
REMARK minimizedAffinity -9.33020306
REMARK  6 active torsions:
REMARK  status: ('A' for Active; 'I' for Inactive)
REMARK    1  A    between atoms: C4_4  and  C5_5 
REMARK    2  A    between atoms: C5_5  and  O1_6 
REMARK    3  A    between atoms: C5_5  and  C6_7 
REMARK    4  A    between atoms: C6_7  and  C7_8 
REMARK    5  A    between atoms: C7_8  and  C9_10 
REMARK    6  A    between atoms: C30_32  and  O3_33 
ROOT
HETATM    1  C9  UNL     1      -0.955  52.035 -21.378  1.00  0.00    -0.002 C 
HETATM    2  C10 UNL     1      -0.418  51.012 -20.334  1.00  0.00     0.007 C 
HETATM    3  C11 UNL     1      -1.508  49.944 -20.121  1.00  0.00     0.015 C 
HETATM    4  C12 UNL     1      -2.770  50.521 -20.782  1.00  0.00    -0.010 C 
HETATM    5  C13 UNL     1      -3.431  51.469 -19.731  1.00  0.00     0.021 C 
HETATM    6  C14 UNL     1      -3.899  49.584 -21.219  1.00  0.00    -0.039 C 
HETATM    7  C15 UNL     1      -4.707  49.929 -22.258  1.00  0.00    -0.066 C 
HETATM    8  C16 UNL     1      -4.462  51.214 -23.063  1.00  0.00     0.036 C 
HETATM    9  C17 UNL     1      -3.249  52.082 -22.676  1.00  0.00     0.015 C 
HETATM   10  C18 UNL     1      -2.135  51.248 -22.031  1.00  0.00    -0.029 C 
HETATM   11  C19 UNL     1      -1.565  50.253 -23.089  1.00  0.00     0.016 C 
HETATM   12  C20 UNL     1      -5.932  49.070 -22.683  1.00  0.00    -0.015 C 
HETATM   13  C21 UNL     1      -7.191  49.844 -22.220  1.00  0.00     0.020 C 
HETATM   14  C22 UNL     1      -5.974  48.900 -24.228  1.00  0.00     0.021 C 
HETATM   15  C23 UNL     1      -6.768  47.703 -24.747  1.00  0.00     0.080 C 
HETATM   16  C24 UNL     1      -7.707  47.118 -23.719  1.00  0.00     0.135 C 
HETATM   17  O2  UNL     1      -8.888  46.915 -23.996  1.00  0.00    -0.297 OA
HETATM   18  C25 UNL     1      -7.095  46.713 -22.372  1.00  0.00     0.018 C 
HETATM   19  C26 UNL     1      -8.184  46.739 -21.279  1.00  0.00     0.023 C 
HETATM   20  C27 UNL     1      -6.630  45.249 -22.520  1.00  0.00     0.023 C 
HETATM   21  C28 UNL     1      -5.856  47.629 -22.065  1.00  0.00     0.016 C 
HETATM   22  C29 UNL     1      -5.488  47.695 -20.573  1.00  0.00     0.043 C 
HETATM   23  C30 UNL     1      -4.120  48.349 -20.377  1.00  0.00     0.148 C 
ENDROOT
BRANCH   1  24
HETATM   24  C7  UNL     1       0.183  52.635 -22.259  1.00  0.00    -0.011 C 
HETATM   25  C8  UNL     1       1.577  52.216 -21.769  1.00  0.00     0.010 C 
BRANCH  24  26
HETATM   26  C6  UNL     1       0.045  52.184 -23.747  1.00  0.00     0.040 C 
BRANCH  26  27
HETATM   27  C5  UNL     1      -0.064  53.340 -24.761  1.00  0.00     0.141 C 
BRANCH  27  28
HETATM   28  C4  UNL     1      -0.088  52.819 -26.177  1.00  0.00     0.006 C 
HETATM   29  C2  UNL     1       0.852  52.063 -26.786  1.00  0.00    -0.089 C 
HETATM   30  C1  UNL     1       0.697  51.660 -28.230  1.00  0.00     0.042 C 
HETATM   31  C3  UNL     1       2.100  51.542 -26.122  1.00  0.00     0.042 C 
ENDBRANCH  27  28
BRANCH  27  32
HETATM   32  O1  UNL     1       1.061  54.203 -24.607  1.00  0.00    -0.392 OA
HETATM   33  H9  UNL     1       1.508  54.266 -25.475  1.00  0.00     0.210 HD
ENDBRANCH  27  32
ENDBRANCH  26  27
ENDBRANCH  24  26
ENDBRANCH   1  24
BRANCH  23  34
HETATM   34  O3  UNL     1      -3.123  47.383 -20.700  1.00  0.00    -0.391 OA
HETATM   35  H48 UNL     1      -2.859  47.533 -21.624  1.00  0.00     0.210 HD
ENDBRANCH  23  34
TORSDOF 6
ENDMDL
MODEL 3
REMARK minimizedAffinity -9.19873047
REMARK  6 active torsions:
REMARK  status: ('A' for Active; 'I' for Inactive)
REMARK    1  A    between atoms: C4_4  and  C5_5 
REMARK    2  A    between atoms: C5_5  and  O1_6 
REMARK    3  A    between atoms: C5_5  and  C6_7 
REMARK    4  A    between atoms: C6_7  and  C7_8 
REMARK    5  A    between atoms: C7_8  and  C9_10 
REMARK    6  A    between atoms: C30_32  and  O3_33 
ROOT
HETATM    1  C9  UNL     1      -2.100  50.442 -24.947  1.00  0.00    -0.002 C 
HETATM    2  C10 UNL     1      -3.160  51.471 -25.435  1.00  0.00     0.007 C 
HETATM    3  C11 UNL     1      -4.505  51.105 -24.776  1.00  0.00     0.015 C 
HETATM    4  C12 UNL     1      -4.292  49.705 -24.180  1.00  0.00    -0.010 C 
HETATM    5  C13 UNL     1      -4.533  48.686 -25.339  1.00  0.00     0.021 C 
HETATM    6  C14 UNL     1      -5.192  49.214 -23.043  1.00  0.00    -0.039 C 
HETATM    7  C15 UNL     1      -4.721  48.307 -22.145  1.00  0.00    -0.066 C 
HETATM    8  C16 UNL     1      -3.265  47.817 -22.197  1.00  0.00     0.036 C 
HETATM    9  C17 UNL     1      -2.347  48.414 -23.282  1.00  0.00     0.015 C 
HETATM   10  C18 UNL     1      -2.795  49.822 -23.694  1.00  0.00    -0.029 C 
HETATM   11  C19 UNL     1      -2.623  50.787 -22.481  1.00  0.00     0.016 C 
HETATM   12  C20 UNL     1      -5.616  47.694 -21.030  1.00  0.00    -0.015 C 
HETATM   13  C21 UNL     1      -5.908  46.234 -21.456  1.00  0.00     0.020 C 
HETATM   14  C22 UNL     1      -4.870  47.691 -19.666  1.00  0.00     0.021 C 
HETATM   15  C23 UNL     1      -5.753  47.619 -18.421  1.00  0.00     0.080 C 
HETATM   16  C24 UNL     1      -7.161  47.161 -18.715  1.00  0.00     0.135 C 
HETATM   17  O2  UNL     1      -7.670  46.249 -18.063  1.00  0.00    -0.297 OA
HETATM   18  C25 UNL     1      -7.937  47.943 -19.782  1.00  0.00     0.018 C 
HETATM   19  C26 UNL     1      -9.029  47.040 -20.395  1.00  0.00     0.023 C 
HETATM   20  C27 UNL     1      -8.655  49.096 -19.051  1.00  0.00     0.023 C 
HETATM   21  C28 UNL     1      -6.929  48.533 -20.832  1.00  0.00     0.016 C 
HETATM   22  C29 UNL     1      -7.571  48.867 -22.190  1.00  0.00     0.043 C 
HETATM   23  C30 UNL     1      -6.623  49.700 -23.052  1.00  0.00     0.148 C 
ENDROOT
BRANCH   1  24
HETATM   24  C7  UNL     1      -0.675  51.068 -24.836  1.00  0.00    -0.011 C 
HETATM   25  C8  UNL     1       0.140  50.883 -26.124  1.00  0.00     0.010 C 
BRANCH  24  26
HETATM   26  C6  UNL     1      -0.750  52.597 -24.533  1.00  0.00     0.040 C 
BRANCH  26  27
HETATM   27  C5  UNL     1       0.618  53.283 -24.347  1.00  0.00     0.141 C 
BRANCH  27  28
HETATM   28  C4  UNL     1       0.735  53.895 -22.972  1.00  0.00     0.006 C 
HETATM   29  C2  UNL     1       0.846  53.243 -21.794  1.00  0.00    -0.089 C 
HETATM   30  C1  UNL     1       0.908  54.006 -20.497  1.00  0.00     0.042 C 
HETATM   31  C3  UNL     1       0.936  51.746 -21.644  1.00  0.00     0.042 C 
ENDBRANCH  27  28
BRANCH  27  32
HETATM   32  O1  UNL     1       0.761  54.312 -25.323  1.00  0.00    -0.392 OA
HETATM   33  H9  UNL     1       0.937  55.149 -24.847  1.00  0.00     0.210 HD
ENDBRANCH  27  32
ENDBRANCH  26  27
ENDBRANCH  24  26
ENDBRANCH   1  24
BRANCH  23  34
HETATM   34  O3  UNL     1      -6.660  51.042 -22.573  1.00  0.00    -0.391 OA
HETATM   35  H48 UNL     1      -5.911  51.154 -21.962  1.00  0.00     0.210 HD
ENDBRANCH  23  34
TORSDOF 6
ENDMDL
MODEL 4
REMARK minimizedAffinity -9.14312077
REMARK  6 active torsions:
REMARK  status: ('A' for Active; 'I' for Inactive)
REMARK    1  A    between atoms: C4_4  and  C5_5 
REMARK    2  A    between atoms: C5_5  and  O1_6 
REMARK    3  A    between atoms: C5_5  and  C6_7 
REMARK    4  A    between atoms: C6_7  and  C7_8 
REMARK    5  A    between atoms: C7_8  and  C9_10 
REMARK    6  A    between atoms: C30_32  and  O3_33 
ROOT
HETATM    1  C9  UNL     1      -1.159  51.663 -23.072  1.00  0.00    -0.002 C 
HETATM    2  C10 UNL     1      -2.450  52.365 -23.585  1.00  0.00     0.007 C 
HETATM    3  C11 UNL     1      -3.658  51.567 -23.057  1.00  0.00     0.015 C 
HETATM    4  C12 UNL     1      -3.069  50.251 -22.525  1.00  0.00    -0.010 C 
HETATM    5  C13 UNL     1      -2.922  49.299 -23.755  1.00  0.00     0.021 C 
HETATM    6  C14 UNL     1      -3.845  49.429 -21.494  1.00  0.00    -0.039 C 
HETATM    7  C15 UNL     1      -3.176  48.636 -20.612  1.00  0.00    -0.066 C 
HETATM    8  C16 UNL     1      -1.641  48.606 -20.576  1.00  0.00     0.036 C 
HETATM    9  C17 UNL     1      -0.882  49.530 -21.548  1.00  0.00     0.015 C 
HETATM   10  C18 UNL     1      -1.709  50.769 -21.915  1.00  0.00    -0.029 C 
HETATM   11  C19 UNL     1      -1.908  51.646 -20.640  1.00  0.00     0.016 C 
HETATM   12  C20 UNL     1      -3.910  47.700 -19.609  1.00  0.00    -0.015 C 
HETATM   13  C21 UNL     1      -3.722  46.257 -20.139  1.00  0.00     0.020 C 
HETATM   14  C22 UNL     1      -3.280  47.813 -18.192  1.00  0.00     0.021 C 
HETATM   15  C23 UNL     1      -4.173  47.386 -17.028  1.00  0.00     0.080 C 
HETATM   16  C24 UNL     1      -5.357  46.555 -17.458  1.00  0.00     0.135 C 
HETATM   17  O2  UNL     1      -5.605  45.485 -16.902  1.00  0.00    -0.297 OA
HETATM   18  C25 UNL     1      -6.268  47.151 -18.539  1.00  0.00     0.018 C 
HETATM   19  C26 UNL     1      -6.998  46.016 -19.287  1.00  0.00     0.023 C 
HETATM   20  C27 UNL     1      -7.342  47.979 -17.804  1.00  0.00     0.023 C 
HETATM   21  C28 UNL     1      -5.424  48.093 -19.470  1.00  0.00     0.016 C 
HETATM   22  C29 UNL     1      -6.055  48.326 -20.854  1.00  0.00     0.043 C 
HETATM   23  C30 UNL     1      -5.353  49.467 -21.590  1.00  0.00     0.148 C 
ENDROOT
BRANCH   1  24
HETATM   24  C7  UNL     1       0.001  52.673 -22.813  1.00  0.00    -0.011 C 
HETATM   25  C8  UNL     1       0.987  52.162 -21.752  1.00  0.00     0.010 C 
BRANCH  24  26
HETATM   26  C6  UNL     1       0.808  52.957 -24.118  1.00  0.00     0.040 C 
BRANCH  26  27
HETATM   27  C5  UNL     1       0.004  53.660 -25.230  1.00  0.00     0.141 C 
BRANCH  27  28
HETATM   28  C4  UNL     1       0.435  53.180 -26.595  1.00  0.00     0.006 C 
HETATM   29  C2  UNL     1       0.338  51.927 -27.090  1.00  0.00    -0.089 C 
HETATM   30  C1  UNL     1       0.860  51.601 -28.465  1.00  0.00     0.042 C 
HETATM   31  C3  UNL     1      -0.289  50.763 -26.368  1.00  0.00     0.042 C 
ENDBRANCH  27  28
BRANCH  27  32
HETATM   32  O1  UNL     1       0.221  55.066 -25.146  1.00  0.00    -0.392 OA
HETATM   33  H9  UNL     1       0.559  55.366 -26.014  1.00  0.00     0.210 HD
ENDBRANCH  27  32
ENDBRANCH  26  27
ENDBRANCH  24  26
ENDBRANCH   1  24
BRANCH  23  34
HETATM   34  O3  UNL     1      -5.821  50.696 -21.040  1.00  0.00    -0.391 OA
HETATM   35  H48 UNL     1      -5.179  50.978 -20.366  1.00  0.00     0.210 HD
ENDBRANCH  23  34
TORSDOF 6
ENDMDL
MODEL 5
REMARK minimizedAffinity -9.04567814
REMARK  6 active torsions:
REMARK  status: ('A' for Active; 'I' for Inactive)
REMARK    1  A    between atoms: C4_4  and  C5_5 
REMARK    2  A    between atoms: C5_5  and  O1_6 
REMARK    3  A    between atoms: C5_5  and  C6_7 
REMARK    4  A    between atoms: C6_7  and  C7_8 
REMARK    5  A    between atoms: C7_8  and  C9_10 
REMARK    6  A    between atoms: C30_32  and  O3_33 
ROOT
HETATM    1  C9  UNL     1      -0.325  52.623 -21.715  1.00  0.00    -0.002 C 
HETATM    2  C10 UNL     1       0.988  53.447 -21.580  1.00  0.00     0.007 C 
HETATM    3  C11 UNL     1       1.445  53.364 -20.111  1.00  0.00     0.015 C 
HETATM    4  C12 UNL     1       0.246  52.775 -19.351  1.00  0.00    -0.010 C 
HETATM    5  C13 UNL     1      -0.710  53.968 -19.032  1.00  0.00     0.021 C 
HETATM    6  C14 UNL     1       0.462  52.085 -18.002  1.00  0.00    -0.039 C 
HETATM    7  C15 UNL     1      -0.388  51.102 -17.596  1.00  0.00    -0.066 C 
HETATM    8  C16 UNL     1      -1.526  50.609 -18.504  1.00  0.00     0.036 C 
HETATM    9  C17 UNL     1      -1.651  51.242 -19.904  1.00  0.00     0.015 C 
HETATM   10  C18 UNL     1      -0.299  51.750 -20.420  1.00  0.00    -0.029 C 
HETATM   11  C19 UNL     1       0.654  50.534 -20.639  1.00  0.00     0.016 C 
HETATM   12  C20 UNL     1      -0.283  50.434 -16.195  1.00  0.00    -0.015 C 
HETATM   13  C21 UNL     1      -1.464  50.984 -15.358  1.00  0.00     0.020 C 
HETATM   14  C22 UNL     1      -0.413  48.889 -16.312  1.00  0.00     0.021 C 
HETATM   15  C23 UNL     1       0.172  48.079 -15.156  1.00  0.00     0.080 C 
HETATM   16  C24 UNL     1       0.415  48.903 -13.914  1.00  0.00     0.135 C 
HETATM   17  O2  UNL     1      -0.004  48.524 -12.821  1.00  0.00    -0.297 OA
HETATM   18  C25 UNL     1       1.277  50.162 -14.074  1.00  0.00     0.018 C 
HETATM   19  C26 UNL     1       0.931  51.173 -12.961  1.00  0.00     0.023 C 
HETATM   20  C27 UNL     1       2.741  49.726 -13.857  1.00  0.00     0.023 C 
HETATM   21  C28 UNL     1       1.109  50.728 -15.530  1.00  0.00     0.016 C 
HETATM   22  C29 UNL     1       1.472  52.217 -15.663  1.00  0.00     0.043 C 
HETATM   23  C30 UNL     1       1.574  52.625 -17.133  1.00  0.00     0.148 C 
ENDROOT
BRANCH   1  24
HETATM   24  C7  UNL     1      -0.464  51.956 -23.118  1.00  0.00    -0.011 C 
HETATM   25  C8  UNL     1      -1.860  52.168 -23.724  1.00  0.00     0.010 C 
BRANCH  24  26
HETATM   26  C6  UNL     1       0.585  52.527 -24.124  1.00  0.00     0.040 C 
BRANCH  26  27
HETATM   27  C5  UNL     1       0.015  53.529 -25.147  1.00  0.00     0.141 C 
BRANCH  27  28
HETATM   28  C4  UNL     1       0.075  52.968 -26.546  1.00  0.00     0.006 C 
HETATM   29  C2  UNL     1       1.028  52.160 -27.063  1.00  0.00    -0.089 C 
HETATM   30  C1  UNL     1       0.964  51.721 -28.503  1.00  0.00     0.042 C 
HETATM   31  C3  UNL     1       2.202  51.613 -26.294  1.00  0.00     0.042 C 
ENDBRANCH  27  28
BRANCH  27  32
HETATM   32  O1  UNL     1       0.780  54.731 -25.100  1.00  0.00    -0.392 OA
HETATM   33  H9  UNL     1       1.117  54.904 -26.002  1.00  0.00     0.210 HD
ENDBRANCH  27  32
ENDBRANCH  26  27
ENDBRANCH  24  26
ENDBRANCH   1  24
BRANCH  23  34
HETATM   34  O3  UNL     1       2.823  52.155 -17.632  1.00  0.00    -0.391 OA
HETATM   35  H48 UNL     1       2.660  51.301 -18.069  1.00  0.00     0.210 HD
ENDBRANCH  23  34
TORSDOF 6
ENDMDL
MODEL 6
REMARK minimizedAffinity -9.02489471
REMARK  6 active torsions:
REMARK  status: ('A' for Active; 'I' for Inactive)
REMARK    1  A    between atoms: C4_4  and  C5_5 
REMARK    2  A    between atoms: C5_5  and  O1_6 
REMARK    3  A    between atoms: C5_5  and  C6_7 
REMARK    4  A    between atoms: C6_7  and  C7_8 
REMARK    5  A    between atoms: C7_8  and  C9_10 
REMARK    6  A    between atoms: C30_32  and  O3_33 
ROOT
HETATM    1  C9  UNL     1      -2.354  51.424 -24.681  1.00  0.00    -0.002 C 
HETATM    2  C10 UNL     1      -2.710  52.649 -23.789  1.00  0.00     0.007 C 
HETATM    3  C11 UNL     1      -3.652  52.157 -22.673  1.00  0.00     0.015 C 
HETATM    4  C12 UNL     1      -4.085  50.748 -23.105  1.00  0.00    -0.010 C 
HETATM    5  C13 UNL     1      -5.281  50.932 -24.093  1.00  0.00     0.021 C 
HETATM    6  C14 UNL     1      -4.599  49.753 -22.061  1.00  0.00    -0.039 C 
HETATM    7  C15 UNL     1      -4.446  48.416 -22.262  1.00  0.00    -0.066 C 
HETATM    8  C16 UNL     1      -3.693  47.876 -23.487  1.00  0.00     0.036 C 
HETATM    9  C17 UNL     1      -3.085  48.901 -24.464  1.00  0.00     0.015 C 
HETATM   10  C18 UNL     1      -2.750  50.224 -23.764  1.00  0.00    -0.029 C 
HETATM   11  C19 UNL     1      -1.615  49.976 -22.723  1.00  0.00     0.016 C 
HETATM   12  C20 UNL     1      -5.035  47.354 -21.290  1.00  0.00    -0.015 C 
HETATM   13  C21 UNL     1      -6.251  46.723 -22.014  1.00  0.00     0.020 C 
HETATM   14  C22 UNL     1      -3.987  46.246 -20.986  1.00  0.00     0.021 C 
HETATM   15  C23 UNL     1      -4.206  45.454 -19.698  1.00  0.00     0.080 C 
HETATM   16  C24 UNL     1      -5.603  45.594 -19.142  1.00  0.00     0.135 C 
HETATM   17  O2  UNL     1      -6.257  44.597 -18.837  1.00  0.00    -0.297 OA
HETATM   18  C25 UNL     1      -6.112  47.020 -18.895  1.00  0.00     0.018 C 
HETATM   19  C26 UNL     1      -7.654  47.035 -18.941  1.00  0.00     0.023 C 
HETATM   20  C27 UNL     1      -5.693  47.396 -17.458  1.00  0.00     0.023 C 
HETATM   21  C28 UNL     1      -5.430  48.001 -19.914  1.00  0.00     0.016 C 
HETATM   22  C29 UNL     1      -6.208  49.310 -20.132  1.00  0.00     0.043 C 
HETATM   23  C30 UNL     1      -5.360  50.330 -20.890  1.00  0.00     0.148 C 
ENDROOT
BRANCH   1  24
HETATM   24  C7  UNL     1      -0.916  51.526 -25.278  1.00  0.00    -0.011 C 
HETATM   25  C8  UNL     1      -0.851  51.004 -26.722  1.00  0.00     0.010 C 
BRANCH  24  26
HETATM   26  C6  UNL     1      -0.406  53.001 -25.280  1.00  0.00     0.040 C 
BRANCH  26  27
HETATM   27  C5  UNL     1       0.802  53.263 -24.360  1.00  0.00     0.141 C 
BRANCH  27  28
HETATM   28  C4  UNL     1       0.554  52.722 -22.972  1.00  0.00     0.006 C 
HETATM   29  C2  UNL     1       0.975  53.249 -21.802  1.00  0.00    -0.089 C 
HETATM   30  C1  UNL     1       0.679  52.557 -20.497  1.00  0.00     0.042 C 
HETATM   31  C3  UNL     1       1.738  54.541 -21.665  1.00  0.00     0.042 C 
ENDBRANCH  27  28
BRANCH  27  32
HETATM   32  O1  UNL     1       1.027  54.668 -24.272  1.00  0.00    -0.392 OA
HETATM   33  H9  UNL     1       1.000  54.915 -23.326  1.00  0.00     0.210 HD
ENDBRANCH  27  32
ENDBRANCH  26  27
ENDBRANCH  24  26
ENDBRANCH   1  24
BRANCH  23  34
HETATM   34  O3  UNL     1      -4.432  50.899 -19.969  1.00  0.00    -0.391 OA
HETATM   35  H48 UNL     1      -3.596  50.409 -20.058  1.00  0.00     0.210 HD
ENDBRANCH  23  34
TORSDOF 6
ENDMDL
MODEL 7
REMARK minimizedAffinity -8.86067677
REMARK  6 active torsions:
REMARK  status: ('A' for Active; 'I' for Inactive)
REMARK    1  A    between atoms: C4_4  and  C5_5 
REMARK    2  A    between atoms: C5_5  and  O1_6 
REMARK    3  A    between atoms: C5_5  and  C6_7 
REMARK    4  A    between atoms: C6_7  and  C7_8 
REMARK    5  A    between atoms: C7_8  and  C9_10 
REMARK    6  A    between atoms: C30_32  and  O3_33 
ROOT
HETATM    1  C9  UNL     1      -1.216  51.859 -21.301  1.00  0.00    -0.002 C 
HETATM    2  C10 UNL     1      -0.238  51.274 -20.240  1.00  0.00     0.007 C 
HETATM    3  C11 UNL     1      -0.965  50.123 -19.518  1.00  0.00     0.015 C 
HETATM    4  C12 UNL     1      -2.439  50.258 -19.931  1.00  0.00    -0.010 C 
HETATM    5  C13 UNL     1      -3.075  51.317 -18.976  1.00  0.00     0.021 C 
HETATM    6  C14 UNL     1      -3.372  49.047 -19.837  1.00  0.00    -0.039 C 
HETATM    7  C15 UNL     1      -4.440  48.944 -20.675  1.00  0.00    -0.066 C 
HETATM    8  C16 UNL     1      -4.690  49.985 -21.777  1.00  0.00     0.036 C 
HETATM    9  C17 UNL     1      -3.672  51.132 -21.924  1.00  0.00     0.015 C 
HETATM   10  C18 UNL     1      -2.278  50.722 -21.431  1.00  0.00    -0.029 C 
HETATM   11  C19 UNL     1      -1.719  49.599 -22.358  1.00  0.00     0.016 C 
HETATM   12  C20 UNL     1      -5.480  47.792 -20.562  1.00  0.00    -0.015 C 
HETATM   13  C21 UNL     1      -6.763  48.419 -19.962  1.00  0.00     0.020 C 
HETATM   14  C22 UNL     1      -5.803  47.205 -21.965  1.00  0.00     0.021 C 
HETATM   15  C23 UNL     1      -6.371  45.787 -21.981  1.00  0.00     0.080 C 
HETATM   16  C24 UNL     1      -6.901  45.342 -20.639  1.00  0.00     0.135 C 
HETATM   17  O2  UNL     1      -8.029  44.858 -20.542  1.00  0.00    -0.297 OA
HETATM   18  C25 UNL     1      -5.940  45.436 -19.447  1.00  0.00     0.018 C 
HETATM   19  C26 UNL     1      -6.748  45.558 -18.138  1.00  0.00     0.023 C 
HETATM   20  C27 UNL     1      -5.174  44.098 -19.390  1.00  0.00     0.023 C 
HETATM   21  C28 UNL     1      -4.926  46.612 -19.687  1.00  0.00     0.016 C 
HETATM   22  C29 UNL     1      -4.280  47.147 -18.397  1.00  0.00     0.043 C 
HETATM   23  C30 UNL     1      -3.103  48.068 -18.718  1.00  0.00     0.148 C 
ENDROOT
BRANCH   1  24
HETATM   24  C7  UNL     1      -0.470  52.395 -22.561  1.00  0.00    -0.011 C 
HETATM   25  C8  UNL     1       1.030  52.600 -22.303  1.00  0.00     0.010 C 
BRANCH  24  26
HETATM   26  C6  UNL     1      -0.617  51.415 -23.767  1.00  0.00     0.040 C 
BRANCH  26  27
HETATM   27  C5  UNL     1      -0.519  52.082 -25.153  1.00  0.00     0.141 C 
BRANCH  27  28
HETATM   28  C4  UNL     1       0.874  51.951 -25.720  1.00  0.00     0.006 C 
HETATM   29  C2  UNL     1       1.219  51.826 -27.020  1.00  0.00    -0.089 C 
HETATM   30  C1  UNL     1       2.662  51.660 -27.419  1.00  0.00     0.042 C 
HETATM   31  C3  UNL     1       0.251  51.856 -28.174  1.00  0.00     0.042 C 
ENDBRANCH  27  28
BRANCH  27  32
HETATM   32  O1  UNL     1      -0.838  53.466 -25.029  1.00  0.00    -0.392 OA
HETATM   33  H9  UNL     1      -0.082  53.977 -25.382  1.00  0.00     0.210 HD
ENDBRANCH  27  32
ENDBRANCH  26  27
ENDBRANCH  24  26
ENDBRANCH   1  24
BRANCH  23  34
HETATM   34  O3  UNL     1      -1.991  47.250 -19.075  1.00  0.00    -0.391 OA
HETATM   35  H48 UNL     1      -1.973  47.190 -20.046  1.00  0.00     0.210 HD
ENDBRANCH  23  34
TORSDOF 6
ENDMDL
MODEL 8
REMARK minimizedAffinity -8.84756279
REMARK  6 active torsions:
REMARK  status: ('A' for Active; 'I' for Inactive)
REMARK    1  A    between atoms: C4_4  and  C5_5 
REMARK    2  A    between atoms: C5_5  and  O1_6 
REMARK    3  A    between atoms: C5_5  and  C6_7 
REMARK    4  A    between atoms: C6_7  and  C7_8 
REMARK    5  A    between atoms: C7_8  and  C9_10 
REMARK    6  A    between atoms: C30_32  and  O3_33 
ROOT
HETATM    1  C9  UNL     1      -1.565  50.722 -18.015  1.00  0.00    -0.002 C 
HETATM    2  C10 UNL     1      -2.483  49.466 -17.958  1.00  0.00     0.007 C 
HETATM    3  C11 UNL     1      -3.002  49.200 -19.385  1.00  0.00     0.015 C 
HETATM    4  C12 UNL     1      -2.651  50.466 -20.182  1.00  0.00    -0.010 C 
HETATM    5  C13 UNL     1      -3.794  51.496 -19.910  1.00  0.00     0.021 C 
HETATM    6  C14 UNL     1      -2.545  50.404 -21.707  1.00  0.00    -0.039 C 
HETATM    7  C15 UNL     1      -1.725  51.265 -22.369  1.00  0.00    -0.066 C 
HETATM    8  C16 UNL     1      -0.833  52.258 -21.609  1.00  0.00     0.036 C 
HETATM    9  C17 UNL     1      -0.873  52.222 -20.068  1.00  0.00     0.015 C 
HETATM   10  C18 UNL     1      -1.255  50.834 -19.542  1.00  0.00    -0.029 C 
HETATM   11  C19 UNL     1      -0.130  49.819 -19.913  1.00  0.00     0.016 C 
HETATM   12  C20 UNL     1      -1.651  51.318 -23.922  1.00  0.00    -0.015 C 
HETATM   13  C21 UNL     1      -2.380  52.616 -24.351  1.00  0.00     0.020 C 
HETATM   14  C22 UNL     1      -0.172  51.379 -24.400  1.00  0.00     0.021 C 
HETATM   15  C23 UNL     1       0.087  50.921 -25.834  1.00  0.00     0.080 C 
HETATM   16  C24 UNL     1      -1.164  50.869 -26.678  1.00  0.00     0.135 C 
HETATM   17  O2  UNL     1      -1.196  51.413 -27.781  1.00  0.00    -0.297 OA
HETATM   18  C25 UNL     1      -2.333  50.037 -26.136  1.00  0.00     0.018 C 
HETATM   19  C26 UNL     1      -3.660  50.559 -26.727  1.00  0.00     0.023 C 
HETATM   20  C27 UNL     1      -2.133  48.600 -26.659  1.00  0.00     0.023 C 
HETATM   21  C28 UNL     1      -2.288  50.035 -24.565  1.00  0.00     0.016 C 
HETATM   22  C29 UNL     1      -3.638  49.709 -23.905  1.00  0.00     0.043 C 
HETATM   23  C30 UNL     1      -3.464  49.433 -22.412  1.00  0.00     0.148 C 
ENDROOT
BRANCH   1  24
HETATM   24  C7  UNL     1      -0.406  50.655 -16.973  1.00  0.00    -0.011 C 
HETATM   25  C8  UNL     1       0.156  49.234 -16.822  1.00  0.00     0.010 C 
BRANCH  24  26
HETATM   26  C6  UNL     1       0.773  51.596 -17.376  1.00  0.00     0.040 C 
BRANCH  26  27
HETATM   27  C5  UNL     1       1.705  51.991 -16.214  1.00  0.00     0.141 C 
BRANCH  27  28
HETATM   28  C4  UNL     1       0.937  52.114 -14.921  1.00  0.00     0.006 C 
HETATM   29  C2  UNL     1       1.359  51.773 -13.683  1.00  0.00    -0.089 C 
HETATM   30  C1  UNL     1       0.447  51.918 -12.493  1.00  0.00     0.042 C 
HETATM   31  C3  UNL     1       2.734  51.251 -13.357  1.00  0.00     0.042 C 
ENDBRANCH  27  28
BRANCH  27  32
HETATM   32  O1  UNL     1       2.314  53.246 -16.510  1.00  0.00    -0.392 OA
HETATM   33  H9  UNL     1       2.107  53.856 -15.773  1.00  0.00     0.210 HD
ENDBRANCH  27  32
ENDBRANCH  26  27
ENDBRANCH  24  26
ENDBRANCH   1  24
BRANCH  23  34
HETATM   34  O3  UNL     1      -2.943  48.113 -22.269  1.00  0.00    -0.391 OA
HETATM   35  H48 UNL     1      -1.977  48.189 -22.182  1.00  0.00     0.210 HD
ENDBRANCH  23  34
TORSDOF 6
ENDMDL
MODEL 9
REMARK minimizedAffinity -8.81886101
REMARK  6 active torsions:
REMARK  status: ('A' for Active; 'I' for Inactive)
REMARK    1  A    between atoms: C4_4  and  C5_5 
REMARK    2  A    between atoms: C5_5  and  O1_6 
REMARK    3  A    between atoms: C5_5  and  C6_7 
REMARK    4  A    between atoms: C6_7  and  C7_8 
REMARK    5  A    between atoms: C7_8  and  C9_10 
REMARK    6  A    between atoms: C30_32  and  O3_33 
ROOT
HETATM    1  C9  UNL     1      -1.299  50.710 -22.595  1.00  0.00    -0.002 C 
HETATM    2  C10 UNL     1      -1.637  50.222 -24.034  1.00  0.00     0.007 C 
HETATM    3  C11 UNL     1      -2.835  49.258 -23.932  1.00  0.00     0.015 C 
HETATM    4  C12 UNL     1      -2.974  48.947 -22.434  1.00  0.00    -0.010 C 
HETATM    5  C13 UNL     1      -1.965  47.796 -22.122  1.00  0.00     0.021 C 
HETATM    6  C14 UNL     1      -4.310  48.448 -21.878  1.00  0.00    -0.039 C 
HETATM    7  C15 UNL     1      -4.647  48.702 -20.585  1.00  0.00    -0.066 C 
HETATM    8  C16 UNL     1      -3.745  49.556 -19.680  1.00  0.00     0.036 C 
HETATM    9  C17 UNL     1      -2.460  50.142 -20.298  1.00  0.00     0.015 C 
HETATM   10  C18 UNL     1      -2.601  50.348 -21.811  1.00  0.00    -0.029 C 
HETATM   11  C19 UNL     1      -3.682  51.441 -22.080  1.00  0.00     0.016 C 
HETATM   12  C20 UNL     1      -5.942  48.136 -19.933  1.00  0.00    -0.015 C 
HETATM   13  C21 UNL     1      -5.491  47.008 -18.973  1.00  0.00     0.020 C 
HETATM   14  C22 UNL     1      -6.675  49.240 -19.120  1.00  0.00     0.021 C 
HETATM   15  C23 UNL     1      -8.164  49.008 -18.869  1.00  0.00     0.080 C 
HETATM   16  C24 UNL     1      -8.590  47.577 -19.094  1.00  0.00     0.135 C 
HETATM   17  O2  UNL     1      -9.243  46.978 -18.240  1.00  0.00    -0.297 OA
HETATM   18  C25 UNL     1      -8.253  46.959 -20.457  1.00  0.00     0.018 C 
HETATM   19  C26 UNL     1      -8.170  45.423 -20.324  1.00  0.00     0.023 C 
HETATM   20  C27 UNL     1      -9.441  47.273 -21.391  1.00  0.00     0.023 C 
HETATM   21  C28 UNL     1      -6.949  47.625 -21.024  1.00  0.00     0.016 C 
HETATM   22  C29 UNL     1      -6.223  46.771 -22.078  1.00  0.00     0.043 C 
HETATM   23  C30 UNL     1      -5.148  47.587 -22.796  1.00  0.00     0.148 C 
ENDROOT
BRANCH   1  24
HETATM   24  C7  UNL     1      -0.742  52.166 -22.579  1.00  0.00    -0.011 C 
HETATM   25  C8  UNL     1      -0.119  52.533 -21.224  1.00  0.00     0.010 C 
BRANCH  24  26
HETATM   26  C6  UNL     1       0.350  52.368 -23.676  1.00  0.00     0.040 C 
BRANCH  26  27
HETATM   27  C5  UNL     1       0.060  53.510 -24.670  1.00  0.00     0.141 C 
BRANCH  27  28
HETATM   28  C4  UNL     1      -0.065  52.983 -26.079  1.00  0.00     0.006 C 
HETATM   29  C2  UNL     1       0.804  52.179 -26.731  1.00  0.00    -0.089 C 
HETATM   30  C1  UNL     1       0.553  51.778 -28.161  1.00  0.00     0.042 C 
HETATM   31  C3  UNL     1       2.058  51.600 -26.130  1.00  0.00     0.042 C 
ENDBRANCH  27  28
BRANCH  27  32
HETATM   32  O1  UNL     1       1.128  54.453 -24.623  1.00  0.00    -0.392 OA
HETATM   33  H9  UNL     1       1.482  54.544 -25.531  1.00  0.00     0.210 HD
ENDBRANCH  27  32
ENDBRANCH  26  27
ENDBRANCH  24  26
ENDBRANCH   1  24
BRANCH  23  34
HETATM   34  O3  UNL     1      -5.797  48.423 -23.751  1.00  0.00    -0.391 OA
HETATM   35  H48 UNL     1      -5.924  49.294 -23.337  1.00  0.00     0.210 HD
ENDBRANCH  23  34
TORSDOF 6
ENDMDL
