MODEL 1
REMARK minimizedAffinity -5.14463711
REMARK  0 active torsions:
REMARK  status: ('A' for Active; 'I' for Inactive)
ROOT
HETATM    1  C1  UNL     1      -4.648   1.994  11.389  1.00  0.00     0.001 A 
HETATM    2  C2  UNL     1      -5.935   1.481  11.467  1.00  0.00     0.001 A 
HETATM    3  C3  UNL     1      -6.918   2.185  12.158  1.00  0.00     0.008 A 
HETATM    4  C4  UNL     1      -6.641   3.415  12.793  1.00  0.00    -0.041 A 
HETATM    5  C5  UNL     1      -5.334   3.952  12.691  1.00  0.00    -0.041 A 
HETATM    6  C6  UNL     1      -4.351   3.212  11.996  1.00  0.00     0.008 A 
HETATM    7  C7  UNL     1      -4.858   5.241  13.340  1.00  0.00     0.125 C 
HETATM    8  S1  UNL     1      -6.138   6.467  13.679  1.00  0.00    -0.093 SA
HETATM    9  S2  UNL     1      -7.403   5.282  14.764  1.00  0.00    -0.093 SA
HETATM   10  C8  UNL     1      -7.820   4.093  13.472  1.00  0.00     0.125 C 
ENDROOT
TORSDOF 0
ENDMDL
MODEL 2
REMARK minimizedAffinity -5.14256763
REMARK  0 active torsions:
REMARK  status: ('A' for Active; 'I' for Inactive)
ROOT
HETATM    1  C1  UNL     1      -5.940   1.485  11.459  1.00  0.00     0.001 A 
HETATM    2  C2  UNL     1      -4.653   1.998  11.388  1.00  0.00     0.001 A 
HETATM    3  C3  UNL     1      -4.361   3.220  11.990  1.00  0.00     0.008 A 
HETATM    4  C4  UNL     1      -5.349   3.964  12.672  1.00  0.00    -0.041 A 
HETATM    5  C5  UNL     1      -6.657   3.428  12.768  1.00  0.00    -0.041 A 
HETATM    6  C6  UNL     1      -6.930   2.193  12.137  1.00  0.00     0.008 A 
HETATM    7  C7  UNL     1      -7.841   4.109  13.433  1.00  0.00     0.125 C 
HETATM    8  S1  UNL     1      -7.435   5.307  14.720  1.00  0.00    -0.093 SA
HETATM    9  S2  UNL     1      -6.162   6.485  13.637  1.00  0.00    -0.093 SA
HETATM   10  C8  UNL     1      -4.879   5.257  13.317  1.00  0.00     0.125 C 
ENDROOT
TORSDOF 0
ENDMDL
MODEL 3
REMARK minimizedAffinity -5.06742477
REMARK  0 active torsions:
REMARK  status: ('A' for Active; 'I' for Inactive)
ROOT
HETATM    1  C1  UNL     1      -7.688   4.124  13.514  1.00  0.00     0.001 A 
HETATM    2  C2  UNL     1      -7.726   2.892  12.877  1.00  0.00     0.001 A 
HETATM    3  C3  UNL     1      -6.593   2.419  12.218  1.00  0.00     0.008 A 
HETATM    4  C4  UNL     1      -5.397   3.167  12.173  1.00  0.00    -0.041 A 
HETATM    5  C5  UNL     1      -5.349   4.413  12.846  1.00  0.00    -0.041 A 
HETATM    6  C6  UNL     1      -6.515   4.876  13.496  1.00  0.00     0.008 A 
HETATM    7  C7  UNL     1      -4.158   5.356  12.869  1.00  0.00     0.125 C 
HETATM    8  S1  UNL     1      -2.545   4.588  12.617  1.00  0.00    -0.093 SA
HETATM    9  S2  UNL     1      -2.946   3.627  10.857  1.00  0.00    -0.093 SA
HETATM   10  C8  UNL     1      -4.229   2.508  11.457  1.00  0.00     0.125 C 
ENDROOT
TORSDOF 0
ENDMDL
MODEL 4
REMARK minimizedAffinity -5.0644722
REMARK  0 active torsions:
REMARK  status: ('A' for Active; 'I' for Inactive)
ROOT
HETATM    1  C1  UNL     1      -7.754   3.208  13.009  1.00  0.00     0.001 A 
HETATM    2  C2  UNL     1      -7.606   4.444  13.623  1.00  0.00     0.001 A 
HETATM    3  C3  UNL     1      -6.385   5.112  13.547  1.00  0.00     0.008 A 
HETATM    4  C4  UNL     1      -5.280   4.560  12.864  1.00  0.00    -0.041 A 
HETATM    5  C5  UNL     1      -5.439   3.310  12.214  1.00  0.00    -0.041 A 
HETATM    6  C6  UNL     1      -6.683   2.648  12.317  1.00  0.00     0.008 A 
HETATM    7  C7  UNL     1      -4.348   2.562  11.467  1.00  0.00     0.125 C 
HETATM    8  S1  UNL     1      -3.014   3.578  10.802  1.00  0.00    -0.093 SA
HETATM    9  S2  UNL     1      -2.481   4.535  12.528  1.00  0.00    -0.093 SA
HETATM   10  C8  UNL     1      -4.026   5.418  12.826  1.00  0.00     0.125 C 
ENDROOT
TORSDOF 0
ENDMDL
MODEL 5
REMARK minimizedAffinity -5.04672337
REMARK  0 active torsions:
REMARK  status: ('A' for Active; 'I' for Inactive)
ROOT
HETATM    1  C1  UNL     1      -6.469   2.340  11.907  1.00  0.00     0.001 A 
HETATM    2  C2  UNL     1      -7.571   2.519  12.731  1.00  0.00     0.001 A 
HETATM    3  C3  UNL     1      -7.611   3.601  13.608  1.00  0.00     0.008 A 
HETATM    4  C4  UNL     1      -6.549   4.528  13.688  1.00  0.00    -0.041 A 
HETATM    5  C5  UNL     1      -5.436   4.362  12.828  1.00  0.00    -0.041 A 
HETATM    6  C6  UNL     1      -5.414   3.249  11.957  1.00  0.00     0.008 A 
HETATM    7  C7  UNL     1      -4.199   5.243  12.808  1.00  0.00     0.125 C 
HETATM    8  S1  UNL     1      -4.430   6.931  13.402  1.00  0.00    -0.093 SA
HETATM    9  S2  UNL     1      -5.240   6.494  15.228  1.00  0.00    -0.093 SA
HETATM   10  C8  UNL     1      -6.747   5.683  14.657  1.00  0.00     0.125 C 
ENDROOT
TORSDOF 0
ENDMDL
MODEL 6
REMARK minimizedAffinity -4.82411575
REMARK  0 active torsions:
REMARK  status: ('A' for Active; 'I' for Inactive)
ROOT
HETATM    1  C1  UNL     1      -3.251   6.295  13.436  1.00  0.00     0.001 A 
HETATM    2  C2  UNL     1      -2.858   5.058  12.944  1.00  0.00     0.001 A 
HETATM    3  C3  UNL     1      -3.821   4.106  12.618  1.00  0.00     0.008 A 
HETATM    4  C4  UNL     1      -5.200   4.362  12.781  1.00  0.00    -0.041 A 
HETATM    5  C5  UNL     1      -5.603   5.634  13.258  1.00  0.00    -0.041 A 
HETATM    6  C6  UNL     1      -4.606   6.577  13.593  1.00  0.00     0.008 A 
HETATM    7  C7  UNL     1      -7.037   6.062  13.522  1.00  0.00     0.125 C 
HETATM    8  S1  UNL     1      -8.302   5.191  12.576  1.00  0.00    -0.093 SA
HETATM    9  S2  UNL     1      -7.786   3.278  13.081  1.00  0.00    -0.093 SA
HETATM   10  C8  UNL     1      -6.139   3.249  12.345  1.00  0.00     0.125 C 
ENDROOT
TORSDOF 0
ENDMDL
MODEL 7
REMARK minimizedAffinity -4.80543852
REMARK  0 active torsions:
REMARK  status: ('A' for Active; 'I' for Inactive)
ROOT
HETATM    1  C1  UNL     1      -2.597   4.202  11.994  1.00  0.00     0.001 A 
HETATM    2  C2  UNL     1      -2.719   5.360  12.748  1.00  0.00     0.001 A 
HETATM    3  C3  UNL     1      -3.965   5.730  13.251  1.00  0.00     0.008 A 
HETATM    4  C4  UNL     1      -5.120   4.956  13.007  1.00  0.00    -0.041 A 
HETATM    5  C5  UNL     1      -4.991   3.759  12.260  1.00  0.00    -0.041 A 
HETATM    6  C6  UNL     1      -3.719   3.414  11.751  1.00  0.00     0.008 A 
HETATM    7  C7  UNL     1      -6.133   2.831  11.879  1.00  0.00     0.125 C 
HETATM    8  S1  UNL     1      -7.574   2.876  12.964  1.00  0.00    -0.093 SA
HETATM    9  S2  UNL     1      -7.936   4.887  12.893  1.00  0.00    -0.093 SA
HETATM   10  C8  UNL     1      -6.402   5.456  13.653  1.00  0.00     0.125 C 
ENDROOT
TORSDOF 0
ENDMDL
MODEL 8
REMARK minimizedAffinity -4.68825674
REMARK  0 active torsions:
REMARK  status: ('A' for Active; 'I' for Inactive)
ROOT
HETATM    1  C1  UNL     1      -2.297   4.931  12.329  1.00  0.00     0.001 A 
HETATM    2  C2  UNL     1      -2.510   3.780  11.584  1.00  0.00     0.001 A 
HETATM    3  C3  UNL     1      -3.779   3.204  11.550  1.00  0.00     0.008 A 
HETATM    4  C4  UNL     1      -4.863   3.758  12.264  1.00  0.00    -0.041 A 
HETATM    5  C5  UNL     1      -4.652   4.948  13.003  1.00  0.00    -0.041 A 
HETATM    6  C6  UNL     1      -3.354   5.506  13.032  1.00  0.00     0.008 A 
HETATM    7  C7  UNL     1      -5.697   5.655  13.851  1.00  0.00     0.125 C 
HETATM    8  S1  UNL     1      -7.414   5.373  13.376  1.00  0.00    -0.093 SA
HETATM    9  S2  UNL     1      -7.400   3.328  13.416  1.00  0.00    -0.093 SA
HETATM   10  C8  UNL     1      -6.198   3.049  12.100  1.00  0.00     0.125 C 
ENDROOT
TORSDOF 0
ENDMDL
MODEL 9
REMARK minimizedAffinity -4.62157822
REMARK  0 active torsions:
REMARK  status: ('A' for Active; 'I' for Inactive)
ROOT
HETATM    1  C1  UNL     1       1.616   7.605   7.252  1.00  0.00     0.001 A 
HETATM    2  C2  UNL     1       2.464   6.533   7.492  1.00  0.00     0.001 A 
HETATM    3  C3  UNL     1       2.568   6.009   8.779  1.00  0.00     0.008 A 
HETATM    4  C4  UNL     1       1.835   6.546   9.859  1.00  0.00    -0.041 A 
HETATM    5  C5  UNL     1       0.949   7.623   9.609  1.00  0.00    -0.041 A 
HETATM    6  C6  UNL     1       0.871   8.145   8.298  1.00  0.00     0.008 A 
HETATM    7  C7  UNL     1       0.114   8.338  10.658  1.00  0.00     0.125 C 
HETATM    8  S1  UNL     1      -0.288   7.375  12.130  1.00  0.00    -0.093 SA
HETATM    9  S2  UNL     1       1.611   6.830  12.655  1.00  0.00    -0.093 SA
HETATM   10  C8  UNL     1       2.014   5.847  11.197  1.00  0.00     0.125 C 
ENDROOT
TORSDOF 0
ENDMDL
