MODEL 1
REMARK minimizedAffinity -7.14961243
REMARK CNNscore 0.559462786
REMARK CNNaffinity 6.37567139
REMARK  6 active torsions:
REMARK  status: ('A' for Active; 'I' for Inactive)
REMARK    1  A    between atoms: C2_2  and  C30_31 
REMARK    2  A    between atoms: C3_3  and  C4_4 
REMARK    3  A    between atoms: C4_4  and  C5_5 
REMARK    4  A    between atoms: C5_5  and  C6_6 
REMARK    5  A    between atoms: C6_6  and  C8_8 
REMARK    6  A    between atoms: C30_31  and  O3_33 
ROOT
HETATM    1  C8  UNL     1       3.688  12.085  20.585  1.00  0.00    -0.002 C 
HETATM    2  C9  UNL     1       4.391  11.218  19.490  1.00  0.00     0.007 C 
HETATM    3  C10 UNL     1       3.335  10.872  18.419  1.00  0.00     0.015 C 
HETATM    4  C11 UNL     1       2.175  11.841  18.702  1.00  0.00    -0.013 C 
HETATM    5  C12 UNL     1       2.576  13.211  18.053  1.00  0.00     0.021 C 
HETATM    6  C13 UNL     1       0.789  11.523  18.129  1.00  0.00    -0.070 C 
HETATM    7  C14 UNL     1       0.648  11.142  16.845  1.00  0.00    -0.022 C 
HETATM    8  C15 UNL     1      -0.652  11.188  16.105  1.00  0.00     0.034 C 
HETATM    9  C16 UNL     1      -1.631  12.189  16.759  1.00  0.00     0.013 C 
HETATM   10  C17 UNL     1      -2.919  12.458  15.899  1.00  0.00     0.018 C 
HETATM   11  C18 UNL     1      -3.648  11.206  15.384  1.00  0.00     0.023 C 
HETATM   12  C19 UNL     1      -2.520  13.291  14.653  1.00  0.00     0.023 C 
HETATM   13  C20 UNL     1      -3.933  13.284  16.707  1.00  0.00     0.135 C 
HETATM   14  O1  UNL     1      -4.624  14.165  16.191  1.00  0.00    -0.297 OA
HETATM   15  C21 UNL     1      -4.156  12.906  18.150  1.00  0.00     0.080 C 
HETATM   16  C22 UNL     1      -2.832  12.839  18.890  1.00  0.00     0.017 C 
HETATM   17  C23 UNL     1      -1.831  11.834  18.274  1.00  0.00    -0.031 C 
HETATM   18  C24 UNL     1      -2.394  10.397  18.475  1.00  0.00     0.016 C 
HETATM   19  C25 UNL     1      -0.419  11.856  19.024  1.00  0.00     0.024 C 
HETATM   20  C26 UNL     1      -0.104  13.084  19.905  1.00  0.00     0.010 C 
HETATM   21  C27 UNL     1       1.197  12.952  20.745  1.00  0.00     0.011 C 
HETATM   22  C28 UNL     1       2.171  11.846  20.271  1.00  0.00    -0.029 C 
HETATM   23  C29 UNL     1       1.778  10.467  20.897  1.00  0.00     0.016 C 
ENDROOT
BRANCH   1  24
HETATM   24  C6  UNL     1       4.246  11.797  22.013  1.00  0.00    -0.014 C 
HETATM   25  C7  UNL     1       3.589  10.562  22.643  1.00  0.00     0.010 C 
BRANCH  24  26
HETATM   26  C5  UNL     1       4.030  13.024  22.938  1.00  0.00     0.008 C 
BRANCH  26  27
HETATM   27  C4  UNL     1       5.294  13.877  23.119  1.00  0.00     0.028 C 
BRANCH  27  28
HETATM   28  C3  UNL     1       6.533  13.049  22.919  1.00  0.00    -0.013 C 
HETATM   29  C2  UNL     1       7.815  13.437  23.085  1.00  0.00     0.008 C 
HETATM   30  C1  UNL     1       8.272  14.812  23.474  1.00  0.00     0.055 C 
BRANCH  29  31
HETATM   31  C30 UNL     1       8.932  12.479  22.863  1.00  0.00     0.171 C 
HETATM   32  O2  UNL     1       9.971  12.735  22.279  1.00  0.00    -0.646 OA
BRANCH  31  33
HETATM   33  O3  UNL     1       8.710  11.249  23.358  1.00  0.00    -0.773 OA
HETATM   34  H46 UNL     1       9.522  10.758  23.117  1.00  0.00     0.167 HD
ENDBRANCH  31  33
ENDBRANCH  29  31
ENDBRANCH  27  28
ENDBRANCH  26  27
ENDBRANCH  24  26
ENDBRANCH   1  24
TORSDOF 6
ENDMDL
MODEL 2
REMARK minimizedAffinity -8.13200951
REMARK CNNscore 0.504701912
REMARK CNNaffinity 6.85725784
REMARK  6 active torsions:
REMARK  status: ('A' for Active; 'I' for Inactive)
REMARK    1  A    between atoms: C2_2  and  C30_31 
REMARK    2  A    between atoms: C3_3  and  C4_4 
REMARK    3  A    between atoms: C4_4  and  C5_5 
REMARK    4  A    between atoms: C5_5  and  C6_6 
REMARK    5  A    between atoms: C6_6  and  C8_8 
REMARK    6  A    between atoms: C30_31  and  O3_33 
ROOT
HETATM    1  C8  UNL     1      -2.403   8.878  15.484  1.00  0.00    -0.002 C 
HETATM    2  C9  UNL     1      -1.475   8.126  16.494  1.00  0.00     0.007 C 
HETATM    3  C10 UNL     1      -0.310   7.512  15.688  1.00  0.00     0.015 C 
HETATM    4  C11 UNL     1      -0.369   8.225  14.329  1.00  0.00    -0.013 C 
HETATM    5  C12 UNL     1       0.329   9.616  14.529  1.00  0.00     0.021 C 
HETATM    6  C13 UNL     1       0.346   7.593  13.129  1.00  0.00    -0.070 C 
HETATM    7  C14 UNL     1       1.605   7.128  13.248  1.00  0.00    -0.022 C 
HETATM    8  C15 UNL     1       2.503   6.861  12.082  1.00  0.00     0.034 C 
HETATM    9  C16 UNL     1       2.057   7.663  10.838  1.00  0.00     0.013 C 
HETATM   10  C17 UNL     1       3.090   7.610   9.655  1.00  0.00     0.018 C 
HETATM   11  C18 UNL     1       3.594   6.209   9.274  1.00  0.00     0.023 C 
HETATM   12  C19 UNL     1       4.337   8.446  10.045  1.00  0.00     0.023 C 
HETATM   13  C20 UNL     1       2.482   8.242   8.392  1.00  0.00     0.135 C 
HETATM   14  O1  UNL     1       3.147   8.930   7.615  1.00  0.00    -0.297 OA
HETATM   15  C21 UNL     1       1.053   7.897   8.052  1.00  0.00     0.080 C 
HETATM   16  C22 UNL     1       0.151   8.150   9.247  1.00  0.00     0.017 C 
HETATM   17  C23 UNL     1       0.556   7.350  10.506  1.00  0.00    -0.031 C 
HETATM   18  C24 UNL     1       0.316   5.838  10.225  1.00  0.00     0.016 C 
HETATM   19  C25 UNL     1      -0.361   7.707  11.767  1.00  0.00     0.024 C 
HETATM   20  C26 UNL     1      -1.177   9.016  11.700  1.00  0.00     0.010 C 
HETATM   21  C27 UNL     1      -2.182   9.205  12.871  1.00  0.00     0.011 C 
HETATM   22  C28 UNL     1      -1.920   8.308  14.106  1.00  0.00    -0.029 C 
HETATM   23  C29 UNL     1      -2.597   6.909  13.919  1.00  0.00     0.016 C 
ENDROOT
BRANCH   1  24
HETATM   24  C6  UNL     1      -3.907   8.785  15.885  1.00  0.00    -0.014 C 
HETATM   25  C7  UNL     1      -4.617   7.627  15.173  1.00  0.00     0.010 C 
BRANCH  24  26
HETATM   26  C5  UNL     1      -4.638  10.115  15.560  1.00  0.00     0.008 C 
BRANCH  26  27
HETATM   27  C4  UNL     1      -3.733  11.350  15.677  1.00  0.00     0.028 C 
BRANCH  27  28
HETATM   28  C3  UNL     1      -4.091  12.164  16.890  1.00  0.00    -0.013 C 
HETATM   29  C2  UNL     1      -3.605  12.029  18.142  1.00  0.00     0.008 C 
HETATM   30  C1  UNL     1      -2.617  10.994  18.592  1.00  0.00     0.055 C 
BRANCH  29  31
HETATM   31  C30 UNL     1      -4.054  12.937  19.232  1.00  0.00     0.171 C 
HETATM   32  O2  UNL     1      -4.988  12.722  19.985  1.00  0.00    -0.646 OA
BRANCH  31  33
HETATM   33  O3  UNL     1      -3.341  14.072  19.332  1.00  0.00    -0.773 OA
HETATM   34  H46 UNL     1      -3.771  14.545  20.074  1.00  0.00     0.167 HD
ENDBRANCH  31  33
ENDBRANCH  29  31
ENDBRANCH  27  28
ENDBRANCH  26  27
ENDBRANCH  24  26
ENDBRANCH   1  24
TORSDOF 6
ENDMDL
MODEL 3
REMARK minimizedAffinity -7.028337
REMARK CNNscore 0.497039765
REMARK CNNaffinity 6.61102676
REMARK  6 active torsions:
REMARK  status: ('A' for Active; 'I' for Inactive)
REMARK    1  A    between atoms: C2_2  and  C30_31 
REMARK    2  A    between atoms: C3_3  and  C4_4 
REMARK    3  A    between atoms: C4_4  and  C5_5 
REMARK    4  A    between atoms: C5_5  and  C6_6 
REMARK    5  A    between atoms: C6_6  and  C8_8 
REMARK    6  A    between atoms: C30_31  and  O3_33 
ROOT
HETATM    1  C8  UNL     1      -1.850  13.363  19.283  1.00  0.00    -0.002 C 
HETATM    2  C9  UNL     1      -3.257  13.982  19.000  1.00  0.00     0.007 C 
HETATM    3  C10 UNL     1      -3.930  13.131  17.901  1.00  0.00     0.015 C 
HETATM    4  C11 UNL     1      -3.090  11.845  17.849  1.00  0.00    -0.013 C 
HETATM    5  C12 UNL     1      -3.585  10.945  19.035  1.00  0.00     0.021 C 
HETATM    6  C13 UNL     1      -3.183  10.949  16.608  1.00  0.00    -0.070 C 
HETATM    7  C14 UNL     1      -4.380  10.631  16.081  1.00  0.00    -0.022 C 
HETATM    8  C15 UNL     1      -4.594   9.485  15.142  1.00  0.00     0.034 C 
HETATM    9  C16 UNL     1      -3.470   8.433  15.281  1.00  0.00     0.013 C 
HETATM   10  C17 UNL     1      -3.759   7.102  14.496  1.00  0.00     0.018 C 
HETATM   11  C18 UNL     1      -4.196   7.274  13.032  1.00  0.00     0.023 C 
HETATM   12  C19 UNL     1      -4.897   6.335  15.218  1.00  0.00     0.023 C 
HETATM   13  C20 UNL     1      -2.513   6.201  14.504  1.00  0.00     0.135 C 
HETATM   14  O1  UNL     1      -2.587   4.976  14.609  1.00  0.00    -0.297 OA
HETATM   15  C21 UNL     1      -1.175   6.851  14.253  1.00  0.00     0.080 C 
HETATM   16  C22 UNL     1      -0.974   8.026  15.195  1.00  0.00     0.017 C 
HETATM   17  C23 UNL     1      -2.071   9.109  15.072  1.00  0.00    -0.031 C 
HETATM   18  C24 UNL     1      -1.941   9.781  13.674  1.00  0.00     0.016 C 
HETATM   19  C25 UNL     1      -1.876  10.286  16.138  1.00  0.00     0.024 C 
HETATM   20  C26 UNL     1      -0.960  10.000  17.348  1.00  0.00     0.010 C 
HETATM   21  C27 UNL     1      -0.670  11.241  18.238  1.00  0.00     0.011 C 
HETATM   22  C28 UNL     1      -1.646  12.427  18.041  1.00  0.00    -0.029 C 
HETATM   23  C29 UNL     1      -1.175  13.330  16.852  1.00  0.00     0.016 C 
ENDROOT
BRANCH   1  24
HETATM   24  C6  UNL     1      -0.786  14.450  19.626  1.00  0.00    -0.014 C 
HETATM   25  C7  UNL     1      -0.994  15.730  18.808  1.00  0.00     0.010 C 
BRANCH  24  26
HETATM   26  C5  UNL     1       0.647  13.906  19.376  1.00  0.00     0.008 C 
BRANCH  26  27
HETATM   27  C4  UNL     1       1.397  13.554  20.668  1.00  0.00     0.028 C 
BRANCH  27  28
HETATM   28  C3  UNL     1       1.757  12.094  20.697  1.00  0.00    -0.013 C 
HETATM   29  C2  UNL     1       2.492  11.448  21.628  1.00  0.00     0.008 C 
HETATM   30  C1  UNL     1       3.140  12.079  22.825  1.00  0.00     0.055 C 
BRANCH  29  31
HETATM   31  C30 UNL     1       2.741   9.986  21.517  1.00  0.00     0.171 C 
HETATM   32  O2  UNL     1       2.688   9.340  20.484  1.00  0.00    -0.646 OA
BRANCH  31  33
HETATM   33  O3  UNL     1       3.026   9.385  22.686  1.00  0.00    -0.773 OA
HETATM   34  H46 UNL     1       3.145   8.446  22.435  1.00  0.00     0.167 HD
ENDBRANCH  31  33
ENDBRANCH  29  31
ENDBRANCH  27  28
ENDBRANCH  26  27
ENDBRANCH  24  26
ENDBRANCH   1  24
TORSDOF 6
ENDMDL
MODEL 4
REMARK minimizedAffinity -8.08779716
REMARK CNNscore 0.42620331
REMARK CNNaffinity 6.77400064
REMARK  6 active torsions:
REMARK  status: ('A' for Active; 'I' for Inactive)
REMARK    1  A    between atoms: C2_2  and  C30_31 
REMARK    2  A    between atoms: C3_3  and  C4_4 
REMARK    3  A    between atoms: C4_4  and  C5_5 
REMARK    4  A    between atoms: C5_5  and  C6_6 
REMARK    5  A    between atoms: C6_6  and  C8_8 
REMARK    6  A    between atoms: C30_31  and  O3_33 
ROOT
HETATM    1  C8  UNL     1      -2.158   9.117  15.640  1.00  0.00    -0.002 C 
HETATM    2  C9  UNL     1      -1.239   8.307  16.612  1.00  0.00     0.007 C 
HETATM    3  C10 UNL     1      -0.148   7.622  15.761  1.00  0.00     0.015 C 
HETATM    4  C11 UNL     1      -0.216   8.341  14.405  1.00  0.00    -0.013 C 
HETATM    5  C12 UNL     1       0.575   9.684  14.575  1.00  0.00     0.021 C 
HETATM    6  C13 UNL     1       0.410   7.667  13.178  1.00  0.00    -0.070 C 
HETATM    7  C14 UNL     1       1.640   7.123  13.247  1.00  0.00    -0.022 C 
HETATM    8  C15 UNL     1       2.473   6.803  12.046  1.00  0.00     0.034 C 
HETATM    9  C16 UNL     1       2.028   7.634  10.821  1.00  0.00     0.013 C 
HETATM   10  C17 UNL     1       3.008   7.518   9.597  1.00  0.00     0.018 C 
HETATM   11  C18 UNL     1       3.407   6.088   9.197  1.00  0.00     0.023 C 
HETATM   12  C19 UNL     1       4.319   8.273   9.936  1.00  0.00     0.023 C 
HETATM   13  C20 UNL     1       2.391   8.189   8.359  1.00  0.00     0.135 C 
HETATM   14  O1  UNL     1       3.066   8.835   7.555  1.00  0.00    -0.297 OA
HETATM   15  C21 UNL     1       0.931   7.935   8.076  1.00  0.00     0.080 C 
HETATM   16  C22 UNL     1       0.094   8.241   9.306  1.00  0.00     0.017 C 
HETATM   17  C23 UNL     1       0.499   7.416  10.549  1.00  0.00    -0.031 C 
HETATM   18  C24 UNL     1       0.153   5.922  10.279  1.00  0.00     0.016 C 
HETATM   19  C25 UNL     1      -0.343   7.827  11.845  1.00  0.00     0.024 C 
HETATM   20  C26 UNL     1      -1.078   9.185  11.810  1.00  0.00     0.010 C 
HETATM   21  C27 UNL     1      -2.021   9.434  13.020  1.00  0.00     0.011 C 
HETATM   22  C28 UNL     1      -1.767   8.521  14.244  1.00  0.00    -0.029 C 
HETATM   23  C29 UNL     1      -2.537   7.167  14.085  1.00  0.00     0.016 C 
ENDROOT
BRANCH   1  24
HETATM   24  C6  UNL     1      -3.647   9.118  16.101  1.00  0.00    -0.014 C 
HETATM   25  C7  UNL     1      -4.574   8.515  15.037  1.00  0.00     0.010 C 
BRANCH  24  26
HETATM   26  C5  UNL     1      -4.113  10.562  16.430  1.00  0.00     0.008 C 
BRANCH  26  27
HETATM   27  C4  UNL     1      -2.952  11.516  16.747  1.00  0.00     0.028 C 
BRANCH  27  28
HETATM   28  C3  UNL     1      -2.494  12.233  15.507  1.00  0.00    -0.013 C 
HETATM   29  C2  UNL     1      -2.850  13.467  15.093  1.00  0.00     0.008 C 
HETATM   30  C1  UNL     1      -3.825  14.376  15.783  1.00  0.00     0.055 C 
BRANCH  29  31
HETATM   31  C30 UNL     1      -2.285  14.041  13.842  1.00  0.00     0.171 C 
HETATM   32  O2  UNL     1      -2.870  14.802  13.091  1.00  0.00    -0.646 OA
BRANCH  31  33
HETATM   33  O3  UNL     1      -1.032  13.637  13.568  1.00  0.00    -0.773 OA
HETATM   34  H46 UNL     1      -0.828  14.090  12.724  1.00  0.00     0.167 HD
ENDBRANCH  31  33
ENDBRANCH  29  31
ENDBRANCH  27  28
ENDBRANCH  26  27
ENDBRANCH  24  26
ENDBRANCH   1  24
TORSDOF 6
ENDMDL
MODEL 5
REMARK minimizedAffinity -8.94558239
REMARK CNNscore 0.399438798
REMARK CNNaffinity 6.99614716
REMARK  6 active torsions:
REMARK  status: ('A' for Active; 'I' for Inactive)
REMARK    1  A    between atoms: C2_2  and  C30_31 
REMARK    2  A    between atoms: C3_3  and  C4_4 
REMARK    3  A    between atoms: C4_4  and  C5_5 
REMARK    4  A    between atoms: C5_5  and  C6_6 
REMARK    5  A    between atoms: C6_6  and  C8_8 
REMARK    6  A    between atoms: C30_31  and  O3_33 
ROOT
HETATM    1  C8  UNL     1      -5.997   7.212  14.818  1.00  0.00    -0.002 C 
HETATM    2  C9  UNL     1      -5.763   8.685  15.286  1.00  0.00     0.007 C 
HETATM    3  C10 UNL     1      -4.314   9.068  14.913  1.00  0.00     0.015 C 
HETATM    4  C11 UNL     1      -3.877   7.982  13.918  1.00  0.00    -0.013 C 
HETATM    5  C12 UNL     1      -4.481   8.387  12.528  1.00  0.00     0.021 C 
HETATM    6  C13 UNL     1      -2.381   7.779  13.654  1.00  0.00    -0.070 C 
HETATM    7  C14 UNL     1      -1.575   8.833  13.428  1.00  0.00    -0.022 C 
HETATM    8  C15 UNL     1      -0.224   8.723  12.792  1.00  0.00     0.034 C 
HETATM    9  C16 UNL     1      -0.103   7.425  11.962  1.00  0.00     0.013 C 
HETATM   10  C17 UNL     1       1.199   7.364  11.083  1.00  0.00     0.018 C 
HETATM   11  C18 UNL     1       2.511   7.694  11.813  1.00  0.00     0.023 C 
HETATM   12  C19 UNL     1       1.062   8.381   9.920  1.00  0.00     0.023 C 
HETATM   13  C20 UNL     1       1.354   5.966  10.462  1.00  0.00     0.135 C 
HETATM   14  O1  UNL     1       1.780   5.796   9.318  1.00  0.00    -0.297 OA
HETATM   15  C21 UNL     1       1.083   4.772  11.345  1.00  0.00     0.080 C 
HETATM   16  C22 UNL     1      -0.280   4.901  12.003  1.00  0.00     0.017 C 
HETATM   17  C23 UNL     1      -0.433   6.180  12.857  1.00  0.00    -0.031 C 
HETATM   18  C24 UNL     1       0.518   6.067  14.085  1.00  0.00     0.016 C 
HETATM   19  C25 UNL     1      -1.906   6.326  13.462  1.00  0.00     0.024 C 
HETATM   20  C26 UNL     1      -3.025   5.484  12.813  1.00  0.00     0.010 C 
HETATM   21  C27 UNL     1      -4.384   5.535  13.566  1.00  0.00     0.011 C 
HETATM   22  C28 UNL     1      -4.534   6.710  14.562  1.00  0.00    -0.029 C 
HETATM   23  C29 UNL     1      -3.923   6.331  15.952  1.00  0.00     0.016 C 
ENDROOT
BRANCH   1  24
HETATM   24  C6  UNL     1      -6.934   6.428  15.787  1.00  0.00    -0.014 C 
HETATM   25  C7  UNL     1      -7.473   5.144  15.144  1.00  0.00     0.010 C 
BRANCH  24  26
HETATM   26  C5  UNL     1      -8.123   7.320  16.233  1.00  0.00     0.008 C 
BRANCH  26  27
HETATM   27  C4  UNL     1      -9.459   6.916  15.592  1.00  0.00     0.028 C 
BRANCH  27  28
HETATM   28  C3  UNL     1      -9.954   7.990  14.663  1.00  0.00    -0.013 C 
HETATM   29  C2  UNL     1     -11.132   8.027  14.006  1.00  0.00     0.008 C 
HETATM   30  C1  UNL     1     -12.190   6.964  14.042  1.00  0.00     0.055 C 
BRANCH  29  31
HETATM   31  C30 UNL     1     -11.479   9.183  13.134  1.00  0.00     0.171 C 
HETATM   32  O2  UNL     1     -11.904   9.100  11.995  1.00  0.00    -0.646 OA
BRANCH  31  33
HETATM   33  O3  UNL     1     -11.270  10.383  13.702  1.00  0.00    -0.773 OA
HETATM   34  H46 UNL     1     -11.532  11.014  13.001  1.00  0.00     0.167 HD
ENDBRANCH  31  33
ENDBRANCH  29  31
ENDBRANCH  27  28
ENDBRANCH  26  27
ENDBRANCH  24  26
ENDBRANCH   1  24
TORSDOF 6
ENDMDL
MODEL 6
REMARK minimizedAffinity -8.43452549
REMARK CNNscore 0.397991568
REMARK CNNaffinity 6.81022978
REMARK  6 active torsions:
REMARK  status: ('A' for Active; 'I' for Inactive)
REMARK    1  A    between atoms: C2_2  and  C30_31 
REMARK    2  A    between atoms: C3_3  and  C4_4 
REMARK    3  A    between atoms: C4_4  and  C5_5 
REMARK    4  A    between atoms: C5_5  and  C6_6 
REMARK    5  A    between atoms: C6_6  and  C8_8 
REMARK    6  A    between atoms: C30_31  and  O3_33 
ROOT
HETATM    1  C8  UNL     1      -1.249   9.839  14.803  1.00  0.00    -0.002 C 
HETATM    2  C9  UNL     1      -0.406   8.690  14.159  1.00  0.00     0.007 C 
HETATM    3  C10 UNL     1      -1.362   7.509  13.883  1.00  0.00     0.015 C 
HETATM    4  C11 UNL     1      -2.767   8.119  14.006  1.00  0.00    -0.013 C 
HETATM    5  C12 UNL     1      -3.055   8.842  12.644  1.00  0.00     0.021 C 
HETATM    6  C13 UNL     1      -3.964   7.185  14.218  1.00  0.00    -0.070 C 
HETATM    7  C14 UNL     1      -4.107   6.074  13.472  1.00  0.00    -0.022 C 
HETATM    8  C15 UNL     1      -5.398   5.330  13.333  1.00  0.00     0.034 C 
HETATM    9  C16 UNL     1      -6.604   6.238  13.663  1.00  0.00     0.013 C 
HETATM   10  C17 UNL     1      -7.992   5.589  13.311  1.00  0.00     0.018 C 
HETATM   11  C18 UNL     1      -8.206   4.156  13.825  1.00  0.00     0.023 C 
HETATM   12  C19 UNL     1      -8.142   5.541  11.769  1.00  0.00     0.023 C 
HETATM   13  C20 UNL     1      -9.137   6.453  13.864  1.00  0.00     0.135 C 
HETATM   14  O1  UNL     1     -10.191   6.622  13.248  1.00  0.00    -0.297 OA
HETATM   15  C21 UNL     1      -8.989   7.006  15.260  1.00  0.00     0.080 C 
HETATM   16  C22 UNL     1      -7.667   7.741  15.400  1.00  0.00     0.017 C 
HETATM   17  C23 UNL     1      -6.435   6.858  15.094  1.00  0.00    -0.031 C 
HETATM   18  C24 UNL     1      -6.326   5.770  16.201  1.00  0.00     0.016 C 
HETATM   19  C25 UNL     1      -5.069   7.687  15.165  1.00  0.00     0.024 C 
HETATM   20  C26 UNL     1      -5.170   9.226  15.094  1.00  0.00     0.010 C 
HETATM   21  C27 UNL     1      -3.830   9.968  15.355  1.00  0.00     0.011 C 
HETATM   22  C28 UNL     1      -2.562   9.091  15.221  1.00  0.00    -0.029 C 
HETATM   23  C29 UNL     1      -2.265   8.349  16.567  1.00  0.00     0.016 C 
ENDROOT
BRANCH   1  24
HETATM   24  C6  UNL     1      -0.435  10.642  15.864  1.00  0.00    -0.014 C 
HETATM   25  C7  UNL     1       1.039  10.219  15.893  1.00  0.00     0.010 C 
BRANCH  24  26
HETATM   26  C5  UNL     1      -1.053  10.457  17.276  1.00  0.00     0.008 C 
BRANCH  26  27
HETATM   27  C4  UNL     1      -0.409  11.355  18.342  1.00  0.00     0.028 C 
BRANCH  27  28
HETATM   28  C3  UNL     1       0.643  10.605  19.111  1.00  0.00    -0.013 C 
HETATM   29  C2  UNL     1       1.439  11.081  20.092  1.00  0.00     0.008 C 
HETATM   30  C1  UNL     1       1.460  12.494  20.595  1.00  0.00     0.055 C 
BRANCH  29  31
HETATM   31  C30 UNL     1       2.421  10.193  20.770  1.00  0.00     0.171 C 
HETATM   32  O2  UNL     1       3.632  10.257  20.639  1.00  0.00    -0.646 OA
BRANCH  31  33
HETATM   33  O3  UNL     1       1.866   9.260  21.562  1.00  0.00    -0.773 OA
HETATM   34  H46 UNL     1       2.639   8.768  21.909  1.00  0.00     0.167 HD
ENDBRANCH  31  33
ENDBRANCH  29  31
ENDBRANCH  27  28
ENDBRANCH  26  27
ENDBRANCH  24  26
ENDBRANCH   1  24
TORSDOF 6
ENDMDL
MODEL 7
REMARK minimizedAffinity -8.11144733
REMARK CNNscore 0.3839764
REMARK CNNaffinity 7.44988394
REMARK  6 active torsions:
REMARK  status: ('A' for Active; 'I' for Inactive)
REMARK    1  A    between atoms: C2_2  and  C30_31 
REMARK    2  A    between atoms: C3_3  and  C4_4 
REMARK    3  A    between atoms: C4_4  and  C5_5 
REMARK    4  A    between atoms: C5_5  and  C6_6 
REMARK    5  A    between atoms: C6_6  and  C8_8 
REMARK    6  A    between atoms: C30_31  and  O3_33 
ROOT
HETATM    1  C8  UNL     1      -5.139   6.507  15.293  1.00  0.00    -0.002 C 
HETATM    2  C9  UNL     1      -4.745   8.009  15.473  1.00  0.00     0.007 C 
HETATM    3  C10 UNL     1      -6.031   8.851  15.326  1.00  0.00     0.015 C 
HETATM    4  C11 UNL     1      -7.171   7.827  15.451  1.00  0.00    -0.013 C 
HETATM    5  C12 UNL     1      -7.362   7.563  16.985  1.00  0.00     0.021 C 
HETATM    6  C13 UNL     1      -8.565   8.207  14.939  1.00  0.00    -0.070 C 
HETATM    7  C14 UNL     1      -9.106   9.402  15.244  1.00  0.00    -0.022 C 
HETATM    8  C15 UNL     1     -10.567   9.704  15.129  1.00  0.00     0.034 C 
HETATM    9  C16 UNL     1     -11.409   8.409  15.163  1.00  0.00     0.013 C 
HETATM   10  C17 UNL     1     -12.955   8.669  15.284  1.00  0.00     0.018 C 
HETATM   11  C18 UNL     1     -13.535   9.696  14.297  1.00  0.00     0.023 C 
HETATM   12  C19 UNL     1     -13.261   9.192  16.711  1.00  0.00     0.023 C 
HETATM   13  C20 UNL     1     -13.730   7.356  15.092  1.00  0.00     0.135 C 
HETATM   14  O1  UNL     1     -14.740   7.087  15.745  1.00  0.00    -0.297 OA
HETATM   15  C21 UNL     1     -13.289   6.435  13.982  1.00  0.00     0.080 C 
HETATM   16  C22 UNL     1     -11.801   6.150  14.091  1.00  0.00     0.017 C 
HETATM   17  C23 UNL     1     -10.925   7.423  14.044  1.00  0.00    -0.031 C 
HETATM   18  C24 UNL     1     -11.037   8.043  12.620  1.00  0.00     0.016 C 
HETATM   19  C25 UNL     1      -9.373   7.092  14.250  1.00  0.00     0.024 C 
HETATM   20  C26 UNL     1      -9.017   5.721  14.865  1.00  0.00     0.010 C 
HETATM   21  C27 UNL     1      -7.497   5.395  14.864  1.00  0.00     0.011 C 
HETATM   22  C28 UNL     1      -6.568   6.615  14.657  1.00  0.00    -0.029 C 
HETATM   23  C29 UNL     1      -6.377   6.904  13.131  1.00  0.00     0.016 C 
ENDROOT
BRANCH   1  24
HETATM   24  C6  UNL     1      -4.024   5.687  14.574  1.00  0.00    -0.014 C 
HETATM   25  C7  UNL     1      -2.622   6.110  15.031  1.00  0.00     0.010 C 
BRANCH  24  26
HETATM   26  C5  UNL     1      -4.136   5.851  13.035  1.00  0.00     0.008 C 
BRANCH  26  27
HETATM   27  C4  UNL     1      -3.888   4.545  12.266  1.00  0.00     0.028 C 
BRANCH  27  28
HETATM   28  C3  UNL     1      -5.011   3.570  12.490  1.00  0.00    -0.013 C 
HETATM   29  C2  UNL     1      -5.734   2.921  11.553  1.00  0.00     0.008 C 
HETATM   30  C1  UNL     1      -5.584   3.075  10.068  1.00  0.00     0.055 C 
BRANCH  29  31
HETATM   31  C30 UNL     1      -6.805   1.966  11.947  1.00  0.00     0.171 C 
HETATM   32  O2  UNL     1      -7.708   2.208  12.730  1.00  0.00    -0.646 OA
BRANCH  31  33
HETATM   33  O3  UNL     1      -6.703   0.755  11.372  1.00  0.00    -0.773 OA
HETATM   34  H46 UNL     1      -7.462   0.263  11.745  1.00  0.00     0.167 HD
ENDBRANCH  31  33
ENDBRANCH  29  31
ENDBRANCH  27  28
ENDBRANCH  26  27
ENDBRANCH  24  26
ENDBRANCH   1  24
TORSDOF 6
ENDMDL
MODEL 8
REMARK minimizedAffinity -8.40051842
REMARK CNNscore 0.379956573
REMARK CNNaffinity 7.4111824
REMARK  6 active torsions:
REMARK  status: ('A' for Active; 'I' for Inactive)
REMARK    1  A    between atoms: C2_2  and  C30_31 
REMARK    2  A    between atoms: C3_3  and  C4_4 
REMARK    3  A    between atoms: C4_4  and  C5_5 
REMARK    4  A    between atoms: C5_5  and  C6_6 
REMARK    5  A    between atoms: C6_6  and  C8_8 
REMARK    6  A    between atoms: C30_31  and  O3_33 
ROOT
HETATM    1  C8  UNL     1      -5.291   6.266  14.873  1.00  0.00    -0.002 C 
HETATM    2  C9  UNL     1      -4.803   7.697  15.269  1.00  0.00     0.007 C 
HETATM    3  C10 UNL     1      -6.043   8.615  15.321  1.00  0.00     0.015 C 
HETATM    4  C11 UNL     1      -7.234   7.645  15.337  1.00  0.00    -0.013 C 
HETATM    5  C12 UNL     1      -7.378   7.148  16.818  1.00  0.00     0.021 C 
HETATM    6  C13 UNL     1      -8.624   8.173  14.961  1.00  0.00    -0.070 C 
HETATM    7  C14 UNL     1      -9.081   9.329  15.477  1.00  0.00    -0.022 C 
HETATM    8  C15 UNL     1     -10.526   9.719  15.484  1.00  0.00     0.034 C 
HETATM    9  C16 UNL     1     -11.440   8.480  15.353  1.00  0.00     0.013 C 
HETATM   10  C17 UNL     1     -12.961   8.796  15.589  1.00  0.00     0.018 C 
HETATM   11  C18 UNL     1     -13.520   9.996  14.807  1.00  0.00     0.023 C 
HETATM   12  C19 UNL     1     -13.180   9.098  17.094  1.00  0.00     0.023 C 
HETATM   13  C20 UNL     1     -13.819   7.572  15.230  1.00  0.00     0.135 C 
HETATM   14  O1  UNL     1     -14.816   7.253  15.880  1.00  0.00    -0.297 OA
HETATM   15  C21 UNL     1     -13.477   6.820  13.967  1.00  0.00     0.080 C 
HETATM   16  C22 UNL     1     -12.005   6.446  13.958  1.00  0.00     0.017 C 
HETATM   17  C23 UNL     1     -11.059   7.663  14.069  1.00  0.00    -0.031 C 
HETATM   18  C24 UNL     1     -11.192   8.509  12.769  1.00  0.00     0.016 C 
HETATM   19  C25 UNL     1      -9.522   7.226  14.145  1.00  0.00     0.024 C 
HETATM   20  C26 UNL     1      -9.222   5.757  14.516  1.00  0.00     0.010 C 
HETATM   21  C27 UNL     1      -7.725   5.358  14.390  1.00  0.00     0.011 C 
HETATM   22  C28 UNL     1      -6.735   6.547  14.333  1.00  0.00    -0.029 C 
HETATM   23  C29 UNL     1      -6.589   7.068  12.864  1.00  0.00     0.016 C 
ENDROOT
BRANCH   1  24
HETATM   24  C6  UNL     1      -4.255   5.516  13.980  1.00  0.00    -0.014 C 
HETATM   25  C7  UNL     1      -3.579   6.459  12.976  1.00  0.00     0.010 C 
BRANCH  24  26
HETATM   26  C5  UNL     1      -4.940   4.352  13.214  1.00  0.00     0.008 C 
BRANCH  26  27
HETATM   27  C4  UNL     1      -4.502   4.251  11.746  1.00  0.00     0.028 C 
BRANCH  27  28
HETATM   28  C3  UNL     1      -3.565   3.091  11.545  1.00  0.00    -0.013 C 
HETATM   29  C2  UNL     1      -2.243   3.141  11.281  1.00  0.00     0.008 C 
HETATM   30  C1  UNL     1      -1.432   4.389  11.095  1.00  0.00     0.055 C 
BRANCH  29  31
HETATM   31  C30 UNL     1      -1.452   1.890  11.130  1.00  0.00     0.171 C 
HETATM   32  O2  UNL     1      -0.234   1.823  11.136  1.00  0.00    -0.646 OA
BRANCH  31  33
HETATM   33  O3  UNL     1      -2.197   0.783  10.961  1.00  0.00    -0.773 OA
HETATM   34  H46 UNL     1      -1.530   0.073  10.867  1.00  0.00     0.167 HD
ENDBRANCH  31  33
ENDBRANCH  29  31
ENDBRANCH  27  28
ENDBRANCH  26  27
ENDBRANCH  24  26
ENDBRANCH   1  24
TORSDOF 6
ENDMDL
MODEL 9
REMARK minimizedAffinity -9.42848969
REMARK CNNscore 0.367015004
REMARK CNNaffinity 7.16424894
REMARK  6 active torsions:
REMARK  status: ('A' for Active; 'I' for Inactive)
REMARK    1  A    between atoms: C2_2  and  C30_31 
REMARK    2  A    between atoms: C3_3  and  C4_4 
REMARK    3  A    between atoms: C4_4  and  C5_5 
REMARK    4  A    between atoms: C5_5  and  C6_6 
REMARK    5  A    between atoms: C6_6  and  C8_8 
REMARK    6  A    between atoms: C30_31  and  O3_33 
ROOT
HETATM    1  C8  UNL     1      -6.044   7.045  15.068  1.00  0.00    -0.002 C 
HETATM    2  C9  UNL     1      -5.912   8.561  15.429  1.00  0.00     0.007 C 
HETATM    3  C10 UNL     1      -4.521   9.034  14.954  1.00  0.00     0.015 C 
HETATM    4  C11 UNL     1      -4.044   7.922  14.007  1.00  0.00    -0.013 C 
HETATM    5  C12 UNL     1      -4.748   8.183  12.630  1.00  0.00     0.021 C 
HETATM    6  C13 UNL     1      -2.551   7.824  13.674  1.00  0.00    -0.070 C 
HETATM    7  C14 UNL     1      -1.849   8.923  13.338  1.00  0.00    -0.022 C 
HETATM    8  C15 UNL     1      -0.527   8.880  12.637  1.00  0.00     0.034 C 
HETATM    9  C16 UNL     1      -0.338   7.544  11.884  1.00  0.00     0.013 C 
HETATM   10  C17 UNL     1       0.919   7.529  10.941  1.00  0.00     0.018 C 
HETATM   11  C18 UNL     1       2.233   8.013  11.575  1.00  0.00     0.023 C 
HETATM   12  C19 UNL     1       0.640   8.451   9.726  1.00  0.00     0.023 C 
HETATM   13  C20 UNL     1       1.161   6.110  10.402  1.00  0.00     0.135 C 
HETATM   14  O1  UNL     1       1.542   5.899   9.249  1.00  0.00    -0.297 OA
HETATM   15  C21 UNL     1       1.036   4.960  11.371  1.00  0.00     0.080 C 
HETATM   16  C22 UNL     1      -0.298   5.022  12.094  1.00  0.00     0.017 C 
HETATM   17  C23 UNL     1      -0.516   6.339  12.873  1.00  0.00    -0.031 C 
HETATM   18  C24 UNL     1       0.500   6.386  14.051  1.00  0.00     0.016 C 
HETATM   19  C25 UNL     1      -1.965   6.406  13.548  1.00  0.00     0.024 C 
HETATM   20  C26 UNL     1      -3.040   5.433  13.016  1.00  0.00     0.010 C 
HETATM   21  C27 UNL     1      -4.359   5.424  13.837  1.00  0.00     0.011 C 
HETATM   22  C28 UNL     1      -4.558   6.648  14.764  1.00  0.00    -0.029 C 
HETATM   23  C29 UNL     1      -3.849   6.413  16.140  1.00  0.00     0.016 C 
ENDROOT
BRANCH   1  24
HETATM   24  C6  UNL     1      -6.862   6.254  16.135  1.00  0.00    -0.014 C 
HETATM   25  C7  UNL     1      -7.317   4.888  15.606  1.00  0.00     0.010 C 
BRANCH  24  26
HETATM   26  C5  UNL     1      -8.102   7.073  16.584  1.00  0.00     0.008 C 
BRANCH  26  27
HETATM   27  C4  UNL     1      -9.180   7.187  15.497  1.00  0.00     0.028 C 
BRANCH  27  28
HETATM   28  C3  UNL     1      -8.737   6.510  14.229  1.00  0.00    -0.013 C 
HETATM   29  C2  UNL     1      -9.410   6.432  13.062  1.00  0.00     0.008 C 
HETATM   30  C1  UNL     1     -10.781   6.983  12.802  1.00  0.00     0.055 C 
BRANCH  29  31
HETATM   31  C30 UNL     1      -8.815   5.737  11.888  1.00  0.00     0.171 C 
HETATM   32  O2  UNL     1      -7.972   4.859  11.945  1.00  0.00    -0.646 OA
BRANCH  31  33
HETATM   33  O3  UNL     1      -9.275   6.170  10.701  1.00  0.00    -0.773 OA
HETATM   34  H46 UNL     1      -8.779   5.626  10.055  1.00  0.00     0.167 HD
ENDBRANCH  31  33
ENDBRANCH  29  31
ENDBRANCH  27  28
ENDBRANCH  26  27
ENDBRANCH  24  26
ENDBRANCH   1  24
TORSDOF 6
ENDMDL
