MODEL 1
REMARK minimizedAffinity -8.37057495
REMARK CNNscore 0.671592712
REMARK CNNaffinity 7.27009821
REMARK  9 active torsions:
REMARK  status: ('A' for Active; 'I' for Inactive)
REMARK    1  A    between atoms: C11_11  and  C13_13 
REMARK    2  A    between atoms: C13_13  and  O2_15 
REMARK    3  A    between atoms: C15_17  and  C16_18 
REMARK    4  A    between atoms: C16_18  and  C17_19 
REMARK    5  A    between atoms: C17_19  and  C18_20 
REMARK    6  A    between atoms: C19_21  and  C20_22 
REMARK    7  A    between atoms: C20_22  and  O3_23 
REMARK    8  A    between atoms: O3_23  and  C21_24 
REMARK    9  A    between atoms: C21_24  and  C22_26 
ROOT
HETATM    1  C16 UNL     1      -4.252   6.812  14.255  1.00  0.00     0.014 C 
ENDROOT
BRANCH   1   2
HETATM    2  C15 UNL     1      -3.028   7.468  13.564  1.00  0.00     0.022 C 
HETATM    3  C2  UNL     1      -2.588   8.747  14.260  1.00  0.00    -0.084 C 
HETATM    4  C1  UNL     1      -3.150   9.941  14.004  1.00  0.00     0.014 C 
HETATM    5  C3  UNL     1      -1.398   8.634  15.157  1.00  0.00     0.034 C 
HETATM    6  C4  UNL     1      -0.179   8.237  14.331  1.00  0.00     0.011 C 
HETATM    7  C5  UNL     1      -0.417   7.146  13.250  1.00  0.00     0.012 C 
HETATM    8  C6  UNL     1      -1.831   6.444  13.334  1.00  0.00    -0.032 C 
HETATM    9  C11 UNL     1       0.026   7.578  11.803  1.00  0.00     0.049 C 
HETATM   10  C7  UNL     1      -1.733   5.393  14.486  1.00  0.00     0.016 C 
HETATM   11  C8  UNL     1      -2.124   5.636  12.030  1.00  0.00     0.010 C 
HETATM   12  C9  UNL     1      -0.855   5.189  11.319  1.00  0.00     0.002 C 
HETATM   13  C10 UNL     1      -0.077   6.394  10.795  1.00  0.00     0.020 C 
HETATM   14  C12 UNL     1      -0.812   8.756  11.261  1.00  0.00     0.026 C 
BRANCH   9  15
HETATM   15  C13 UNL     1       1.503   8.028  11.824  1.00  0.00     0.267 C 
HETATM   16  O1  UNL     1       1.919   9.093  11.386  1.00  0.00    -0.264 OA
BRANCH  15  17
HETATM   17  O2  UNL     1       2.301   7.073  12.387  1.00  0.00    -0.326 OA
HETATM   18  C14 UNL     1       3.301   6.555  11.510  1.00  0.00     0.213 C 
ENDBRANCH  15  17
ENDBRANCH   9  15
ENDBRANCH   1   2
BRANCH   1  19
HETATM   19  C17 UNL     1      -5.610   7.211  13.661  1.00  0.00     0.042 C 
BRANCH  19  20
HETATM   20  C18 UNL     1      -6.731   6.982  14.625  1.00  0.00    -0.024 A 
HETATM   21  C19 UNL     1      -7.974   6.427  14.364  1.00  0.00     0.083 A 
HETATM   22  O5  UNL     1      -8.719   6.383  15.507  1.00  0.00    -0.324 OA
HETATM   23  C28 UNL     1      -7.963   6.915  16.498  1.00  0.00     0.143 A 
HETATM   24  C29 UNL     1      -6.735   7.297  16.014  1.00  0.00     0.034 A 
BRANCH  21  25
HETATM   25  C20 UNL     1      -8.619   5.885  13.141  1.00  0.00     0.244 C 
BRANCH  25  26
HETATM   26  O3  UNL     1      -7.631   5.123  12.434  1.00  0.00    -0.311 OA
BRANCH  26  27
HETATM   27  C21 UNL     1      -7.693   3.782  12.591  1.00  0.00     0.293 C 
HETATM   28  O4  UNL     1      -8.673   3.137  12.930  1.00  0.00    -0.259 OA
BRANCH  27  29
HETATM   29  C22 UNL     1      -6.372   3.165  12.284  1.00  0.00     0.039 A 
HETATM   30  C23 UNL     1      -5.219   3.774  12.802  1.00  0.00     0.019 A 
HETATM   31  C24 UNL     1      -3.957   3.232  12.544  1.00  0.00     0.025 A 
HETATM   32  C25 UNL     1      -3.844   2.079  11.767  1.00  0.00     0.034 A 
HETATM   33 CL1  UNL     1      -2.291   1.411  11.450  1.00  0.00    -0.084 Cl
HETATM   34  C26 UNL     1      -4.982   1.465  11.245  1.00  0.00     0.025 A 
HETATM   35  C27 UNL     1      -6.246   2.007  11.501  1.00  0.00     0.019 A 
ENDBRANCH  27  29
ENDBRANCH  26  27
ENDBRANCH  25  26
ENDBRANCH  21  25
ENDBRANCH  19  20
ENDBRANCH   1  19
TORSDOF 9
ENDMDL
MODEL 2
REMARK minimizedAffinity -7.76280975
REMARK CNNscore 0.606751025
REMARK CNNaffinity 7.0071888
REMARK  9 active torsions:
REMARK  status: ('A' for Active; 'I' for Inactive)
REMARK    1  A    between atoms: C11_11  and  C13_13 
REMARK    2  A    between atoms: C13_13  and  O2_15 
REMARK    3  A    between atoms: C15_17  and  C16_18 
REMARK    4  A    between atoms: C16_18  and  C17_19 
REMARK    5  A    between atoms: C17_19  and  C18_20 
REMARK    6  A    between atoms: C19_21  and  C20_22 
REMARK    7  A    between atoms: C20_22  and  O3_23 
REMARK    8  A    between atoms: O3_23  and  C21_24 
REMARK    9  A    between atoms: C21_24  and  C22_26 
ROOT
HETATM    1  C16 UNL     1      -4.217   4.791  13.438  1.00  0.00     0.014 C 
ENDROOT
BRANCH   1   2
HETATM    2  C15 UNL     1      -3.608   6.216  13.357  1.00  0.00     0.022 C 
HETATM    3  C2  UNL     1      -4.531   7.273  13.945  1.00  0.00    -0.084 C 
HETATM    4  C1  UNL     1      -5.520   7.846  13.238  1.00  0.00     0.014 C 
HETATM    5  C3  UNL     1      -4.200   7.744  15.325  1.00  0.00     0.034 C 
HETATM    6  C4  UNL     1      -2.837   8.426  15.311  1.00  0.00     0.011 C 
HETATM    7  C5  UNL     1      -1.735   7.725  14.467  1.00  0.00     0.012 C 
HETATM    8  C6  UNL     1      -2.131   6.287  13.946  1.00  0.00    -0.032 C 
HETATM    9  C11 UNL     1      -1.068   8.662  13.393  1.00  0.00     0.049 C 
HETATM   10  C7  UNL     1      -1.937   5.313  15.152  1.00  0.00     0.016 C 
HETATM   11  C8  UNL     1      -1.141   5.810  12.836  1.00  0.00     0.010 C 
HETATM   12  C9  UNL     1       0.229   6.461  12.953  1.00  0.00     0.002 C 
HETATM   13  C10 UNL     1       0.138   7.963  12.695  1.00  0.00     0.020 C 
HETATM   14  C12 UNL     1      -2.068   9.113  12.307  1.00  0.00     0.026 C 
BRANCH   9  15
HETATM   15  C13 UNL     1      -0.520   9.932  14.079  1.00  0.00     0.267 C 
HETATM   16  O1  UNL     1       0.468   9.968  14.804  1.00  0.00    -0.264 OA
BRANCH  15  17
HETATM   17  O2  UNL     1      -1.289  11.021  13.786  1.00  0.00    -0.326 OA
HETATM   18  C14 UNL     1      -1.489  11.909  14.886  1.00  0.00     0.213 C 
ENDBRANCH  15  17
ENDBRANCH   9  15
ENDBRANCH   1   2
BRANCH   1  19
HETATM   19  C17 UNL     1      -4.984   4.354  12.182  1.00  0.00     0.042 C 
BRANCH  19  20
HETATM   20  C18 UNL     1      -6.128   3.449  12.513  1.00  0.00    -0.024 A 
HETATM   21  C19 UNL     1      -7.039   3.577  13.550  1.00  0.00     0.083 A 
HETATM   22  O5  UNL     1      -7.939   2.552  13.516  1.00  0.00    -0.324 OA
HETATM   23  C28 UNL     1      -7.606   1.762  12.466  1.00  0.00     0.143 A 
HETATM   24  C29 UNL     1      -6.506   2.266  11.816  1.00  0.00     0.034 A 
BRANCH  21  25
HETATM   25  C20 UNL     1      -7.222   4.574  14.636  1.00  0.00     0.244 C 
BRANCH  25  26
HETATM   26  O3  UNL     1      -8.024   5.640  14.111  1.00  0.00    -0.311 OA
BRANCH  26  27
HETATM   27  C21 UNL     1      -8.497   6.526  15.016  1.00  0.00     0.293 C 
HETATM   28  O4  UNL     1      -8.122   6.652  16.171  1.00  0.00    -0.259 OA
BRANCH  27  29
HETATM   29  C22 UNL     1      -9.568   7.364  14.406  1.00  0.00     0.039 A 
HETATM   30  C23 UNL     1     -10.303   6.827  13.339  1.00  0.00     0.019 A 
HETATM   31  C24 UNL     1     -11.319   7.572  12.735  1.00  0.00     0.025 A 
HETATM   32  C25 UNL     1     -11.605   8.857  13.198  1.00  0.00     0.034 A 
HETATM   33 CL1  UNL     1     -12.856   9.775  12.455  1.00  0.00    -0.084 Cl
HETATM   34  C26 UNL     1     -10.881   9.403  14.257  1.00  0.00     0.025 A 
HETATM   35  C27 UNL     1      -9.862   8.659  14.861  1.00  0.00     0.019 A 
ENDBRANCH  27  29
ENDBRANCH  26  27
ENDBRANCH  25  26
ENDBRANCH  21  25
ENDBRANCH  19  20
ENDBRANCH   1  19
TORSDOF 9
ENDMDL
MODEL 3
REMARK minimizedAffinity -8.0451231
REMARK CNNscore 0.545598686
REMARK CNNaffinity 7.04770803
REMARK  9 active torsions:
REMARK  status: ('A' for Active; 'I' for Inactive)
REMARK    1  A    between atoms: C11_11  and  C13_13 
REMARK    2  A    between atoms: C13_13  and  O2_15 
REMARK    3  A    between atoms: C15_17  and  C16_18 
REMARK    4  A    between atoms: C16_18  and  C17_19 
REMARK    5  A    between atoms: C17_19  and  C18_20 
REMARK    6  A    between atoms: C19_21  and  C20_22 
REMARK    7  A    between atoms: C20_22  and  O3_23 
REMARK    8  A    between atoms: O3_23  and  C21_24 
REMARK    9  A    between atoms: C21_24  and  C22_26 
ROOT
HETATM    1  C16 UNL     1      -4.160   5.627  13.757  1.00  0.00     0.014 C 
ENDROOT
BRANCH   1   2
HETATM    2  C15 UNL     1      -3.190   6.727  14.263  1.00  0.00     0.022 C 
HETATM    3  C2  UNL     1      -1.803   6.600  13.652  1.00  0.00    -0.084 C 
HETATM    4  C1  UNL     1      -0.861   5.784  14.156  1.00  0.00     0.014 C 
HETATM    5  C3  UNL     1      -1.490   7.534  12.528  1.00  0.00     0.034 C 
HETATM    6  C4  UNL     1      -1.527   8.970  13.039  1.00  0.00     0.011 C 
HETATM    7  C5  UNL     1      -2.693   9.317  14.007  1.00  0.00     0.012 C 
HETATM    8  C6  UNL     1      -3.797   8.192  14.124  1.00  0.00    -0.032 C 
HETATM    9  C11 UNL     1      -2.220   9.929  15.377  1.00  0.00     0.049 C 
HETATM   10  C7  UNL     1      -4.702   8.330  12.858  1.00  0.00     0.016 C 
HETATM   11  C8  UNL     1      -4.724   8.455  15.353  1.00  0.00     0.010 C 
HETATM   12  C9  UNL     1      -4.786   9.926  15.738  1.00  0.00     0.002 C 
HETATM   13  C10 UNL     1      -3.428  10.413  16.235  1.00  0.00     0.020 C 
HETATM   14  C12 UNL     1      -1.394   8.928  16.213  1.00  0.00     0.026 C 
BRANCH   9  15
HETATM   15  C13 UNL     1      -1.329  11.163  15.114  1.00  0.00     0.267 C 
HETATM   16  O1  UNL     1      -0.266  11.394  15.678  1.00  0.00    -0.264 OA
BRANCH  15  17
HETATM   17  O2  UNL     1      -1.886  11.982  14.175  1.00  0.00    -0.326 OA
HETATM   18  C14 UNL     1      -1.820  13.372  14.497  1.00  0.00     0.213 C 
ENDBRANCH  15  17
ENDBRANCH   9  15
ENDBRANCH   1   2
BRANCH   1  19
HETATM   19  C17 UNL     1      -3.515   4.248  13.563  1.00  0.00     0.042 C 
BRANCH  19  20
HETATM   20  C18 UNL     1      -3.409   3.879  12.117  1.00  0.00    -0.024 A 
HETATM   21  C19 UNL     1      -4.347   3.218  11.339  1.00  0.00     0.083 A 
HETATM   22  O5  UNL     1      -3.883   3.071  10.064  1.00  0.00    -0.324 OA
HETATM   23  C28 UNL     1      -2.647   3.628  10.021  1.00  0.00     0.143 A 
HETATM   24  C29 UNL     1      -2.309   4.140  11.251  1.00  0.00     0.034 A 
BRANCH  21  25
HETATM   25  C20 UNL     1      -5.702   2.673  11.609  1.00  0.00     0.244 C 
BRANCH  25  26
HETATM   26  O3  UNL     1      -6.539   3.770  11.997  1.00  0.00    -0.311 OA
BRANCH  26  27
HETATM   27  C21 UNL     1      -7.586   3.463  12.794  1.00  0.00     0.293 C 
HETATM   28  O4  UNL     1      -8.193   2.404  12.818  1.00  0.00    -0.259 OA
BRANCH  27  29
HETATM   29  C22 UNL     1      -7.920   4.618  13.675  1.00  0.00     0.039 A 
HETATM   30  C23 UNL     1      -7.444   4.605  14.994  1.00  0.00     0.019 A 
HETATM   31  C24 UNL     1      -7.729   5.665  15.859  1.00  0.00     0.025 A 
HETATM   32  C25 UNL     1      -8.489   6.743  15.406  1.00  0.00     0.034 A 
HETATM   33 CL1  UNL     1      -8.840   8.049  16.470  1.00  0.00    -0.084 Cl
HETATM   34  C26 UNL     1      -8.970   6.768  14.098  1.00  0.00     0.025 A 
HETATM   35  C27 UNL     1      -8.688   5.707  13.231  1.00  0.00     0.019 A 
ENDBRANCH  27  29
ENDBRANCH  26  27
ENDBRANCH  25  26
ENDBRANCH  21  25
ENDBRANCH  19  20
ENDBRANCH   1  19
TORSDOF 9
ENDMDL
MODEL 4
REMARK minimizedAffinity -7.87948084
REMARK CNNscore 0.545032263
REMARK CNNaffinity 7.02610016
REMARK  9 active torsions:
REMARK  status: ('A' for Active; 'I' for Inactive)
REMARK    1  A    between atoms: C11_11  and  C13_13 
REMARK    2  A    between atoms: C13_13  and  O2_15 
REMARK    3  A    between atoms: C15_17  and  C16_18 
REMARK    4  A    between atoms: C16_18  and  C17_19 
REMARK    5  A    between atoms: C17_19  and  C18_20 
REMARK    6  A    between atoms: C19_21  and  C20_22 
REMARK    7  A    between atoms: C20_22  and  O3_23 
REMARK    8  A    between atoms: O3_23  and  C21_24 
REMARK    9  A    between atoms: C21_24  and  C22_26 
ROOT
HETATM    1  C16 UNL     1      -4.518   7.142  14.114  1.00  0.00     0.014 C 
ENDROOT
BRANCH   1   2
HETATM    2  C15 UNL     1      -3.178   7.919  14.209  1.00  0.00     0.022 C 
HETATM    3  C2  UNL     1      -3.104   8.793  15.451  1.00  0.00    -0.084 C 
HETATM    4  C1  UNL     1      -3.622  10.034  15.496  1.00  0.00     0.014 C 
HETATM    5  C3  UNL     1      -2.303   8.253  16.592  1.00  0.00     0.034 C 
HETATM    6  C4  UNL     1      -0.847   8.113  16.163  1.00  0.00     0.011 C 
HETATM    7  C5  UNL     1      -0.609   7.543  14.737  1.00  0.00     0.012 C 
HETATM    8  C6  UNL     1      -1.908   6.974  14.040  1.00  0.00    -0.032 C 
HETATM    9  C11 UNL     1       0.285   8.464  13.826  1.00  0.00     0.049 C 
HETATM   10  C7  UNL     1      -2.151   5.556  14.650  1.00  0.00     0.016 C 
HETATM   11  C8  UNL     1      -1.664   6.754  12.513  1.00  0.00     0.010 C 
HETATM   12  C9  UNL     1      -0.197   6.520  12.181  1.00  0.00     0.002 C 
HETATM   13  C10 UNL     1       0.629   7.770  12.474  1.00  0.00     0.020 C 
HETATM   14  C12 UNL     1      -0.388   9.820  13.524  1.00  0.00     0.026 C 
BRANCH   9  15
HETATM   15  C13 UNL     1       1.624   8.756  14.539  1.00  0.00     0.267 C 
HETATM   16  O1  UNL     1       1.951   9.843  15.000  1.00  0.00    -0.264 OA
BRANCH  15  17
HETATM   17  O2  UNL     1       2.413   7.643  14.579  1.00  0.00    -0.326 OA
HETATM   18  C14 UNL     1       3.537   7.754  15.454  1.00  0.00     0.213 C 
ENDBRANCH  15  17
ENDBRANCH   9  15
ENDBRANCH   1   2
BRANCH   1  19
HETATM   19  C17 UNL     1      -5.224   6.922  15.459  1.00  0.00     0.042 C 
BRANCH  19  20
HETATM   20  C18 UNL     1      -6.701   6.749  15.293  1.00  0.00    -0.024 A 
HETATM   21  C19 UNL     1      -7.385   6.330  14.162  1.00  0.00     0.083 A 
HETATM   22  O5  UNL     1      -8.727   6.295  14.408  1.00  0.00    -0.324 OA
HETATM   23  C28 UNL     1      -8.909   6.697  15.690  1.00  0.00     0.143 A 
HETATM   24  C29 UNL     1      -7.701   6.985  16.279  1.00  0.00     0.034 A 
BRANCH  21  25
HETATM   25  C20 UNL     1      -6.958   5.920  12.799  1.00  0.00     0.244 C 
BRANCH  25  26
HETATM   26  O3  UNL     1      -7.884   4.928  12.337  1.00  0.00    -0.311 OA
BRANCH  26  27
HETATM   27  C21 UNL     1      -7.668   3.668  12.774  1.00  0.00     0.293 C 
HETATM   28  O4  UNL     1      -8.455   2.971  13.395  1.00  0.00    -0.259 OA
BRANCH  27  29
HETATM   29  C22 UNL     1      -6.302   3.215  12.388  1.00  0.00     0.039 A 
HETATM   30  C23 UNL     1      -6.176   2.001  11.697  1.00  0.00     0.019 A 
HETATM   31  C24 UNL     1      -4.917   1.533  11.311  1.00  0.00     0.025 A 
HETATM   32  C25 UNL     1      -3.778   2.280  11.615  1.00  0.00     0.034 A 
HETATM   33 CL1  UNL     1      -2.227   1.707  11.140  1.00  0.00    -0.084 Cl
HETATM   34  C26 UNL     1      -3.889   3.488  12.303  1.00  0.00     0.025 A 
HETATM   35  C27 UNL     1      -5.149   3.956  12.691  1.00  0.00     0.019 A 
ENDBRANCH  27  29
ENDBRANCH  26  27
ENDBRANCH  25  26
ENDBRANCH  21  25
ENDBRANCH  19  20
ENDBRANCH   1  19
TORSDOF 9
ENDMDL
MODEL 5
REMARK minimizedAffinity -7.89133692
REMARK CNNscore 0.522509336
REMARK CNNaffinity 7.01771307
REMARK  9 active torsions:
REMARK  status: ('A' for Active; 'I' for Inactive)
REMARK    1  A    between atoms: C11_11  and  C13_13 
REMARK    2  A    between atoms: C13_13  and  O2_15 
REMARK    3  A    between atoms: C15_17  and  C16_18 
REMARK    4  A    between atoms: C16_18  and  C17_19 
REMARK    5  A    between atoms: C17_19  and  C18_20 
REMARK    6  A    between atoms: C19_21  and  C20_22 
REMARK    7  A    between atoms: C20_22  and  O3_23 
REMARK    8  A    between atoms: O3_23  and  C21_24 
REMARK    9  A    between atoms: C21_24  and  C22_26 
ROOT
HETATM    1  C16 UNL     1      -5.003   6.076  14.740  1.00  0.00     0.014 C 
ENDROOT
BRANCH   1   2
HETATM    2  C15 UNL     1      -3.789   7.022  14.936  1.00  0.00     0.022 C 
HETATM    3  C2  UNL     1      -2.531   6.495  14.261  1.00  0.00    -0.084 C 
HETATM    4  C1  UNL     1      -1.711   5.607  14.850  1.00  0.00     0.014 C 
HETATM    5  C3  UNL     1      -2.176   7.116  12.949  1.00  0.00     0.034 C 
HETATM    6  C4  UNL     1      -1.879   8.597  13.157  1.00  0.00     0.011 C 
HETATM    7  C5  UNL     1      -2.837   9.356  14.117  1.00  0.00     0.012 C 
HETATM    8  C6  UNL     1      -4.115   8.530  14.545  1.00  0.00    -0.032 C 
HETATM    9  C11 UNL     1      -2.101  10.098  15.293  1.00  0.00     0.049 C 
HETATM   10  C7  UNL     1      -5.117   8.618  13.349  1.00  0.00     0.016 C 
HETATM   11  C8  UNL     1      -4.827   9.205  15.760  1.00  0.00     0.010 C 
HETATM   12  C9  UNL     1      -4.562  10.702  15.838  1.00  0.00     0.002 C 
HETATM   13  C10 UNL     1      -3.087  10.976  16.122  1.00  0.00     0.020 C 
HETATM   14  C12 UNL     1      -1.392   9.118  16.252  1.00  0.00     0.026 C 
BRANCH   9  15
HETATM   15  C13 UNL     1      -1.027  11.046  14.717  1.00  0.00     0.267 C 
HETATM   16  O1  UNL     1       0.182  10.906  14.859  1.00  0.00    -0.264 OA
BRANCH  15  17
HETATM   17  O2  UNL     1      -1.598  12.080  14.033  1.00  0.00    -0.326 OA
HETATM   18  C14 UNL     1      -1.121  13.370  14.418  1.00  0.00     0.213 C 
ENDBRANCH  15  17
ENDBRANCH   9  15
ENDBRANCH   1   2
BRANCH   1  19
HETATM   19  C17 UNL     1      -6.007   6.081  15.901  1.00  0.00     0.042 C 
BRANCH  19  20
HETATM   20  C18 UNL     1      -7.393   6.402  15.439  1.00  0.00    -0.024 A 
HETATM   21  C19 UNL     1      -7.916   6.267  14.162  1.00  0.00     0.083 A 
HETATM   22  O5  UNL     1      -9.222   6.662  14.143  1.00  0.00    -0.324 OA
HETATM   23  C28 UNL     1      -9.539   7.057  15.400  1.00  0.00     0.143 A 
HETATM   24  C29 UNL     1      -8.457   6.917  16.235  1.00  0.00     0.034 A 
BRANCH  21  25
HETATM   25  C20 UNL     1      -7.357   5.788  12.872  1.00  0.00     0.244 C 
BRANCH  25  26
HETATM   26  O3  UNL     1      -8.108   4.632  12.480  1.00  0.00    -0.311 OA
BRANCH  26  27
HETATM   27  C21 UNL     1      -7.525   3.437  12.722  1.00  0.00     0.293 C 
HETATM   28  O4  UNL     1      -8.031   2.487  13.297  1.00  0.00    -0.259 OA
BRANCH  27  29
HETATM   29  C22 UNL     1      -6.138   3.420  12.177  1.00  0.00     0.039 A 
HETATM   30  C23 UNL     1      -5.971   3.264  10.793  1.00  0.00     0.019 A 
HETATM   31  C24 UNL     1      -4.690   3.243  10.233  1.00  0.00     0.025 A 
HETATM   32  C25 UNL     1      -3.572   3.380  11.056  1.00  0.00     0.034 A 
HETATM   33 CL1  UNL     1      -1.996   3.355  10.369  1.00  0.00    -0.084 Cl
HETATM   34  C26 UNL     1      -3.725   3.534  12.434  1.00  0.00     0.025 A 
HETATM   35  C27 UNL     1      -5.005   3.553  12.996  1.00  0.00     0.019 A 
ENDBRANCH  27  29
ENDBRANCH  26  27
ENDBRANCH  25  26
ENDBRANCH  21  25
ENDBRANCH  19  20
ENDBRANCH   1  19
TORSDOF 9
ENDMDL
MODEL 6
REMARK minimizedAffinity -7.31436396
REMARK CNNscore 0.460241318
REMARK CNNaffinity 6.60687399
REMARK  9 active torsions:
REMARK  status: ('A' for Active; 'I' for Inactive)
REMARK    1  A    between atoms: C11_11  and  C13_13 
REMARK    2  A    between atoms: C13_13  and  O2_15 
REMARK    3  A    between atoms: C15_17  and  C16_18 
REMARK    4  A    between atoms: C16_18  and  C17_19 
REMARK    5  A    between atoms: C17_19  and  C18_20 
REMARK    6  A    between atoms: C19_21  and  C20_22 
REMARK    7  A    between atoms: C20_22  and  O3_23 
REMARK    8  A    between atoms: O3_23  and  C21_24 
REMARK    9  A    between atoms: C21_24  and  C22_26 
ROOT
HETATM    1  C16 UNL     1      -9.930   7.325  15.162  1.00  0.00     0.014 C 
ENDROOT
BRANCH   1   2
HETATM    2  C15 UNL     1     -11.275   8.093  15.261  1.00  0.00     0.022 C 
HETATM    3  C2  UNL     1     -11.074   9.591  15.432  1.00  0.00    -0.084 C 
HETATM    4  C1  UNL     1     -10.861  10.162  16.630  1.00  0.00     0.014 C 
HETATM    5  C3  UNL     1     -11.255  10.425  14.204  1.00  0.00     0.034 C 
HETATM    6  C4  UNL     1     -12.697  10.309  13.724  1.00  0.00     0.011 C 
HETATM    7  C5  UNL     1     -13.315   8.883  13.767  1.00  0.00     0.012 C 
HETATM    8  C6  UNL     1     -12.276   7.733  14.078  1.00  0.00    -0.032 C 
HETATM    9  C11 UNL     1     -14.662   8.799  14.577  1.00  0.00     0.049 C 
HETATM   10  C7  UNL     1     -11.520   7.450  12.740  1.00  0.00     0.016 C 
HETATM   11  C8  UNL     1     -13.014   6.408  14.449  1.00  0.00     0.010 C 
HETATM   12  C9  UNL     1     -14.410   6.325  13.848  1.00  0.00     0.002 C 
HETATM   13  C10 UNL     1     -15.321   7.393  14.446  1.00  0.00     0.020 C 
HETATM   14  C12 UNL     1     -14.464   9.110  16.076  1.00  0.00     0.026 C 
BRANCH   9  15
HETATM   15  C13 UNL     1     -15.670   9.825  14.017  1.00  0.00     0.267 C 
HETATM   16  O1  UNL     1     -16.131  10.771  14.644  1.00  0.00    -0.264 OA
BRANCH  15  17
HETATM   17  O2  UNL     1     -15.999   9.537  12.723  1.00  0.00    -0.326 OA
HETATM   18  C14 UNL     1     -15.359   8.371  12.203  1.00  0.00     0.213 C 
ENDBRANCH  15  17
ENDBRANCH   9  15
ENDBRANCH   1   2
BRANCH   1  19
HETATM   19  C17 UNL     1      -8.771   7.966  15.938  1.00  0.00     0.042 C 
BRANCH  19  20
HETATM   20  C18 UNL     1      -7.498   7.953  15.153  1.00  0.00    -0.024 A 
HETATM   21  C19 UNL     1      -7.072   6.999  14.242  1.00  0.00     0.083 A 
HETATM   22  O5  UNL     1      -5.855   7.345  13.730  1.00  0.00    -0.324 OA
HETATM   23  C28 UNL     1      -5.494   8.514  14.314  1.00  0.00     0.143 A 
HETATM   24  C29 UNL     1      -6.464   8.932  15.192  1.00  0.00     0.034 A 
BRANCH  21  25
HETATM   25  C20 UNL     1      -7.662   5.735  13.731  1.00  0.00     0.244 C 
BRANCH  25  26
HETATM   26  O3  UNL     1      -6.616   4.756  13.692  1.00  0.00    -0.311 OA
BRANCH  26  27
HETATM   27  C21 UNL     1      -6.799   3.728  12.834  1.00  0.00     0.293 C 
HETATM   28  O4  UNL     1      -7.870   3.277  12.460  1.00  0.00    -0.259 OA
BRANCH  27  29
HETATM   29  C22 UNL     1      -5.483   3.195  12.380  1.00  0.00     0.039 A 
HETATM   30  C23 UNL     1      -4.344   3.991  12.570  1.00  0.00     0.019 A 
HETATM   31  C24 UNL     1      -3.087   3.535  12.163  1.00  0.00     0.025 A 
HETATM   32  C25 UNL     1      -2.965   2.281  11.565  1.00  0.00     0.034 A 
HETATM   33 CL1  UNL     1      -1.419   1.718  11.064  1.00  0.00    -0.084 Cl
HETATM   34  C26 UNL     1      -4.090   1.480  11.369  1.00  0.00     0.025 A 
HETATM   35  C27 UNL     1      -5.349   1.935  11.774  1.00  0.00     0.019 A 
ENDBRANCH  27  29
ENDBRANCH  26  27
ENDBRANCH  25  26
ENDBRANCH  21  25
ENDBRANCH  19  20
ENDBRANCH   1  19
TORSDOF 9
ENDMDL
MODEL 7
REMARK minimizedAffinity -7.54530144
REMARK CNNscore 0.446256101
REMARK CNNaffinity 6.59005356
REMARK  9 active torsions:
REMARK  status: ('A' for Active; 'I' for Inactive)
REMARK    1  A    between atoms: C11_11  and  C13_13 
REMARK    2  A    between atoms: C13_13  and  O2_15 
REMARK    3  A    between atoms: C15_17  and  C16_18 
REMARK    4  A    between atoms: C16_18  and  C17_19 
REMARK    5  A    between atoms: C17_19  and  C18_20 
REMARK    6  A    between atoms: C19_21  and  C20_22 
REMARK    7  A    between atoms: C20_22  and  O3_23 
REMARK    8  A    between atoms: O3_23  and  C21_24 
REMARK    9  A    between atoms: C21_24  and  C22_26 
ROOT
HETATM    1  C16 UNL     1     -11.266   9.272  14.490  1.00  0.00     0.014 C 
ENDROOT
BRANCH   1   2
HETATM    2  C15 UNL     1     -12.809   9.114  14.470  1.00  0.00     0.022 C 
HETATM    3  C2  UNL     1     -13.512  10.368  13.973  1.00  0.00    -0.084 C 
HETATM    4  C1  UNL     1     -13.804  11.404  14.779  1.00  0.00     0.014 C 
HETATM    5  C3  UNL     1     -13.985  10.340  12.555  1.00  0.00     0.034 C 
HETATM    6  C4  UNL     1     -15.040   9.251  12.397  1.00  0.00     0.011 C 
HETATM    7  C5  UNL     1     -14.744   7.907  13.121  1.00  0.00     0.012 C 
HETATM    8  C6  UNL     1     -13.283   7.797  13.713  1.00  0.00    -0.032 C 
HETATM    9  C11 UNL     1     -15.892   7.443  14.092  1.00  0.00     0.049 C 
HETATM   10  C7  UNL     1     -12.346   7.446  12.513  1.00  0.00     0.016 C 
HETATM   11  C8  UNL     1     -13.180   6.598  14.710  1.00  0.00     0.010 C 
HETATM   12  C9  UNL     1     -14.201   5.507  14.422  1.00  0.00     0.002 C 
HETATM   13  C10 UNL     1     -15.620   6.017  14.659  1.00  0.00     0.020 C 
HETATM   14  C12 UNL     1     -16.084   8.413  15.278  1.00  0.00     0.026 C 
BRANCH   9  15
HETATM   15  C13 UNL     1     -17.229   7.377  13.322  1.00  0.00     0.267 C 
HETATM   16  O1  UNL     1     -18.222   8.045  13.581  1.00  0.00    -0.264 OA
BRANCH  15  17
HETATM   17  O2  UNL     1     -17.170   6.460  12.311  1.00  0.00    -0.326 OA
HETATM   18  C14 UNL     1     -18.000   5.315  12.512  1.00  0.00     0.213 C 
ENDBRANCH  15  17
ENDBRANCH   9  15
ENDBRANCH   1   2
BRANCH   1  19
HETATM   19  C17 UNL     1     -10.495   8.069  13.927  1.00  0.00     0.042 C 
BRANCH  19  20
HETATM   20  C18 UNL     1      -9.474   7.558  14.893  1.00  0.00    -0.024 A 
HETATM   21  C19 UNL     1      -8.546   6.548  14.692  1.00  0.00     0.083 A 
HETATM   22  O5  UNL     1      -7.786   6.377  15.813  1.00  0.00    -0.324 OA
HETATM   23  C28 UNL     1      -8.227   7.267  16.735  1.00  0.00     0.143 A 
HETATM   24  C29 UNL     1      -9.258   8.017  16.224  1.00  0.00     0.034 A 
BRANCH  21  25
HETATM   25  C20 UNL     1      -8.226   5.664  13.542  1.00  0.00     0.244 C 
BRANCH  25  26
HETATM   26  O3  UNL     1      -7.675   4.451  14.071  1.00  0.00    -0.311 OA
BRANCH  26  27
HETATM   27  C21 UNL     1      -7.479   3.452  13.182  1.00  0.00     0.293 C 
HETATM   28  O4  UNL     1      -8.281   2.581  12.882  1.00  0.00    -0.259 OA
BRANCH  27  29
HETATM   29  C22 UNL     1      -6.116   3.550  12.587  1.00  0.00     0.039 A 
HETATM   30  C23 UNL     1      -5.822   2.755  11.470  1.00  0.00     0.019 A 
HETATM   31  C24 UNL     1      -4.558   2.811  10.875  1.00  0.00     0.025 A 
HETATM   32  C25 UNL     1      -3.585   3.666  11.396  1.00  0.00     0.034 A 
HETATM   33 CL1  UNL     1      -2.030   3.737  10.664  1.00  0.00    -0.084 Cl
HETATM   34  C26 UNL     1      -3.865   4.460  12.507  1.00  0.00     0.025 A 
HETATM   35  C27 UNL     1      -5.129   4.403  13.104  1.00  0.00     0.019 A 
ENDBRANCH  27  29
ENDBRANCH  26  27
ENDBRANCH  25  26
ENDBRANCH  21  25
ENDBRANCH  19  20
ENDBRANCH   1  19
TORSDOF 9
ENDMDL
MODEL 8
REMARK minimizedAffinity -7.16440964
REMARK CNNscore 0.426925391
REMARK CNNaffinity 6.86329889
REMARK  9 active torsions:
REMARK  status: ('A' for Active; 'I' for Inactive)
REMARK    1  A    between atoms: C11_11  and  C13_13 
REMARK    2  A    between atoms: C13_13  and  O2_15 
REMARK    3  A    between atoms: C15_17  and  C16_18 
REMARK    4  A    between atoms: C16_18  and  C17_19 
REMARK    5  A    between atoms: C17_19  and  C18_20 
REMARK    6  A    between atoms: C19_21  and  C20_22 
REMARK    7  A    between atoms: C20_22  and  O3_23 
REMARK    8  A    between atoms: O3_23  and  C21_24 
REMARK    9  A    between atoms: C21_24  and  C22_26 
ROOT
HETATM    1  C16 UNL     1      -4.570   7.403  14.518  1.00  0.00     0.014 C 
ENDROOT
BRANCH   1   2
HETATM    2  C15 UNL     1      -3.035   7.460  14.739  1.00  0.00     0.022 C 
HETATM    3  C2  UNL     1      -2.367   6.114  14.506  1.00  0.00    -0.084 C 
HETATM    4  C1  UNL     1      -2.291   5.168  15.458  1.00  0.00     0.014 C 
HETATM    5  C3  UNL     1      -1.674   5.940  13.193  1.00  0.00     0.034 C 
HETATM    6  C4  UNL     1      -0.523   6.935  13.094  1.00  0.00     0.011 C 
HETATM    7  C5  UNL     1      -0.820   8.372  13.607  1.00  0.00     0.012 C 
HETATM    8  C6  UNL     1      -2.343   8.644  13.932  1.00  0.00    -0.032 C 
HETATM    9  C11 UNL     1       0.194   8.878  14.699  1.00  0.00     0.049 C 
HETATM   10  C7  UNL     1      -3.046   8.904  12.561  1.00  0.00     0.016 C 
HETATM   11  C8  UNL     1      -2.503   9.959  14.760  1.00  0.00     0.010 C 
HETATM   12  C9  UNL     1      -1.365  10.941  14.528  1.00  0.00     0.002 C 
HETATM   13  C10 UNL     1      -0.048  10.377  15.053  1.00  0.00     0.020 C 
HETATM   14  C12 UNL     1       0.117   8.049  15.999  1.00  0.00     0.026 C 
BRANCH   9  15
HETATM   15  C13 UNL     1       1.637   8.767  14.160  1.00  0.00     0.267 C 
HETATM   16  O1  UNL     1       2.524   8.088  14.662  1.00  0.00    -0.264 OA
BRANCH  15  17
HETATM   17  O2  UNL     1       1.807   9.540  13.047  1.00  0.00    -0.326 OA
HETATM   18  C14 UNL     1       2.475   8.877  11.972  1.00  0.00     0.213 C 
ENDBRANCH  15  17
ENDBRANCH   9  15
ENDBRANCH   1   2
BRANCH   1  19
HETATM   19  C17 UNL     1      -5.297   6.350  15.366  1.00  0.00     0.042 C 
BRANCH  19  20
HETATM   20  C18 UNL     1      -6.773   6.587  15.406  1.00  0.00    -0.024 A 
HETATM   21  C19 UNL     1      -7.683   6.454  14.367  1.00  0.00     0.083 A 
HETATM   22  O5  UNL     1      -8.941   6.756  14.801  1.00  0.00    -0.324 OA
HETATM   23  C28 UNL     1      -8.843   7.090  16.112  1.00  0.00     0.143 A 
HETATM   24  C29 UNL     1      -7.538   7.001  16.533  1.00  0.00     0.034 A 
BRANCH  21  25
HETATM   25  C20 UNL     1      -7.560   6.054  12.942  1.00  0.00     0.244 C 
BRANCH  25  26
HETATM   26  O3  UNL     1      -8.176   4.768  12.800  1.00  0.00    -0.311 OA
BRANCH  26  27
HETATM   27  C21 UNL     1      -7.448   3.712  13.227  1.00  0.00     0.293 C 
HETATM   28  O4  UNL     1      -7.738   2.953  14.139  1.00  0.00    -0.259 OA
BRANCH  27  29
HETATM   29  C22 UNL     1      -6.204   3.582  12.417  1.00  0.00     0.039 A 
HETATM   30  C23 UNL     1      -4.973   3.796  13.054  1.00  0.00     0.019 A 
HETATM   31  C24 UNL     1      -3.778   3.684  12.338  1.00  0.00     0.025 A 
HETATM   32  C25 UNL     1      -3.811   3.356  10.983  1.00  0.00     0.034 A 
HETATM   33 CL1  UNL     1      -2.341   3.217  10.100  1.00  0.00    -0.084 Cl
HETATM   34  C26 UNL     1      -5.028   3.141  10.338  1.00  0.00     0.025 A 
HETATM   35  C27 UNL     1      -6.225   3.255  11.052  1.00  0.00     0.019 A 
ENDBRANCH  27  29
ENDBRANCH  26  27
ENDBRANCH  25  26
ENDBRANCH  21  25
ENDBRANCH  19  20
ENDBRANCH   1  19
TORSDOF 9
ENDMDL
MODEL 9
REMARK minimizedAffinity -8.04567051
REMARK CNNscore 0.344494343
REMARK CNNaffinity 6.71927786
REMARK  9 active torsions:
REMARK  status: ('A' for Active; 'I' for Inactive)
REMARK    1  A    between atoms: C11_11  and  C13_13 
REMARK    2  A    between atoms: C13_13  and  O2_15 
REMARK    3  A    between atoms: C15_17  and  C16_18 
REMARK    4  A    between atoms: C16_18  and  C17_19 
REMARK    5  A    between atoms: C17_19  and  C18_20 
REMARK    6  A    between atoms: C19_21  and  C20_22 
REMARK    7  A    between atoms: C20_22  and  O3_23 
REMARK    8  A    between atoms: O3_23  and  C21_24 
REMARK    9  A    between atoms: C21_24  and  C22_26 
ROOT
HETATM    1  C16 UNL     1      -2.767   4.372  11.446  1.00  0.00     0.014 C 
ENDROOT
BRANCH   1   2
HETATM    2  C15 UNL     1      -2.072   5.638  12.012  1.00  0.00     0.022 C 
HETATM    3  C2  UNL     1      -2.627   6.045  13.368  1.00  0.00    -0.084 C 
HETATM    4  C1  UNL     1      -3.729   6.805  13.502  1.00  0.00     0.014 C 
HETATM    5  C3  UNL     1      -1.807   5.665  14.558  1.00  0.00     0.034 C 
HETATM    6  C4  UNL     1      -0.461   6.379  14.492  1.00  0.00     0.011 C 
HETATM    7  C5  UNL     1       0.214   6.429  13.093  1.00  0.00     0.012 C 
HETATM    8  C6  UNL     1      -0.484   5.524  12.002  1.00  0.00    -0.032 C 
HETATM    9  C11 UNL     1       0.581   7.883  12.616  1.00  0.00     0.049 C 
HETATM   10  C7  UNL     1      -0.004   4.061  12.269  1.00  0.00     0.016 C 
HETATM   11  C8  UNL     1       0.022   5.895  10.572  1.00  0.00     0.010 C 
HETATM   12  C9  UNL     1       1.414   6.509  10.583  1.00  0.00     0.002 C 
HETATM   13  C10 UNL     1       1.403   7.861  11.293  1.00  0.00     0.020 C 
HETATM   14  C12 UNL     1      -0.670   8.762  12.402  1.00  0.00     0.026 C 
BRANCH   9  15
HETATM   15  C13 UNL     1       1.458   8.574  13.683  1.00  0.00     0.267 C 
HETATM   16  O1  UNL     1       1.160   9.601  14.280  1.00  0.00    -0.264 OA
BRANCH  15  17
HETATM   17  O2  UNL     1       2.630   7.897  13.870  1.00  0.00    -0.326 OA
HETATM   18  C14 UNL     1       3.206   8.074  15.165  1.00  0.00     0.213 C 
ENDBRANCH  15  17
ENDBRANCH   9  15
ENDBRANCH   1   2
BRANCH   1  19
HETATM   19  C17 UNL     1      -3.289   3.400  12.513  1.00  0.00     0.042 C 
BRANCH  19  20
HETATM   20  C18 UNL     1      -4.623   2.832  12.147  1.00  0.00    -0.024 A 
HETATM   21  C19 UNL     1      -5.876   3.355  12.429  1.00  0.00     0.083 A 
HETATM   22  O5  UNL     1      -6.850   2.545  11.922  1.00  0.00    -0.324 OA
HETATM   23  C28 UNL     1      -6.229   1.500  11.322  1.00  0.00     0.143 A 
HETATM   24  C29 UNL     1      -4.866   1.626  11.428  1.00  0.00     0.034 A 
BRANCH  21  25
HETATM   25  C20 UNL     1      -6.340   4.576  13.135  1.00  0.00     0.244 C 
BRANCH  25  26
HETATM   26  O3  UNL     1      -7.758   4.457  13.316  1.00  0.00    -0.311 OA
BRANCH  26  27
HETATM   27  C21 UNL     1      -8.508   5.449  12.788  1.00  0.00     0.293 C 
HETATM   28  O4  UNL     1      -8.788   5.597  11.609  1.00  0.00    -0.259 OA
BRANCH  27  29
HETATM   29  C22 UNL     1      -8.970   6.373  13.861  1.00  0.00     0.039 A 
HETATM   30  C23 UNL     1     -10.203   7.022  13.692  1.00  0.00     0.019 A 
HETATM   31  C24 UNL     1     -10.681   7.897  14.671  1.00  0.00     0.025 A 
HETATM   32  C25 UNL     1      -9.930   8.125  15.824  1.00  0.00     0.034 A 
HETATM   33 CL1  UNL     1     -10.518   9.201  17.030  1.00  0.00    -0.084 Cl
HETATM   34  C26 UNL     1      -8.703   7.488  16.004  1.00  0.00     0.025 A 
HETATM   35  C27 UNL     1      -8.221   6.613  15.024  1.00  0.00     0.019 A 
ENDBRANCH  27  29
ENDBRANCH  26  27
ENDBRANCH  25  26
ENDBRANCH  21  25
ENDBRANCH  19  20
ENDBRANCH   1  19
TORSDOF 9
ENDMDL
