MODEL 1
REMARK minimizedAffinity -7.14588976
REMARK CNNscore 0.702067256
REMARK CNNaffinity 6.70562172
REMARK  13 active torsions:
REMARK  status: ('A' for Active; 'I' for Inactive)
REMARK    1  A    between atoms: C4_4  and  C5_5 
REMARK    2  A    between atoms: C5_5  and  C6_6 
REMARK    3  A    between atoms: C6_6  and  C7_7 
REMARK    4  A    between atoms: C9_9  and  C10_10 
REMARK    5  A    between atoms: C11_11  and  C12_12 
REMARK    6  A    between atoms: C14_14  and  C15_15 
REMARK    7  A    between atoms: C18_18  and  O1_19 
REMARK    8  A    between atoms: C19_21  and  C20_22 
REMARK    9  A    between atoms: C20_22  and  C21_23 
REMARK   10  A    between atoms: C21_23  and  C22_24 
REMARK   11  A    between atoms: C22_24  and  O3_25 
REMARK   12  A    between atoms: C24_27  and  C26_29 
REMARK   13  A    between atoms: C29_33  and  O5_35 
ROOT
HETATM    1  C15 UNL     1       0.630  51.885 -14.029  1.00  0.00     0.149 C 
HETATM    2  C16 UNL     1      -0.736  52.163 -13.371  1.00  0.00     0.054 C 
HETATM    3  C17 UNL     1      -0.760  51.178 -12.176  1.00  0.00     0.050 C 
HETATM    4  C18 UNL     1      -0.059  50.010 -12.890  1.00  0.00     0.270 C 
HETATM    5  O2  UNL     1       1.045  50.580 -13.579  1.00  0.00    -0.351 OA
HETATM    6  C19 UNL     1       0.099  51.834 -10.997  1.00  0.00     0.032 C 
HETATM    7  C23 UNL     1      -0.675  53.015 -10.364  1.00  0.00    -0.066 C 
HETATM    8  C24 UNL     1      -0.161  54.269 -10.281  1.00  0.00    -0.021 C 
HETATM    9  C25 UNL     1       1.217  54.676 -10.737  1.00  0.00     0.052 C 
HETATM   10  C27 UNL     1      -2.051  52.593  -9.885  1.00  0.00     0.038 C 
HETATM   11  C28 UNL     1      -2.880  52.009 -11.027  1.00  0.00     0.042 C 
HETATM   12  C29 UNL     1      -2.197  50.798 -11.685  1.00  0.00     0.067 C 
HETATM   13  C30 UNL     1      -3.145  50.246 -12.765  1.00  0.00     0.047 C 
ENDROOT
BRANCH   4  14
HETATM   14  O1  UNL     1       0.348  48.979 -12.027  1.00  0.00    -0.370 OA
HETATM   15  H26 UNL     1       0.882  48.390 -12.591  1.00  0.00     0.212 HD
ENDBRANCH   4  14
BRANCH   6  16
HETATM   16  C20 UNL     1       0.622  50.911  -9.863  1.00  0.00     0.012 C 
BRANCH  16  17
HETATM   17  C21 UNL     1       2.140  50.695  -9.943  1.00  0.00     0.027 C 
BRANCH  17  18
HETATM   18  C22 UNL     1       2.786  51.634 -10.953  1.00  0.00     0.164 C 
BRANCH  18  19
HETATM   19  O3  UNL     1       3.422  50.881 -11.978  1.00  0.00    -0.401 OA
HETATM   20  H34 UNL     1       2.746  50.314 -12.386  1.00  0.00     0.209 HD
ENDBRANCH  18  19
ENDBRANCH  17  18
ENDBRANCH  16  17
ENDBRANCH   6  16
BRANCH  12  21
HETATM   21  O5  UNL     1      -2.134  49.767 -10.690  1.00  0.00    -0.389 OA
HETATM   22  H46 UNL     1      -1.487  49.096 -10.980  1.00  0.00     0.210 HD
ENDBRANCH  12  21
BRANCH   1  23
HETATM   23  C14 UNL     1       0.572  51.862 -15.530  1.00  0.00     0.011 C 
HETATM   24  C12 UNL     1       1.561  52.140 -16.408  1.00  0.00    -0.063 C 
HETATM   25  C13 UNL     1       2.971  52.491 -16.005  1.00  0.00     0.048 C 
BRANCH  24  26
HETATM   26  C11 UNL     1       1.258  52.076 -17.841  1.00  0.00     0.006 C 
HETATM   27  C10 UNL     1       0.037  51.973 -18.397  1.00  0.00     0.001 C 
BRANCH  27  28
HETATM   28  C9  UNL     1      -0.162  51.918 -19.831  1.00  0.00     0.002 C 
HETATM   29  C7  UNL     1       0.176  52.857 -20.737  1.00  0.00    -0.084 C 
HETATM   30  C8  UNL     1       0.829  54.182 -20.437  1.00  0.00     0.043 C 
BRANCH  29  31
HETATM   31  C6  UNL     1      -0.115  52.621 -22.211  1.00  0.00     0.037 C 
BRANCH  31  32
HETATM   32  C5  UNL     1      -0.524  51.173 -22.502  1.00  0.00     0.031 C 
BRANCH  32  33
HETATM   33  C4  UNL     1      -1.055  51.024 -23.903  1.00  0.00    -0.024 C 
HETATM   34  C2  UNL     1      -0.437  51.331 -25.059  1.00  0.00    -0.091 C 
HETATM   35  C1  UNL     1       0.933  51.941 -25.177  1.00  0.00     0.042 C 
HETATM   36  C3  UNL     1      -1.116  51.078 -26.381  1.00  0.00     0.042 C 
ENDBRANCH  32  33
ENDBRANCH  31  32
ENDBRANCH  29  31
ENDBRANCH  27  28
ENDBRANCH  24  26
ENDBRANCH   1  23
BRANCH   8  37
HETATM   37  C26 UNL     1      -0.932  55.416  -9.697  1.00  0.00     0.265 C 
HETATM   38  O4  UNL     1      -0.564  56.017  -8.691  1.00  0.00    -0.302 OA
ENDBRANCH   8  37
TORSDOF 13
ENDMDL
MODEL 2
REMARK minimizedAffinity -6.61143589
REMARK CNNscore 0.685540557
REMARK CNNaffinity 6.46877432
REMARK  13 active torsions:
REMARK  status: ('A' for Active; 'I' for Inactive)
REMARK    1  A    between atoms: C4_4  and  C5_5 
REMARK    2  A    between atoms: C5_5  and  C6_6 
REMARK    3  A    between atoms: C6_6  and  C7_7 
REMARK    4  A    between atoms: C9_9  and  C10_10 
REMARK    5  A    between atoms: C11_11  and  C12_12 
REMARK    6  A    between atoms: C14_14  and  C15_15 
REMARK    7  A    between atoms: C18_18  and  O1_19 
REMARK    8  A    between atoms: C19_21  and  C20_22 
REMARK    9  A    between atoms: C20_22  and  C21_23 
REMARK   10  A    between atoms: C21_23  and  C22_24 
REMARK   11  A    between atoms: C22_24  and  O3_25 
REMARK   12  A    between atoms: C24_27  and  C26_29 
REMARK   13  A    between atoms: C29_33  and  O5_35 
ROOT
HETATM    1  C15 UNL     1     -10.919  46.136 -35.859  1.00  0.00     0.149 C 
HETATM    2  C16 UNL     1     -10.454  47.202 -36.872  1.00  0.00     0.054 C 
HETATM    3  C17 UNL     1     -10.320  46.401 -38.191  1.00  0.00     0.050 C 
HETATM    4  C18 UNL     1      -9.766  45.111 -37.564  1.00  0.00     0.270 C 
HETATM    5  O2  UNL     1     -10.571  44.856 -36.421  1.00  0.00    -0.351 OA
HETATM    6  C19 UNL     1     -11.787  46.250 -38.810  1.00  0.00     0.032 C 
HETATM    7  C23 UNL     1     -12.267  47.603 -39.386  1.00  0.00    -0.066 C 
HETATM    8  C24 UNL     1     -13.423  48.200 -38.994  1.00  0.00    -0.021 C 
HETATM    9  C25 UNL     1     -14.404  47.626 -38.004  1.00  0.00     0.052 C 
HETATM   10  C27 UNL     1     -11.287  48.163 -40.400  1.00  0.00     0.038 C 
HETATM   11  C28 UNL     1      -9.900  48.346 -39.787  1.00  0.00     0.042 C 
HETATM   12  C29 UNL     1      -9.330  47.032 -39.227  1.00  0.00     0.067 C 
HETATM   13  C30 UNL     1      -7.910  47.312 -38.705  1.00  0.00     0.047 C 
ENDROOT
BRANCH   4  14
HETATM   14  O1  UNL     1      -9.753  44.014 -38.441  1.00  0.00    -0.370 OA
HETATM   15  H26 UNL     1      -9.510  43.258 -37.876  1.00  0.00     0.212 HD
ENDBRANCH   4  14
BRANCH   6  16
HETATM   16  C20 UNL     1     -12.031  45.139 -39.868  1.00  0.00     0.012 C 
BRANCH  16  17
HETATM   17  C21 UNL     1     -12.964  45.604 -40.994  1.00  0.00     0.027 C 
BRANCH  17  18
HETATM   18  C22 UNL     1     -13.558  44.424 -41.751  1.00  0.00     0.164 C 
BRANCH  18  19
HETATM   19  O3  UNL     1     -14.969  44.397 -41.577  1.00  0.00    -0.401 OA
HETATM   20  H34 UNL     1     -15.318  45.247 -41.895  1.00  0.00     0.209 HD
ENDBRANCH  18  19
ENDBRANCH  17  18
ENDBRANCH  16  17
ENDBRANCH   6  16
BRANCH  12  21
HETATM   21  O5  UNL     1      -9.144  46.152 -40.345  1.00  0.00    -0.389 OA
HETATM   22  H46 UNL     1      -9.037  45.242 -40.008  1.00  0.00     0.210 HD
ENDBRANCH  12  21
BRANCH   1  23
HETATM   23  C14 UNL     1     -10.246  46.256 -34.521  1.00  0.00     0.011 C 
HETATM   24  C12 UNL     1      -9.009  46.728 -34.248  1.00  0.00    -0.063 C 
HETATM   25  C13 UNL     1      -8.072  47.285 -35.290  1.00  0.00     0.048 C 
BRANCH  24  26
HETATM   26  C11 UNL     1      -8.554  46.723 -32.854  1.00  0.00     0.006 C 
HETATM   27  C10 UNL     1      -8.083  47.776 -32.162  1.00  0.00     0.001 C 
BRANCH  27  28
HETATM   28  C9  UNL     1      -7.656  47.670 -30.782  1.00  0.00     0.002 C 
HETATM   29  C7  UNL     1      -6.489  48.092 -30.255  1.00  0.00    -0.084 C 
HETATM   30  C8  UNL     1      -5.368  48.759 -31.010  1.00  0.00     0.043 C 
BRANCH  29  31
HETATM   31  C6  UNL     1      -6.215  47.892 -28.773  1.00  0.00     0.037 C 
BRANCH  31  32
HETATM   32  C5  UNL     1      -4.756  48.182 -28.404  1.00  0.00     0.031 C 
BRANCH  32  33
HETATM   33  C4  UNL     1      -4.545  48.121 -26.914  1.00  0.00    -0.024 C 
HETATM   34  C2  UNL     1      -3.939  49.029 -26.126  1.00  0.00    -0.091 C 
HETATM   35  C1  UNL     1      -3.297  50.303 -26.603  1.00  0.00     0.042 C 
HETATM   36  C3  UNL     1      -3.851  48.814 -24.636  1.00  0.00     0.042 C 
ENDBRANCH  32  33
ENDBRANCH  31  32
ENDBRANCH  29  31
ENDBRANCH  27  28
ENDBRANCH  24  26
ENDBRANCH   1  23
BRANCH   8  37
HETATM   37  C26 UNL     1     -13.863  49.529 -39.533  1.00  0.00     0.265 C 
HETATM   38  O4  UNL     1     -13.539  50.593 -39.013  1.00  0.00    -0.302 OA
ENDBRANCH   8  37
TORSDOF 13
ENDMDL
MODEL 3
REMARK minimizedAffinity -7.94884253
REMARK CNNscore 0.669927001
REMARK CNNaffinity 6.58950663
REMARK  13 active torsions:
REMARK  status: ('A' for Active; 'I' for Inactive)
REMARK    1  A    between atoms: C4_4  and  C5_5 
REMARK    2  A    between atoms: C5_5  and  C6_6 
REMARK    3  A    between atoms: C6_6  and  C7_7 
REMARK    4  A    between atoms: C9_9  and  C10_10 
REMARK    5  A    between atoms: C11_11  and  C12_12 
REMARK    6  A    between atoms: C14_14  and  C15_15 
REMARK    7  A    between atoms: C18_18  and  O1_19 
REMARK    8  A    between atoms: C19_21  and  C20_22 
REMARK    9  A    between atoms: C20_22  and  C21_23 
REMARK   10  A    between atoms: C21_23  and  C22_24 
REMARK   11  A    between atoms: C22_24  and  O3_25 
REMARK   12  A    between atoms: C24_27  and  C26_29 
REMARK   13  A    between atoms: C29_33  and  O5_35 
ROOT
HETATM    1  C15 UNL     1      -1.407  51.590 -19.648  1.00  0.00     0.149 C 
HETATM    2  C16 UNL     1      -1.251  50.303 -20.482  1.00  0.00     0.054 C 
HETATM    3  C17 UNL     1      -2.715  49.892 -20.776  1.00  0.00     0.050 C 
HETATM    4  C18 UNL     1      -3.295  50.298 -19.410  1.00  0.00     0.270 C 
HETATM    5  O2  UNL     1      -2.748  51.577 -19.120  1.00  0.00    -0.351 OA
HETATM    6  C19 UNL     1      -3.229  50.788 -21.997  1.00  0.00     0.032 C 
HETATM    7  C23 UNL     1      -2.569  50.324 -23.317  1.00  0.00    -0.066 C 
HETATM    8  C24 UNL     1      -1.858  51.160 -24.117  1.00  0.00    -0.021 C 
HETATM    9  C25 UNL     1      -1.653  52.633 -23.870  1.00  0.00     0.052 C 
HETATM   10  C27 UNL     1      -2.800  48.846 -23.572  1.00  0.00     0.038 C 
HETATM   11  C28 UNL     1      -2.266  47.995 -22.421  1.00  0.00     0.042 C 
HETATM   12  C29 UNL     1      -2.907  48.367 -21.073  1.00  0.00     0.067 C 
HETATM   13  C30 UNL     1      -2.358  47.406 -20.004  1.00  0.00     0.047 C 
ENDROOT
BRANCH   4  14
HETATM   14  O1  UNL     1      -4.698  50.316 -19.372  1.00  0.00    -0.370 OA
HETATM   15  H26 UNL     1      -4.910  50.712 -18.507  1.00  0.00     0.212 HD
ENDBRANCH   4  14
BRANCH   6  16
HETATM   16  C20 UNL     1      -4.759  50.923 -22.221  1.00  0.00     0.012 C 
BRANCH  16  17
HETATM   17  C21 UNL     1      -5.171  50.556 -23.653  1.00  0.00     0.027 C 
BRANCH  17  18
HETATM   18  C22 UNL     1      -6.541  49.891 -23.688  1.00  0.00     0.164 C 
BRANCH  18  19
HETATM   19  O3  UNL     1      -7.453  50.616 -22.872  1.00  0.00    -0.401 OA
HETATM   20  H34 UNL     1      -7.481  51.529 -23.207  1.00  0.00     0.209 HD
ENDBRANCH  18  19
ENDBRANCH  17  18
ENDBRANCH  16  17
ENDBRANCH   6  16
BRANCH  12  21
HETATM   21  O5  UNL     1      -4.301  48.045 -21.175  1.00  0.00    -0.389 OA
HETATM   22  H46 UNL     1      -4.777  48.500 -20.455  1.00  0.00     0.210 HD
ENDBRANCH  12  21
BRANCH   1  23
HETATM   23  C14 UNL     1      -0.452  51.667 -18.491  1.00  0.00     0.011 C 
HETATM   24  C12 UNL     1       0.686  52.389 -18.394  1.00  0.00    -0.063 C 
HETATM   25  C13 UNL     1       1.185  53.322 -19.469  1.00  0.00     0.048 C 
BRANCH  24  26
HETATM   26  C11 UNL     1       1.476  52.282 -17.164  1.00  0.00     0.006 C 
HETATM   27  C10 UNL     1       1.020  51.932 -15.948  1.00  0.00     0.001 C 
BRANCH  27  28
HETATM   28  C9  UNL     1       1.884  51.853 -14.787  1.00  0.00     0.002 C 
HETATM   29  C7  UNL     1       1.543  52.077 -13.502  1.00  0.00    -0.084 C 
HETATM   30  C8  UNL     1       0.176  52.471 -13.005  1.00  0.00     0.043 C 
BRANCH  29  31
HETATM   31  C6  UNL     1       2.594  51.947 -12.411  1.00  0.00     0.037 C 
BRANCH  31  32
HETATM   32  C5  UNL     1       2.359  52.924 -11.253  1.00  0.00     0.031 C 
BRANCH  32  33
HETATM   33  C4  UNL     1       3.653  53.527 -10.773  1.00  0.00    -0.024 C 
HETATM   34  C2  UNL     1       3.936  54.829 -10.576  1.00  0.00    -0.091 C 
HETATM   35  C1  UNL     1       2.998  55.972 -10.847  1.00  0.00     0.042 C 
HETATM   36  C3  UNL     1       5.286  55.248 -10.052  1.00  0.00     0.042 C 
ENDBRANCH  32  33
ENDBRANCH  31  32
ENDBRANCH  29  31
ENDBRANCH  27  28
ENDBRANCH  24  26
ENDBRANCH   1  23
BRANCH   8  37
HETATM   37  C26 UNL     1      -1.192  50.693 -25.378  1.00  0.00     0.265 C 
HETATM   38  O4  UNL     1      -0.066  51.058 -25.705  1.00  0.00    -0.302 OA
ENDBRANCH   8  37
TORSDOF 13
ENDMDL
MODEL 4
REMARK minimizedAffinity -6.63666439
REMARK CNNscore 0.538016498
REMARK CNNaffinity 6.34919596
REMARK  13 active torsions:
REMARK  status: ('A' for Active; 'I' for Inactive)
REMARK    1  A    between atoms: C4_4  and  C5_5 
REMARK    2  A    between atoms: C5_5  and  C6_6 
REMARK    3  A    between atoms: C6_6  and  C7_7 
REMARK    4  A    between atoms: C9_9  and  C10_10 
REMARK    5  A    between atoms: C11_11  and  C12_12 
REMARK    6  A    between atoms: C14_14  and  C15_15 
REMARK    7  A    between atoms: C18_18  and  O1_19 
REMARK    8  A    between atoms: C19_21  and  C20_22 
REMARK    9  A    between atoms: C20_22  and  C21_23 
REMARK   10  A    between atoms: C21_23  and  C22_24 
REMARK   11  A    between atoms: C22_24  and  O3_25 
REMARK   12  A    between atoms: C24_27  and  C26_29 
REMARK   13  A    between atoms: C29_33  and  O5_35 
ROOT
HETATM    1  C15 UNL     1       0.146  51.464 -12.844  1.00  0.00     0.149 C 
HETATM    2  C16 UNL     1      -0.395  52.845 -12.422  1.00  0.00     0.054 C 
HETATM    3  C17 UNL     1      -0.782  52.635 -10.937  1.00  0.00     0.050 C 
HETATM    4  C18 UNL     1      -1.319  51.202 -11.091  1.00  0.00     0.270 C 
HETATM    5  O2  UNL     1      -0.369  50.513 -11.891  1.00  0.00    -0.351 OA
HETATM    6  C19 UNL     1       0.560  52.741 -10.073  1.00  0.00     0.032 C 
HETATM    7  C23 UNL     1       1.036  54.211 -10.002  1.00  0.00    -0.066 C 
HETATM    8  C24 UNL     1       2.275  54.602 -10.398  1.00  0.00    -0.021 C 
HETATM    9  C25 UNL     1       3.356  53.681 -10.906  1.00  0.00     0.052 C 
HETATM   10  C27 UNL     1      -0.048  55.128  -9.466  1.00  0.00     0.038 C 
HETATM   11  C28 UNL     1      -1.309  55.054 -10.324  1.00  0.00     0.042 C 
HETATM   12  C29 UNL     1      -1.874  53.626 -10.411  1.00  0.00     0.067 C 
HETATM   13  C30 UNL     1      -3.176  53.678 -11.230  1.00  0.00     0.047 C 
ENDROOT
BRANCH   4  14
HETATM   14  O1  UNL     1      -1.539  50.544  -9.870  1.00  0.00    -0.370 OA
HETATM   15  H26 UNL     1      -1.744  49.626 -10.125  1.00  0.00     0.212 HD
ENDBRANCH   4  14
BRANCH   6  16
HETATM   16  C20 UNL     1       0.565  52.142  -8.641  1.00  0.00     0.012 C 
BRANCH  16  17
HETATM   17  C21 UNL     1       1.904  51.478  -8.292  1.00  0.00     0.027 C 
BRANCH  17  18
HETATM   18  C22 UNL     1       2.215  50.320  -9.230  1.00  0.00     0.164 C 
BRANCH  18  19
HETATM   19  O3  UNL     1       1.084  49.463  -9.335  1.00  0.00    -0.401 OA
HETATM   20  H34 UNL     1       0.339  50.001  -9.653  1.00  0.00     0.209 HD
ENDBRANCH  18  19
ENDBRANCH  17  18
ENDBRANCH  16  17
ENDBRANCH   6  16
BRANCH  12  21
HETATM   21  O5  UNL     1      -2.287  53.263  -9.086  1.00  0.00    -0.389 OA
HETATM   22  H46 UNL     1      -2.402  52.294  -9.052  1.00  0.00     0.210 HD
ENDBRANCH  12  21
BRANCH   1  23
HETATM   23  C14 UNL     1      -0.306  51.043 -14.213  1.00  0.00     0.011 C 
HETATM   24  C12 UNL     1       0.253  51.343 -15.406  1.00  0.00    -0.063 C 
HETATM   25  C13 UNL     1       1.515  52.153 -15.564  1.00  0.00     0.048 C 
BRANCH  24  26
HETATM   26  C11 UNL     1      -0.388  50.835 -16.623  1.00  0.00     0.006 C 
HETATM   27  C10 UNL     1       0.099  50.910 -17.875  1.00  0.00     0.001 C 
BRANCH  27  28
HETATM   28  C9  UNL     1      -0.612  50.375 -19.018  1.00  0.00     0.002 C 
HETATM   29  C7  UNL     1      -0.482  50.750 -20.307  1.00  0.00    -0.084 C 
HETATM   30  C8  UNL     1       0.436  51.827 -20.826  1.00  0.00     0.043 C 
BRANCH  29  31
HETATM   31  C6  UNL     1      -1.320  50.070 -21.378  1.00  0.00     0.037 C 
BRANCH  31  32
HETATM   32  C5  UNL     1      -1.447  50.919 -22.647  1.00  0.00     0.031 C 
BRANCH  32  33
HETATM   33  C4  UNL     1      -2.025  50.120 -23.785  1.00  0.00    -0.024 C 
HETATM   34  C2  UNL     1      -1.830  50.300 -25.106  1.00  0.00    -0.091 C 
HETATM   35  C1  UNL     1      -1.003  51.396 -25.720  1.00  0.00     0.042 C 
HETATM   36  C3  UNL     1      -2.467  49.371 -26.108  1.00  0.00     0.042 C 
ENDBRANCH  32  33
ENDBRANCH  31  32
ENDBRANCH  29  31
ENDBRANCH  27  28
ENDBRANCH  24  26
ENDBRANCH   1  23
BRANCH   8  37
HETATM   37  C26 UNL     1       2.717  56.035 -10.358  1.00  0.00     0.265 C 
HETATM   38  O4  UNL     1       3.377  56.549 -11.257  1.00  0.00    -0.302 OA
ENDBRANCH   8  37
TORSDOF 13
ENDMDL
MODEL 5
REMARK minimizedAffinity -6.58446169
REMARK CNNscore 0.443494201
REMARK CNNaffinity 5.61543798
REMARK  13 active torsions:
REMARK  status: ('A' for Active; 'I' for Inactive)
REMARK    1  A    between atoms: C4_4  and  C5_5 
REMARK    2  A    between atoms: C5_5  and  C6_6 
REMARK    3  A    between atoms: C6_6  and  C7_7 
REMARK    4  A    between atoms: C9_9  and  C10_10 
REMARK    5  A    between atoms: C11_11  and  C12_12 
REMARK    6  A    between atoms: C14_14  and  C15_15 
REMARK    7  A    between atoms: C18_18  and  O1_19 
REMARK    8  A    between atoms: C19_21  and  C20_22 
REMARK    9  A    between atoms: C20_22  and  C21_23 
REMARK   10  A    between atoms: C21_23  and  C22_24 
REMARK   11  A    between atoms: C22_24  and  O3_25 
REMARK   12  A    between atoms: C24_27  and  C26_29 
REMARK   13  A    between atoms: C29_33  and  O5_35 
ROOT
HETATM    1  C15 UNL     1     -12.189  46.437 -26.405  1.00  0.00     0.149 C 
HETATM    2  C16 UNL     1     -12.512  45.071 -25.767  1.00  0.00     0.054 C 
HETATM    3  C17 UNL     1     -13.540  45.429 -24.665  1.00  0.00     0.050 C 
HETATM    4  C18 UNL     1     -12.893  46.758 -24.239  1.00  0.00     0.270 C 
HETATM    5  O2  UNL     1     -12.574  47.440 -25.444  1.00  0.00    -0.351 OA
HETATM    6  C19 UNL     1     -14.964  45.593 -25.374  1.00  0.00     0.032 C 
HETATM    7  C23 UNL     1     -15.517  44.209 -25.791  1.00  0.00    -0.066 C 
HETATM    8  C24 UNL     1     -15.871  43.914 -27.069  1.00  0.00    -0.021 C 
HETATM    9  C25 UNL     1     -15.825  44.878 -28.228  1.00  0.00     0.052 C 
HETATM   10  C27 UNL     1     -15.583  43.252 -24.615  1.00  0.00     0.038 C 
HETATM   11  C28 UNL     1     -14.210  43.067 -23.973  1.00  0.00     0.042 C 
HETATM   12  C29 UNL     1     -13.607  44.397 -23.490  1.00  0.00     0.067 C 
HETATM   13  C30 UNL     1     -12.268  44.089 -22.797  1.00  0.00     0.047 C 
ENDROOT
BRANCH   4  14
HETATM   14  O1  UNL     1     -13.704  47.541 -23.403  1.00  0.00    -0.370 OA
HETATM   15  H26 UNL     1     -13.227  48.388 -23.330  1.00  0.00     0.212 HD
ENDBRANCH   4  14
BRANCH   6  16
HETATM   16  C20 UNL     1     -16.077  46.372 -24.623  1.00  0.00     0.012 C 
BRANCH  16  17
HETATM   17  C21 UNL     1     -17.457  46.183 -25.269  1.00  0.00     0.027 C 
BRANCH  17  18
HETATM   18  C22 UNL     1     -18.547  46.891 -24.477  1.00  0.00     0.164 C 
BRANCH  18  19
HETATM   19  O3  UNL     1     -19.790  46.784 -25.159  1.00  0.00    -0.401 OA
HETATM   20  H34 UNL     1     -19.979  45.837 -25.274  1.00  0.00     0.209 HD
ENDBRANCH  18  19
ENDBRANCH  17  18
ENDBRANCH  16  17
ENDBRANCH   6  16
BRANCH  12  21
HETATM   21  O5  UNL     1     -14.460  44.882 -22.443  1.00  0.00    -0.389 OA
HETATM   22  H46 UNL     1     -14.265  45.827 -22.297  1.00  0.00     0.210 HD
ENDBRANCH  12  21
BRANCH   1  23
HETATM   23  C14 UNL     1     -10.729  46.619 -26.709  1.00  0.00     0.011 C 
HETATM   24  C12 UNL     1     -10.040  46.184 -27.787  1.00  0.00    -0.063 C 
HETATM   25  C13 UNL     1     -10.665  45.445 -28.943  1.00  0.00     0.048 C 
BRANCH  24  26
HETATM   26  C11 UNL     1      -8.602  46.462 -27.852  1.00  0.00     0.006 C 
HETATM   27  C10 UNL     1      -8.028  47.644 -28.140  1.00  0.00     0.001 C 
BRANCH  27  28
HETATM   28  C9  UNL     1      -6.590  47.820 -28.180  1.00  0.00     0.002 C 
HETATM   29  C7  UNL     1      -5.757  47.959 -27.129  1.00  0.00    -0.084 C 
HETATM   30  C8  UNL     1      -6.159  47.971 -25.677  1.00  0.00     0.043 C 
BRANCH  29  31
HETATM   31  C6  UNL     1      -4.266  48.137 -27.369  1.00  0.00     0.037 C 
BRANCH  31  32
HETATM   32  C5  UNL     1      -3.510  48.522 -26.092  1.00  0.00     0.031 C 
BRANCH  32  33
HETATM   33  C4  UNL     1      -2.210  49.211 -26.411  1.00  0.00    -0.024 C 
HETATM   34  C2  UNL     1      -1.996  50.528 -26.600  1.00  0.00    -0.091 C 
HETATM   35  C1  UNL     1      -3.056  51.594 -26.569  1.00  0.00     0.042 C 
HETATM   36  C3  UNL     1      -0.607  51.045 -26.878  1.00  0.00     0.042 C 
ENDBRANCH  32  33
ENDBRANCH  31  32
ENDBRANCH  29  31
ENDBRANCH  27  28
ENDBRANCH  24  26
ENDBRANCH   1  23
BRANCH   8  37
HETATM   37  C26 UNL     1     -16.373  42.559 -27.471  1.00  0.00     0.265 C 
HETATM   38  O4  UNL     1     -17.444  42.395 -28.048  1.00  0.00    -0.302 OA
ENDBRANCH   8  37
TORSDOF 13
ENDMDL
MODEL 6
REMARK minimizedAffinity -7.88651466
REMARK CNNscore 0.421773076
REMARK CNNaffinity 6.42855978
REMARK  13 active torsions:
REMARK  status: ('A' for Active; 'I' for Inactive)
REMARK    1  A    between atoms: C4_4  and  C5_5 
REMARK    2  A    between atoms: C5_5  and  C6_6 
REMARK    3  A    between atoms: C6_6  and  C7_7 
REMARK    4  A    between atoms: C9_9  and  C10_10 
REMARK    5  A    between atoms: C11_11  and  C12_12 
REMARK    6  A    between atoms: C14_14  and  C15_15 
REMARK    7  A    between atoms: C18_18  and  O1_19 
REMARK    8  A    between atoms: C19_21  and  C20_22 
REMARK    9  A    between atoms: C20_22  and  C21_23 
REMARK   10  A    between atoms: C21_23  and  C22_24 
REMARK   11  A    between atoms: C22_24  and  O3_25 
REMARK   12  A    between atoms: C24_27  and  C26_29 
REMARK   13  A    between atoms: C29_33  and  O5_35 
ROOT
HETATM    1  C15 UNL     1      -7.481  46.429 -27.901  1.00  0.00     0.149 C 
HETATM    2  C16 UNL     1      -8.497  47.386 -28.555  1.00  0.00     0.054 C 
HETATM    3  C17 UNL     1      -8.740  46.748 -29.945  1.00  0.00     0.050 C 
HETATM    4  C18 UNL     1      -7.293  46.289 -30.189  1.00  0.00     0.270 C 
HETATM    5  O2  UNL     1      -6.865  45.689 -28.974  1.00  0.00    -0.351 OA
HETATM    6  C19 UNL     1      -9.782  45.551 -29.748  1.00  0.00     0.032 C 
HETATM    7  C23 UNL     1     -11.199  46.113 -29.479  1.00  0.00    -0.066 C 
HETATM    8  C24 UNL     1     -11.921  45.787 -28.376  1.00  0.00    -0.021 C 
HETATM    9  C25 UNL     1     -11.484  44.820 -27.305  1.00  0.00     0.052 C 
HETATM   10  C27 UNL     1     -11.642  47.067 -30.573  1.00  0.00     0.038 C 
HETATM   11  C28 UNL     1     -10.665  48.230 -30.724  1.00  0.00     0.042 C 
HETATM   12  C29 UNL     1      -9.236  47.756 -31.036  1.00  0.00     0.067 C 
HETATM   13  C30 UNL     1      -8.355  49.001 -31.242  1.00  0.00     0.047 C 
ENDROOT
BRANCH   4  14
HETATM   14  O1  UNL     1      -7.152  45.410 -31.275  1.00  0.00    -0.370 OA
HETATM   15  H26 UNL     1      -6.227  45.108 -31.221  1.00  0.00     0.212 HD
ENDBRANCH   4  14
BRANCH   6  16
HETATM   16  C20 UNL     1      -9.875  44.464 -30.852  1.00  0.00     0.012 C 
BRANCH  16  17
HETATM   17  C21 UNL     1     -11.252  44.439 -31.529  1.00  0.00     0.027 C 
BRANCH  17  18
HETATM   18  C22 UNL     1     -11.132  44.214 -33.030  1.00  0.00     0.164 C 
BRANCH  18  19
HETATM   19  O3  UNL     1     -12.274  44.742 -33.693  1.00  0.00    -0.401 OA
HETATM   20  H34 UNL     1     -12.331  45.687 -33.468  1.00  0.00     0.209 HD
ENDBRANCH  18  19
ENDBRANCH  17  18
ENDBRANCH  16  17
ENDBRANCH   6  16
BRANCH  12  21
HETATM   21  O5  UNL     1      -9.282  47.123 -32.323  1.00  0.00    -0.389 OA
HETATM   22  H46 UNL     1      -8.471  46.589 -32.434  1.00  0.00     0.210 HD
ENDBRANCH  12  21
BRANCH   1  23
HETATM   23  C14 UNL     1      -6.396  47.143 -27.145  1.00  0.00     0.011 C 
HETATM   24  C12 UNL     1      -5.390  47.897 -27.640  1.00  0.00    -0.063 C 
HETATM   25  C13 UNL     1      -5.210  48.201 -29.106  1.00  0.00     0.048 C 
BRANCH  24  26
HETATM   26  C11 UNL     1      -4.426  48.477 -26.700  1.00  0.00     0.006 C 
HETATM   27  C10 UNL     1      -3.144  48.788 -26.959  1.00  0.00     0.001 C 
BRANCH  27  28
HETATM   28  C9  UNL     1      -2.266  49.361 -25.958  1.00  0.00     0.002 C 
HETATM   29  C7  UNL     1      -2.225  50.644 -25.548  1.00  0.00    -0.084 C 
HETATM   30  C8  UNL     1      -3.091  51.765 -26.064  1.00  0.00     0.043 C 
BRANCH  29  31
HETATM   31  C6  UNL     1      -1.227  51.063 -24.480  1.00  0.00     0.037 C 
BRANCH  31  32
HETATM   32  C5  UNL     1      -0.463  52.335 -24.861  1.00  0.00     0.031 C 
BRANCH  32  33
HETATM   33  C4  UNL     1       0.895  52.011 -25.426  1.00  0.00    -0.024 C 
HETATM   34  C2  UNL     1       1.235  51.841 -26.718  1.00  0.00    -0.091 C 
HETATM   35  C1  UNL     1       0.285  51.903 -27.881  1.00  0.00     0.042 C 
HETATM   36  C3  UNL     1       2.665  51.554 -27.102  1.00  0.00     0.042 C 
ENDBRANCH  32  33
ENDBRANCH  31  32
ENDBRANCH  29  31
ENDBRANCH  27  28
ENDBRANCH  24  26
ENDBRANCH   1  23
BRANCH   8  37
HETATM   37  C26 UNL     1     -13.280  46.364 -28.106  1.00  0.00     0.265 C 
HETATM   38  O4  UNL     1     -14.283  46.010 -28.720  1.00  0.00    -0.302 OA
ENDBRANCH   8  37
TORSDOF 13
ENDMDL
MODEL 7
REMARK minimizedAffinity -6.73288679
REMARK CNNscore 0.400742292
REMARK CNNaffinity 6.10650301
REMARK  13 active torsions:
REMARK  status: ('A' for Active; 'I' for Inactive)
REMARK    1  A    between atoms: C4_4  and  C5_5 
REMARK    2  A    between atoms: C5_5  and  C6_6 
REMARK    3  A    between atoms: C6_6  and  C7_7 
REMARK    4  A    between atoms: C9_9  and  C10_10 
REMARK    5  A    between atoms: C11_11  and  C12_12 
REMARK    6  A    between atoms: C14_14  and  C15_15 
REMARK    7  A    between atoms: C18_18  and  O1_19 
REMARK    8  A    between atoms: C19_21  and  C20_22 
REMARK    9  A    between atoms: C20_22  and  C21_23 
REMARK   10  A    between atoms: C21_23  and  C22_24 
REMARK   11  A    between atoms: C22_24  and  O3_25 
REMARK   12  A    between atoms: C24_27  and  C26_29 
REMARK   13  A    between atoms: C29_33  and  O5_35 
ROOT
HETATM    1  C15 UNL     1      -9.173  45.716 -26.855  1.00  0.00     0.149 C 
HETATM    2  C16 UNL     1     -10.246  46.615 -27.502  1.00  0.00     0.054 C 
HETATM    3  C17 UNL     1     -10.728  45.775 -28.711  1.00  0.00     0.050 C 
HETATM    4  C18 UNL     1      -9.355  45.193 -29.087  1.00  0.00     0.270 C 
HETATM    5  O2  UNL     1      -8.762  44.775 -27.866  1.00  0.00    -0.351 OA
HETATM    6  C19 UNL     1     -11.768  44.693 -28.158  1.00  0.00     0.032 C 
HETATM    7  C23 UNL     1     -13.103  45.378 -27.780  1.00  0.00    -0.066 C 
HETATM    8  C24 UNL     1     -13.654  45.281 -26.542  1.00  0.00    -0.021 C 
HETATM    9  C25 UNL     1     -13.087  44.476 -25.400  1.00  0.00     0.052 C 
HETATM   10  C27 UNL     1     -13.680  46.166 -28.941  1.00  0.00     0.038 C 
HETATM   11  C28 UNL     1     -12.698  47.226 -29.433  1.00  0.00     0.042 C 
HETATM   12  C29 UNL     1     -11.354  46.621 -29.871  1.00  0.00     0.067 C 
HETATM   13  C30 UNL     1     -10.472  47.759 -30.415  1.00  0.00     0.047 C 
ENDROOT
BRANCH   4  14
HETATM   14  O1  UNL     1      -9.419  44.142 -30.016  1.00  0.00    -0.370 OA
HETATM   15  H26 UNL     1      -8.509  43.797 -30.051  1.00  0.00     0.212 HD
ENDBRANCH   4  14
BRANCH   6  16
HETATM   16  C20 UNL     1     -12.073  43.448 -29.034  1.00  0.00     0.012 C 
BRANCH  16  17
HETATM   17  C21 UNL     1     -11.783  42.133 -28.297  1.00  0.00     0.027 C 
BRANCH  17  18
HETATM   18  C22 UNL     1     -13.056  41.512 -27.740  1.00  0.00     0.164 C 
BRANCH  18  19
HETATM   19  O3  UNL     1     -14.193  42.075 -28.383  1.00  0.00    -0.401 OA
HETATM   20  H34 UNL     1     -14.096  41.916 -29.337  1.00  0.00     0.209 HD
ENDBRANCH  18  19
ENDBRANCH  17  18
ENDBRANCH  16  17
ENDBRANCH   6  16
BRANCH  12  21
HETATM   21  O5  UNL     1     -11.626  45.790 -31.009  1.00  0.00    -0.389 OA
HETATM   22  H46 UNL     1     -10.863  45.196 -31.148  1.00  0.00     0.210 HD
ENDBRANCH  12  21
BRANCH   1  23
HETATM   23  C14 UNL     1      -7.958  46.474 -26.402  1.00  0.00     0.011 C 
HETATM   24  C12 UNL     1      -7.174  47.303 -27.126  1.00  0.00    -0.063 C 
HETATM   25  C13 UNL     1      -7.430  47.657 -28.569  1.00  0.00     0.048 C 
BRANCH  24  26
HETATM   26  C11 UNL     1      -6.015  47.915 -26.469  1.00  0.00     0.006 C 
HETATM   27  C10 UNL     1      -5.830  48.060 -25.145  1.00  0.00     0.001 C 
BRANCH  27  28
HETATM   28  C9  UNL     1      -4.644  48.681 -24.589  1.00  0.00     0.002 C 
HETATM   29  C7  UNL     1      -3.461  48.874 -25.205  1.00  0.00    -0.084 C 
HETATM   30  C8  UNL     1      -3.121  48.466 -26.616  1.00  0.00     0.043 C 
BRANCH  29  31
HETATM   31  C6  UNL     1      -2.322  49.547 -24.455  1.00  0.00     0.037 C 
BRANCH  31  32
HETATM   32  C5  UNL     1      -2.585  51.037 -24.209  1.00  0.00     0.031 C 
BRANCH  32  33
HETATM   33  C4  UNL     1      -1.688  51.581 -23.128  1.00  0.00    -0.024 C 
HETATM   34  C2  UNL     1      -0.446  52.085 -23.261  1.00  0.00    -0.091 C 
HETATM   35  C1  UNL     1       0.326  52.168 -24.548  1.00  0.00     0.042 C 
HETATM   36  C3  UNL     1       0.294  52.622 -22.061  1.00  0.00     0.042 C 
ENDBRANCH  32  33
ENDBRANCH  31  32
ENDBRANCH  29  31
ENDBRANCH  27  28
ENDBRANCH  24  26
ENDBRANCH   1  23
BRANCH   8  37
HETATM   37  C26 UNL     1     -14.931  45.977 -26.174  1.00  0.00     0.265 C 
HETATM   38  O4  UNL     1     -16.037  45.511 -26.433  1.00  0.00    -0.302 OA
ENDBRANCH   8  37
TORSDOF 13
ENDMDL
MODEL 8
REMARK minimizedAffinity -7.04247999
REMARK CNNscore 0.376596808
REMARK CNNaffinity 6.18228769
REMARK  13 active torsions:
REMARK  status: ('A' for Active; 'I' for Inactive)
REMARK    1  A    between atoms: C4_4  and  C5_5 
REMARK    2  A    between atoms: C5_5  and  C6_6 
REMARK    3  A    between atoms: C6_6  and  C7_7 
REMARK    4  A    between atoms: C9_9  and  C10_10 
REMARK    5  A    between atoms: C11_11  and  C12_12 
REMARK    6  A    between atoms: C14_14  and  C15_15 
REMARK    7  A    between atoms: C18_18  and  O1_19 
REMARK    8  A    between atoms: C19_21  and  C20_22 
REMARK    9  A    between atoms: C20_22  and  C21_23 
REMARK   10  A    between atoms: C21_23  and  C22_24 
REMARK   11  A    between atoms: C22_24  and  O3_25 
REMARK   12  A    between atoms: C24_27  and  C26_29 
REMARK   13  A    between atoms: C29_33  and  O5_35 
ROOT
HETATM    1  C15 UNL     1      -6.798  46.974 -27.990  1.00  0.00     0.149 C 
HETATM    2  C16 UNL     1      -7.952  47.879 -28.467  1.00  0.00     0.054 C 
HETATM    3  C17 UNL     1      -8.553  47.088 -29.655  1.00  0.00     0.050 C 
HETATM    4  C18 UNL     1      -7.221  46.557 -30.211  1.00  0.00     0.270 C 
HETATM    5  O2  UNL     1      -6.486  46.093 -29.087  1.00  0.00    -0.351 OA
HETATM    6  C19 UNL     1      -9.505  45.957 -29.046  1.00  0.00     0.032 C 
HETATM    7  C23 UNL     1     -10.800  46.592 -28.486  1.00  0.00    -0.066 C 
HETATM    8  C24 UNL     1     -11.206  46.422 -27.201  1.00  0.00    -0.021 C 
HETATM    9  C25 UNL     1     -10.501  45.576 -26.172  1.00  0.00     0.052 C 
HETATM   10  C27 UNL     1     -11.518  47.422 -29.534  1.00  0.00     0.038 C 
HETATM   11  C28 UNL     1     -10.616  48.527 -30.078  1.00  0.00     0.042 C 
HETATM   12  C29 UNL     1      -9.319  47.974 -30.694  1.00  0.00     0.067 C 
HETATM   13  C30 UNL     1      -8.525  49.157 -31.275  1.00  0.00     0.047 C 
ENDROOT
BRANCH   4  14
HETATM   14  O1  UNL     1      -7.371  45.551 -31.179  1.00  0.00    -0.370 OA
HETATM   15  H26 UNL     1      -6.465  45.228 -31.334  1.00  0.00     0.212 HD
ENDBRANCH   4  14
BRANCH   6  16
HETATM   16  C20 UNL     1      -9.885  44.749 -29.944  1.00  0.00     0.012 C 
BRANCH  16  17
HETATM   17  C21 UNL     1      -9.499  43.407 -29.307  1.00  0.00     0.027 C 
BRANCH  17  18
HETATM   18  C22 UNL     1     -10.483  42.307 -29.681  1.00  0.00     0.164 C 
BRANCH  18  19
HETATM   19  O3  UNL     1      -9.838  41.336 -30.496  1.00  0.00    -0.401 OA
HETATM   20  H34 UNL     1      -9.080  40.992 -29.995  1.00  0.00     0.209 HD
ENDBRANCH  18  19
ENDBRANCH  17  18
ENDBRANCH  16  17
ENDBRANCH   6  16
BRANCH  12  21
HETATM   21  O5  UNL     1      -9.703  47.194 -31.835  1.00  0.00    -0.389 OA
HETATM   22  H46 UNL     1      -8.951  46.625 -32.088  1.00  0.00     0.210 HD
ENDBRANCH  12  21
BRANCH   1  23
HETATM   23  C14 UNL     1      -5.552  47.738 -27.638  1.00  0.00     0.011 C 
HETATM   24  C12 UNL     1      -5.184  48.223 -26.432  1.00  0.00    -0.063 C 
HETATM   25  C13 UNL     1      -5.980  48.029 -25.167  1.00  0.00     0.048 C 
BRANCH  24  26
HETATM   26  C11 UNL     1      -3.923  48.966 -26.337  1.00  0.00     0.006 C 
HETATM   27  C10 UNL     1      -3.220  49.209 -25.216  1.00  0.00     0.001 C 
BRANCH  27  28
HETATM   28  C9  UNL     1      -1.978  49.956 -25.223  1.00  0.00     0.002 C 
HETATM   29  C7  UNL     1      -1.833  51.293 -25.307  1.00  0.00    -0.084 C 
HETATM   30  C8  UNL     1      -2.950  52.299 -25.422  1.00  0.00     0.043 C 
BRANCH  29  31
HETATM   31  C6  UNL     1      -0.440  51.901 -25.302  1.00  0.00     0.037 C 
BRANCH  31  32
HETATM   32  C5  UNL     1      -0.234  52.882 -24.142  1.00  0.00     0.031 C 
BRANCH  32  33
HETATM   33  C4  UNL     1      -0.302  52.181 -22.812  1.00  0.00    -0.024 C 
HETATM   34  C2  UNL     1       0.286  52.542 -21.655  1.00  0.00    -0.091 C 
HETATM   35  C1  UNL     1       1.187  53.732 -21.473  1.00  0.00     0.042 C 
HETATM   36  C3  UNL     1       0.074  51.730 -20.402  1.00  0.00     0.042 C 
ENDBRANCH  32  33
ENDBRANCH  31  32
ENDBRANCH  29  31
ENDBRANCH  27  28
ENDBRANCH  24  26
ENDBRANCH   1  23
BRANCH   8  37
HETATM   37  C26 UNL     1     -12.445  47.070 -26.657  1.00  0.00     0.265 C 
HETATM   38  O4  UNL     1     -13.538  46.509 -26.654  1.00  0.00    -0.302 OA
ENDBRANCH   8  37
TORSDOF 13
ENDMDL
MODEL 9
REMARK minimizedAffinity -7.22729635
REMARK CNNscore 0.343934298
REMARK CNNaffinity 6.06716776
REMARK  13 active torsions:
REMARK  status: ('A' for Active; 'I' for Inactive)
REMARK    1  A    between atoms: C4_4  and  C5_5 
REMARK    2  A    between atoms: C5_5  and  C6_6 
REMARK    3  A    between atoms: C6_6  and  C7_7 
REMARK    4  A    between atoms: C9_9  and  C10_10 
REMARK    5  A    between atoms: C11_11  and  C12_12 
REMARK    6  A    between atoms: C14_14  and  C15_15 
REMARK    7  A    between atoms: C18_18  and  O1_19 
REMARK    8  A    between atoms: C19_21  and  C20_22 
REMARK    9  A    between atoms: C20_22  and  C21_23 
REMARK   10  A    between atoms: C21_23  and  C22_24 
REMARK   11  A    between atoms: C22_24  and  O3_25 
REMARK   12  A    between atoms: C24_27  and  C26_29 
REMARK   13  A    between atoms: C29_33  and  O5_35 
ROOT
HETATM    1  C15 UNL     1      -7.378  46.598 -27.795  1.00  0.00     0.149 C 
HETATM    2  C16 UNL     1      -8.568  47.433 -28.310  1.00  0.00     0.054 C 
HETATM    3  C17 UNL     1      -8.731  46.951 -29.773  1.00  0.00     0.050 C 
HETATM    4  C18 UNL     1      -7.232  46.798 -30.081  1.00  0.00     0.270 C 
HETATM    5  O2  UNL     1      -6.670  46.131 -28.959  1.00  0.00    -0.351 OA
HETATM    6  C19 UNL     1      -9.536  45.570 -29.736  1.00  0.00     0.032 C 
HETATM    7  C23 UNL     1     -11.022  45.825 -29.389  1.00  0.00    -0.066 C 
HETATM    8  C24 UNL     1     -11.644  45.231 -28.338  1.00  0.00    -0.021 C 
HETATM    9  C25 UNL     1     -11.011  44.226 -27.409  1.00  0.00     0.052 C 
HETATM   10  C27 UNL     1     -11.659  46.819 -30.343  1.00  0.00     0.038 C 
HETATM   11  C28 UNL     1     -10.910  48.149 -30.339  1.00  0.00     0.042 C 
HETATM   12  C29 UNL     1      -9.428  47.988 -30.716  1.00  0.00     0.067 C 
HETATM   13  C30 UNL     1      -8.791  49.388 -30.754  1.00  0.00     0.047 C 
ENDROOT
BRANCH   4  14
HETATM   14  O1  UNL     1      -6.966  46.110 -31.276  1.00  0.00    -0.370 OA
HETATM   15  H26 UNL     1      -6.001  45.977 -31.267  1.00  0.00     0.212 HD
ENDBRANCH   4  14
BRANCH   6  16
HETATM   16  C20 UNL     1      -9.462  44.639 -30.976  1.00  0.00     0.012 C 
BRANCH  16  17
HETATM   17  C21 UNL     1     -10.849  44.348 -31.567  1.00  0.00     0.027 C 
BRANCH  17  18
HETATM   18  C22 UNL     1     -10.855  44.505 -33.081  1.00  0.00     0.164 C 
BRANCH  18  19
HETATM   19  O3  UNL     1     -12.191  44.462 -33.568  1.00  0.00    -0.401 OA
HETATM   20  H34 UNL     1     -12.686  45.172 -33.125  1.00  0.00     0.209 HD
ENDBRANCH  18  19
ENDBRANCH  17  18
ENDBRANCH  16  17
ENDBRANCH   6  16
BRANCH  12  21
HETATM   21  O5  UNL     1      -9.396  47.532 -32.077  1.00  0.00    -0.389 OA
HETATM   22  H46 UNL     1      -8.507  47.174 -32.262  1.00  0.00     0.210 HD
ENDBRANCH  12  21
BRANCH   1  23
HETATM   23  C14 UNL     1      -6.419  47.390 -26.952  1.00  0.00     0.011 C 
HETATM   24  C12 UNL     1      -5.323  48.072 -27.353  1.00  0.00    -0.063 C 
HETATM   25  C13 UNL     1      -4.887  48.195 -28.791  1.00  0.00     0.048 C 
BRANCH  24  26
HETATM   26  C11 UNL     1      -4.517  48.753 -26.335  1.00  0.00     0.006 C 
HETATM   27  C10 UNL     1      -3.264  48.437 -25.963  1.00  0.00     0.001 C 
BRANCH  27  28
HETATM   28  C9  UNL     1      -2.546  49.175 -24.943  1.00  0.00     0.002 C 
HETATM   29  C7  UNL     1      -2.689  49.067 -23.607  1.00  0.00    -0.084 C 
HETATM   30  C8  UNL     1      -3.648  48.150 -22.891  1.00  0.00     0.043 C 
BRANCH  29  31
HETATM   31  C6  UNL     1      -1.843  49.932 -22.686  1.00  0.00     0.037 C 
BRANCH  31  32
HETATM   32  C5  UNL     1      -1.332  49.161 -21.465  1.00  0.00     0.031 C 
BRANCH  32  33
HETATM   33  C4  UNL     1      -0.531  50.050 -20.550  1.00  0.00    -0.024 C 
HETATM   34  C2  UNL     1      -0.990  50.883 -19.597  1.00  0.00    -0.091 C 
HETATM   35  C1  UNL     1      -2.439  51.127 -19.279  1.00  0.00     0.042 C 
HETATM   36  C3  UNL     1      -0.029  51.675 -18.746  1.00  0.00     0.042 C 
ENDBRANCH  32  33
ENDBRANCH  31  32
ENDBRANCH  29  31
ENDBRANCH  27  28
ENDBRANCH  24  26
ENDBRANCH   1  23
BRANCH   8  37
HETATM   37  C26 UNL     1     -13.076  45.511 -27.988  1.00  0.00     0.265 C 
HETATM   38  O4  UNL     1     -13.919  44.624 -27.894  1.00  0.00    -0.302 OA
ENDBRANCH   8  37
TORSDOF 13
ENDMDL
