MODEL 1
REMARK minimizedAffinity -8.15799522
REMARK CNNscore 0.387485683
REMARK CNNaffinity 6.91081238
REMARK  12 active torsions:
REMARK  status: ('A' for Active; 'I' for Inactive)
REMARK    1  A    between atoms: C4_4  and  C5_5 
REMARK    2  A    between atoms: C5_5  and  O1_6 
REMARK    3  A    between atoms: C5_5  and  C6_7 
REMARK    4  A    between atoms: C6_7  and  C7_8 
REMARK    5  A    between atoms: C9_11  and  C10_12 
REMARK    6  A    between atoms: C18_20  and  O3_21 
REMARK    7  A    between atoms: O3_21  and  C19_22 
REMARK    8  A    between atoms: C20_24  and  C21_25 
REMARK    9  A    between atoms: C21_25  and  O5_26 
REMARK   10  A    between atoms: C22_27  and  O6_28 
REMARK   11  A    between atoms: C23_29  and  O7_30 
REMARK   12  A    between atoms: C24_31  and  O8_32 
ROOT
HETATM    1  C10 UNL     1      -4.177   6.917  13.781  1.00  0.00     0.029 C 
HETATM    2  C11 UNL     1      -4.523   8.187  12.968  1.00  0.00     0.009 C 
HETATM    3  C12 UNL     1      -3.631   9.402  13.237  1.00  0.00     0.007 C 
HETATM    4  C13 UNL     1      -2.890   9.268  14.572  1.00  0.00     0.003 C 
HETATM    5  C14 UNL     1      -2.381  10.618  15.233  1.00  0.00    -0.035 C 
HETATM    6  C15 UNL     1      -1.345  11.335  14.343  1.00  0.00     0.016 C 
HETATM    7  C16 UNL     1      -3.587  11.590  15.418  1.00  0.00     0.012 C 
HETATM    8  C17 UNL     1      -3.300  12.791  16.319  1.00  0.00     0.034 C 
HETATM    9  C18 UNL     1      -2.777  12.387  17.697  1.00  0.00     0.133 C 
HETATM   10  C25 UNL     1      -1.526  11.451  17.620  1.00  0.00    -0.017 C 
HETATM   11  C26 UNL     1      -1.257  10.934  19.062  1.00  0.00     0.018 C 
HETATM   12  C27 UNL     1      -0.260  12.230  17.206  1.00  0.00     0.018 C 
HETATM   13  C28 UNL     1      -1.868  10.241  16.675  1.00  0.00     0.004 C 
HETATM   14  C29 UNL     1      -0.809   9.126  16.630  1.00  0.00     0.007 C 
HETATM   15  C30 UNL     1      -1.338   7.852  15.952  1.00  0.00     0.011 C 
HETATM   16  C31 UNL     1      -1.868   8.059  14.503  1.00  0.00    -0.029 C 
HETATM   17  C32 UNL     1      -0.626   8.372  13.631  1.00  0.00     0.016 C 
HETATM   18  C33 UNL     1      -2.603   6.728  13.911  1.00  0.00     0.004 C 
HETATM   19  C34 UNL     1      -2.266   5.431  14.670  1.00  0.00     0.190 C 
HETATM   20  O9  UNL     1      -2.606   4.355  13.794  1.00  0.00    -0.321 OA
HETATM   21  C35 UNL     1      -2.463   4.791  12.510  1.00  0.00     0.259 C 
HETATM   22  O10 UNL     1      -2.579   4.085  11.523  1.00  0.00    -0.265 OA
HETATM   23  C36 UNL     1      -2.108   6.251  12.515  1.00  0.00     0.124 C 
ENDROOT
BRANCH   9  24
HETATM   24  O3  UNL     1      -2.427  13.568  18.430  1.00  0.00    -0.352 OA
BRANCH  24  25
HETATM   25  C19 UNL     1      -3.317  13.887  19.500  1.00  0.00     0.292 C 
HETATM   26  O4  UNL     1      -4.671  13.967  19.045  1.00  0.00    -0.348 OA
HETATM   27  C20 UNL     1      -5.108  15.274  18.641  1.00  0.00     0.179 C 
HETATM   28  C22 UNL     1      -3.948  16.141  18.138  1.00  0.00     0.180 C 
HETATM   29  C23 UNL     1      -3.031  16.429  19.331  1.00  0.00     0.183 C 
HETATM   30  C24 UNL     1      -2.809  15.178  20.199  1.00  0.00     0.204 C 
BRANCH  27  31
HETATM   31  C21 UNL     1      -6.250  15.134  17.623  1.00  0.00     0.198 C 
BRANCH  31  32
HETATM   32  O5  UNL     1      -6.603  13.766  17.405  1.00  0.00    -0.398 OA
HETATM   33  H34 UNL     1      -7.345  13.770  16.773  1.00  0.00     0.209 HD
ENDBRANCH  31  32
ENDBRANCH  27  31
BRANCH  28  34
HETATM   34  O6  UNL     1      -4.386  17.385  17.575  1.00  0.00    -0.390 OA
HETATM   35  H36 UNL     1      -4.777  17.147  16.711  1.00  0.00     0.210 HD
ENDBRANCH  28  34
BRANCH  29  36
HETATM   36  O7  UNL     1      -1.784  16.956  18.854  1.00  0.00    -0.390 OA
HETATM   37  H38 UNL     1      -2.025  17.684  18.249  1.00  0.00     0.210 HD
ENDBRANCH  29  36
BRANCH  30  38
HETATM   38  O8  UNL     1      -3.505  15.364  21.450  1.00  0.00    -0.388 OA
HETATM   39  H40 UNL     1      -3.231  14.642  22.041  1.00  0.00     0.210 HD
ENDBRANCH  30  38
ENDBRANCH  24  25
ENDBRANCH   9  24
BRANCH   1  40
HETATM   40  C9  UNL     1      -4.898   6.835  15.119  1.00  0.00     0.162 A 
HETATM   41  C7  UNL     1      -6.417   6.651  15.277  1.00  0.00     0.087 A 
HETATM   42  C8  UNL     1      -6.887   6.032  16.559  1.00  0.00     0.049 C 
HETATM   43  O2  UNL     1      -5.779   7.922  15.441  1.00  0.00    -0.369 OA
BRANCH  41  44
HETATM   44  C6  UNL     1      -7.364   6.609  14.096  1.00  0.00     0.076 C 
BRANCH  44  45
HETATM   45  C5  UNL     1      -7.750   5.191  13.634  1.00  0.00     0.144 C 
BRANCH  45  46
HETATM   46  C4  UNL     1      -6.851   4.602  12.574  1.00  0.00     0.006 C 
HETATM   47  C2  UNL     1      -6.690   3.312  12.212  1.00  0.00    -0.089 C 
HETATM   48  C1  UNL     1      -5.707   2.933  11.135  1.00  0.00     0.042 C 
HETATM   49  C3  UNL     1      -7.448   2.146  12.790  1.00  0.00     0.042 C 
ENDBRANCH  45  46
BRANCH  45  50
HETATM   50  O1  UNL     1      -9.096   5.207  13.153  1.00  0.00    -0.392 OA
HETATM   51  H9  UNL     1      -9.231   4.375  12.668  1.00  0.00     0.210 HD
ENDBRANCH  45  50
ENDBRANCH  44  45
ENDBRANCH  41  44
ENDBRANCH   1  40
TORSDOF 12
ENDMDL
MODEL 2
REMARK minimizedAffinity -6.87142467
REMARK CNNscore 0.216155499
REMARK CNNaffinity 5.33579445
REMARK  12 active torsions:
REMARK  status: ('A' for Active; 'I' for Inactive)
REMARK    1  A    between atoms: C4_4  and  C5_5 
REMARK    2  A    between atoms: C5_5  and  O1_6 
REMARK    3  A    between atoms: C5_5  and  C6_7 
REMARK    4  A    between atoms: C6_7  and  C7_8 
REMARK    5  A    between atoms: C9_11  and  C10_12 
REMARK    6  A    between atoms: C18_20  and  O3_21 
REMARK    7  A    between atoms: O3_21  and  C19_22 
REMARK    8  A    between atoms: C20_24  and  C21_25 
REMARK    9  A    between atoms: C21_25  and  O5_26 
REMARK   10  A    between atoms: C22_27  and  O6_28 
REMARK   11  A    between atoms: C23_29  and  O7_30 
REMARK   12  A    between atoms: C24_31  and  O8_32 
ROOT
HETATM    1  C10 UNL     1       5.008  14.532  22.436  1.00  0.00     0.029 C 
HETATM    2  C11 UNL     1       3.865  13.864  23.237  1.00  0.00     0.009 C 
HETATM    3  C12 UNL     1       3.155  12.708  22.527  1.00  0.00     0.007 C 
HETATM    4  C13 UNL     1       3.392  12.749  21.015  1.00  0.00     0.003 C 
HETATM    5  C14 UNL     1       2.329  11.989  20.113  1.00  0.00    -0.035 C 
HETATM    6  C15 UNL     1       2.306  10.475  20.410  1.00  0.00     0.016 C 
HETATM    7  C16 UNL     1       0.903  12.544  20.418  1.00  0.00     0.012 C 
HETATM    8  C17 UNL     1      -0.167  12.128  19.409  1.00  0.00     0.034 C 
HETATM    9  C18 UNL     1       0.203  12.484  17.970  1.00  0.00     0.133 C 
HETATM   10  C25 UNL     1       1.600  11.921  17.547  1.00  0.00    -0.017 C 
HETATM   11  C26 UNL     1       1.946  12.554  16.169  1.00  0.00     0.018 C 
HETATM   12  C27 UNL     1       1.550  10.397  17.312  1.00  0.00     0.018 C 
HETATM   13  C28 UNL     1       2.661  12.367  18.620  1.00  0.00     0.004 C 
HETATM   14  C29 UNL     1       4.125  12.051  18.264  1.00  0.00     0.007 C 
HETATM   15  C30 UNL     1       5.114  12.783  19.184  1.00  0.00     0.011 C 
HETATM   16  C31 UNL     1       4.925  12.497  20.702  1.00  0.00    -0.029 C 
HETATM   17  C32 UNL     1       5.346  11.021  20.918  1.00  0.00     0.016 C 
HETATM   18  C33 UNL     1       5.859  13.451  21.639  1.00  0.00     0.004 C 
HETATM   19  C34 UNL     1       7.030  14.117  20.892  1.00  0.00     0.190 C 
HETATM   20  O9  UNL     1       7.963  14.526  21.894  1.00  0.00    -0.321 OA
HETATM   21  C35 UNL     1       7.849  13.677  22.953  1.00  0.00     0.259 C 
HETATM   22  O10 UNL     1       8.574  13.691  23.933  1.00  0.00    -0.265 OA
HETATM   23  C36 UNL     1       6.723  12.713  22.702  1.00  0.00     0.124 C 
ENDROOT
BRANCH   9  24
HETATM   24  O3  UNL     1      -0.794  11.958  17.085  1.00  0.00    -0.352 OA
BRANCH  24  25
HETATM   25  C19 UNL     1      -1.243  12.874  16.086  1.00  0.00     0.292 C 
HETATM   26  O4  UNL     1      -2.509  13.443  16.433  1.00  0.00    -0.348 OA
HETATM   27  C20 UNL     1      -3.657  12.741  15.931  1.00  0.00     0.179 C 
HETATM   28  C22 UNL     1      -3.379  11.247  15.731  1.00  0.00     0.180 C 
HETATM   29  C23 UNL     1      -2.359  11.112  14.596  1.00  0.00     0.183 C 
HETATM   30  C24 UNL     1      -1.231  12.152  14.711  1.00  0.00     0.204 C 
BRANCH  27  31
HETATM   31  C21 UNL     1      -4.860  13.019  16.845  1.00  0.00     0.198 C 
BRANCH  31  32
HETATM   32  O5  UNL     1      -6.100  12.891  16.145  1.00  0.00    -0.398 OA
HETATM   33  H34 UNL     1      -6.804  13.055  16.799  1.00  0.00     0.209 HD
ENDBRANCH  31  32
ENDBRANCH  27  31
BRANCH  28  34
HETATM   34  O6  UNL     1      -4.556  10.502  15.392  1.00  0.00    -0.390 OA
HETATM   35  H36 UNL     1      -5.067  10.446  16.223  1.00  0.00     0.210 HD
ENDBRANCH  28  34
BRANCH  29  36
HETATM   36  O7  UNL     1      -1.832   9.776  14.589  1.00  0.00    -0.390 OA
HETATM   37  H38 UNL     1      -2.613   9.190  14.602  1.00  0.00     0.210 HD
ENDBRANCH  29  36
BRANCH  30  38
HETATM   38  O8  UNL     1      -1.394  13.117  13.650  1.00  0.00    -0.388 OA
HETATM   39  H40 UNL     1      -0.596  13.673  13.642  1.00  0.00     0.210 HD
ENDBRANCH  30  38
ENDBRANCH  24  25
ENDBRANCH   9  24
BRANCH   1  40
HETATM   40  C9  UNL     1       4.542  15.686  21.560  1.00  0.00     0.162 A 
HETATM   41  C7  UNL     1       4.600  17.167  21.972  1.00  0.00     0.087 A 
HETATM   42  C8  UNL     1       4.661  18.170  20.858  1.00  0.00     0.049 C 
HETATM   43  O2  UNL     1       3.387  16.409  22.010  1.00  0.00    -0.369 OA
BRANCH  41  44
HETATM   44  C6  UNL     1       5.063  17.619  23.341  1.00  0.00     0.076 C 
BRANCH  44  45
HETATM   45  C5  UNL     1       6.577  17.880  23.451  1.00  0.00     0.144 C 
BRANCH  45  46
HETATM   46  C4  UNL     1       7.230  17.315  24.690  1.00  0.00     0.006 C 
HETATM   47  C2  UNL     1       8.533  17.053  24.923  1.00  0.00    -0.089 C 
HETATM   48  C1  UNL     1       8.974  16.456  26.234  1.00  0.00     0.042 C 
HETATM   49  C3  UNL     1       9.660  17.327  23.963  1.00  0.00     0.042 C 
ENDBRANCH  45  46
BRANCH  45  50
HETATM   50  O1  UNL     1       6.813  19.289  23.397  1.00  0.00    -0.392 OA
HETATM   51  H9  UNL     1       7.727  19.433  23.693  1.00  0.00     0.210 HD
ENDBRANCH  45  50
ENDBRANCH  44  45
ENDBRANCH  41  44
ENDBRANCH   1  40
TORSDOF 12
ENDMDL
MODEL 3
REMARK minimizedAffinity -9.59328747
REMARK CNNscore 0.206199467
REMARK CNNaffinity 6.94155121
REMARK  12 active torsions:
REMARK  status: ('A' for Active; 'I' for Inactive)
REMARK    1  A    between atoms: C4_4  and  C5_5 
REMARK    2  A    between atoms: C5_5  and  O1_6 
REMARK    3  A    between atoms: C5_5  and  C6_7 
REMARK    4  A    between atoms: C6_7  and  C7_8 
REMARK    5  A    between atoms: C9_11  and  C10_12 
REMARK    6  A    between atoms: C18_20  and  O3_21 
REMARK    7  A    between atoms: O3_21  and  C19_22 
REMARK    8  A    between atoms: C20_24  and  C21_25 
REMARK    9  A    between atoms: C21_25  and  O5_26 
REMARK   10  A    between atoms: C22_27  and  O6_28 
REMARK   11  A    between atoms: C23_29  and  O7_30 
REMARK   12  A    between atoms: C24_31  and  O8_32 
ROOT
HETATM    1  C10 UNL     1      -4.273   6.227  14.557  1.00  0.00     0.029 C 
HETATM    2  C11 UNL     1      -3.322   5.987  15.754  1.00  0.00     0.009 C 
HETATM    3  C12 UNL     1      -2.046   6.834  15.758  1.00  0.00     0.007 C 
HETATM    4  C13 UNL     1      -1.741   7.394  14.365  1.00  0.00     0.003 C 
HETATM    5  C14 UNL     1      -0.234   7.809  14.087  1.00  0.00    -0.035 C 
HETATM    6  C15 UNL     1       0.225   8.951  15.018  1.00  0.00     0.016 C 
HETATM    7  C16 UNL     1       0.697   6.587  14.358  1.00  0.00     0.012 C 
HETATM    8  C17 UNL     1       2.124   6.750  13.835  1.00  0.00     0.034 C 
HETATM    9  C18 UNL     1       2.176   7.089  12.346  1.00  0.00     0.133 C 
HETATM   10  C25 UNL     1       1.314   8.342  11.979  1.00  0.00    -0.017 C 
HETATM   11  C26 UNL     1       1.267   8.421  10.427  1.00  0.00     0.018 C 
HETATM   12  C27 UNL     1       1.985   9.649  12.450  1.00  0.00     0.018 C 
HETATM   13  C28 UNL     1      -0.137   8.129  12.547  1.00  0.00     0.004 C 
HETATM   14  C29 UNL     1      -1.169   9.188  12.119  1.00  0.00     0.007 C 
HETATM   15  C30 UNL     1      -2.609   8.755  12.439  1.00  0.00     0.011 C 
HETATM   16  C31 UNL     1      -2.870   8.419  13.936  1.00  0.00    -0.029 C 
HETATM   17  C32 UNL     1      -2.782   9.764  14.701  1.00  0.00     0.016 C 
HETATM   18  C33 UNL     1      -4.347   7.771  14.183  1.00  0.00     0.004 C 
HETATM   19  C34 UNL     1      -5.340   8.009  13.029  1.00  0.00     0.190 C 
HETATM   20  O9  UNL     1      -6.643   7.789  13.573  1.00  0.00    -0.321 OA
HETATM   21  C35 UNL     1      -6.608   8.097  14.899  1.00  0.00     0.259 C 
HETATM   22  O10 UNL     1      -7.582   8.113  15.632  1.00  0.00    -0.265 OA
HETATM   23  C36 UNL     1      -5.201   8.445  15.294  1.00  0.00     0.124 C 
ENDROOT
BRANCH   9  24
HETATM   24  O3  UNL     1       3.537   7.337  11.969  1.00  0.00    -0.352 OA
BRANCH  24  25
HETATM   25  C19 UNL     1       4.432   7.524  13.064  1.00  0.00     0.292 C 
HETATM   26  O4  UNL     1       4.680   8.912  13.303  1.00  0.00    -0.348 OA
HETATM   27  C20 UNL     1       5.819   9.460  12.621  1.00  0.00     0.179 C 
HETATM   28  C22 UNL     1       6.126   8.713  11.317  1.00  0.00     0.180 C 
HETATM   29  C23 UNL     1       6.583   7.299  11.689  1.00  0.00     0.183 C 
HETATM   30  C24 UNL     1       5.716   6.689  12.804  1.00  0.00     0.204 C 
BRANCH  27  31
HETATM   31  C21 UNL     1       5.614  10.969  12.423  1.00  0.00     0.198 C 
BRANCH  31  32
HETATM   32  O5  UNL     1       6.373  11.469  11.321  1.00  0.00    -0.398 OA
HETATM   33  H34 UNL     1       6.165  12.419  11.250  1.00  0.00     0.209 HD
ENDBRANCH  31  32
ENDBRANCH  27  31
BRANCH  28  34
HETATM   34  O6  UNL     1       7.151   9.346  10.540  1.00  0.00    -0.390 OA
HETATM   35  H36 UNL     1       6.724  10.139  10.158  1.00  0.00     0.210 HD
ENDBRANCH  28  34
BRANCH  29  36
HETATM   36  O7  UNL     1       6.571   6.473  10.514  1.00  0.00    -0.390 OA
HETATM   37  H38 UNL     1       7.069   6.975   9.840  1.00  0.00     0.210 HD
ENDBRANCH  29  36
BRANCH  30  38
HETATM   38  O8  UNL     1       6.508   6.620  14.008  1.00  0.00    -0.388 OA
HETATM   39  H40 UNL     1       6.003   6.097  14.654  1.00  0.00     0.210 HD
ENDBRANCH  30  38
ENDBRANCH  24  25
ENDBRANCH   9  24
BRANCH   1  40
HETATM   40  C9  UNL     1      -3.978   5.337  13.358  1.00  0.00     0.162 A 
HETATM   41  C7  UNL     1      -4.898   4.205  12.870  1.00  0.00     0.087 A 
HETATM   42  C8  UNL     1      -4.784   3.827  11.423  1.00  0.00     0.049 C 
HETATM   43  O2  UNL     1      -3.714   3.954  13.634  1.00  0.00    -0.369 OA
BRANCH  41  44
HETATM   44  C6  UNL     1      -6.168   3.812  13.594  1.00  0.00     0.076 C 
BRANCH  44  45
HETATM   45  C5  UNL     1      -7.453   3.957  12.757  1.00  0.00     0.144 C 
BRANCH  45  46
HETATM   46  C4  UNL     1      -8.440   4.973  13.278  1.00  0.00     0.006 C 
HETATM   47  C2  UNL     1      -9.170   5.881  12.596  1.00  0.00    -0.089 C 
HETATM   48  C1  UNL     1     -10.084   6.833  13.323  1.00  0.00     0.042 C 
HETATM   49  C3  UNL     1      -9.181   6.040  11.099  1.00  0.00     0.042 C 
ENDBRANCH  45  46
BRANCH  45  50
HETATM   50  O1  UNL     1      -8.096   2.683  12.665  1.00  0.00    -0.392 OA
HETATM   51  H9  UNL     1      -8.997   2.844  12.337  1.00  0.00     0.210 HD
ENDBRANCH  45  50
ENDBRANCH  44  45
ENDBRANCH  41  44
ENDBRANCH   1  40
TORSDOF 12
ENDMDL
MODEL 4
REMARK minimizedAffinity -8.33234882
REMARK CNNscore 0.196770653
REMARK CNNaffinity 6.92319679
REMARK  12 active torsions:
REMARK  status: ('A' for Active; 'I' for Inactive)
REMARK    1  A    between atoms: C4_4  and  C5_5 
REMARK    2  A    between atoms: C5_5  and  O1_6 
REMARK    3  A    between atoms: C5_5  and  C6_7 
REMARK    4  A    between atoms: C6_7  and  C7_8 
REMARK    5  A    between atoms: C9_11  and  C10_12 
REMARK    6  A    between atoms: C18_20  and  O3_21 
REMARK    7  A    between atoms: O3_21  and  C19_22 
REMARK    8  A    between atoms: C20_24  and  C21_25 
REMARK    9  A    between atoms: C21_25  and  O5_26 
REMARK   10  A    between atoms: C22_27  and  O6_28 
REMARK   11  A    between atoms: C23_29  and  O7_30 
REMARK   12  A    between atoms: C24_31  and  O8_32 
ROOT
HETATM    1  C10 UNL     1      -4.198   6.911  13.751  1.00  0.00     0.029 C 
HETATM    2  C11 UNL     1      -4.543   8.200  12.968  1.00  0.00     0.009 C 
HETATM    3  C12 UNL     1      -3.660   9.412  13.277  1.00  0.00     0.007 C 
HETATM    4  C13 UNL     1      -2.933   9.247  14.616  1.00  0.00     0.003 C 
HETATM    5  C14 UNL     1      -2.438  10.582  15.318  1.00  0.00    -0.035 C 
HETATM    6  C15 UNL     1      -1.397  11.328  14.457  1.00  0.00     0.016 C 
HETATM    7  C16 UNL     1      -3.652  11.543  15.514  1.00  0.00     0.012 C 
HETATM    8  C17 UNL     1      -3.381  12.721  16.450  1.00  0.00     0.034 C 
HETATM    9  C18 UNL     1      -2.870  12.285  17.822  1.00  0.00     0.133 C 
HETATM   10  C25 UNL     1      -1.613  11.358  17.734  1.00  0.00    -0.017 C 
HETATM   11  C26 UNL     1      -1.357  10.805  19.165  1.00  0.00     0.018 C 
HETATM   12  C27 UNL     1      -0.347  12.154  17.354  1.00  0.00     0.018 C 
HETATM   13  C28 UNL     1      -1.939  10.171  16.755  1.00  0.00     0.004 C 
HETATM   14  C29 UNL     1      -0.873   9.062  16.692  1.00  0.00     0.007 C 
HETATM   15  C30 UNL     1      -1.388   7.804  15.975  1.00  0.00     0.011 C 
HETATM   16  C31 UNL     1      -1.904   8.046  14.527  1.00  0.00    -0.029 C 
HETATM   17  C32 UNL     1      -0.655   8.388  13.676  1.00  0.00     0.016 C 
HETATM   18  C33 UNL     1      -2.626   6.727  13.892  1.00  0.00     0.004 C 
HETATM   19  C34 UNL     1      -2.289   5.412  14.622  1.00  0.00     0.190 C 
HETATM   20  O9  UNL     1      -2.614   4.358  13.714  1.00  0.00    -0.321 OA
HETATM   21  C35 UNL     1      -2.460   4.827  12.444  1.00  0.00     0.259 C 
HETATM   22  O10 UNL     1      -2.562   4.147  11.438  1.00  0.00    -0.265 OA
HETATM   23  C36 UNL     1      -2.113   6.289  12.490  1.00  0.00     0.124 C 
ENDROOT
BRANCH   9  24
HETATM   24  O3  UNL     1      -2.535  13.448  18.589  1.00  0.00    -0.352 OA
BRANCH  24  25
HETATM   25  C19 UNL     1      -3.257  14.626  18.229  1.00  0.00     0.292 C 
HETATM   26  O4  UNL     1      -2.583  15.806  18.676  1.00  0.00    -0.348 OA
HETATM   27  C20 UNL     1      -2.972  16.282  19.974  1.00  0.00     0.179 C 
HETATM   28  C22 UNL     1      -3.477  15.151  20.877  1.00  0.00     0.180 C 
HETATM   29  C23 UNL     1      -4.791  14.633  20.282  1.00  0.00     0.183 C 
HETATM   30  C24 UNL     1      -4.713  14.494  18.752  1.00  0.00     0.204 C 
BRANCH  27  31
HETATM   31  C21 UNL     1      -1.813  17.080  20.589  1.00  0.00     0.198 C 
BRANCH  31  32
HETATM   32  O5  UNL     1      -1.047  16.289  21.500  1.00  0.00    -0.398 OA
HETATM   33  H34 UNL     1      -0.323  16.859  21.820  1.00  0.00     0.209 HD
ENDBRANCH  31  32
ENDBRANCH  27  31
BRANCH  28  34
HETATM   34  O6  UNL     1      -3.712  15.577  22.225  1.00  0.00    -0.390 OA
HETATM   35  H36 UNL     1      -2.821  15.687  22.613  1.00  0.00     0.210 HD
ENDBRANCH  28  34
BRANCH  29  36
HETATM   36  O7  UNL     1      -5.129  13.382  20.899  1.00  0.00    -0.390 OA
HETATM   37  H38 UNL     1      -5.071  13.543  21.861  1.00  0.00     0.210 HD
ENDBRANCH  29  36
BRANCH  30  38
HETATM   38  O8  UNL     1      -5.540  15.519  18.160  1.00  0.00    -0.388 OA
HETATM   39  H40 UNL     1      -5.602  15.324  17.210  1.00  0.00     0.210 HD
ENDBRANCH  30  38
ENDBRANCH  24  25
ENDBRANCH   9  24
BRANCH   1  40
HETATM   40  C9  UNL     1      -4.934   6.791  15.079  1.00  0.00     0.162 A 
HETATM   41  C7  UNL     1      -6.438   6.503  15.215  1.00  0.00     0.087 A 
HETATM   42  C8  UNL     1      -6.884   5.863  16.496  1.00  0.00     0.049 C 
HETATM   43  O2  UNL     1      -5.893   7.816  15.376  1.00  0.00    -0.369 OA
BRANCH  41  44
HETATM   44  C6  UNL     1      -7.362   6.386  14.020  1.00  0.00     0.076 C 
BRANCH  44  45
HETATM   45  C5  UNL     1      -7.689   4.939  13.604  1.00  0.00     0.144 C 
BRANCH  45  46
HETATM   46  C4  UNL     1      -6.755   4.346  12.577  1.00  0.00     0.006 C 
HETATM   47  C2  UNL     1      -6.588   3.056  12.220  1.00  0.00    -0.089 C 
HETATM   48  C1  UNL     1      -5.568   2.673  11.179  1.00  0.00     0.042 C 
HETATM   49  C3  UNL     1      -7.373   1.894  12.768  1.00  0.00     0.042 C 
ENDBRANCH  45  46
BRANCH  45  50
HETATM   50  O1  UNL     1      -9.028   4.889  13.106  1.00  0.00    -0.392 OA
HETATM   51  H9  UNL     1      -9.127   4.037  12.649  1.00  0.00     0.210 HD
ENDBRANCH  45  50
ENDBRANCH  44  45
ENDBRANCH  41  44
ENDBRANCH   1  40
TORSDOF 12
ENDMDL
MODEL 5
REMARK minimizedAffinity -7.05594206
REMARK CNNscore 0.18501623
REMARK CNNaffinity 5.560009
REMARK  12 active torsions:
REMARK  status: ('A' for Active; 'I' for Inactive)
REMARK    1  A    between atoms: C4_4  and  C5_5 
REMARK    2  A    between atoms: C5_5  and  O1_6 
REMARK    3  A    between atoms: C5_5  and  C6_7 
REMARK    4  A    between atoms: C6_7  and  C7_8 
REMARK    5  A    between atoms: C9_11  and  C10_12 
REMARK    6  A    between atoms: C18_20  and  O3_21 
REMARK    7  A    between atoms: O3_21  and  C19_22 
REMARK    8  A    between atoms: C20_24  and  C21_25 
REMARK    9  A    between atoms: C21_25  and  O5_26 
REMARK   10  A    between atoms: C22_27  and  O6_28 
REMARK   11  A    between atoms: C23_29  and  O7_30 
REMARK   12  A    between atoms: C24_31  and  O8_32 
ROOT
HETATM    1  C10 UNL     1      -1.111  13.847  17.867  1.00  0.00     0.029 C 
HETATM    2  C11 UNL     1       0.072  14.261  16.959  1.00  0.00     0.009 C 
HETATM    3  C12 UNL     1       1.354  13.443  17.137  1.00  0.00     0.007 C 
HETATM    4  C13 UNL     1       1.365  12.706  18.480  1.00  0.00     0.003 C 
HETATM    5  C14 UNL     1       2.789  12.281  19.039  1.00  0.00    -0.035 C 
HETATM    6  C15 UNL     1       3.497  11.282  18.100  1.00  0.00     0.016 C 
HETATM    7  C16 UNL     1       3.700  13.544  19.145  1.00  0.00     0.012 C 
HETATM    8  C17 UNL     1       4.980  13.335  19.954  1.00  0.00     0.034 C 
HETATM    9  C18 UNL     1       4.714  12.800  21.360  1.00  0.00     0.133 C 
HETATM   10  C25 UNL     1       3.850  11.496  21.358  1.00  0.00    -0.017 C 
HETATM   11  C26 UNL     1       3.460  11.208  22.836  1.00  0.00     0.018 C 
HETATM   12  C27 UNL     1       4.668  10.274  20.890  1.00  0.00     0.018 C 
HETATM   13  C28 UNL     1       2.554  11.759  20.507  1.00  0.00     0.004 C 
HETATM   14  C29 UNL     1       1.502  10.636  20.551  1.00  0.00     0.007 C 
HETATM   15  C30 UNL     1       0.152  11.084  19.969  1.00  0.00     0.011 C 
HETATM   16  C31 UNL     1       0.217  11.615  18.507  1.00  0.00    -0.029 C 
HETATM   17  C32 UNL     1       0.536  10.386  17.618  1.00  0.00     0.016 C 
HETATM   18  C33 UNL     1      -1.196  12.266  18.015  1.00  0.00     0.004 C 
HETATM   19  C34 UNL     1      -2.410  11.860  18.873  1.00  0.00     0.190 C 
HETATM   20  O9  UNL     1      -3.567  12.130  18.079  1.00  0.00    -0.321 OA
HETATM   21  C35 UNL     1      -3.222  12.002  16.767  1.00  0.00     0.259 C 
HETATM   22  O10 UNL     1      -4.006  12.069  15.836  1.00  0.00    -0.265 OA
HETATM   23  C36 UNL     1      -1.747  11.734  16.662  1.00  0.00     0.124 C 
ENDROOT
BRANCH   9  24
HETATM   24  O3  UNL     1       5.965  12.525  22.002  1.00  0.00    -0.352 OA
BRANCH  24  25
HETATM   25  C19 UNL     1       6.771  13.677  22.249  1.00  0.00     0.292 C 
HETATM   26  O4  UNL     1       7.352  14.174  21.041  1.00  0.00    -0.348 OA
HETATM   27  C20 UNL     1       8.654  13.656  20.726  1.00  0.00     0.179 C 
HETATM   28  C22 UNL     1       8.875  12.255  21.308  1.00  0.00     0.180 C 
HETATM   29  C23 UNL     1       8.906  12.385  22.834  1.00  0.00     0.183 C 
HETATM   30  C24 UNL     1       7.808  13.330  23.352  1.00  0.00     0.204 C 
BRANCH  27  31
HETATM   31  C21 UNL     1       8.874  13.725  19.207  1.00  0.00     0.198 C 
BRANCH  31  32
HETATM   32  O5  UNL     1       8.732  12.444  18.591  1.00  0.00    -0.398 OA
HETATM   33  H34 UNL     1       8.859  12.582  17.634  1.00  0.00     0.209 HD
ENDBRANCH  31  32
ENDBRANCH  27  31
BRANCH  28  34
HETATM   34  O6  UNL     1      10.099  11.654  20.866  1.00  0.00    -0.390 OA
HETATM   35  H36 UNL     1       9.934  11.402  19.935  1.00  0.00     0.210 HD
ENDBRANCH  28  34
BRANCH  29  36
HETATM   36  O7  UNL     1       8.788  11.082  23.424  1.00  0.00    -0.390 OA
HETATM   37  H38 UNL     1       9.462  10.533  22.977  1.00  0.00     0.210 HD
ENDBRANCH  29  36
BRANCH  30  38
HETATM   38  O8  UNL     1       8.436  14.538  23.831  1.00  0.00    -0.388 OA
HETATM   39  H40 UNL     1       7.753  15.055  24.291  1.00  0.00     0.210 HD
ENDBRANCH  30  38
ENDBRANCH  24  25
ENDBRANCH   9  24
BRANCH   1  40
HETATM   40  C9  UNL     1      -1.133  14.573  19.205  1.00  0.00     0.162 A 
HETATM   41  C7  UNL     1      -2.175  15.631  19.601  1.00  0.00     0.087 A 
HETATM   42  C8  UNL     1      -2.416  15.817  21.070  1.00  0.00     0.049 C 
HETATM   43  O2  UNL     1      -0.854  15.980  19.177  1.00  0.00    -0.369 OA
BRANCH  41  44
HETATM   44  C6  UNL     1      -3.252  16.117  18.653  1.00  0.00     0.076 C 
BRANCH  44  45
HETATM   45  C5  UNL     1      -4.608  15.403  18.805  1.00  0.00     0.144 C 
BRANCH  45  46
HETATM   46  C4  UNL     1      -4.737  14.540  20.037  1.00  0.00     0.006 C 
HETATM   47  C2  UNL     1      -5.829  13.922  20.536  1.00  0.00    -0.089 C 
HETATM   48  C1  UNL     1      -5.744  13.123  21.810  1.00  0.00     0.042 C 
HETATM   49  C3  UNL     1      -7.196  13.931  19.905  1.00  0.00     0.042 C 
ENDBRANCH  45  46
BRANCH  45  50
HETATM   50  O1  UNL     1      -4.847  14.603  17.645  1.00  0.00    -0.392 OA
HETATM   51  H9  UNL     1      -5.579  14.001  17.863  1.00  0.00     0.210 HD
ENDBRANCH  45  50
ENDBRANCH  44  45
ENDBRANCH  41  44
ENDBRANCH   1  40
TORSDOF 12
ENDMDL
MODEL 6
REMARK minimizedAffinity -7.31672144
REMARK CNNscore 0.175288826
REMARK CNNaffinity 5.77180624
REMARK  12 active torsions:
REMARK  status: ('A' for Active; 'I' for Inactive)
REMARK    1  A    between atoms: C4_4  and  C5_5 
REMARK    2  A    between atoms: C5_5  and  O1_6 
REMARK    3  A    between atoms: C5_5  and  C6_7 
REMARK    4  A    between atoms: C6_7  and  C7_8 
REMARK    5  A    between atoms: C9_11  and  C10_12 
REMARK    6  A    between atoms: C18_20  and  O3_21 
REMARK    7  A    between atoms: O3_21  and  C19_22 
REMARK    8  A    between atoms: C20_24  and  C21_25 
REMARK    9  A    between atoms: C21_25  and  O5_26 
REMARK   10  A    between atoms: C22_27  and  O6_28 
REMARK   11  A    between atoms: C23_29  and  O7_30 
REMARK   12  A    between atoms: C24_31  and  O8_32 
ROOT
HETATM    1  C10 UNL     1     -15.973  -1.466  13.269  1.00  0.00     0.029 C 
HETATM    2  C11 UNL     1     -14.592  -1.711  12.616  1.00  0.00     0.009 C 
HETATM    3  C12 UNL     1     -14.172  -3.179  12.501  1.00  0.00     0.007 C 
HETATM    4  C13 UNL     1     -14.970  -4.067  13.461  1.00  0.00     0.003 C 
HETATM    5  C14 UNL     1     -14.308  -5.456  13.851  1.00  0.00    -0.035 C 
HETATM    6  C15 UNL     1     -14.129  -6.368  12.619  1.00  0.00     0.016 C 
HETATM    7  C16 UNL     1     -12.891  -5.203  14.452  1.00  0.00     0.012 C 
HETATM    8  C17 UNL     1     -12.274  -6.414  15.150  1.00  0.00     0.034 C 
HETATM    9  C18 UNL     1     -13.175  -6.994  16.239  1.00  0.00     0.133 C 
HETATM   10  C25 UNL     1     -14.610  -7.336  15.720  1.00  0.00    -0.017 C 
HETATM   11  C26 UNL     1     -15.474  -7.681  16.967  1.00  0.00     0.018 C 
HETATM   12  C27 UNL     1     -14.609  -8.605  14.842  1.00  0.00     0.018 C 
HETATM   13  C28 UNL     1     -15.195  -6.064  15.003  1.00  0.00     0.004 C 
HETATM   14  C29 UNL     1     -16.674  -6.168  14.589  1.00  0.00     0.007 C 
HETATM   15  C30 UNL     1     -17.260  -4.804  14.190  1.00  0.00     0.011 C 
HETATM   16  C31 UNL     1     -16.498  -4.079  13.043  1.00  0.00    -0.029 C 
HETATM   17  C32 UNL     1     -16.761  -4.908  11.760  1.00  0.00     0.016 C 
HETATM   18  C33 UNL     1     -17.032  -2.556  12.802  1.00  0.00     0.004 C 
HETATM   19  C34 UNL     1     -18.419  -2.271  13.410  1.00  0.00     0.190 C 
HETATM   20  O9  UNL     1     -18.910  -1.102  12.752  1.00  0.00    -0.321 OA
HETATM   21  C35 UNL     1     -18.376  -1.063  11.499  1.00  0.00     0.259 C 
HETATM   22  O10 UNL     1     -18.674  -0.246  10.645  1.00  0.00    -0.265 OA
HETATM   23  C36 UNL     1     -17.404  -2.197  11.335  1.00  0.00     0.124 C 
ENDROOT
BRANCH   9  24
HETATM   24  O3  UNL     1     -12.575  -8.188  16.759  1.00  0.00    -0.352 OA
BRANCH  24  25
HETATM   25  C19 UNL     1     -11.169  -8.292  16.534  1.00  0.00     0.292 C 
HETATM   26  O4  UNL     1     -10.871  -9.286  15.549  1.00  0.00    -0.348 OA
HETATM   27  C20 UNL     1     -10.620 -10.604  16.062  1.00  0.00     0.179 C 
HETATM   28  C22 UNL     1     -11.347 -10.855  17.389  1.00  0.00     0.180 C 
HETATM   29  C23 UNL     1     -10.717  -9.940  18.444  1.00  0.00     0.183 C 
HETATM   30  C24 UNL     1     -10.464  -8.524  17.899  1.00  0.00     0.204 C 
BRANCH  27  31
HETATM   31  C21 UNL     1     -10.954 -11.641  14.979  1.00  0.00     0.198 C 
BRANCH  31  32
HETATM   32  O5  UNL     1     -10.656 -12.971  15.408  1.00  0.00    -0.398 OA
HETATM   33  H34 UNL     1     -10.921 -13.562  14.678  1.00  0.00     0.209 HD
ENDBRANCH  31  32
ENDBRANCH  27  31
BRANCH  28  34
HETATM   34  O6  UNL     1     -11.245 -12.215  17.831  1.00  0.00    -0.390 OA
HETATM   35  H36 UNL     1     -11.840 -12.717  17.240  1.00  0.00     0.210 HD
ENDBRANCH  28  34
BRANCH  29  36
HETATM   36  O7  UNL     1     -11.561  -9.904  19.605  1.00  0.00    -0.390 OA
HETATM   37  H38 UNL     1     -11.737 -10.840  19.826  1.00  0.00     0.210 HD
ENDBRANCH  29  36
BRANCH  30  38
HETATM   38  O8  UNL     1      -9.040  -8.342  17.751  1.00  0.00    -0.388 OA
HETATM   39  H40 UNL     1      -8.889  -7.402  17.555  1.00  0.00     0.210 HD
ENDBRANCH  30  38
ENDBRANCH  24  25
ENDBRANCH   9  24
BRANCH   1  40
HETATM   40  C9  UNL     1     -15.911  -1.306  14.782  1.00  0.00     0.162 A 
HETATM   41  C7  UNL     1     -16.308  -0.027  15.537  1.00  0.00     0.087 A 
HETATM   42  C8  UNL     1     -16.736  -0.197  16.964  1.00  0.00     0.049 C 
HETATM   43  O2  UNL     1     -14.943  -0.377  15.290  1.00  0.00    -0.369 OA
BRANCH  41  44
HETATM   44  C6  UNL     1     -16.733   1.243  14.830  1.00  0.00     0.076 C 
BRANCH  44  45
HETATM   45  C5  UNL     1     -15.885   2.483  15.174  1.00  0.00     0.144 C 
BRANCH  45  46
HETATM   46  C4  UNL     1     -16.339   3.765  14.519  1.00  0.00     0.006 C 
HETATM   47  C2  UNL     1     -17.041   3.939  13.380  1.00  0.00    -0.089 C 
HETATM   48  C1  UNL     1     -17.368   5.323  12.883  1.00  0.00     0.042 C 
HETATM   49  C3  UNL     1     -17.579   2.831  12.513  1.00  0.00     0.042 C 
ENDBRANCH  45  46
BRANCH  45  50
HETATM   50  O1  UNL     1     -14.524   2.230  14.819  1.00  0.00    -0.392 OA
HETATM   51  H9  UNL     1     -14.066   3.087  14.832  1.00  0.00     0.210 HD
ENDBRANCH  45  50
ENDBRANCH  44  45
ENDBRANCH  41  44
ENDBRANCH   1  40
TORSDOF 12
ENDMDL
MODEL 7
REMARK minimizedAffinity -8.48853779
REMARK CNNscore 0.174774423
REMARK CNNaffinity 5.74711275
REMARK  12 active torsions:
REMARK  status: ('A' for Active; 'I' for Inactive)
REMARK    1  A    between atoms: C4_4  and  C5_5 
REMARK    2  A    between atoms: C5_5  and  O1_6 
REMARK    3  A    between atoms: C5_5  and  C6_7 
REMARK    4  A    between atoms: C6_7  and  C7_8 
REMARK    5  A    between atoms: C9_11  and  C10_12 
REMARK    6  A    between atoms: C18_20  and  O3_21 
REMARK    7  A    between atoms: O3_21  and  C19_22 
REMARK    8  A    between atoms: C20_24  and  C21_25 
REMARK    9  A    between atoms: C21_25  and  O5_26 
REMARK   10  A    between atoms: C22_27  and  O6_28 
REMARK   11  A    between atoms: C23_29  and  O7_30 
REMARK   12  A    between atoms: C24_31  and  O8_32 
ROOT
HETATM    1  C10 UNL     1       8.277  11.775  18.627  1.00  0.00     0.029 C 
HETATM    2  C11 UNL     1       8.733  10.345  18.253  1.00  0.00     0.009 C 
HETATM    3  C12 UNL     1       8.726  10.023  16.756  1.00  0.00     0.007 C 
HETATM    4  C13 UNL     1       7.837  10.999  15.979  1.00  0.00     0.003 C 
HETATM    5  C14 UNL     1       7.301  10.496  14.571  1.00  0.00    -0.035 C 
HETATM    6  C15 UNL     1       8.456  10.231  13.583  1.00  0.00     0.016 C 
HETATM    7  C16 UNL     1       6.534   9.151  14.761  1.00  0.00     0.012 C 
HETATM    8  C17 UNL     1       5.706   8.719  13.551  1.00  0.00     0.034 C 
HETATM    9  C18 UNL     1       4.718   9.790  13.094  1.00  0.00     0.133 C 
HETATM   10  C25 UNL     1       5.402  11.170  12.822  1.00  0.00    -0.017 C 
HETATM   11  C26 UNL     1       4.264  12.207  12.605  1.00  0.00     0.018 C 
HETATM   12  C27 UNL     1       6.214  11.151  11.509  1.00  0.00     0.018 C 
HETATM   13  C28 UNL     1       6.248  11.564  14.088  1.00  0.00     0.004 C 
HETATM   14  C29 UNL     1       6.844  12.982  14.062  1.00  0.00     0.007 C 
HETATM   15  C30 UNL     1       7.378  13.411  15.438  1.00  0.00     0.011 C 
HETATM   16  C31 UNL     1       8.449  12.459  16.046  1.00  0.00    -0.029 C 
HETATM   17  C32 UNL     1       9.716  12.619  15.167  1.00  0.00     0.016 C 
HETATM   18  C33 UNL     1       8.827  12.844  17.586  1.00  0.00     0.004 C 
HETATM   19  C34 UNL     1       8.418  14.272  17.996  1.00  0.00     0.190 C 
HETATM   20  O9  UNL     1       9.188  14.589  19.158  1.00  0.00    -0.321 OA
HETATM   21  C35 UNL     1      10.361  13.899  19.092  1.00  0.00     0.259 C 
HETATM   22  O10 UNL     1      11.283  14.026  19.879  1.00  0.00    -0.265 OA
HETATM   23  C36 UNL     1      10.345  13.000  17.887  1.00  0.00     0.124 C 
ENDROOT
BRANCH   9  24
HETATM   24  O3  UNL     1       4.070   9.350  11.894  1.00  0.00    -0.352 OA
BRANCH  24  25
HETATM   25  C19 UNL     1       4.751   8.304  11.201  1.00  0.00     0.292 C 
HETATM   26  O4  UNL     1       4.468   8.338   9.799  1.00  0.00    -0.348 OA
HETATM   27  C20 UNL     1       3.354   7.534   9.377  1.00  0.00     0.179 C 
HETATM   28  C22 UNL     1       2.316   7.357  10.491  1.00  0.00     0.180 C 
HETATM   29  C23 UNL     1       2.960   6.514  11.597  1.00  0.00     0.183 C 
HETATM   30  C24 UNL     1       4.407   6.952  11.882  1.00  0.00     0.204 C 
BRANCH  27  31
HETATM   31  C21 UNL     1       2.767   8.121   8.085  1.00  0.00     0.198 C 
BRANCH  31  32
HETATM   32  O5  UNL     1       3.470   9.292   7.665  1.00  0.00    -0.398 OA
HETATM   33  H34 UNL     1       3.054   9.580   6.832  1.00  0.00     0.209 HD
ENDBRANCH  31  32
ENDBRANCH  27  31
BRANCH  28  34
HETATM   34  O6  UNL     1       1.123   6.701  10.041  1.00  0.00    -0.390 OA
HETATM   35  H36 UNL     1       0.653   7.372   9.507  1.00  0.00     0.210 HD
ENDBRANCH  28  34
BRANCH  29  36
HETATM   36  O7  UNL     1       2.153   6.592  12.782  1.00  0.00    -0.390 OA
HETATM   37  H38 UNL     1       1.244   6.384  12.491  1.00  0.00     0.210 HD
ENDBRANCH  29  36
BRANCH  30  38
HETATM   38  O8  UNL     1       5.296   5.922  11.401  1.00  0.00    -0.388 OA
HETATM   39  H40 UNL     1       6.188   6.138  11.722  1.00  0.00     0.210 HD
ENDBRANCH  30  38
ENDBRANCH  24  25
ENDBRANCH   9  24
BRANCH   1  40
HETATM   40  C9  UNL     1       6.778  11.893  18.865  1.00  0.00     0.162 A 
HETATM   41  C7  UNL     1       6.142  12.325  20.196  1.00  0.00     0.087 A 
HETATM   42  C8  UNL     1       4.773  12.933  20.119  1.00  0.00     0.049 C 
HETATM   43  O2  UNL     1       6.198  10.956  19.784  1.00  0.00    -0.369 OA
BRANCH  41  44
HETATM   44  C6  UNL     1       6.958  12.605  21.442  1.00  0.00     0.076 C 
BRANCH  44  45
HETATM   45  C5  UNL     1       6.205  12.373  22.766  1.00  0.00     0.144 C 
BRANCH  45  46
HETATM   46  C4  UNL     1       5.411  11.091  22.828  1.00  0.00     0.006 C 
HETATM   47  C2  UNL     1       4.096  10.913  23.073  1.00  0.00    -0.089 C 
HETATM   48  C1  UNL     1       3.503   9.529  23.119  1.00  0.00     0.042 C 
HETATM   49  C3  UNL     1       3.097  12.017  23.298  1.00  0.00     0.042 C 
ENDBRANCH  45  46
BRANCH  45  50
HETATM   50  O1  UNL     1       5.333  13.479  23.006  1.00  0.00    -0.392 OA
HETATM   51  H9  UNL     1       4.718  13.205  23.709  1.00  0.00     0.210 HD
ENDBRANCH  45  50
ENDBRANCH  44  45
ENDBRANCH  41  44
ENDBRANCH   1  40
TORSDOF 12
ENDMDL
MODEL 8
REMARK minimizedAffinity -6.94208765
REMARK CNNscore 0.168345287
REMARK CNNaffinity 6.1447258
REMARK  12 active torsions:
REMARK  status: ('A' for Active; 'I' for Inactive)
REMARK    1  A    between atoms: C4_4  and  C5_5 
REMARK    2  A    between atoms: C5_5  and  O1_6 
REMARK    3  A    between atoms: C5_5  and  C6_7 
REMARK    4  A    between atoms: C6_7  and  C7_8 
REMARK    5  A    between atoms: C9_11  and  C10_12 
REMARK    6  A    between atoms: C18_20  and  O3_21 
REMARK    7  A    between atoms: O3_21  and  C19_22 
REMARK    8  A    between atoms: C20_24  and  C21_25 
REMARK    9  A    between atoms: C21_25  and  O5_26 
REMARK   10  A    between atoms: C22_27  and  O6_28 
REMARK   11  A    between atoms: C23_29  and  O7_30 
REMARK   12  A    between atoms: C24_31  and  O8_32 
ROOT
HETATM    1  C10 UNL     1     -13.820  -3.886  13.794  1.00  0.00     0.029 C 
HETATM    2  C11 UNL     1     -12.311  -4.207  13.901  1.00  0.00     0.009 C 
HETATM    3  C12 UNL     1     -11.968  -5.683  14.122  1.00  0.00     0.007 C 
HETATM    4  C13 UNL     1     -13.173  -6.464  14.656  1.00  0.00     0.003 C 
HETATM    5  C14 UNL     1     -12.852  -7.814  15.427  1.00  0.00    -0.035 C 
HETATM    6  C15 UNL     1     -12.162  -8.845  14.511  1.00  0.00     0.016 C 
HETATM    7  C16 UNL     1     -11.877  -7.515  16.608  1.00  0.00     0.012 C 
HETATM    8  C17 UNL     1     -11.732  -8.657  17.614  1.00  0.00     0.034 C 
HETATM    9  C18 UNL     1     -13.072  -9.118  18.186  1.00  0.00     0.133 C 
HETATM   10  C25 UNL     1     -14.107  -9.496  17.076  1.00  0.00    -0.017 C 
HETATM   11  C26 UNL     1     -15.475  -9.708  17.784  1.00  0.00     0.018 C 
HETATM   12  C27 UNL     1     -13.760 -10.846  16.413  1.00  0.00     0.018 C 
HETATM   13  C28 UNL     1     -14.211  -8.297  16.064  1.00  0.00     0.004 C 
HETATM   14  C29 UNL     1     -15.321  -8.427  15.005  1.00  0.00     0.007 C 
HETATM   15  C30 UNL     1     -15.572  -7.104  14.264  1.00  0.00     0.011 C 
HETATM   16  C31 UNL     1     -14.319  -6.504  13.563  1.00  0.00    -0.029 C 
HETATM   17  C32 UNL     1     -13.989  -7.454  12.383  1.00  0.00     0.016 C 
HETATM   18  C33 UNL     1     -14.590  -5.008  12.971  1.00  0.00     0.004 C 
HETATM   19  C34 UNL     1     -16.081  -4.651  12.819  1.00  0.00     0.190 C 
HETATM   20  O9  UNL     1     -16.137  -3.549  11.911  1.00  0.00    -0.321 OA
HETATM   21  C35 UNL     1     -15.072  -3.639  11.066  1.00  0.00     0.259 C 
HETATM   22  O10 UNL     1     -14.885  -2.908  10.109  1.00  0.00    -0.265 OA
HETATM   23  C36 UNL     1     -14.202  -4.793  11.480  1.00  0.00     0.124 C 
ENDROOT
BRANCH   9  24
HETATM   24  O3  UNL     1     -12.856 -10.259  19.026  1.00  0.00    -0.352 OA
BRANCH  24  25
HETATM   25  C19 UNL     1     -11.539 -10.806  18.957  1.00  0.00     0.292 C 
HETATM   26  O4  UNL     1     -11.574 -12.220  18.744  1.00  0.00    -0.348 OA
HETATM   27  C20 UNL     1     -11.561 -13.022  19.935  1.00  0.00     0.179 C 
HETATM   28  C22 UNL     1     -12.175 -12.288  21.133  1.00  0.00     0.180 C 
HETATM   29  C23 UNL     1     -11.251 -11.118  21.485  1.00  0.00     0.183 C 
HETATM   30  C24 UNL     1     -10.758 -10.378  20.229  1.00  0.00     0.204 C 
BRANCH  27  31
HETATM   31  C21 UNL     1     -12.228 -14.375  19.643  1.00  0.00     0.198 C 
BRANCH  31  32
HETATM   32  O5  UNL     1     -13.621 -14.360  19.962  1.00  0.00    -0.398 OA
HETATM   33  H34 UNL     1     -13.969 -15.239  19.723  1.00  0.00     0.209 HD
ENDBRANCH  31  32
ENDBRANCH  27  31
BRANCH  28  34
HETATM   34  O6  UNL     1     -12.324 -13.128  22.285  1.00  0.00    -0.390 OA
HETATM   35  H36 UNL     1     -13.075 -13.716  22.073  1.00  0.00     0.210 HD
ENDBRANCH  28  34
BRANCH  29  36
HETATM   36  O7  UNL     1     -11.935 -10.224  22.375  1.00  0.00    -0.390 OA
HETATM   37  H38 UNL     1     -12.285 -10.790  23.092  1.00  0.00     0.210 HD
ENDBRANCH  29  36
BRANCH  30  38
HETATM   38  O8  UNL     1      -9.353 -10.662  20.058  1.00  0.00    -0.388 OA
HETATM   39  H40 UNL     1      -9.024 -10.072  19.358  1.00  0.00     0.210 HD
ENDBRANCH  30  38
ENDBRANCH  24  25
ENDBRANCH   9  24
BRANCH   1  40
HETATM   40  C9  UNL     1     -14.473  -3.578  15.134  1.00  0.00     0.162 A 
HETATM   41  C7  UNL     1     -15.248  -2.287  15.446  1.00  0.00     0.087 A 
HETATM   42  C8  UNL     1     -16.276  -2.369  16.535  1.00  0.00     0.049 C 
HETATM   43  O2  UNL     1     -13.906  -2.499  15.892  1.00  0.00    -0.369 OA
BRANCH  41  44
HETATM   44  C6  UNL     1     -15.373  -1.147  14.456  1.00  0.00     0.076 C 
BRANCH  44  45
HETATM   45  C5  UNL     1     -15.459   0.251  15.097  1.00  0.00     0.144 C 
BRANCH  45  46
HETATM   46  C4  UNL     1     -15.902   1.352  14.164  1.00  0.00     0.006 C 
HETATM   47  C2  UNL     1     -16.982   2.158  14.247  1.00  0.00    -0.089 C 
HETATM   48  C1  UNL     1     -17.257   3.185  13.179  1.00  0.00     0.042 C 
HETATM   49  C3  UNL     1     -17.987   2.151  15.368  1.00  0.00     0.042 C 
ENDBRANCH  45  46
BRANCH  45  50
HETATM   50  O1  UNL     1     -14.186   0.589  15.651  1.00  0.00    -0.392 OA
HETATM   51  H9  UNL     1     -14.205   1.543  15.840  1.00  0.00     0.210 HD
ENDBRANCH  45  50
ENDBRANCH  44  45
ENDBRANCH  41  44
ENDBRANCH   1  40
TORSDOF 12
ENDMDL
MODEL 9
REMARK minimizedAffinity -7.71507406
REMARK CNNscore 0.159999117
REMARK CNNaffinity 6.43245697
REMARK  12 active torsions:
REMARK  status: ('A' for Active; 'I' for Inactive)
REMARK    1  A    between atoms: C4_4  and  C5_5 
REMARK    2  A    between atoms: C5_5  and  O1_6 
REMARK    3  A    between atoms: C5_5  and  C6_7 
REMARK    4  A    between atoms: C6_7  and  C7_8 
REMARK    5  A    between atoms: C9_11  and  C10_12 
REMARK    6  A    between atoms: C18_20  and  O3_21 
REMARK    7  A    between atoms: O3_21  and  C19_22 
REMARK    8  A    between atoms: C20_24  and  C21_25 
REMARK    9  A    between atoms: C21_25  and  O5_26 
REMARK   10  A    between atoms: C22_27  and  O6_28 
REMARK   11  A    between atoms: C23_29  and  O7_30 
REMARK   12  A    between atoms: C24_31  and  O8_32 
ROOT
HETATM    1  C10 UNL     1      -2.808   8.053  13.633  1.00  0.00     0.029 C 
HETATM    2  C11 UNL     1      -2.158   9.223  12.858  1.00  0.00     0.009 C 
HETATM    3  C12 UNL     1      -1.554  10.330  13.726  1.00  0.00     0.007 C 
HETATM    4  C13 UNL     1      -2.119  10.297  15.149  1.00  0.00     0.003 C 
HETATM    5  C14 UNL     1      -2.024  11.648  15.977  1.00  0.00    -0.035 C 
HETATM    6  C15 UNL     1      -0.559  12.076  16.206  1.00  0.00     0.016 C 
HETATM    7  C16 UNL     1      -2.723  12.793  15.180  1.00  0.00     0.012 C 
HETATM    8  C17 UNL     1      -2.978  14.064  15.990  1.00  0.00     0.034 C 
HETATM    9  C18 UNL     1      -3.767  13.802  17.272  1.00  0.00     0.133 C 
HETATM   10  C25 UNL     1      -3.114  12.704  18.173  1.00  0.00    -0.017 C 
HETATM   11  C26 UNL     1      -4.133  12.375  19.300  1.00  0.00     0.018 C 
HETATM   12  C27 UNL     1      -1.850  13.231  18.884  1.00  0.00     0.018 C 
HETATM   13  C28 UNL     1      -2.863  11.424  17.292  1.00  0.00     0.004 C 
HETATM   14  C29 UNL     1      -2.389  10.180  18.065  1.00  0.00     0.007 C 
HETATM   15  C30 UNL     1      -2.469   8.904  17.212  1.00  0.00     0.011 C 
HETATM   16  C31 UNL     1      -1.671   8.963  15.877  1.00  0.00    -0.029 C 
HETATM   17  C32 UNL     1      -0.172   8.970  16.271  1.00  0.00     0.016 C 
HETATM   18  C33 UNL     1      -1.956   7.672  14.921  1.00  0.00     0.004 C 
HETATM   19  C34 UNL     1      -2.578   6.469  15.655  1.00  0.00     0.190 C 
HETATM   20  O9  UNL     1      -2.350   5.331  14.822  1.00  0.00    -0.321 OA
HETATM   21  C35 UNL     1      -1.207   5.547  14.111  1.00  0.00     0.259 C 
HETATM   22  O10 UNL     1      -0.680   4.724  13.382  1.00  0.00    -0.265 OA
HETATM   23  C36 UNL     1      -0.693   6.929  14.399  1.00  0.00     0.124 C 
ENDROOT
BRANCH   9  24
HETATM   24  O3  UNL     1      -3.861  15.020  18.022  1.00  0.00    -0.352 OA
BRANCH  24  25
HETATM   25  C19 UNL     1      -5.195  15.451  18.291  1.00  0.00     0.292 C 
HETATM   26  O4  UNL     1      -6.041  15.265  17.153  1.00  0.00    -0.348 OA
HETATM   27  C20 UNL     1      -6.136  16.392  16.267  1.00  0.00     0.179 C 
HETATM   28  C22 UNL     1      -4.877  17.265  16.305  1.00  0.00     0.180 C 
HETATM   29  C23 UNL     1      -4.803  17.913  17.692  1.00  0.00     0.183 C 
HETATM   30  C24 UNL     1      -5.148  16.914  18.811  1.00  0.00     0.204 C 
BRANCH  27  31
HETATM   31  C21 UNL     1      -6.492  15.898  14.856  1.00  0.00     0.198 C 
BRANCH  31  32
HETATM   32  O5  UNL     1      -7.210  16.885  14.113  1.00  0.00    -0.398 OA
HETATM   33  H34 UNL     1      -7.369  16.503  13.230  1.00  0.00     0.209 HD
ENDBRANCH  31  32
ENDBRANCH  27  31
BRANCH  28  34
HETATM   34  O6  UNL     1      -4.884  18.297  15.309  1.00  0.00    -0.390 OA
HETATM   35  H36 UNL     1      -4.715  17.833  14.465  1.00  0.00     0.210 HD
ENDBRANCH  28  34
BRANCH  29  36
HETATM   36  O7  UNL     1      -3.495  18.473  17.884  1.00  0.00    -0.390 OA
HETATM   37  H38 UNL     1      -3.329  19.020  17.092  1.00  0.00     0.210 HD
ENDBRANCH  29  36
BRANCH  30  38
HETATM   38  O8  UNL     1      -6.431  17.278  19.364  1.00  0.00    -0.388 OA
HETATM   39  H40 UNL     1      -6.562  16.738  20.162  1.00  0.00     0.210 HD
ENDBRANCH  30  38
ENDBRANCH  24  25
ENDBRANCH   9  24
BRANCH   1  40
HETATM   40  C9  UNL     1      -4.283   8.271  13.939  1.00  0.00     0.162 A 
HETATM   41  C7  UNL     1      -5.411   7.324  13.498  1.00  0.00     0.087 A 
HETATM   42  C8  UNL     1      -6.664   7.344  14.321  1.00  0.00     0.049 C 
HETATM   43  O2  UNL     1      -5.136   8.554  12.820  1.00  0.00    -0.369 OA
BRANCH  41  44
HETATM   44  C6  UNL     1      -5.165   6.102  12.636  1.00  0.00     0.076 C 
BRANCH  44  45
HETATM   45  C5  UNL     1      -5.370   4.757  13.359  1.00  0.00     0.144 C 
BRANCH  45  46
HETATM   46  C4  UNL     1      -5.258   3.538  12.476  1.00  0.00     0.006 C 
HETATM   47  C2  UNL     1      -6.176   2.582  12.222  1.00  0.00    -0.089 C 
HETATM   48  C1  UNL     1      -5.846   1.420  11.321  1.00  0.00     0.042 C 
HETATM   49  C3  UNL     1      -7.583   2.563  12.759  1.00  0.00     0.042 C 
ENDBRANCH  45  46
BRANCH  45  50
HETATM   50  O1  UNL     1      -6.649   4.760  13.996  1.00  0.00    -0.392 OA
HETATM   51  H9  UNL     1      -6.843   3.840  14.243  1.00  0.00     0.210 HD
ENDBRANCH  45  50
ENDBRANCH  44  45
ENDBRANCH  41  44
ENDBRANCH   1  40
TORSDOF 12
ENDMDL
