MODEL 1
REMARK minimizedAffinity -8.16214752
REMARK CNNscore 0.554332495
REMARK CNNaffinity 6.36609459
REMARK  4 active torsions:
REMARK  status: ('A' for Active; 'I' for Inactive)
REMARK    1  A    between atoms: C2_2  and  C3_3 
REMARK    2  A    between atoms: C6_6  and  O1_7 
REMARK    3  A    between atoms: C7_8  and  C8_9 
REMARK    4  A    between atoms: C26_32  and  O6_33 
ROOT
HETATM    1  C3  UNL     1       1.044  49.143 -10.457  1.00  0.00     0.008 C 
HETATM    2  C4  UNL     1       1.621  49.890  -9.266  1.00  0.00    -0.023 C 
HETATM    3  C5  UNL     1       2.906  50.208  -9.029  1.00  0.00     0.004 C 
HETATM    4  C6  UNL     1       3.446  50.885  -7.787  1.00  0.00     0.174 C 
HETATM    5  C7  UNL     1       4.505  51.989  -8.096  1.00  0.00     0.187 C 
HETATM    6  O2  UNL     1       3.845  53.187  -8.553  1.00  0.00    -0.308 OA
HETATM    7  C12 UNL     1       4.516  53.923  -9.491  1.00  0.00     0.276 C 
HETATM    8  O3  UNL     1       5.584  53.596  -9.998  1.00  0.00    -0.264 OA
HETATM    9  C13 UNL     1       3.836  55.307  -9.704  1.00  0.00     0.095 A 
HETATM   10  C14 UNL     1       4.192  55.875 -11.101  1.00  0.00     0.036 C 
HETATM   11  C15 UNL     1       4.600  56.179  -8.726  1.00  0.00     0.003 A 
HETATM   12  C16 UNL     1       4.223  56.989  -7.736  1.00  0.00     0.072 A 
HETATM   13  C17 UNL     1       2.886  57.327  -7.253  1.00  0.00     0.245 A 
HETATM   14  O4  UNL     1       2.786  58.152  -6.344  1.00  0.00    -0.268 OA
HETATM   15  N1  UNL     1       1.777  56.760  -7.759  1.00  0.00    -0.320 N 
HETATM   16  C18 UNL     1       1.481  55.829  -8.723  1.00  0.00     0.098 A 
HETATM   17  C19 UNL     1       2.312  55.193  -9.563  1.00  0.00     0.045 A 
HETATM   18  C20 UNL     1       1.722  54.170 -10.509  1.00  0.00     0.194 A 
HETATM   19  O5  UNL     1       2.470  53.481 -11.190  1.00  0.00    -0.287 OA
HETATM   20  C21 UNL     1       0.265  53.973 -10.616  1.00  0.00     0.046 A 
HETATM   21  C22 UNL     1      -0.565  54.663  -9.746  1.00  0.00     0.032 A 
HETATM   22  C23 UNL     1      -1.963  54.508  -9.800  1.00  0.00     0.026 A 
HETATM   23  C24 UNL     1      -2.561  53.655 -10.732  1.00  0.00    -0.027 A 
HETATM   24  C25 UNL     1      -4.056  53.515 -10.753  1.00  0.00     0.051 C 
HETATM   25  C26 UNL     1      -1.729  52.972 -11.623  1.00  0.00     0.086 A 
HETATM   26  C27 UNL     1      -0.328  53.115 -11.558  1.00  0.00     0.059 A 
HETATM   27  C28 UNL     1       0.461  52.382 -12.570  1.00  0.00     0.163 C 
HETATM   28  O7  UNL     1       0.622  52.924 -13.663  1.00  0.00    -0.292 OA
HETATM   29  C29 UNL     1       1.075  51.037 -12.213  1.00  0.00     0.084 C 
HETATM   30  C30 UNL     1       0.224  50.125 -11.324  1.00  0.00     0.016 C 
HETATM   31  C31 UNL     1       0.000  55.576  -8.754  1.00  0.00     0.210 A 
HETATM   32  O8  UNL     1      -0.735  56.152  -7.953  1.00  0.00    -0.285 OA
HETATM   33  H24 UNL     1       0.950  57.106  -7.264  1.00  0.00     0.169 HD
ENDROOT
BRANCH   5  34
HETATM   34  C8  UNL     1       5.257  52.383  -6.840  1.00  0.00     0.010 C 
HETATM   35  C9  UNL     1       6.498  52.014  -6.464  1.00  0.00    -0.089 C 
HETATM   36  C10 UNL     1       7.391  51.075  -7.227  1.00  0.00     0.042 C 
HETATM   37  C11 UNL     1       7.110  52.555  -5.198  1.00  0.00     0.042 C 
ENDBRANCH   5  34
BRANCH   4  38
HETATM   38  O1  UNL     1       2.357  51.397  -7.010  1.00  0.00    -0.389 OA
HETATM   39  H10 UNL     1       2.723  51.634  -6.141  1.00  0.00     0.210 HD
ENDBRANCH   4  38
BRANCH   1  40
HETATM   40  C2  UNL     1       2.025  48.308 -11.307  1.00  0.00     0.004 C 
HETATM   41  C1  UNL     1       3.054  49.160 -12.042  1.00  0.00     0.006 C 
ENDBRANCH   1  40
BRANCH  25  42
HETATM   42  O6  UNL     1      -2.255  52.119 -12.554  1.00  0.00    -0.359 OA
HETATM   43  H29 UNL     1      -3.168  52.375 -12.760  1.00  0.00     0.217 HD
ENDBRANCH  25  42
TORSDOF 4
ENDMDL
MODEL 2
REMARK minimizedAffinity -6.75172997
REMARK CNNscore 0.417458355
REMARK CNNaffinity 5.08214521
REMARK  4 active torsions:
REMARK  status: ('A' for Active; 'I' for Inactive)
REMARK    1  A    between atoms: C2_2  and  C3_3 
REMARK    2  A    between atoms: C6_6  and  O1_7 
REMARK    3  A    between atoms: C7_8  and  C8_9 
REMARK    4  A    between atoms: C26_32  and  O6_33 
ROOT
HETATM    1  C3  UNL     1      -9.018  44.559 -25.036  1.00  0.00     0.008 C 
HETATM    2  C4  UNL     1     -10.286  43.742 -24.854  1.00  0.00    -0.023 C 
HETATM    3  C5  UNL     1     -11.055  43.635 -23.756  1.00  0.00     0.004 C 
HETATM    4  C6  UNL     1     -12.269  42.744 -23.597  1.00  0.00     0.174 C 
HETATM    5  C7  UNL     1     -13.458  43.445 -22.869  1.00  0.00     0.187 C 
HETATM    6  O2  UNL     1     -14.137  44.332 -23.782  1.00  0.00    -0.308 OA
HETATM    7  C12 UNL     1     -14.654  45.475 -23.238  1.00  0.00     0.276 C 
HETATM    8  O3  UNL     1     -14.519  45.810 -22.065  1.00  0.00    -0.264 OA
HETATM    9  C13 UNL     1     -15.578  46.208 -24.254  1.00  0.00     0.095 A 
HETATM   10  C14 UNL     1     -15.682  47.713 -23.902  1.00  0.00     0.036 C 
HETATM   11  C15 UNL     1     -16.937  45.634 -23.904  1.00  0.00     0.003 A 
HETATM   12  C16 UNL     1     -17.888  45.033 -24.621  1.00  0.00     0.072 A 
HETATM   13  C17 UNL     1     -17.939  44.727 -26.049  1.00  0.00     0.245 A 
HETATM   14  O4  UNL     1     -18.960  44.205 -26.496  1.00  0.00    -0.268 OA
HETATM   15  N1  UNL     1     -16.910  44.985 -26.874  1.00  0.00    -0.320 N 
HETATM   16  C18 UNL     1     -15.651  45.521 -26.765  1.00  0.00     0.098 A 
HETATM   17  C19 UNL     1     -15.050  46.046 -25.686  1.00  0.00     0.045 A 
HETATM   18  C20 UNL     1     -13.623  46.531 -25.831  1.00  0.00     0.194 A 
HETATM   19  O5  UNL     1     -13.008  46.890 -24.836  1.00  0.00    -0.287 OA
HETATM   20  C21 UNL     1     -12.954  46.565 -27.145  1.00  0.00     0.046 A 
HETATM   21  C22 UNL     1     -13.614  46.034 -28.241  1.00  0.00     0.032 A 
HETATM   22  C23 UNL     1     -13.019  46.034 -29.516  1.00  0.00     0.026 A 
HETATM   23  C24 UNL     1     -11.744  46.572 -29.720  1.00  0.00    -0.027 A 
HETATM   24  C25 UNL     1     -11.144  46.549 -31.097  1.00  0.00     0.051 C 
HETATM   25  C26 UNL     1     -11.085  47.126 -28.621  1.00  0.00     0.086 A 
HETATM   26  C27 UNL     1     -11.673  47.111 -27.341  1.00  0.00     0.059 A 
HETATM   27  C28 UNL     1     -10.912  47.758 -26.252  1.00  0.00     0.163 C 
HETATM   28  O7  UNL     1     -11.043  48.974 -26.116  1.00  0.00    -0.292 OA
HETATM   29  C29 UNL     1     -10.055  46.907 -25.328  1.00  0.00     0.084 C 
HETATM   30  C30 UNL     1      -9.308  45.743 -25.986  1.00  0.00     0.016 C 
HETATM   31  C31 UNL     1     -14.952  45.463 -28.093  1.00  0.00     0.210 A 
HETATM   32  O8  UNL     1     -15.516  44.950 -29.059  1.00  0.00    -0.285 OA
HETATM   33  H24 UNL     1     -17.133  44.667 -27.822  1.00  0.00     0.169 HD
ENDROOT
BRANCH   5  34
HETATM   34  C8  UNL     1     -14.495  42.430 -22.429  1.00  0.00     0.010 C 
HETATM   35  C9  UNL     1     -14.737  41.977 -21.183  1.00  0.00    -0.089 C 
HETATM   36  C10 UNL     1     -13.970  42.376 -19.952  1.00  0.00     0.042 C 
HETATM   37  C11 UNL     1     -15.857  41.002 -20.923  1.00  0.00     0.042 C 
ENDBRANCH   5  34
BRANCH   4  38
HETATM   38  O1  UNL     1     -12.656  42.231 -24.877  1.00  0.00    -0.389 OA
HETATM   39  H10 UNL     1     -13.294  41.517 -24.708  1.00  0.00     0.210 HD
ENDBRANCH   4  38
BRANCH   1  40
HETATM   40  C2  UNL     1      -8.286  45.017 -23.757  1.00  0.00     0.004 C 
HETATM   41  C1  UNL     1      -7.501  43.897 -23.083  1.00  0.00     0.006 C 
ENDBRANCH   1  40
BRANCH  25  42
HETATM   42  O6  UNL     1      -9.833  47.663 -28.756  1.00  0.00    -0.359 OA
HETATM   43  H29 UNL     1      -9.696  47.958 -29.671  1.00  0.00     0.217 HD
ENDBRANCH  25  42
TORSDOF 4
ENDMDL
MODEL 3
REMARK minimizedAffinity -6.91754007
REMARK CNNscore 0.417103469
REMARK CNNaffinity 5.60144377
REMARK  4 active torsions:
REMARK  status: ('A' for Active; 'I' for Inactive)
REMARK    1  A    between atoms: C2_2  and  C3_3 
REMARK    2  A    between atoms: C6_6  and  O1_7 
REMARK    3  A    between atoms: C7_8  and  C8_9 
REMARK    4  A    between atoms: C26_32  and  O6_33 
ROOT
HETATM    1  C3  UNL     1     -16.584  41.146 -20.809  1.00  0.00     0.008 C 
HETATM    2  C4  UNL     1     -15.582  41.308 -21.939  1.00  0.00    -0.023 C 
HETATM    3  C5  UNL     1     -15.669  40.848 -23.200  1.00  0.00     0.004 C 
HETATM    4  C6  UNL     1     -14.607  40.967 -24.272  1.00  0.00     0.174 C 
HETATM    5  C7  UNL     1     -15.182  41.349 -25.671  1.00  0.00     0.187 C 
HETATM    6  O2  UNL     1     -15.483  42.759 -25.709  1.00  0.00    -0.308 OA
HETATM    7  C12 UNL     1     -16.567  43.124 -26.459  1.00  0.00     0.276 C 
HETATM    8  O3  UNL     1     -17.314  42.335 -27.030  1.00  0.00    -0.264 OA
HETATM    9  C13 UNL     1     -16.628  44.669 -26.635  1.00  0.00     0.095 A 
HETATM   10  C14 UNL     1     -18.079  45.121 -26.941  1.00  0.00     0.036 C 
HETATM   11  C15 UNL     1     -15.879  44.861 -27.940  1.00  0.00     0.003 A 
HETATM   12  C16 UNL     1     -14.840  45.617 -28.295  1.00  0.00     0.072 A 
HETATM   13  C17 UNL     1     -14.051  46.562 -27.509  1.00  0.00     0.245 A 
HETATM   14  O4  UNL     1     -13.158  47.191 -28.077  1.00  0.00    -0.268 OA
HETATM   15  N1  UNL     1     -14.263  46.753 -26.195  1.00  0.00    -0.320 N 
HETATM   16  C18 UNL     1     -15.111  46.258 -25.236  1.00  0.00     0.098 A 
HETATM   17  C19 UNL     1     -16.119  45.382 -25.375  1.00  0.00     0.045 A 
HETATM   18  C20 UNL     1     -16.877  44.966 -24.133  1.00  0.00     0.194 A 
HETATM   19  O5  UNL     1     -17.709  44.072 -24.209  1.00  0.00    -0.287 OA
HETATM   20  C21 UNL     1     -16.622  45.605 -22.828  1.00  0.00     0.046 A 
HETATM   21  C22 UNL     1     -15.587  46.521 -22.727  1.00  0.00     0.032 A 
HETATM   22  C23 UNL     1     -15.296  47.155 -21.505  1.00  0.00     0.026 A 
HETATM   23  C24 UNL     1     -16.041  46.884 -20.353  1.00  0.00    -0.027 A 
HETATM   24  C25 UNL     1     -15.695  47.580 -19.068  1.00  0.00     0.051 C 
HETATM   25  C26 UNL     1     -17.098  45.975 -20.456  1.00  0.00     0.086 A 
HETATM   26  C27 UNL     1     -17.379  45.328 -21.676  1.00  0.00     0.059 A 
HETATM   27  C28 UNL     1     -18.540  44.415 -21.691  1.00  0.00     0.163 C 
HETATM   28  O7  UNL     1     -19.648  44.914 -21.891  1.00  0.00    -0.292 OA
HETATM   29  C29 UNL     1     -18.323  42.921 -21.515  1.00  0.00     0.084 C 
HETATM   30  C30 UNL     1     -17.240  42.513 -20.511  1.00  0.00     0.016 C 
HETATM   31  C31 UNL     1     -14.776  46.852 -23.898  1.00  0.00     0.210 A 
HETATM   32  O8  UNL     1     -13.830  47.631 -23.794  1.00  0.00    -0.285 OA
HETATM   33  H24 UNL     1     -13.586  47.428 -25.826  1.00  0.00     0.169 HD
ENDROOT
BRANCH   5  34
HETATM   34  C8  UNL     1     -14.153  41.116 -26.760  1.00  0.00     0.010 C 
HETATM   35  C9  UNL     1     -14.161  40.172 -27.723  1.00  0.00    -0.089 C 
HETATM   36  C10 UNL     1     -15.212  39.108 -27.883  1.00  0.00     0.042 C 
HETATM   37  C11 UNL     1     -13.073  40.127 -28.764  1.00  0.00     0.042 C 
ENDBRANCH   5  34
BRANCH   4  38
HETATM   38  O1  UNL     1     -13.596  41.886 -23.843  1.00  0.00    -0.389 OA
HETATM   39  H10 UNL     1     -12.846  41.778 -24.452  1.00  0.00     0.210 HD
ENDBRANCH   4  38
BRANCH   1  40
HETATM   40  C2  UNL     1     -17.635  40.025 -20.956  1.00  0.00     0.004 C 
HETATM   41  C1  UNL     1     -18.295  40.000 -22.330  1.00  0.00     0.006 C 
ENDBRANCH   1  40
BRANCH  25  42
HETATM   42  O6  UNL     1     -17.860  45.664 -19.363  1.00  0.00    -0.359 OA
HETATM   43  H29 UNL     1     -17.841  46.398 -18.726  1.00  0.00     0.217 HD
ENDBRANCH  25  42
TORSDOF 4
ENDMDL
MODEL 4
REMARK minimizedAffinity -6.7639389
REMARK CNNscore 0.379983962
REMARK CNNaffinity 5.54837465
REMARK  4 active torsions:
REMARK  status: ('A' for Active; 'I' for Inactive)
REMARK    1  A    between atoms: C2_2  and  C3_3 
REMARK    2  A    between atoms: C6_6  and  O1_7 
REMARK    3  A    between atoms: C7_8  and  C8_9 
REMARK    4  A    between atoms: C26_32  and  O6_33 
ROOT
HETATM    1  C3  UNL     1     -18.628  42.651 -24.970  1.00  0.00     0.008 C 
HETATM    2  C4  UNL     1     -17.146  42.321 -25.019  1.00  0.00    -0.023 C 
HETATM    3  C5  UNL     1     -16.344  42.258 -26.097  1.00  0.00     0.004 C 
HETATM    4  C6  UNL     1     -14.887  41.847 -26.106  1.00  0.00     0.174 C 
HETATM    5  C7  UNL     1     -13.997  42.748 -27.017  1.00  0.00     0.187 C 
HETATM    6  O2  UNL     1     -13.718  43.996 -26.350  1.00  0.00    -0.308 OA
HETATM    7  C12 UNL     1     -13.620  45.099 -27.152  1.00  0.00     0.276 C 
HETATM    8  O3  UNL     1     -13.817  45.097 -28.363  1.00  0.00    -0.264 OA
HETATM    9  C13 UNL     1     -13.061  46.317 -26.359  1.00  0.00     0.095 A 
HETATM   10  C14 UNL     1     -13.486  47.644 -27.038  1.00  0.00     0.036 C 
HETATM   11  C15 UNL     1     -11.573  46.204 -26.629  1.00  0.00     0.003 A 
HETATM   12  C16 UNL     1     -10.502  46.155 -25.838  1.00  0.00     0.072 A 
HETATM   13  C17 UNL     1     -10.404  46.209 -24.381  1.00  0.00     0.245 A 
HETATM   14  O4  UNL     1      -9.283  46.197 -23.871  1.00  0.00    -0.268 OA
HETATM   15  N1  UNL     1     -11.491  46.256 -23.591  1.00  0.00    -0.320 N 
HETATM   16  C18 UNL     1     -12.853  46.270 -23.764  1.00  0.00     0.098 A 
HETATM   17  C19 UNL     1     -13.556  46.295 -24.907  1.00  0.00     0.045 A 
HETATM   18  C20 UNL     1     -15.066  46.259 -24.815  1.00  0.00     0.194 A 
HETATM   19  O5  UNL     1     -15.728  46.147 -25.838  1.00  0.00    -0.287 OA
HETATM   20  C21 UNL     1     -15.758  46.340 -23.515  1.00  0.00     0.046 A 
HETATM   21  C22 UNL     1     -14.998  46.333 -22.356  1.00  0.00     0.032 A 
HETATM   22  C23 UNL     1     -15.607  46.401 -21.088  1.00  0.00     0.026 A 
HETATM   23  C24 UNL     1     -16.997  46.479 -20.956  1.00  0.00    -0.027 A 
HETATM   24  C25 UNL     1     -17.606  46.546 -19.585  1.00  0.00     0.051 C 
HETATM   25  C26 UNL     1     -17.764  46.506 -22.123  1.00  0.00     0.086 A 
HETATM   26  C27 UNL     1     -17.156  46.421 -23.391  1.00  0.00     0.059 A 
HETATM   27  C28 UNL     1     -18.052  46.498 -24.564  1.00  0.00     0.163 C 
HETATM   28  O7  UNL     1     -18.358  47.620 -24.969  1.00  0.00    -0.292 OA
HETATM   29  C29 UNL     1     -18.510  45.217 -25.243  1.00  0.00     0.084 C 
HETATM   30  C30 UNL     1     -18.819  44.038 -24.315  1.00  0.00     0.016 C 
HETATM   31  C31 UNL     1     -13.540  46.259 -22.428  1.00  0.00     0.210 A 
HETATM   32  O8  UNL     1     -12.871  46.207 -21.397  1.00  0.00    -0.285 OA
HETATM   33  H24 UNL     1     -11.209  46.255 -22.607  1.00  0.00     0.169 HD
ENDROOT
BRANCH   5  34
HETATM   34  C8  UNL     1     -12.648  42.100 -27.265  1.00  0.00     0.010 C 
HETATM   35  C9  UNL     1     -12.382  40.977 -27.963  1.00  0.00    -0.089 C 
HETATM   36  C10 UNL     1     -13.413  40.100 -28.619  1.00  0.00     0.042 C 
HETATM   37  C11 UNL     1     -10.962  40.510 -28.154  1.00  0.00     0.042 C 
ENDBRANCH   5  34
BRANCH   4  38
HETATM   38  O1  UNL     1     -14.396  41.800 -24.761  1.00  0.00    -0.389 OA
HETATM   39  H10 UNL     1     -13.539  41.342 -24.794  1.00  0.00     0.210 HD
ENDBRANCH   4  38
BRANCH   1  40
HETATM   40  C2  UNL     1     -19.421  42.525 -26.288  1.00  0.00     0.004 C 
HETATM   41  C1  UNL     1     -18.805  43.317 -27.435  1.00  0.00     0.006 C 
ENDBRANCH   1  40
BRANCH  25  42
HETATM   42  O6  UNL     1     -19.130  46.576 -22.058  1.00  0.00    -0.359 OA
HETATM   43  H29 UNL     1     -19.401  46.997 -21.226  1.00  0.00     0.217 HD
ENDBRANCH  25  42
TORSDOF 4
ENDMDL
MODEL 5
REMARK minimizedAffinity -7.09892321
REMARK CNNscore 0.363801301
REMARK CNNaffinity 5.51501799
REMARK  4 active torsions:
REMARK  status: ('A' for Active; 'I' for Inactive)
REMARK    1  A    between atoms: C2_2  and  C3_3 
REMARK    2  A    between atoms: C6_6  and  O1_7 
REMARK    3  A    between atoms: C7_8  and  C8_9 
REMARK    4  A    between atoms: C26_32  and  O6_33 
ROOT
HETATM    1  C3  UNL     1      -9.654  45.784 -22.166  1.00  0.00     0.008 C 
HETATM    2  C4  UNL     1     -11.145  45.669 -22.432  1.00  0.00    -0.023 C 
HETATM    3  C5  UNL     1     -11.974  46.602 -22.934  1.00  0.00     0.004 C 
HETATM    4  C6  UNL     1     -13.472  46.468 -23.107  1.00  0.00     0.174 C 
HETATM    5  C7  UNL     1     -13.990  47.034 -24.466  1.00  0.00     0.187 C 
HETATM    6  O2  UNL     1     -13.708  46.098 -25.526  1.00  0.00    -0.308 OA
HETATM    7  C12 UNL     1     -13.412  46.640 -26.746  1.00  0.00     0.276 C 
HETATM    8  O3  UNL     1     -13.310  47.844 -26.966  1.00  0.00    -0.264 OA
HETATM    9  C13 UNL     1     -13.390  45.546 -27.853  1.00  0.00     0.095 A 
HETATM   10  C14 UNL     1     -12.519  46.005 -29.050  1.00  0.00     0.036 C 
HETATM   11  C15 UNL     1     -14.816  45.601 -28.369  1.00  0.00     0.003 A 
HETATM   12  C16 UNL     1     -15.765  44.679 -28.530  1.00  0.00     0.072 A 
HETATM   13  C17 UNL     1     -15.740  43.243 -28.261  1.00  0.00     0.245 A 
HETATM   14  O4  UNL     1     -16.738  42.580 -28.543  1.00  0.00    -0.268 OA
HETATM   15  N1  UNL     1     -14.674  42.637 -27.710  1.00  0.00    -0.320 N 
HETATM   16  C18 UNL     1     -13.433  43.011 -27.259  1.00  0.00     0.098 A 
HETATM   17  C19 UNL     1     -12.852  44.221 -27.298  1.00  0.00     0.045 A 
HETATM   18  C20 UNL     1     -11.477  44.370 -26.684  1.00  0.00     0.194 A 
HETATM   19  O5  UNL     1     -10.982  45.485 -26.586  1.00  0.00    -0.287 OA
HETATM   20  C21 UNL     1     -10.728  43.202 -26.184  1.00  0.00     0.046 A 
HETATM   21  C22 UNL     1     -11.352  41.965 -26.178  1.00  0.00     0.032 A 
HETATM   22  C23 UNL     1     -10.686  40.819 -25.706  1.00  0.00     0.026 A 
HETATM   23  C24 UNL     1      -9.374  40.889 -25.229  1.00  0.00    -0.027 A 
HETATM   24  C25 UNL     1      -8.701  39.642 -24.731  1.00  0.00     0.051 C 
HETATM   25  C26 UNL     1      -8.735  42.131 -25.252  1.00  0.00     0.086 A 
HETATM   26  C27 UNL     1      -9.407  43.282 -25.709  1.00  0.00     0.059 A 
HETATM   27  C28 UNL     1      -8.632  44.539 -25.730  1.00  0.00     0.163 C 
HETATM   28  O7  UNL     1      -7.933  44.756 -26.720  1.00  0.00    -0.292 OA
HETATM   29  C29 UNL     1      -8.763  45.522 -24.576  1.00  0.00     0.084 C 
HETATM   30  C30 UNL     1      -8.888  44.905 -23.180  1.00  0.00     0.016 C 
HETATM   31  C31 UNL     1     -12.722  41.826 -26.671  1.00  0.00     0.210 A 
HETATM   32  O8  UNL     1     -13.289  40.735 -26.621  1.00  0.00    -0.285 OA
HETATM   33  H24 UNL     1     -14.870  41.641 -27.574  1.00  0.00     0.169 HD
ENDROOT
BRANCH   5  34
HETATM   34  C8  UNL     1     -15.497  47.195 -24.445  1.00  0.00     0.010 C 
HETATM   35  C9  UNL     1     -16.437  46.248 -24.642  1.00  0.00    -0.089 C 
HETATM   36  C10 UNL     1     -16.159  44.807 -24.970  1.00  0.00     0.042 C 
HETATM   37  C11 UNL     1     -17.901  46.583 -24.526  1.00  0.00     0.042 C 
ENDBRANCH   5  34
BRANCH   4  38
HETATM   38  O1  UNL     1     -13.854  45.100 -22.921  1.00  0.00    -0.389 OA
HETATM   39  H10 UNL     1     -14.823  45.091 -22.837  1.00  0.00     0.210 HD
ENDBRANCH   4  38
BRANCH   1  40
HETATM   40  C2  UNL     1      -9.062  47.207 -22.079  1.00  0.00     0.004 C 
HETATM   41  C1  UNL     1      -8.705  47.791 -23.441  1.00  0.00     0.006 C 
ENDBRANCH   1  40
BRANCH  25  42
HETATM   42  O6  UNL     1      -7.452  42.264 -24.793  1.00  0.00    -0.359 OA
HETATM   43  H29 UNL     1      -6.984  41.417 -24.867  1.00  0.00     0.217 HD
ENDBRANCH  25  42
TORSDOF 4
ENDMDL
MODEL 6
REMARK minimizedAffinity -6.51769161
REMARK CNNscore 0.351902932
REMARK CNNaffinity 4.82131958
REMARK  4 active torsions:
REMARK  status: ('A' for Active; 'I' for Inactive)
REMARK    1  A    between atoms: C2_2  and  C3_3 
REMARK    2  A    between atoms: C6_6  and  O1_7 
REMARK    3  A    between atoms: C7_8  and  C8_9 
REMARK    4  A    between atoms: C26_32  and  O6_33 
ROOT
HETATM    1  C3  UNL     1     -10.658  42.859 -23.775  1.00  0.00     0.008 C 
HETATM    2  C4  UNL     1     -11.789  42.679 -22.778  1.00  0.00    -0.023 C 
HETATM    3  C5  UNL     1     -11.787  42.953 -21.461  1.00  0.00     0.004 C 
HETATM    4  C6  UNL     1     -12.915  42.684 -20.488  1.00  0.00     0.174 C 
HETATM    5  C7  UNL     1     -13.162  43.855 -19.487  1.00  0.00     0.187 C 
HETATM    6  O2  UNL     1     -13.882  44.918 -20.143  1.00  0.00    -0.308 OA
HETATM    7  C12 UNL     1     -13.574  46.189 -19.745  1.00  0.00     0.276 C 
HETATM    8  O3  UNL     1     -12.697  46.471 -18.933  1.00  0.00    -0.264 OA
HETATM    9  C13 UNL     1     -14.590  47.217 -20.324  1.00  0.00     0.095 A 
HETATM   10  C14 UNL     1     -13.955  48.629 -20.387  1.00  0.00     0.036 C 
HETATM   11  C15 UNL     1     -15.613  47.301 -19.207  1.00  0.00     0.003 A 
HETATM   12  C16 UNL     1     -16.936  47.150 -19.167  1.00  0.00     0.072 A 
HETATM   13  C17 UNL     1     -17.883  46.850 -20.239  1.00  0.00     0.245 A 
HETATM   14  O4  UNL     1     -19.082  46.808 -19.963  1.00  0.00    -0.268 OA
HETATM   15  N1  UNL     1     -17.485  46.608 -21.500  1.00  0.00    -0.320 N 
HETATM   16  C18 UNL     1     -16.292  46.547 -22.177  1.00  0.00     0.098 A 
HETATM   17  C19 UNL     1     -15.053  46.794 -21.725  1.00  0.00     0.045 A 
HETATM   18  C20 UNL     1     -13.895  46.607 -22.682  1.00  0.00     0.194 A 
HETATM   19  O5  UNL     1     -12.750  46.696 -22.262  1.00  0.00    -0.287 OA
HETATM   20  C21 UNL     1     -14.119  46.304 -24.108  1.00  0.00     0.046 A 
HETATM   21  C22 UNL     1     -15.415  46.076 -24.543  1.00  0.00     0.032 A 
HETATM   22  C23 UNL     1     -15.684  45.776 -25.892  1.00  0.00     0.026 A 
HETATM   23  C24 UNL     1     -14.656  45.700 -26.836  1.00  0.00    -0.027 A 
HETATM   24  C25 UNL     1     -14.987  45.374 -28.265  1.00  0.00     0.051 C 
HETATM   25  C26 UNL     1     -13.351  45.949 -26.404  1.00  0.00     0.086 A 
HETATM   26  C27 UNL     1     -13.079  46.233 -25.051  1.00  0.00     0.059 A 
HETATM   27  C28 UNL     1     -11.672  46.521 -24.702  1.00  0.00     0.163 C 
HETATM   28  O7  UNL     1     -11.278  47.677 -24.852  1.00  0.00    -0.292 OA
HETATM   29  C29 UNL     1     -10.798  45.413 -24.134  1.00  0.00     0.084 C 
HETATM   30  C30 UNL     1     -11.005  44.019 -24.735  1.00  0.00     0.016 C 
HETATM   31  C31 UNL     1     -16.534  46.148 -23.605  1.00  0.00     0.210 A 
HETATM   32  O8  UNL     1     -17.677  45.899 -23.986  1.00  0.00    -0.285 OA
HETATM   33  H24 UNL     1     -18.295  46.387 -22.087  1.00  0.00     0.169 HD
ENDROOT
BRANCH   5  34
HETATM   34  C8  UNL     1     -14.042  43.406 -18.337  1.00  0.00     0.010 C 
HETATM   35  C9  UNL     1     -13.806  43.525 -17.014  1.00  0.00    -0.089 C 
HETATM   36  C10 UNL     1     -12.562  44.112 -16.406  1.00  0.00     0.042 C 
HETATM   37  C11 UNL     1     -14.830  43.070 -16.007  1.00  0.00     0.042 C 
ENDBRANCH   5  34
BRANCH   4  38
HETATM   38  O1  UNL     1     -14.103  42.348 -21.216  1.00  0.00    -0.389 OA
HETATM   39  H10 UNL     1     -14.732  41.987 -20.568  1.00  0.00     0.210 HD
ENDBRANCH   4  38
BRANCH   1  40
HETATM   40  C2  UNL     1      -9.230  42.996 -23.204  1.00  0.00     0.004 C 
HETATM   41  C1  UNL     1      -8.284  41.905 -23.692  1.00  0.00     0.006 C 
ENDBRANCH   1  40
BRANCH  25  42
HETATM   42  O6  UNL     1     -12.301  45.884 -27.280  1.00  0.00    -0.359 OA
HETATM   43  H29 UNL     1     -12.612  46.061 -28.183  1.00  0.00     0.217 HD
ENDBRANCH  25  42
TORSDOF 4
ENDMDL
MODEL 7
REMARK minimizedAffinity -8.65528202
REMARK CNNscore 0.334344745
REMARK CNNaffinity 5.42617035
REMARK  4 active torsions:
REMARK  status: ('A' for Active; 'I' for Inactive)
REMARK    1  A    between atoms: C2_2  and  C3_3 
REMARK    2  A    between atoms: C6_6  and  O1_7 
REMARK    3  A    between atoms: C7_8  and  C8_9 
REMARK    4  A    between atoms: C26_32  and  O6_33 
ROOT
HETATM    1  C3  UNL     1     -14.313  45.615 -24.681  1.00  0.00     0.008 C 
HETATM    2  C4  UNL     1     -14.487  44.824 -23.396  1.00  0.00    -0.023 C 
HETATM    3  C5  UNL     1     -14.318  45.247 -22.130  1.00  0.00     0.004 C 
HETATM    4  C6  UNL     1     -14.427  44.399 -20.881  1.00  0.00     0.174 C 
HETATM    5  C7  UNL     1     -15.193  45.105 -19.720  1.00  0.00     0.187 C 
HETATM    6  O2  UNL     1     -16.613  45.055 -19.967  1.00  0.00    -0.308 OA
HETATM    7  C12 UNL     1     -17.337  46.134 -19.541  1.00  0.00     0.276 C 
HETATM    8  O3  UNL     1     -16.852  47.141 -19.035  1.00  0.00    -0.264 OA
HETATM    9  C13 UNL     1     -18.865  45.847 -19.624  1.00  0.00     0.095 A 
HETATM   10  C14 UNL     1     -19.660  47.174 -19.719  1.00  0.00     0.036 C 
HETATM   11  C15 UNL     1     -19.156  45.321 -18.231  1.00  0.00     0.003 A 
HETATM   12  C16 UNL     1     -19.735  44.211 -17.775  1.00  0.00     0.072 A 
HETATM   13  C17 UNL     1     -20.319  43.087 -18.503  1.00  0.00     0.245 A 
HETATM   14  O4  UNL     1     -20.850  42.185 -17.855  1.00  0.00    -0.268 OA
HETATM   15  N1  UNL     1     -20.282  43.005 -19.845  1.00  0.00    -0.320 N 
HETATM   16  C18 UNL     1     -19.791  43.762 -20.879  1.00  0.00     0.098 A 
HETATM   17  C19 UNL     1     -19.189  44.961 -20.834  1.00  0.00     0.045 A 
HETATM   18  C20 UNL     1     -18.699  45.561 -22.134  1.00  0.00     0.194 A 
HETATM   19  O5  UNL     1     -18.030  46.586 -22.107  1.00  0.00    -0.287 OA
HETATM   20  C21 UNL     1     -18.995  44.928 -23.432  1.00  0.00     0.046 A 
HETATM   21  C22 UNL     1     -19.638  43.700 -23.441  1.00  0.00     0.032 A 
HETATM   22  C23 UNL     1     -19.939  43.048 -24.651  1.00  0.00     0.026 A 
HETATM   23  C24 UNL     1     -19.602  43.617 -25.884  1.00  0.00    -0.027 A 
HETATM   24  C25 UNL     1     -19.939  42.885 -27.152  1.00  0.00     0.051 C 
HETATM   25  C26 UNL     1     -18.972  44.863 -25.878  1.00  0.00     0.086 A 
HETATM   26  C27 UNL     1     -18.655  45.509 -24.666  1.00  0.00     0.059 A 
HETATM   27  C28 UNL     1     -18.025  46.841 -24.768  1.00  0.00     0.163 C 
HETATM   28  O7  UNL     1     -18.772  47.811 -24.898  1.00  0.00    -0.292 OA
HETATM   29  C29 UNL     1     -16.514  46.967 -24.660  1.00  0.00     0.084 C 
HETATM   30  C30 UNL     1     -15.697  45.854 -25.324  1.00  0.00     0.016 C 
HETATM   31  C31 UNL     1     -20.022  43.057 -22.186  1.00  0.00     0.210 A 
HETATM   32  O8  UNL     1     -20.550  41.946 -22.196  1.00  0.00    -0.285 OA
HETATM   33  H24 UNL     1     -20.714  42.130 -20.154  1.00  0.00     0.169 HD
ENDROOT
BRANCH   5  34
HETATM   34  C8  UNL     1     -14.975  44.377 -18.408  1.00  0.00     0.010 C 
HETATM   35  C9  UNL     1     -14.592  44.896 -17.223  1.00  0.00    -0.089 C 
HETATM   36  C10 UNL     1     -14.258  46.342 -16.979  1.00  0.00     0.042 C 
HETATM   37  C11 UNL     1     -14.482  44.022 -16.001  1.00  0.00     0.042 C 
ENDBRANCH   5  34
BRANCH   4  38
HETATM   38  O1  UNL     1     -15.011  43.134 -21.212  1.00  0.00    -0.389 OA
HETATM   39  H10 UNL     1     -14.875  42.555 -20.442  1.00  0.00     0.210 HD
ENDBRANCH   4  38
BRANCH   1  40
HETATM   40  C2  UNL     1     -13.487  46.917 -24.600  1.00  0.00     0.004 C 
HETATM   41  C1  UNL     1     -12.349  46.968 -25.613  1.00  0.00     0.006 C 
ENDBRANCH   1  40
BRANCH  25  42
HETATM   42  O6  UNL     1     -18.613  45.468 -27.052  1.00  0.00    -0.359 OA
HETATM   43  H29 UNL     1     -19.183  45.157 -27.774  1.00  0.00     0.217 HD
ENDBRANCH  25  42
TORSDOF 4
ENDMDL
MODEL 8
REMARK minimizedAffinity -6.84796333
REMARK CNNscore 0.33400014
REMARK CNNaffinity 5.77352476
REMARK  4 active torsions:
REMARK  status: ('A' for Active; 'I' for Inactive)
REMARK    1  A    between atoms: C2_2  and  C3_3 
REMARK    2  A    between atoms: C6_6  and  O1_7 
REMARK    3  A    between atoms: C7_8  and  C8_9 
REMARK    4  A    between atoms: C26_32  and  O6_33 
ROOT
HETATM    1  C3  UNL     1     -13.418  45.934 -26.473  1.00  0.00     0.008 C 
HETATM    2  C4  UNL     1     -14.043  46.601 -25.261  1.00  0.00    -0.023 C 
HETATM    3  C5  UNL     1     -15.065  46.160 -24.504  1.00  0.00     0.004 C 
HETATM    4  C6  UNL     1     -15.707  46.898 -23.350  1.00  0.00     0.174 C 
HETATM    5  C7  UNL     1     -16.007  45.984 -22.122  1.00  0.00     0.187 C 
HETATM    6  O2  UNL     1     -14.792  45.738 -21.385  1.00  0.00    -0.308 OA
HETATM    7  C12 UNL     1     -14.682  44.507 -20.799  1.00  0.00     0.276 C 
HETATM    8  O3  UNL     1     -15.504  43.604 -20.918  1.00  0.00    -0.264 OA
HETATM    9  C13 UNL     1     -13.467  44.459 -19.827  1.00  0.00     0.095 A 
HETATM   10  C14 UNL     1     -12.990  42.998 -19.630  1.00  0.00     0.036 C 
HETATM   11  C15 UNL     1     -14.114  44.836 -18.507  1.00  0.00     0.003 A 
HETATM   12  C16 UNL     1     -13.848  45.770 -17.594  1.00  0.00     0.072 A 
HETATM   13  C17 UNL     1     -12.790  46.777 -17.555  1.00  0.00     0.245 A 
HETATM   14  O4  UNL     1     -12.716  47.507 -16.567  1.00  0.00    -0.268 OA
HETATM   15  N1  UNL     1     -11.914  46.934 -18.563  1.00  0.00    -0.320 N 
HETATM   16  C18 UNL     1     -11.683  46.356 -19.786  1.00  0.00     0.098 A 
HETATM   17  C19 UNL     1     -12.310  45.316 -20.358  1.00  0.00     0.045 A 
HETATM   18  C20 UNL     1     -11.882  44.904 -21.750  1.00  0.00     0.194 A 
HETATM   19  O5  UNL     1     -12.522  44.049 -22.347  1.00  0.00    -0.287 OA
HETATM   20  C21 UNL     1     -10.718  45.525 -22.411  1.00  0.00     0.046 A 
HETATM   21  C22 UNL     1     -10.083  46.583 -21.781  1.00  0.00     0.032 A 
HETATM   22  C23 UNL     1      -8.972  47.216 -22.369  1.00  0.00     0.026 A 
HETATM   23  C24 UNL     1      -8.472  46.798 -23.607  1.00  0.00    -0.027 A 
HETATM   24  C25 UNL     1      -7.287  47.504 -24.201  1.00  0.00     0.051 C 
HETATM   25  C26 UNL     1      -9.099  45.719 -24.235  1.00  0.00     0.086 A 
HETATM   26  C27 UNL     1     -10.221  45.096 -23.654  1.00  0.00     0.059 A 
HETATM   27  C28 UNL     1     -10.787  43.939 -24.377  1.00  0.00     0.163 C 
HETATM   28  O7  UNL     1     -10.276  42.838 -24.171  1.00  0.00    -0.292 OA
HETATM   29  C29 UNL     1     -11.987  44.139 -25.291  1.00  0.00     0.084 C 
HETATM   30  C30 UNL     1     -12.002  45.435 -26.106  1.00  0.00     0.016 C 
HETATM   31  C31 UNL     1     -10.554  47.061 -20.482  1.00  0.00     0.210 A 
HETATM   32  O8  UNL     1     -10.016  48.030 -19.947  1.00  0.00    -0.285 OA
HETATM   33  H24 UNL     1     -11.279  47.710 -18.356  1.00  0.00     0.169 HD
ENDROOT
BRANCH   5  34
HETATM   34  C8  UNL     1     -16.948  46.673 -21.152  1.00  0.00     0.010 C 
HETATM   35  C9  UNL     1     -18.250  46.403 -20.924  1.00  0.00    -0.089 C 
HETATM   36  C10 UNL     1     -19.056  45.356 -21.642  1.00  0.00     0.042 C 
HETATM   37  C11 UNL     1     -19.018  47.161 -19.872  1.00  0.00     0.042 C 
ENDBRANCH   5  34
BRANCH   4  38
HETATM   38  O1  UNL     1     -14.895  48.022 -22.989  1.00  0.00    -0.389 OA
HETATM   39  H10 UNL     1     -15.433  48.576 -22.399  1.00  0.00     0.210 HD
ENDBRANCH   4  38
BRANCH   1  40
HETATM   40  C2  UNL     1     -14.245  44.840 -27.181  1.00  0.00     0.004 C 
HETATM   41  C1  UNL     1     -14.817  45.294 -28.519  1.00  0.00     0.006 C 
ENDBRANCH   1  40
BRANCH  25  42
HETATM   42  O6  UNL     1      -8.659  45.268 -25.450  1.00  0.00    -0.359 OA
HETATM   43  H29 UNL     1      -7.720  45.486 -25.564  1.00  0.00     0.217 HD
ENDBRANCH  25  42
TORSDOF 4
ENDMDL
MODEL 9
REMARK minimizedAffinity -7.13040257
REMARK CNNscore 0.33222729
REMARK CNNaffinity 5.46585083
REMARK  4 active torsions:
REMARK  status: ('A' for Active; 'I' for Inactive)
REMARK    1  A    between atoms: C2_2  and  C3_3 
REMARK    2  A    between atoms: C6_6  and  O1_7 
REMARK    3  A    between atoms: C7_8  and  C8_9 
REMARK    4  A    between atoms: C26_32  and  O6_33 
ROOT
HETATM    1  C3  UNL     1     -14.848  45.345 -28.085  1.00  0.00     0.008 C 
HETATM    2  C4  UNL     1     -14.181  46.128 -26.968  1.00  0.00    -0.023 C 
HETATM    3  C5  UNL     1     -14.027  45.770 -25.680  1.00  0.00     0.004 C 
HETATM    4  C6  UNL     1     -13.423  46.619 -24.582  1.00  0.00     0.174 C 
HETATM    5  C7  UNL     1     -12.461  45.824 -23.645  1.00  0.00     0.187 C 
HETATM    6  O2  UNL     1     -11.190  45.632 -24.297  1.00  0.00    -0.308 OA
HETATM    7  C12 UNL     1     -10.543  44.459 -24.022  1.00  0.00     0.276 C 
HETATM    8  O3  UNL     1     -11.002  43.559 -23.325  1.00  0.00    -0.264 OA
HETATM    9  C13 UNL     1      -9.084  44.486 -24.565  1.00  0.00     0.095 A 
HETATM   10  C14 UNL     1      -8.565  43.044 -24.791  1.00  0.00     0.036 C 
HETATM   11  C15 UNL     1      -8.315  44.990 -23.359  1.00  0.00     0.003 A 
HETATM   12  C16 UNL     1      -7.466  46.000 -23.174  1.00  0.00     0.072 A 
HETATM   13  C17 UNL     1      -6.962  46.993 -24.120  1.00  0.00     0.245 A 
HETATM   14  O4  UNL     1      -6.132  47.811 -23.721  1.00  0.00    -0.268 OA
HETATM   15  N1  UNL     1      -7.386  47.047 -25.395  1.00  0.00    -0.320 N 
HETATM   16  C18 UNL     1      -8.271  46.357 -26.184  1.00  0.00     0.098 A 
HETATM   17  C19 UNL     1      -9.006  45.276 -25.878  1.00  0.00     0.045 A 
HETATM   18  C20 UNL     1      -9.947  44.734 -26.933  1.00  0.00     0.194 A 
HETATM   19  O5  UNL     1     -10.724  43.835 -26.639  1.00  0.00    -0.287 OA
HETATM   20  C21 UNL     1      -9.959  45.277 -28.304  1.00  0.00     0.046 A 
HETATM   21  C22 UNL     1      -9.171  46.380 -28.588  1.00  0.00     0.032 A 
HETATM   22  C23 UNL     1      -9.149  46.944 -29.878  1.00  0.00     0.026 A 
HETATM   23  C24 UNL     1      -9.920  46.408 -30.915  1.00  0.00    -0.027 A 
HETATM   24  C25 UNL     1      -9.871  47.042 -32.276  1.00  0.00     0.051 C 
HETATM   25  C26 UNL     1     -10.701  45.284 -30.636  1.00  0.00     0.086 A 
HETATM   26  C27 UNL     1     -10.735  44.730 -29.340  1.00  0.00     0.059 A 
HETATM   27  C28 UNL     1     -11.561  43.519 -29.158  1.00  0.00     0.163 C 
HETATM   28  O7  UNL     1     -11.042  42.435 -29.428  1.00  0.00    -0.292 OA
HETATM   29  C29 UNL     1     -12.972  43.648 -28.606  1.00  0.00     0.084 C 
HETATM   30  C30 UNL     1     -13.771  44.865 -29.084  1.00  0.00     0.016 C 
HETATM   31  C31 UNL     1      -8.337  46.981 -27.549  1.00  0.00     0.210 A 
HETATM   32  O8  UNL     1      -7.674  47.989 -27.793  1.00  0.00    -0.285 OA
HETATM   33  H24 UNL     1      -6.939  47.831 -25.879  1.00  0.00     0.169 HD
ENDROOT
BRANCH   5  34
HETATM   34  C8  UNL     1     -12.165  46.611 -22.383  1.00  0.00     0.010 C 
HETATM   35  C9  UNL     1     -13.005  46.901 -21.368  1.00  0.00    -0.089 C 
HETATM   36  C10 UNL     1     -14.459  46.520 -21.312  1.00  0.00     0.042 C 
HETATM   37  C11 UNL     1     -12.516  47.651 -20.156  1.00  0.00     0.042 C 
ENDBRANCH   5  34
BRANCH   4  38
HETATM   38  O1  UNL     1     -12.780  47.761 -25.159  1.00  0.00    -0.389 OA
HETATM   39  H10 UNL     1     -12.591  48.373 -24.428  1.00  0.00     0.210 HD
ENDBRANCH   4  38
BRANCH   1  40
HETATM   40  C2  UNL     1     -15.799  44.201 -27.673  1.00  0.00     0.004 C 
HETATM   41  C1  UNL     1     -16.805  43.838 -28.760  1.00  0.00     0.006 C 
ENDBRANCH   1  40
BRANCH  25  42
HETATM   42  O6  UNL     1     -11.481  44.718 -31.607  1.00  0.00    -0.359 OA
HETATM   43  H29 UNL     1     -11.112  44.913 -32.484  1.00  0.00     0.217 HD
ENDBRANCH  25  42
TORSDOF 4
ENDMDL
