MODEL 1
REMARK minimizedAffinity -6.8059864
REMARK CNNscore 0.446493894
REMARK CNNaffinity 5.62764597
REMARK  4 active torsions:
REMARK  status: ('A' for Active; 'I' for Inactive)
REMARK    1  A    between atoms: C4_4  and  C5_5 
REMARK    2  A    between atoms: C5_5  and  C6_6 
REMARK    3  A    between atoms: C6_6  and  C7_7 
REMARK    4  A    between atoms: C7_7  and  C9_9 
ROOT
HETATM    1  C9  UNL     1       5.061   7.938  12.289  1.00  0.00    -0.002 C 
HETATM    2  C10 UNL     1       4.110   7.826  13.503  1.00  0.00     0.006 C 
HETATM    3  C11 UNL     1       4.701   8.670  14.630  1.00  0.00     0.011 C 
HETATM    4  C12 UNL     1       5.799   9.566  13.992  1.00  0.00    -0.032 C 
HETATM    5  C13 UNL     1       5.046  10.776  13.370  1.00  0.00     0.016 C 
HETATM    6  C14 UNL     1       6.830  10.025  15.110  1.00  0.00     0.004 C 
HETATM    7  C15 UNL     1       7.131  11.537  15.246  1.00  0.00     0.007 C 
HETATM    8  C16 UNL     1       8.173  12.065  14.274  1.00  0.00     0.007 C 
HETATM    9  C17 UNL     1       9.508  11.305  14.243  1.00  0.00     0.010 C 
HETATM   10  C18 UNL     1      10.758  12.051  14.817  1.00  0.00     0.018 C 
HETATM   11  C19 UNL     1      11.158  13.216  13.892  1.00  0.00     0.023 C 
HETATM   12  C20 UNL     1      10.556  12.600  16.237  1.00  0.00     0.023 C 
HETATM   13  C21 UNL     1      11.943  11.063  14.835  1.00  0.00     0.135 C 
HETATM   14  O1  UNL     1      12.950  11.258  15.519  1.00  0.00    -0.297 OA
HETATM   15  C22 UNL     1      11.868   9.876  13.896  1.00  0.00     0.080 C 
HETATM   16  C23 UNL     1      10.618   9.036  14.156  1.00  0.00     0.018 C 
HETATM   17  C24 UNL     1       9.473   9.860  14.738  1.00  0.00    -0.026 A 
HETATM   18  C25 UNL     1       9.131   9.536  16.180  1.00  0.00     0.021 A 
HETATM   19  C26 UNL     1       8.127   9.207  15.097  1.00  0.00    -0.027 A 
HETATM   20  C27 UNL     1       7.894   7.742  14.872  1.00  0.00     0.011 C 
HETATM   21  C28 UNL     1       7.270   7.447  13.518  1.00  0.00     0.011 C 
HETATM   22  C29 UNL     1       6.373   8.563  12.903  1.00  0.00    -0.032 C 
HETATM   23  C30 UNL     1       7.176   9.321  11.826  1.00  0.00     0.016 C 
ENDROOT
BRANCH   1  24
HETATM   24  C7  UNL     1       5.113   6.609  11.475  1.00  0.00    -0.014 C 
HETATM   25  C8  UNL     1       6.474   6.343  10.830  1.00  0.00     0.010 C 
BRANCH  24  26
HETATM   26  C6  UNL     1       3.995   6.509  10.401  1.00  0.00     0.008 C 
BRANCH  26  27
HETATM   27  C5  UNL     1       3.788   7.764   9.543  1.00  0.00     0.028 C 
BRANCH  27  28
HETATM   28  C4  UNL     1       2.322   8.092   9.446  1.00  0.00    -0.025 C 
HETATM   29  C2  UNL     1       1.493   7.914   8.397  1.00  0.00    -0.091 C 
HETATM   30  C1  UNL     1       0.039   8.303   8.498  1.00  0.00     0.042 C 
HETATM   31  C3  UNL     1       1.879   7.326   7.068  1.00  0.00     0.042 C 
ENDBRANCH  27  28
ENDBRANCH  26  27
ENDBRANCH  24  26
ENDBRANCH   1  24
TORSDOF 4
ENDMDL
MODEL 2
REMARK minimizedAffinity -8.06635761
REMARK CNNscore 0.428748012
REMARK CNNaffinity 6.61389112
REMARK  4 active torsions:
REMARK  status: ('A' for Active; 'I' for Inactive)
REMARK    1  A    between atoms: C4_4  and  C5_5 
REMARK    2  A    between atoms: C5_5  and  C6_6 
REMARK    3  A    between atoms: C6_6  and  C7_7 
REMARK    4  A    between atoms: C7_7  and  C9_9 
ROOT
HETATM    1  C9  UNL     1      -1.223   6.435  11.958  1.00  0.00    -0.002 C 
HETATM    2  C10 UNL     1      -1.399   5.197  12.868  1.00  0.00     0.006 C 
HETATM    3  C11 UNL     1      -1.984   5.680  14.193  1.00  0.00     0.011 C 
HETATM    4  C12 UNL     1      -2.492   7.130  13.959  1.00  0.00    -0.032 C 
HETATM    5  C13 UNL     1      -3.893   6.984  13.298  1.00  0.00     0.016 C 
HETATM    6  C14 UNL     1      -2.572   7.899  15.346  1.00  0.00     0.004 C 
HETATM    7  C15 UNL     1      -3.904   8.595  15.717  1.00  0.00     0.007 C 
HETATM    8  C16 UNL     1      -4.087   9.975  15.108  1.00  0.00     0.007 C 
HETATM    9  C17 UNL     1      -2.939  10.969  15.339  1.00  0.00     0.010 C 
HETATM   10  C18 UNL     1      -3.231  12.176  16.291  1.00  0.00     0.018 C 
HETATM   11  C19 UNL     1      -4.224  13.151  15.631  1.00  0.00     0.023 C 
HETATM   12  C20 UNL     1      -3.787  11.765  17.663  1.00  0.00     0.023 C 
HETATM   13  C21 UNL     1      -1.915  12.951  16.506  1.00  0.00     0.135 C 
HETATM   14  O1  UNL     1      -1.761  13.738  17.442  1.00  0.00    -0.297 OA
HETATM   15  C22 UNL     1      -0.834  12.782  15.456  1.00  0.00     0.080 C 
HETATM   16  C23 UNL     1      -0.436  11.316  15.295  1.00  0.00     0.018 C 
HETATM   17  C24 UNL     1      -1.572  10.361  15.649  1.00  0.00    -0.026 A 
HETATM   18  C25 UNL     1      -1.347   9.550  16.912  1.00  0.00     0.021 A 
HETATM   19  C26 UNL     1      -1.381   8.836  15.578  1.00  0.00    -0.027 A 
HETATM   20  C27 UNL     1      -0.073   8.241  15.145  1.00  0.00     0.011 C 
HETATM   21  C28 UNL     1      -0.022   7.958  13.652  1.00  0.00     0.011 C 
HETATM   22  C29 UNL     1      -1.380   7.651  12.952  1.00  0.00    -0.032 C 
HETATM   23  C30 UNL     1      -1.861   8.912  12.205  1.00  0.00     0.016 C 
ENDROOT
BRANCH   1  24
HETATM   24  C7  UNL     1       0.036   6.305  11.046  1.00  0.00    -0.014 C 
HETATM   25  C8  UNL     1       1.010   5.219  11.505  1.00  0.00     0.010 C 
BRANCH  24  26
HETATM   26  C6  UNL     1       0.794   7.648  10.861  1.00  0.00     0.008 C 
BRANCH  26  27
HETATM   27  C5  UNL     1       0.349   8.499   9.665  1.00  0.00     0.028 C 
BRANCH  27  28
HETATM   28  C4  UNL     1       0.650   7.784   8.375  1.00  0.00    -0.025 C 
HETATM   29  C2  UNL     1       1.789   7.804   7.654  1.00  0.00    -0.091 C 
HETATM   30  C1  UNL     1       1.900   7.006   6.378  1.00  0.00     0.042 C 
HETATM   31  C3  UNL     1       3.034   8.570   8.007  1.00  0.00     0.042 C 
ENDBRANCH  27  28
ENDBRANCH  26  27
ENDBRANCH  24  26
ENDBRANCH   1  24
TORSDOF 4
ENDMDL
MODEL 3
REMARK minimizedAffinity -6.08413267
REMARK CNNscore 0.400876313
REMARK CNNaffinity 6.42229986
REMARK  4 active torsions:
REMARK  status: ('A' for Active; 'I' for Inactive)
REMARK    1  A    between atoms: C4_4  and  C5_5 
REMARK    2  A    between atoms: C5_5  and  C6_6 
REMARK    3  A    between atoms: C6_6  and  C7_7 
REMARK    4  A    between atoms: C7_7  and  C9_9 
ROOT
HETATM    1  C9  UNL     1     -13.606 -12.077  28.702  1.00  0.00    -0.002 C 
HETATM    2  C10 UNL     1     -12.822 -12.509  29.962  1.00  0.00     0.006 C 
HETATM    3  C11 UNL     1     -12.989 -11.408  31.008  1.00  0.00     0.011 C 
HETATM    4  C12 UNL     1     -14.150 -10.498  30.520  1.00  0.00    -0.032 C 
HETATM    5  C13 UNL     1     -15.460 -11.218  30.949  1.00  0.00     0.016 C 
HETATM    6  C14 UNL     1     -14.021  -9.063  31.189  1.00  0.00     0.004 C 
HETATM    7  C15 UNL     1     -15.256  -8.488  31.924  1.00  0.00     0.007 C 
HETATM    8  C16 UNL     1     -16.273  -7.813  31.019  1.00  0.00     0.007 C 
HETATM    9  C17 UNL     1     -15.722  -6.731  30.078  1.00  0.00     0.010 C 
HETATM   10  C18 UNL     1     -16.133  -5.253  30.383  1.00  0.00     0.018 C 
HETATM   11  C19 UNL     1     -17.630  -5.042  30.091  1.00  0.00     0.023 C 
HETATM   12  C20 UNL     1     -15.849  -4.816  31.828  1.00  0.00     0.023 C 
HETATM   13  C21 UNL     1     -15.353  -4.328  29.426  1.00  0.00     0.135 C 
HETATM   14  O1  UNL     1     -15.222  -3.121  29.641  1.00  0.00    -0.297 OA
HETATM   15  C22 UNL     1     -14.826  -4.944  28.146  1.00  0.00     0.080 C 
HETATM   16  C23 UNL     1     -13.901  -6.125  28.433  1.00  0.00     0.018 C 
HETATM   17  C24 UNL     1     -14.231  -6.817  29.752  1.00  0.00    -0.026 A 
HETATM   18  C25 UNL     1     -13.184  -6.643  30.837  1.00  0.00     0.021 A 
HETATM   19  C26 UNL     1     -13.409  -8.019  30.248  1.00  0.00    -0.027 A 
HETATM   20  C27 UNL     1     -12.264  -8.557  29.441  1.00  0.00     0.011 C 
HETATM   21  C28 UNL     1     -12.680  -9.682  28.507  1.00  0.00     0.011 C 
HETATM   22  C29 UNL     1     -13.897 -10.546  28.953  1.00  0.00    -0.032 C 
HETATM   23  C30 UNL     1     -15.152 -10.091  28.179  1.00  0.00     0.016 C 
ENDROOT
BRANCH   1  24
HETATM   24  C7  UNL     1     -12.901 -12.553  27.394  1.00  0.00    -0.014 C 
HETATM   25  C8  UNL     1     -13.163 -14.022  27.063  1.00  0.00     0.010 C 
BRANCH  24  26
HETATM   26  C6  UNL     1     -11.372 -12.278  27.394  1.00  0.00     0.008 C 
BRANCH  26  27
HETATM   27  C5  UNL     1     -10.495 -13.419  26.862  1.00  0.00     0.028 C 
BRANCH  27  28
HETATM   28  C4  UNL     1      -9.294 -12.863  26.145  1.00  0.00    -0.025 C 
HETATM   29  C2  UNL     1      -9.216 -12.396  24.883  1.00  0.00    -0.091 C 
HETATM   30  C1  UNL     1      -7.911 -11.867  24.343  1.00  0.00     0.042 C 
HETATM   31  C3  UNL     1     -10.355 -12.330  23.902  1.00  0.00     0.042 C 
ENDBRANCH  27  28
ENDBRANCH  26  27
ENDBRANCH  24  26
ENDBRANCH   1  24
TORSDOF 4
ENDMDL
MODEL 4
REMARK minimizedAffinity -6.3470974
REMARK CNNscore 0.39816919
REMARK CNNaffinity 5.56474543
REMARK  4 active torsions:
REMARK  status: ('A' for Active; 'I' for Inactive)
REMARK    1  A    between atoms: C4_4  and  C5_5 
REMARK    2  A    between atoms: C5_5  and  C6_6 
REMARK    3  A    between atoms: C6_6  and  C7_7 
REMARK    4  A    between atoms: C7_7  and  C9_9 
ROOT
HETATM    1  C9  UNL     1      -4.180 -11.866   3.698  1.00  0.00    -0.002 C 
HETATM    2  C10 UNL     1      -3.383 -10.620   3.246  1.00  0.00     0.006 C 
HETATM    3  C11 UNL     1      -3.352  -9.644   4.420  1.00  0.00     0.011 C 
HETATM    4  C12 UNL     1      -3.808 -10.438   5.677  1.00  0.00    -0.032 C 
HETATM    5  C13 UNL     1      -2.548 -11.203   6.172  1.00  0.00     0.016 C 
HETATM    6  C14 UNL     1      -4.354  -9.429   6.775  1.00  0.00     0.004 C 
HETATM    7  C15 UNL     1      -3.766  -9.521   8.205  1.00  0.00     0.007 C 
HETATM    8  C16 UNL     1      -4.397 -10.590   9.081  1.00  0.00     0.007 C 
HETATM    9  C17 UNL     1      -5.929 -10.553   9.189  1.00  0.00     0.010 C 
HETATM   10  C18 UNL     1      -6.530 -10.131  10.570  1.00  0.00     0.018 C 
HETATM   11  C19 UNL     1      -6.272 -11.225  11.623  1.00  0.00     0.023 C 
HETATM   12  C20 UNL     1      -5.983  -8.798  11.104  1.00  0.00     0.023 C 
HETATM   13  C21 UNL     1      -8.059 -10.008  10.414  1.00  0.00     0.135 C 
HETATM   14  O1  UNL     1      -8.755  -9.390  11.223  1.00  0.00    -0.297 OA
HETATM   15  C22 UNL     1      -8.700 -10.764   9.268  1.00  0.00     0.080 C 
HETATM   16  C23 UNL     1      -8.107 -10.348   7.923  1.00  0.00     0.018 C 
HETATM   17  C24 UNL     1      -6.668  -9.855   8.048  1.00  0.00    -0.026 A 
HETATM   18  C25 UNL     1      -6.483  -8.371   7.789  1.00  0.00     0.021 A 
HETATM   19  C26 UNL     1      -5.886  -9.365   6.817  1.00  0.00    -0.027 A 
HETATM   20  C27 UNL     1      -6.510  -9.370   5.452  1.00  0.00     0.011 C 
HETATM   21  C28 UNL     1      -6.224 -10.648   4.680  1.00  0.00     0.011 C 
HETATM   22  C29 UNL     1      -4.897 -11.389   5.020  1.00  0.00    -0.032 C 
HETATM   23  C30 UNL     1      -5.207 -12.588   5.940  1.00  0.00     0.016 C 
ENDROOT
BRANCH   1  24
HETATM   24  C7  UNL     1      -4.998 -12.483   2.522  1.00  0.00    -0.014 C 
HETATM   25  C8  UNL     1      -4.637 -13.939   2.227  1.00  0.00     0.010 C 
BRANCH  24  26
HETATM   26  C6  UNL     1      -4.912 -11.645   1.216  1.00  0.00     0.008 C 
BRANCH  26  27
HETATM   27  C5  UNL     1      -5.811 -10.403   1.166  1.00  0.00     0.028 C 
BRANCH  27  28
HETATM   28  C4  UNL     1      -6.738 -10.478  -0.018  1.00  0.00    -0.025 C 
HETATM   29  C2  UNL     1      -6.440 -10.328  -1.324  1.00  0.00    -0.091 C 
HETATM   30  C1  UNL     1      -7.518 -10.448  -2.372  1.00  0.00     0.042 C 
HETATM   31  C3  UNL     1      -5.071 -10.051  -1.882  1.00  0.00     0.042 C 
ENDBRANCH  27  28
ENDBRANCH  26  27
ENDBRANCH  24  26
ENDBRANCH   1  24
TORSDOF 4
ENDMDL
MODEL 5
REMARK minimizedAffinity -6.16425037
REMARK CNNscore 0.379143924
REMARK CNNaffinity 6.43344307
REMARK  4 active torsions:
REMARK  status: ('A' for Active; 'I' for Inactive)
REMARK    1  A    between atoms: C4_4  and  C5_5 
REMARK    2  A    between atoms: C5_5  and  C6_6 
REMARK    3  A    between atoms: C6_6  and  C7_7 
REMARK    4  A    between atoms: C7_7  and  C9_9 
ROOT
HETATM    1  C9  UNL     1     -15.486   5.104  23.683  1.00  0.00    -0.002 C 
HETATM    2  C10 UNL     1     -16.488   4.022  23.219  1.00  0.00     0.006 C 
HETATM    3  C11 UNL     1     -16.856   3.182  24.440  1.00  0.00     0.011 C 
HETATM    4  C12 UNL     1     -16.367   3.966  25.689  1.00  0.00    -0.032 C 
HETATM    5  C13 UNL     1     -17.470   5.024  25.982  1.00  0.00     0.016 C 
HETATM    6  C14 UNL     1     -16.173   2.965  26.907  1.00  0.00     0.004 C 
HETATM    7  C15 UNL     1     -16.870   3.304  28.247  1.00  0.00     0.007 C 
HETATM    8  C16 UNL     1     -16.111   4.287  29.123  1.00  0.00     0.007 C 
HETATM    9  C17 UNL     1     -14.645   3.933  29.415  1.00  0.00     0.010 C 
HETATM   10  C18 UNL     1     -14.298   3.516  30.882  1.00  0.00     0.018 C 
HETATM   11  C19 UNL     1     -14.414   4.727  31.826  1.00  0.00     0.023 C 
HETATM   12  C20 UNL     1     -15.178   2.382  31.430  1.00  0.00     0.023 C 
HETATM   13  C21 UNL     1     -12.826   3.056  30.918  1.00  0.00     0.135 C 
HETATM   14  O1  UNL     1     -12.371   2.377  31.841  1.00  0.00    -0.297 OA
HETATM   15  C22 UNL     1     -11.919   3.556  29.811  1.00  0.00     0.080 C 
HETATM   16  C23 UNL     1     -12.448   3.159  28.434  1.00  0.00     0.018 C 
HETATM   17  C24 UNL     1     -13.965   2.997  28.417  1.00  0.00    -0.026 A 
HETATM   18  C25 UNL     1     -14.447   1.570  28.231  1.00  0.00     0.021 A 
HETATM   19  C26 UNL     1     -14.706   2.580  27.134  1.00  0.00    -0.027 A 
HETATM   20  C27 UNL     1     -13.960   2.332  25.857  1.00  0.00     0.011 C 
HETATM   21  C28 UNL     1     -13.874   3.569  24.977  1.00  0.00     0.011 C 
HETATM   22  C29 UNL     1     -15.033   4.602  25.109  1.00  0.00    -0.032 C 
HETATM   23  C30 UNL     1     -14.561   5.784  25.982  1.00  0.00     0.016 C 
ENDROOT
BRANCH   1  24
HETATM   24  C7  UNL     1     -14.435   5.427  22.577  1.00  0.00    -0.014 C 
HETATM   25  C8  UNL     1     -13.901   4.184  21.864  1.00  0.00     0.010 C 
BRANCH  24  26
HETATM   26  C6  UNL     1     -13.249   6.286  23.096  1.00  0.00     0.008 C 
BRANCH  26  27
HETATM   27  C5  UNL     1     -13.549   7.777  23.295  1.00  0.00     0.028 C 
BRANCH  27  28
HETATM   28  C4  UNL     1     -12.817   8.597  22.266  1.00  0.00    -0.025 C 
HETATM   29  C2  UNL     1     -11.693   9.324  22.423  1.00  0.00    -0.091 C 
HETATM   30  C1  UNL     1     -11.102  10.079  21.258  1.00  0.00     0.042 C 
HETATM   31  C3  UNL     1     -10.913   9.465  23.702  1.00  0.00     0.042 C 
ENDBRANCH  27  28
ENDBRANCH  26  27
ENDBRANCH  24  26
ENDBRANCH   1  24
TORSDOF 4
ENDMDL
MODEL 6
REMARK minimizedAffinity -7.80801201
REMARK CNNscore 0.374325216
REMARK CNNaffinity 6.23337984
REMARK  4 active torsions:
REMARK  status: ('A' for Active; 'I' for Inactive)
REMARK    1  A    between atoms: C4_4  and  C5_5 
REMARK    2  A    between atoms: C5_5  and  C6_6 
REMARK    3  A    between atoms: C6_6  and  C7_7 
REMARK    4  A    between atoms: C7_7  and  C9_9 
ROOT
HETATM    1  C9  UNL     1      -0.854  12.489  19.153  1.00  0.00    -0.002 C 
HETATM    2  C10 UNL     1      -0.955  13.850  18.427  1.00  0.00     0.006 C 
HETATM    3  C11 UNL     1      -1.737  13.627  17.135  1.00  0.00     0.011 C 
HETATM    4  C12 UNL     1      -2.411  12.231  17.254  1.00  0.00    -0.032 C 
HETATM    5  C13 UNL     1      -3.701  12.455  18.094  1.00  0.00     0.016 C 
HETATM    6  C14 UNL     1      -2.741  11.673  15.804  1.00  0.00     0.004 C 
HETATM    7  C15 UNL     1      -4.187  11.201  15.517  1.00  0.00     0.007 C 
HETATM    8  C16 UNL     1      -4.491   9.783  15.973  1.00  0.00     0.007 C 
HETATM    9  C17 UNL     1      -3.521   8.697  15.485  1.00  0.00     0.010 C 
HETATM   10  C18 UNL     1      -4.073   7.676  14.437  1.00  0.00     0.018 C 
HETATM   11  C19 UNL     1      -5.114   6.748  15.091  1.00  0.00     0.023 C 
HETATM   12  C20 UNL     1      -4.710   8.334  13.204  1.00  0.00     0.023 C 
HETATM   13  C21 UNL     1      -2.905   6.783  13.970  1.00  0.00     0.135 C 
HETATM   14  O1  UNL     1      -2.959   6.118  12.934  1.00  0.00    -0.297 OA
HETATM   15  C22 UNL     1      -1.707   6.676  14.892  1.00  0.00     0.080 C 
HETATM   16  C23 UNL     1      -1.098   8.047  15.179  1.00  0.00     0.018 C 
HETATM   17  C24 UNL     1      -2.124   9.172  15.085  1.00  0.00    -0.026 A 
HETATM   18  C25 UNL     1      -1.925  10.113  13.912  1.00  0.00     0.021 A 
HETATM   19  C26 UNL     1      -1.720  10.638  15.316  1.00  0.00    -0.027 A 
HETATM   20  C27 UNL     1      -0.305  11.006  15.655  1.00  0.00     0.011 C 
HETATM   21  C28 UNL     1      -0.058  11.075  17.153  1.00  0.00     0.011 C 
HETATM   22  C29 UNL     1      -1.280  11.447  18.046  1.00  0.00    -0.032 C 
HETATM   23  C30 UNL     1      -1.846  10.164  18.688  1.00  0.00     0.016 C 
ENDROOT
BRANCH   1  24
HETATM   24  C7  UNL     1       0.500  12.340  19.913  1.00  0.00    -0.014 C 
HETATM   25  C8  UNL     1       1.697  12.886  19.134  1.00  0.00     0.010 C 
BRANCH  24  26
HETATM   26  C6  UNL     1       0.787  10.882  20.365  1.00  0.00     0.008 C 
BRANCH  26  27
HETATM   27  C5  UNL     1       2.210  10.375  20.098  1.00  0.00     0.028 C 
BRANCH  27  28
HETATM   28  C4  UNL     1       3.030  10.435  21.359  1.00  0.00    -0.025 C 
HETATM   29  C2  UNL     1       3.020   9.584  22.404  1.00  0.00    -0.091 C 
HETATM   30  C1  UNL     1       3.931   9.813  23.585  1.00  0.00     0.042 C 
HETATM   31  C3  UNL     1       2.160   8.356  22.524  1.00  0.00     0.042 C 
ENDBRANCH  27  28
ENDBRANCH  26  27
ENDBRANCH  24  26
ENDBRANCH   1  24
TORSDOF 4
ENDMDL
MODEL 7
REMARK minimizedAffinity -6.98439074
REMARK CNNscore 0.299580455
REMARK CNNaffinity 6.12959337
REMARK  4 active torsions:
REMARK  status: ('A' for Active; 'I' for Inactive)
REMARK    1  A    between atoms: C4_4  and  C5_5 
REMARK    2  A    between atoms: C5_5  and  C6_6 
REMARK    3  A    between atoms: C6_6  and  C7_7 
REMARK    4  A    between atoms: C7_7  and  C9_9 
ROOT
HETATM    1  C9  UNL     1      -3.545  12.217  17.242  1.00  0.00    -0.002 C 
HETATM    2  C10 UNL     1      -3.763  11.300  18.468  1.00  0.00     0.006 C 
HETATM    3  C11 UNL     1      -2.897  10.057  18.272  1.00  0.00     0.011 C 
HETATM    4  C12 UNL     1      -1.897  10.382  17.127  1.00  0.00    -0.032 C 
HETATM    5  C13 UNL     1      -0.742  11.185  17.791  1.00  0.00     0.016 C 
HETATM    6  C14 UNL     1      -1.377   9.032  16.473  1.00  0.00     0.004 C 
HETATM    7  C15 UNL     1       0.152   8.823  16.352  1.00  0.00     0.007 C 
HETATM    8  C16 UNL     1       0.787   9.484  15.140  1.00  0.00     0.007 C 
HETATM    9  C17 UNL     1       0.144   9.158  13.783  1.00  0.00     0.010 C 
HETATM   10  C18 UNL     1       0.980   8.274  12.800  1.00  0.00     0.018 C 
HETATM   11  C19 UNL     1       2.195   9.061  12.273  1.00  0.00     0.023 C 
HETATM   12  C20 UNL     1       1.479   6.959  13.418  1.00  0.00     0.023 C 
HETATM   13  C21 UNL     1       0.096   7.940  11.580  1.00  0.00     0.135 C 
HETATM   14  O1  UNL     1       0.361   7.013  10.812  1.00  0.00    -0.297 OA
HETATM   15  C22 UNL     1      -1.072   8.863  11.301  1.00  0.00     0.080 C 
HETATM   16  C23 UNL     1      -2.020   8.943  12.496  1.00  0.00     0.018 C 
HETATM   17  C24 UNL     1      -1.310   8.688  13.821  1.00  0.00    -0.026 A 
HETATM   18  C25 UNL     1      -1.692   7.388  14.505  1.00  0.00     0.021 A 
HETATM   19  C26 UNL     1      -2.081   8.698  15.153  1.00  0.00    -0.027 A 
HETATM   20  C27 UNL     1      -3.556   8.974  15.189  1.00  0.00     0.011 C 
HETATM   21  C28 UNL     1      -3.874  10.445  15.404  1.00  0.00     0.011 C 
HETATM   22  C29 UNL     1      -2.824  11.278  16.199  1.00  0.00    -0.032 C 
HETATM   23  C30 UNL     1      -1.978  12.104  15.209  1.00  0.00     0.016 C 
ENDROOT
BRANCH   1  24
HETATM   24  C7  UNL     1      -4.848  12.986  16.861  1.00  0.00    -0.014 C 
HETATM   25  C8  UNL     1      -4.653  13.982  15.717  1.00  0.00     0.010 C 
BRANCH  24  26
HETATM   26  C6  UNL     1      -5.510  13.700  18.071  1.00  0.00     0.008 C 
BRANCH  26  27
HETATM   27  C5  UNL     1      -4.684  13.714  19.364  1.00  0.00     0.028 C 
BRANCH  27  28
HETATM   28  C4  UNL     1      -5.537  13.299  20.533  1.00  0.00    -0.025 C 
HETATM   29  C2  UNL     1      -5.583  13.838  21.767  1.00  0.00    -0.091 C 
HETATM   30  C1  UNL     1      -6.519  13.281  22.810  1.00  0.00     0.042 C 
HETATM   31  C3  UNL     1      -4.765  15.008  22.242  1.00  0.00     0.042 C 
ENDBRANCH  27  28
ENDBRANCH  26  27
ENDBRANCH  24  26
ENDBRANCH   1  24
TORSDOF 4
ENDMDL
MODEL 8
REMARK minimizedAffinity -6.76644564
REMARK CNNscore 0.293020517
REMARK CNNaffinity 5.94116211
REMARK  4 active torsions:
REMARK  status: ('A' for Active; 'I' for Inactive)
REMARK    1  A    between atoms: C4_4  and  C5_5 
REMARK    2  A    between atoms: C5_5  and  C6_6 
REMARK    3  A    between atoms: C6_6  and  C7_7 
REMARK    4  A    between atoms: C7_7  and  C9_9 
ROOT
HETATM    1  C9  UNL     1     -14.688   6.210  23.894  1.00  0.00    -0.002 C 
HETATM    2  C10 UNL     1     -14.468   6.006  25.411  1.00  0.00     0.006 C 
HETATM    3  C11 UNL     1     -13.902   7.308  25.973  1.00  0.00     0.011 C 
HETATM    4  C12 UNL     1     -14.116   8.398  24.886  1.00  0.00    -0.032 C 
HETATM    5  C13 UNL     1     -15.589   8.871  25.049  1.00  0.00     0.016 C 
HETATM    6  C14 UNL     1     -13.087   9.586  25.111  1.00  0.00     0.004 C 
HETATM    7  C15 UNL     1     -13.646  11.028  25.195  1.00  0.00     0.007 C 
HETATM    8  C16 UNL     1     -13.893  11.689  23.849  1.00  0.00     0.007 C 
HETATM    9  C17 UNL     1     -12.709  11.685  22.871  1.00  0.00     0.010 C 
HETATM   10  C18 UNL     1     -12.029  13.063  22.578  1.00  0.00     0.018 C 
HETATM   11  C19 UNL     1     -12.974  13.963  21.759  1.00  0.00     0.023 C 
HETATM   12  C20 UNL     1     -11.599  13.824  23.841  1.00  0.00     0.023 C 
HETATM   13  C21 UNL     1     -10.781  12.811  21.707  1.00  0.00     0.135 C 
HETATM   14  O1  UNL     1      -9.881  13.645  21.590  1.00  0.00    -0.297 OA
HETATM   15  C22 UNL     1     -10.743  11.521  20.911  1.00  0.00     0.080 C 
HETATM   16  C23 UNL     1     -10.874  10.300  21.819  1.00  0.00     0.018 C 
HETATM   17  C24 UNL     1     -11.652  10.604  23.096  1.00  0.00    -0.026 A 
HETATM   18  C25 UNL     1     -10.820  10.578  24.365  1.00  0.00     0.021 A 
HETATM   19  C26 UNL     1     -11.883   9.520  24.163  1.00  0.00    -0.027 A 
HETATM   20  C27 UNL     1     -11.362   8.126  23.974  1.00  0.00     0.011 C 
HETATM   21  C28 UNL     1     -12.380   7.200  23.327  1.00  0.00     0.011 C 
HETATM   22  C29 UNL     1     -13.882   7.529  23.577  1.00  0.00    -0.032 C 
HETATM   23  C30 UNL     1     -14.458   8.240  22.335  1.00  0.00     0.016 C 
ENDROOT
BRANCH   1  24
HETATM   24  C7  UNL     1     -14.423   4.898  23.093  1.00  0.00    -0.014 C 
HETATM   25  C8  UNL     1     -15.700   4.145  22.720  1.00  0.00     0.010 C 
BRANCH  24  26
HETATM   26  C6  UNL     1     -13.435   3.937  23.810  1.00  0.00     0.008 C 
BRANCH  26  27
HETATM   27  C5  UNL     1     -14.037   2.613  24.298  1.00  0.00     0.028 C 
BRANCH  27  28
HETATM   28  C4  UNL     1     -13.538   2.292  25.681  1.00  0.00    -0.025 C 
HETATM   29  C2  UNL     1     -12.366   1.728  26.037  1.00  0.00    -0.091 C 
HETATM   30  C1  UNL     1     -12.042   1.492  27.491  1.00  0.00     0.042 C 
HETATM   31  C3  UNL     1     -11.281   1.295  25.090  1.00  0.00     0.042 C 
ENDBRANCH  27  28
ENDBRANCH  26  27
ENDBRANCH  24  26
ENDBRANCH   1  24
TORSDOF 4
ENDMDL
MODEL 9
REMARK minimizedAffinity -6.07709312
REMARK CNNscore 0.264844179
REMARK CNNaffinity 5.33947515
REMARK  4 active torsions:
REMARK  status: ('A' for Active; 'I' for Inactive)
REMARK    1  A    between atoms: C4_4  and  C5_5 
REMARK    2  A    between atoms: C5_5  and  C6_6 
REMARK    3  A    between atoms: C6_6  and  C7_7 
REMARK    4  A    between atoms: C7_7  and  C9_9 
ROOT
HETATM    1  C9  UNL     1      -3.833 -10.953   5.976  1.00  0.00    -0.002 C 
HETATM    2  C10 UNL     1      -3.964 -12.434   6.398  1.00  0.00     0.006 C 
HETATM    3  C11 UNL     1      -4.384 -13.229   5.164  1.00  0.00     0.011 C 
HETATM    4  C12 UNL     1      -4.159 -12.304   3.936  1.00  0.00    -0.032 C 
HETATM    5  C13 UNL     1      -2.645 -12.418   3.595  1.00  0.00     0.016 C 
HETATM    6  C14 UNL     1      -5.072 -12.787   2.729  1.00  0.00     0.004 C 
HETATM    7  C15 UNL     1      -4.395 -13.041   1.360  1.00  0.00     0.007 C 
HETATM    8  C16 UNL     1      -4.190 -11.795   0.515  1.00  0.00     0.007 C 
HETATM    9  C17 UNL     1      -5.435 -10.925   0.286  1.00  0.00     0.010 C 
HETATM   10  C18 UNL     1      -6.021 -10.898  -1.164  1.00  0.00     0.018 C 
HETATM   11  C19 UNL     1      -5.066 -10.151  -2.114  1.00  0.00     0.023 C 
HETATM   12  C20 UNL     1      -6.301 -12.292  -1.746  1.00  0.00     0.023 C 
HETATM   13  C21 UNL     1      -7.342 -10.102  -1.136  1.00  0.00     0.135 C 
HETATM   14  O1  UNL     1      -8.178 -10.185  -2.038  1.00  0.00    -0.297 OA
HETATM   15  C22 UNL     1      -7.537  -9.127   0.008  1.00  0.00     0.080 C 
HETATM   16  C23 UNL     1      -7.442  -9.828   1.362  1.00  0.00     0.018 C 
HETATM   17  C24 UNL     1      -6.557 -11.070   1.315  1.00  0.00    -0.026 A 
HETATM   18  C25 UNL     1      -7.299 -12.383   1.481  1.00  0.00     0.021 A 
HETATM   19  C26 UNL     1      -6.339 -11.940   2.565  1.00  0.00    -0.027 A 
HETATM   20  C27 UNL     1      -6.982 -11.586   3.874  1.00  0.00     0.011 C 
HETATM   21  C28 UNL     1      -6.088 -10.727   4.754  1.00  0.00     0.011 C 
HETATM   22  C29 UNL     1      -4.551 -10.903   4.571  1.00  0.00    -0.032 C 
HETATM   23  C30 UNL     1      -4.006  -9.739   3.717  1.00  0.00     0.016 C 
ENDROOT
BRANCH   1  24
HETATM   24  C7  UNL     1      -4.256  -9.987   7.125  1.00  0.00    -0.014 C 
HETATM   25  C8  UNL     1      -3.159  -8.999   7.524  1.00  0.00     0.010 C 
BRANCH  24  26
HETATM   26  C6  UNL     1      -4.776 -10.732   8.385  1.00  0.00     0.008 C 
BRANCH  26  27
HETATM   27  C5  UNL     1      -4.352 -10.132   9.732  1.00  0.00     0.028 C 
BRANCH  27  28
HETATM   28  C4  UNL     1      -5.274 -10.602  10.826  1.00  0.00    -0.025 C 
HETATM   29  C2  UNL     1      -6.124  -9.872  11.574  1.00  0.00    -0.091 C 
HETATM   30  C1  UNL     1      -6.978 -10.534  12.626  1.00  0.00     0.042 C 
HETATM   31  C3  UNL     1      -6.335  -8.387  11.460  1.00  0.00     0.042 C 
ENDBRANCH  27  28
ENDBRANCH  26  27
ENDBRANCH  24  26
ENDBRANCH   1  24
TORSDOF 4
ENDMDL
