MODEL 1
REMARK minimizedAffinity -9.5194912
REMARK  10 active torsions:
REMARK  status: ('A' for Active; 'I' for Inactive)
REMARK    1  A    between atoms: C2_2  and  C3_3 
REMARK    2  A    between atoms: C4_4  and  O1_5 
REMARK    3  A    between atoms: C12_13  and  C13_14 
REMARK    4  A    between atoms: C13_14  and  C15_16 
REMARK    5  A    between atoms: C15_16  and  C16_17 
REMARK    6  A    between atoms: C16_17  and  C17_18 
REMARK    7  A    between atoms: C26_27  and  C27_28 
REMARK    8  A    between atoms: C27_28  and  C28_29 
REMARK    9  A    between atoms: C28_29  and  C29_30 
REMARK   10  A    between atoms: C29_30  and  O3_32 
ROOT
HETATM    1  C3  UNL     1      -1.018  51.125 -18.970  1.00  0.00     0.045 C 
HETATM    2  C4  UNL     1      -2.537  50.826 -18.984  1.00  0.00     0.127 C 
HETATM    3  C5  UNL     1      -3.192  51.361 -20.250  1.00  0.00     0.038 C 
HETATM    4  C6  UNL     1      -2.711  50.563 -21.465  1.00  0.00     0.006 C 
HETATM    5  C7  UNL     1      -1.173  50.638 -21.612  1.00  0.00    -0.027 A 
HETATM    6  C8  UNL     1      -0.640  51.134 -22.960  1.00  0.00     0.011 C 
HETATM    7  C9  UNL     1      -1.411  50.721 -24.228  1.00  0.00     0.011 C 
HETATM    8  C10 UNL     1      -2.805  50.131 -23.978  1.00  0.00    -0.032 C 
HETATM    9  C11 UNL     1      -2.640  48.603 -23.717  1.00  0.00     0.016 C 
HETATM   10  C12 UNL     1      -3.868  50.340 -25.109  1.00  0.00    -0.002 C 
HETATM   11  C21 UNL     1      -5.203  50.191 -24.332  1.00  0.00     0.006 C 
HETATM   12  C22 UNL     1      -4.908  50.403 -22.838  1.00  0.00     0.011 C 
HETATM   13  C23 UNL     1      -3.458  50.915 -22.781  1.00  0.00    -0.032 C 
HETATM   14  C24 UNL     1      -3.534  52.462 -22.975  1.00  0.00     0.016 C 
HETATM   15  C25 UNL     1      -0.393  49.514 -20.958  1.00  0.00     0.022 A 
HETATM   16  C26 UNL     1      -0.313  50.888 -20.327  1.00  0.00    -0.022 A 
ENDROOT
BRANCH  10  17
HETATM   17  C13 UNL     1      -3.817  49.474 -26.406  1.00  0.00    -0.014 C 
HETATM   18  C14 UNL     1      -2.790  48.337 -26.285  1.00  0.00     0.010 C 
BRANCH  17  19
HETATM   19  C15 UNL     1      -3.438  50.310 -27.663  1.00  0.00     0.008 C 
BRANCH  19  20
HETATM   20  C16 UNL     1      -2.610  51.566 -27.367  1.00  0.00     0.028 C 
BRANCH  20  21
HETATM   21  C17 UNL     1      -1.143  51.320 -27.601  1.00  0.00    -0.025 C 
HETATM   22  C18 UNL     1      -0.178  52.241 -27.787  1.00  0.00    -0.091 C 
HETATM   23  C19 UNL     1       1.245  51.821 -28.050  1.00  0.00     0.042 C 
HETATM   24  C20 UNL     1      -0.388  53.730 -27.745  1.00  0.00     0.042 C 
ENDBRANCH  20  21
ENDBRANCH  19  20
ENDBRANCH  17  19
ENDBRANCH  10  17
BRANCH  16  25
HETATM   25  C27 UNL     1       1.013  51.663 -20.442  1.00  0.00     0.021 C 
BRANCH  25  26
HETATM   26  C28 UNL     1       1.031  52.692 -21.573  1.00  0.00     0.111 C 
BRANCH  26  27
HETATM   27  C29 UNL     1       1.463  54.044 -21.074  1.00  0.00     0.139 C 
HETATM   28  O2  UNL     1       1.790  55.014 -21.735  1.00  0.00    -0.650 OA
BRANCH  27  29
HETATM   29  O3  UNL     1       1.462  54.105 -19.727  1.00  0.00    -0.776 OA
HETATM   30  H46 UNL     1       1.752  55.020 -19.531  1.00  0.00     0.167 HD
ENDBRANCH  27  29
ENDBRANCH  26  27
ENDBRANCH  25  26
ENDBRANCH  16  25
BRANCH   2  31
HETATM   31  O1  UNL     1      -3.182  51.468 -17.875  1.00  0.00    -0.395 OA
HETATM   32  H6  UNL     1      -2.731  51.164 -17.068  1.00  0.00     0.210 HD
ENDBRANCH   2  31
BRANCH   1  33
HETATM   33  C2  UNL     1      -0.373  50.359 -17.825  1.00  0.00    -0.029 C 
HETATM   34  C1  UNL     1       0.408  50.910 -16.887  1.00  0.00     0.007 C 
ENDBRANCH   1  33
TORSDOF 10
ENDMDL
MODEL 2
REMARK minimizedAffinity -9.09091377
REMARK  10 active torsions:
REMARK  status: ('A' for Active; 'I' for Inactive)
REMARK    1  A    between atoms: C2_2  and  C3_3 
REMARK    2  A    between atoms: C4_4  and  O1_5 
REMARK    3  A    between atoms: C12_13  and  C13_14 
REMARK    4  A    between atoms: C13_14  and  C15_16 
REMARK    5  A    between atoms: C15_16  and  C16_17 
REMARK    6  A    between atoms: C16_17  and  C17_18 
REMARK    7  A    between atoms: C26_27  and  C27_28 
REMARK    8  A    between atoms: C27_28  and  C28_29 
REMARK    9  A    between atoms: C28_29  and  C29_30 
REMARK   10  A    between atoms: C29_30  and  O3_32 
ROOT
HETATM    1  C3  UNL     1      -1.025  51.666 -18.848  1.00  0.00     0.045 C 
HETATM    2  C4  UNL     1      -2.395  50.973 -18.656  1.00  0.00     0.127 C 
HETATM    3  C5  UNL     1      -3.281  51.156 -19.880  1.00  0.00     0.038 C 
HETATM    4  C6  UNL     1      -2.706  50.374 -21.064  1.00  0.00     0.006 C 
HETATM    5  C7  UNL     1      -1.268  50.838 -21.396  1.00  0.00    -0.027 A 
HETATM    6  C8  UNL     1      -1.013  51.289 -22.839  1.00  0.00     0.011 C 
HETATM    7  C9  UNL     1      -1.747  50.535 -23.963  1.00  0.00     0.011 C 
HETATM    8  C10 UNL     1      -2.895  49.630 -23.497  1.00  0.00    -0.032 C 
HETATM    9  C11 UNL     1      -2.290  48.244 -23.116  1.00  0.00     0.016 C 
HETATM   10  C12 UNL     1      -4.069  49.408 -24.510  1.00  0.00    -0.002 C 
HETATM   11  C21 UNL     1      -5.237  49.004 -23.572  1.00  0.00     0.006 C 
HETATM   12  C22 UNL     1      -4.883  49.468 -22.149  1.00  0.00     0.011 C 
HETATM   13  C23 UNL     1      -3.633  50.351 -22.310  1.00  0.00    -0.032 C 
HETATM   14  C24 UNL     1      -4.153  51.786 -22.638  1.00  0.00     0.016 C 
HETATM   15  C25 UNL     1      -0.152  50.051 -20.737  1.00  0.00     0.022 A 
HETATM   16  C26 UNL     1      -0.403  51.462 -20.251  1.00  0.00    -0.022 A 
ENDROOT
BRANCH  10  17
HETATM   17  C13 UNL     1      -3.893  48.436 -25.719  1.00  0.00    -0.014 C 
HETATM   18  C14 UNL     1      -2.946  49.020 -26.779  1.00  0.00     0.010 C 
BRANCH  17  19
HETATM   19  C15 UNL     1      -5.242  48.118 -26.426  1.00  0.00     0.008 C 
BRANCH  19  20
HETATM   20  C16 UNL     1      -5.166  48.072 -27.956  1.00  0.00     0.028 C 
BRANCH  20  21
HETATM   21  C17 UNL     1      -6.258  47.209 -28.531  1.00  0.00    -0.025 C 
HETATM   22  C18 UNL     1      -6.686  47.173 -29.808  1.00  0.00    -0.091 C 
HETATM   23  C19 UNL     1      -7.825  46.273 -30.211  1.00  0.00     0.042 C 
HETATM   24  C20 UNL     1      -6.099  47.976 -30.936  1.00  0.00     0.042 C 
ENDBRANCH  20  21
ENDBRANCH  19  20
ENDBRANCH  17  19
ENDBRANCH  10  17
BRANCH  16  25
HETATM   25  C27 UNL     1       0.640  52.543 -20.591  1.00  0.00     0.021 C 
BRANCH  25  26
HETATM   26  C28 UNL     1       0.876  52.723 -22.092  1.00  0.00     0.111 C 
BRANCH  26  27
HETATM   27  C29 UNL     1       1.400  54.099 -22.400  1.00  0.00     0.139 C 
HETATM   28  O2  UNL     1       1.896  54.898 -21.626  1.00  0.00    -0.650 OA
BRANCH  27  29
HETATM   29  O3  UNL     1       1.269  54.406 -23.707  1.00  0.00    -0.776 OA
HETATM   30  H46 UNL     1       1.644  55.307 -23.777  1.00  0.00     0.167 HD
ENDBRANCH  27  29
ENDBRANCH  26  27
ENDBRANCH  25  26
ENDBRANCH  16  25
BRANCH   2  31
HETATM   31  O1  UNL     1      -3.095  51.550 -17.544  1.00  0.00    -0.395 OA
HETATM   32  H6  UNL     1      -2.509  51.478 -16.770  1.00  0.00     0.210 HD
ENDBRANCH   2  31
BRANCH   1  33
HETATM   33  C2  UNL     1      -0.095  51.245 -17.720  1.00  0.00    -0.029 C 
HETATM   34  C1  UNL     1      -0.085  50.029 -17.158  1.00  0.00     0.007 C 
ENDBRANCH   1  33
TORSDOF 10
ENDMDL
MODEL 3
REMARK minimizedAffinity -8.98241329
REMARK  10 active torsions:
REMARK  status: ('A' for Active; 'I' for Inactive)
REMARK    1  A    between atoms: C2_2  and  C3_3 
REMARK    2  A    between atoms: C4_4  and  O1_5 
REMARK    3  A    between atoms: C12_13  and  C13_14 
REMARK    4  A    between atoms: C13_14  and  C15_16 
REMARK    5  A    between atoms: C15_16  and  C16_17 
REMARK    6  A    between atoms: C16_17  and  C17_18 
REMARK    7  A    between atoms: C26_27  and  C27_28 
REMARK    8  A    between atoms: C27_28  and  C28_29 
REMARK    9  A    between atoms: C28_29  and  C29_30 
REMARK   10  A    between atoms: C29_30  and  O3_32 
ROOT
HETATM    1  C3  UNL     1      -2.520  50.434 -24.896  1.00  0.00     0.045 C 
HETATM    2  C4  UNL     1      -3.524  49.474 -24.216  1.00  0.00     0.127 C 
HETATM    3  C5  UNL     1      -2.853  48.664 -23.115  1.00  0.00     0.038 C 
HETATM    4  C6  UNL     1      -2.470  49.582 -21.951  1.00  0.00     0.006 C 
HETATM    5  C7  UNL     1      -1.516  50.707 -22.415  1.00  0.00    -0.027 A 
HETATM    6  C8  UNL     1      -0.187  50.830 -21.660  1.00  0.00     0.011 C 
HETATM    7  C9  UNL     1      -0.198  50.547 -20.146  1.00  0.00     0.011 C 
HETATM    8  C10 UNL     1      -1.465  49.861 -19.622  1.00  0.00    -0.032 C 
HETATM    9  C11 UNL     1      -2.516  50.970 -19.307  1.00  0.00     0.016 C 
HETATM   10  C12 UNL     1      -1.299  48.949 -18.360  1.00  0.00    -0.002 C 
HETATM   11  C21 UNL     1      -2.528  48.008 -18.474  1.00  0.00     0.006 C 
HETATM   12  C22 UNL     1      -3.025  48.053 -19.928  1.00  0.00     0.011 C 
HETATM   13  C23 UNL     1      -1.941  48.823 -20.703  1.00  0.00    -0.032 C 
HETATM   14  C24 UNL     1      -0.866  47.767 -21.114  1.00  0.00     0.016 C 
HETATM   15  C25 UNL     1      -2.179  52.011 -22.814  1.00  0.00     0.022 A 
HETATM   16  C26 UNL     1      -1.573  51.164 -23.912  1.00  0.00    -0.022 A 
ENDROOT
BRANCH  10  17
HETATM   17  C13 UNL     1      -1.148  49.586 -16.943  1.00  0.00    -0.014 C 
HETATM   18  C14 UNL     1      -2.036  50.831 -16.786  1.00  0.00     0.010 C 
BRANCH  17  19
HETATM   19  C15 UNL     1       0.316  50.020 -16.641  1.00  0.00     0.008 C 
BRANCH  19  20
HETATM   20  C16 UNL     1       0.472  51.483 -16.211  1.00  0.00     0.028 C 
BRANCH  20  21
HETATM   21  C17 UNL     1       1.852  51.999 -16.524  1.00  0.00    -0.025 C 
HETATM   22  C18 UNL     1       2.931  51.992 -15.718  1.00  0.00    -0.091 C 
HETATM   23  C19 UNL     1       4.237  52.589 -16.176  1.00  0.00     0.042 C 
HETATM   24  C20 UNL     1       2.969  51.404 -14.334  1.00  0.00     0.042 C 
ENDBRANCH  20  21
ENDBRANCH  19  20
ENDBRANCH  17  19
ENDBRANCH  10  17
BRANCH  16  25
HETATM   25  C27 UNL     1      -0.293  51.673 -24.599  1.00  0.00     0.021 C 
BRANCH  25  26
HETATM   26  C28 UNL     1      -0.092  53.185 -24.488  1.00  0.00     0.111 C 
BRANCH  26  27
HETATM   27  C29 UNL     1       0.293  53.782 -25.815  1.00  0.00     0.139 C 
HETATM   28  O2  UNL     1       0.689  53.197 -26.809  1.00  0.00    -0.650 OA
BRANCH  27  29
HETATM   29  O3  UNL     1       0.155  55.123 -25.821  1.00  0.00    -0.776 OA
HETATM   30  H46 UNL     1       0.427  55.384 -26.725  1.00  0.00     0.167 HD
ENDBRANCH  27  29
ENDBRANCH  26  27
ENDBRANCH  25  26
ENDBRANCH  16  25
BRANCH   2  31
HETATM   31  O1  UNL     1      -4.041  48.535 -25.170  1.00  0.00    -0.395 OA
HETATM   32  H6  UNL     1      -4.427  49.052 -25.899  1.00  0.00     0.210 HD
ENDBRANCH   2  31
BRANCH   1  33
HETATM   33  C2  UNL     1      -3.283  51.389 -25.801  1.00  0.00    -0.029 C 
HETATM   34  C1  UNL     1      -2.769  51.983 -26.886  1.00  0.00     0.007 C 
ENDBRANCH   1  33
TORSDOF 10
ENDMDL
MODEL 4
REMARK minimizedAffinity -8.87823677
REMARK  10 active torsions:
REMARK  status: ('A' for Active; 'I' for Inactive)
REMARK    1  A    between atoms: C2_2  and  C3_3 
REMARK    2  A    between atoms: C4_4  and  O1_5 
REMARK    3  A    between atoms: C12_13  and  C13_14 
REMARK    4  A    between atoms: C13_14  and  C15_16 
REMARK    5  A    between atoms: C15_16  and  C16_17 
REMARK    6  A    between atoms: C16_17  and  C17_18 
REMARK    7  A    between atoms: C26_27  and  C27_28 
REMARK    8  A    between atoms: C27_28  and  C28_29 
REMARK    9  A    between atoms: C28_29  and  C29_30 
REMARK   10  A    between atoms: C29_30  and  O3_32 
ROOT
HETATM    1  C3  UNL     1      -1.013  51.215 -19.122  1.00  0.00     0.045 C 
HETATM    2  C4  UNL     1      -2.478  50.784 -18.875  1.00  0.00     0.127 C 
HETATM    3  C5  UNL     1      -3.353  51.085 -20.085  1.00  0.00     0.038 C 
HETATM    4  C6  UNL     1      -2.959  50.178 -21.254  1.00  0.00     0.006 C 
HETATM    5  C7  UNL     1      -1.472  50.368 -21.635  1.00  0.00    -0.027 A 
HETATM    6  C8  UNL     1      -1.182  50.724 -23.097  1.00  0.00     0.011 C 
HETATM    7  C9  UNL     1      -2.070  50.079 -24.178  1.00  0.00     0.011 C 
HETATM    8  C10 UNL     1      -3.346  49.408 -23.655  1.00  0.00    -0.032 C 
HETATM    9  C11 UNL     1      -2.985  47.949 -23.241  1.00  0.00     0.016 C 
HETATM   10  C12 UNL     1      -4.569  49.369 -24.633  1.00  0.00    -0.002 C 
HETATM   11  C21 UNL     1      -5.763  49.207 -23.655  1.00  0.00     0.006 C 
HETATM   12  C22 UNL     1      -5.292  49.642 -22.257  1.00  0.00     0.011 C 
HETATM   13  C23 UNL     1      -3.910  50.284 -22.477  1.00  0.00    -0.032 C 
HETATM   14  C24 UNL     1      -4.176  51.778 -22.842  1.00  0.00     0.016 C 
HETATM   15  C25 UNL     1      -0.495  49.415 -20.974  1.00  0.00     0.022 A 
HETATM   16  C26 UNL     1      -0.477  50.862 -20.531  1.00  0.00    -0.022 A 
ENDROOT
BRANCH  10  17
HETATM   17  C13 UNL     1      -4.602  48.345 -25.811  1.00  0.00    -0.014 C 
HETATM   18  C14 UNL     1      -4.013  48.945 -27.097  1.00  0.00     0.010 C 
BRANCH  17  19
HETATM   19  C15 UNL     1      -6.047  47.869 -26.141  1.00  0.00     0.008 C 
BRANCH  19  20
HETATM   20  C16 UNL     1      -6.327  47.670 -27.635  1.00  0.00     0.028 C 
BRANCH  20  21
HETATM   21  C17 UNL     1      -7.745  47.219 -27.869  1.00  0.00    -0.025 C 
HETATM   22  C18 UNL     1      -8.155  46.055 -28.409  1.00  0.00    -0.091 C 
HETATM   23  C19 UNL     1      -9.622  45.775 -28.610  1.00  0.00     0.042 C 
HETATM   24  C20 UNL     1      -7.245  44.940 -28.845  1.00  0.00     0.042 C 
ENDBRANCH  20  21
ENDBRANCH  19  20
ENDBRANCH  17  19
ENDBRANCH  10  17
BRANCH  16  25
HETATM   25  C27 UNL     1       0.731  51.730 -20.932  1.00  0.00     0.021 C 
BRANCH  25  26
HETATM   26  C28 UNL     1       0.359  53.160 -21.329  1.00  0.00     0.111 C 
BRANCH  26  27
HETATM   27  C29 UNL     1       1.420  54.137 -20.901  1.00  0.00     0.139 C 
HETATM   28  O2  UNL     1       2.093  54.865 -21.610  1.00  0.00    -0.650 OA
BRANCH  27  29
HETATM   29  O3  UNL     1       1.584  54.146 -19.563  1.00  0.00    -0.776 OA
HETATM   30  H46 UNL     1       2.285  54.813 -19.415  1.00  0.00     0.167 HD
ENDBRANCH  27  29
ENDBRANCH  26  27
ENDBRANCH  25  26
ENDBRANCH  16  25
BRANCH   2  31
HETATM   31  O1  UNL     1      -3.033  51.509 -17.768  1.00  0.00    -0.395 OA
HETATM   32  H6  UNL     1      -2.447  51.356 -17.006  1.00  0.00     0.210 HD
ENDBRANCH   2  31
BRANCH   1  33
HETATM   33  C2  UNL     1      -0.141  50.669 -18.002  1.00  0.00    -0.029 C 
HETATM   34  C1  UNL     1       0.605  51.422 -17.184  1.00  0.00     0.007 C 
ENDBRANCH   1  33
TORSDOF 10
ENDMDL
MODEL 5
REMARK minimizedAffinity -8.67930412
REMARK  10 active torsions:
REMARK  status: ('A' for Active; 'I' for Inactive)
REMARK    1  A    between atoms: C2_2  and  C3_3 
REMARK    2  A    between atoms: C4_4  and  O1_5 
REMARK    3  A    between atoms: C12_13  and  C13_14 
REMARK    4  A    between atoms: C13_14  and  C15_16 
REMARK    5  A    between atoms: C15_16  and  C16_17 
REMARK    6  A    between atoms: C16_17  and  C17_18 
REMARK    7  A    between atoms: C26_27  and  C27_28 
REMARK    8  A    between atoms: C27_28  and  C28_29 
REMARK    9  A    between atoms: C28_29  and  C29_30 
REMARK   10  A    between atoms: C29_30  and  O3_32 
ROOT
HETATM    1  C3  UNL     1      -3.821  51.336 -24.288  1.00  0.00     0.045 C 
HETATM    2  C4  UNL     1      -4.363  52.189 -23.116  1.00  0.00     0.127 C 
HETATM    3  C5  UNL     1      -4.298  51.424 -21.802  1.00  0.00     0.038 C 
HETATM    4  C6  UNL     1      -2.839  51.221 -21.385  1.00  0.00     0.006 C 
HETATM    5  C7  UNL     1      -2.049  50.449 -22.468  1.00  0.00    -0.027 A 
HETATM    6  C8  UNL     1      -1.328  49.177 -22.010  1.00  0.00     0.011 C 
HETATM    7  C9  UNL     1      -0.703  49.178 -20.602  1.00  0.00     0.011 C 
HETATM    8  C10 UNL     1      -1.148  50.332 -19.695  1.00  0.00    -0.032 C 
HETATM    9  C11 UNL     1      -0.223  51.554 -19.983  1.00  0.00     0.016 C 
HETATM   10  C12 UNL     1      -1.150  50.051 -18.153  1.00  0.00    -0.002 C 
HETATM   11  C21 UNL     1      -2.157  51.110 -17.631  1.00  0.00     0.006 C 
HETATM   12  C22 UNL     1      -3.016  51.572 -18.819  1.00  0.00     0.011 C 
HETATM   13  C23 UNL     1      -2.672  50.607 -19.968  1.00  0.00    -0.032 C 
HETATM   14  C24 UNL     1      -3.604  49.367 -19.790  1.00  0.00     0.016 C 
HETATM   15  C25 UNL     1      -1.313  51.304 -23.482  1.00  0.00     0.022 A 
HETATM   16  C26 UNL     1      -2.534  50.543 -23.954  1.00  0.00    -0.022 A 
ENDROOT
BRANCH  10  17
HETATM   17  C13 UNL     1       0.191  50.039 -17.354  1.00  0.00    -0.014 C 
HETATM   18  C14 UNL     1       0.205  48.928 -16.292  1.00  0.00     0.010 C 
BRANCH  17  19
HETATM   19  C15 UNL     1       0.456  51.386 -16.620  1.00  0.00     0.008 C 
BRANCH  19  20
HETATM   20  C16 UNL     1       1.898  51.576 -16.136  1.00  0.00     0.028 C 
BRANCH  20  21
HETATM   21  C17 UNL     1       1.946  51.837 -14.653  1.00  0.00    -0.025 C 
HETATM   22  C18 UNL     1       2.807  51.318 -13.758  1.00  0.00    -0.091 C 
HETATM   23  C19 UNL     1       2.690  51.655 -12.294  1.00  0.00     0.042 C 
HETATM   24  C20 UNL     1       3.945  50.393 -14.093  1.00  0.00     0.042 C 
ENDBRANCH  20  21
ENDBRANCH  19  20
ENDBRANCH  17  19
ENDBRANCH  10  17
BRANCH  16  25
HETATM   25  C27 UNL     1      -2.322  49.345 -24.897  1.00  0.00     0.021 C 
BRANCH  25  26
HETATM   26  C28 UNL     1      -3.585  48.513 -25.130  1.00  0.00     0.111 C 
BRANCH  26  27
HETATM   27  C29 UNL     1      -3.936  48.454 -26.592  1.00  0.00     0.139 C 
HETATM   28  O2  UNL     1      -3.176  48.335 -27.538  1.00  0.00    -0.650 OA
BRANCH  27  29
HETATM   29  O3  UNL     1      -5.266  48.550 -26.793  1.00  0.00    -0.776 OA
HETATM   30  H46 UNL     1      -5.363  48.494 -27.766  1.00  0.00     0.167 HD
ENDBRANCH  27  29
ENDBRANCH  26  27
ENDBRANCH  25  26
ENDBRANCH  16  25
BRANCH   2  31
HETATM   31  O1  UNL     1      -5.740  52.526 -23.338  1.00  0.00    -0.395 OA
HETATM   32  H6  UNL     1      -5.788  52.972 -24.202  1.00  0.00     0.210 HD
ENDBRANCH   2  31
BRANCH   1  33
HETATM   33  C2  UNL     1      -3.669  52.221 -25.516  1.00  0.00    -0.029 C 
HETATM   34  C1  UNL     1      -2.835  51.971 -26.534  1.00  0.00     0.007 C 
ENDBRANCH   1  33
TORSDOF 10
ENDMDL
MODEL 6
REMARK minimizedAffinity -8.66960716
REMARK  10 active torsions:
REMARK  status: ('A' for Active; 'I' for Inactive)
REMARK    1  A    between atoms: C2_2  and  C3_3 
REMARK    2  A    between atoms: C4_4  and  O1_5 
REMARK    3  A    between atoms: C12_13  and  C13_14 
REMARK    4  A    between atoms: C13_14  and  C15_16 
REMARK    5  A    between atoms: C15_16  and  C16_17 
REMARK    6  A    between atoms: C16_17  and  C17_18 
REMARK    7  A    between atoms: C26_27  and  C27_28 
REMARK    8  A    between atoms: C27_28  and  C28_29 
REMARK    9  A    between atoms: C28_29  and  C29_30 
REMARK   10  A    between atoms: C29_30  and  O3_32 
ROOT
HETATM    1  C3  UNL     1      -0.583  52.348 -22.380  1.00  0.00     0.045 C 
HETATM    2  C4  UNL     1      -1.327  51.209 -21.643  1.00  0.00     0.127 C 
HETATM    3  C5  UNL     1      -2.713  50.984 -22.231  1.00  0.00     0.038 C 
HETATM    4  C6  UNL     1      -2.594  50.408 -23.644  1.00  0.00     0.006 C 
HETATM    5  C7  UNL     1      -1.791  51.353 -24.569  1.00  0.00    -0.027 A 
HETATM    6  C8  UNL     1      -2.482  51.788 -25.866  1.00  0.00     0.011 C 
HETATM    7  C9  UNL     1      -3.374  50.756 -26.581  1.00  0.00     0.011 C 
HETATM    8  C10 UNL     1      -3.730  49.517 -25.749  1.00  0.00    -0.032 C 
HETATM    9  C11 UNL     1      -2.581  48.477 -25.922  1.00  0.00     0.016 C 
HETATM   10  C12 UNL     1      -5.096  48.822 -26.073  1.00  0.00    -0.002 C 
HETATM   11  C21 UNL     1      -5.397  48.066 -24.752  1.00  0.00     0.006 C 
HETATM   12  C22 UNL     1      -4.552  48.703 -23.637  1.00  0.00     0.011 C 
HETATM   13  C23 UNL     1      -3.953  49.977 -24.261  1.00  0.00    -0.032 C 
HETATM   14  C24 UNL     1      -5.024  51.098 -24.076  1.00  0.00     0.016 C 
HETATM   15  C25 UNL     1      -0.304  51.071 -24.667  1.00  0.00     0.022 A 
HETATM   16  C26 UNL     1      -0.739  52.314 -23.921  1.00  0.00    -0.022 A 
ENDROOT
BRANCH  10  17
HETATM   17  C13 UNL     1      -5.239  47.920 -27.339  1.00  0.00    -0.014 C 
HETATM   18  C14 UNL     1      -4.735  48.637 -28.602  1.00  0.00     0.010 C 
BRANCH  17  19
HETATM   19  C15 UNL     1      -6.714  47.499 -27.602  1.00  0.00     0.008 C 
BRANCH  19  20
HETATM   20  C16 UNL     1      -6.978  46.947 -29.008  1.00  0.00     0.028 C 
BRANCH  20  21
HETATM   21  C17 UNL     1      -8.450  46.957 -29.330  1.00  0.00    -0.025 C 
HETATM   22  C18 UNL     1      -9.131  47.895 -30.016  1.00  0.00    -0.091 C 
HETATM   23  C19 UNL     1     -10.619  47.772 -30.216  1.00  0.00     0.042 C 
HETATM   24  C20 UNL     1      -8.518  49.114 -30.648  1.00  0.00     0.042 C 
ENDBRANCH  20  21
ENDBRANCH  19  20
ENDBRANCH  17  19
ENDBRANCH  10  17
BRANCH  16  25
HETATM   25  C27 UNL     1      -0.463  53.684 -24.567  1.00  0.00     0.021 C 
BRANCH  25  26
HETATM   26  C28 UNL     1       0.443  53.615 -25.798  1.00  0.00     0.111 C 
BRANCH  26  27
HETATM   27  C29 UNL     1      -0.055  54.518 -26.893  1.00  0.00     0.139 C 
HETATM   28  O2  UNL     1      -0.616  54.198 -27.926  1.00  0.00    -0.650 OA
BRANCH  27  29
HETATM   29  O3  UNL     1       0.185  55.817 -26.621  1.00  0.00    -0.776 OA
HETATM   30  H46 UNL     1      -0.184  56.293 -27.393  1.00  0.00     0.167 HD
ENDBRANCH  27  29
ENDBRANCH  26  27
ENDBRANCH  25  26
ENDBRANCH  16  25
BRANCH   2  31
HETATM   31  O1  UNL     1      -1.509  51.545 -20.260  1.00  0.00    -0.395 OA
HETATM   32  H6  UNL     1      -0.627  51.737 -19.895  1.00  0.00     0.210 HD
ENDBRANCH   2  31
BRANCH   1  33
HETATM   33  C2  UNL     1       0.870  52.363 -21.932  1.00  0.00    -0.029 C 
HETATM   34  C1  UNL     1       1.420  53.315 -21.167  1.00  0.00     0.007 C 
ENDBRANCH   1  33
TORSDOF 10
ENDMDL
MODEL 7
REMARK minimizedAffinity -8.50238514
REMARK  10 active torsions:
REMARK  status: ('A' for Active; 'I' for Inactive)
REMARK    1  A    between atoms: C2_2  and  C3_3 
REMARK    2  A    between atoms: C4_4  and  O1_5 
REMARK    3  A    between atoms: C12_13  and  C13_14 
REMARK    4  A    between atoms: C13_14  and  C15_16 
REMARK    5  A    between atoms: C15_16  and  C16_17 
REMARK    6  A    between atoms: C16_17  and  C17_18 
REMARK    7  A    between atoms: C26_27  and  C27_28 
REMARK    8  A    between atoms: C27_28  and  C28_29 
REMARK    9  A    between atoms: C28_29  and  C29_30 
REMARK   10  A    between atoms: C29_30  and  O3_32 
ROOT
HETATM    1  C3  UNL     1      -6.201  47.577 -24.054  1.00  0.00     0.045 C 
HETATM    2  C4  UNL     1      -6.208  47.434 -22.513  1.00  0.00     0.127 C 
HETATM    3  C5  UNL     1      -4.792  47.319 -21.965  1.00  0.00     0.038 C 
HETATM    4  C6  UNL     1      -4.051  48.645 -22.147  1.00  0.00     0.006 C 
HETATM    5  C7  UNL     1      -3.992  49.055 -23.637  1.00  0.00    -0.027 A 
HETATM    6  C8  UNL     1      -2.599  49.327 -24.216  1.00  0.00     0.011 C 
HETATM    7  C9  UNL     1      -1.565  50.005 -23.297  1.00  0.00     0.011 C 
HETATM    8  C10 UNL     1      -1.940  50.038 -21.810  1.00  0.00    -0.032 C 
HETATM    9  C11 UNL     1      -2.819  51.303 -21.565  1.00  0.00     0.016 C 
HETATM   10  C12 UNL     1      -0.753  50.041 -20.787  1.00  0.00    -0.002 C 
HETATM   11  C21 UNL     1      -1.429  49.489 -19.504  1.00  0.00     0.006 C 
HETATM   12  C22 UNL     1      -2.719  48.764 -19.922  1.00  0.00     0.011 C 
HETATM   13  C23 UNL     1      -2.659  48.685 -21.458  1.00  0.00    -0.032 C 
HETATM   14  C24 UNL     1      -1.839  47.400 -21.797  1.00  0.00     0.016 C 
HETATM   15  C25 UNL     1      -5.103  49.970 -24.114  1.00  0.00     0.022 A 
HETATM   16  C26 UNL     1      -5.114  48.536 -24.598  1.00  0.00    -0.022 A 
ENDROOT
BRANCH  10  17
HETATM   17  C13 UNL     1       0.065  51.346 -20.533  1.00  0.00    -0.014 C 
HETATM   18  C14 UNL     1      -0.263  51.959 -19.163  1.00  0.00     0.010 C 
BRANCH  17  19
HETATM   19  C15 UNL     1      -0.213  52.437 -21.608  1.00  0.00     0.008 C 
BRANCH  19  20
HETATM   20  C16 UNL     1       0.894  52.596 -22.657  1.00  0.00     0.028 C 
BRANCH  20  21
HETATM   21  C17 UNL     1       0.378  53.282 -23.894  1.00  0.00    -0.025 C 
HETATM   22  C18 UNL     1       0.566  52.910 -25.175  1.00  0.00    -0.091 C 
HETATM   23  C19 UNL     1       0.011  53.736 -26.305  1.00  0.00     0.042 C 
HETATM   24  C20 UNL     1       1.305  51.675 -25.614  1.00  0.00     0.042 C 
ENDBRANCH  20  21
ENDBRANCH  19  20
ENDBRANCH  17  19
ENDBRANCH  10  17
BRANCH  16  25
HETATM   25  C27 UNL     1      -4.782  48.266 -26.077  1.00  0.00     0.021 C 
BRANCH  25  26
HETATM   26  C28 UNL     1      -4.065  49.426 -26.771  1.00  0.00     0.111 C 
BRANCH  26  27
HETATM   27  C29 UNL     1      -3.919  49.171 -28.246  1.00  0.00     0.139 C 
HETATM   28  O2  UNL     1      -4.029  48.109 -28.834  1.00  0.00    -0.650 OA
BRANCH  27  29
HETATM   29  O3  UNL     1      -3.633  50.301 -28.925  1.00  0.00    -0.776 OA
HETATM   30  H46 UNL     1      -3.569  50.007 -29.857  1.00  0.00     0.167 HD
ENDBRANCH  27  29
ENDBRANCH  26  27
ENDBRANCH  25  26
ENDBRANCH  16  25
BRANCH   2  31
HETATM   31  O1  UNL     1      -6.906  46.242 -22.125  1.00  0.00    -0.395 OA
HETATM   32  H6  UNL     1      -7.796  46.293 -22.517  1.00  0.00     0.210 HD
ENDBRANCH   2  31
BRANCH   1  33
HETATM   33  C2  UNL     1      -7.601  47.941 -24.524  1.00  0.00    -0.029 C 
HETATM   34  C1  UNL     1      -8.385  47.146 -25.264  1.00  0.00     0.007 C 
ENDBRANCH   1  33
TORSDOF 10
ENDMDL
MODEL 8
REMARK minimizedAffinity -8.49013901
REMARK  10 active torsions:
REMARK  status: ('A' for Active; 'I' for Inactive)
REMARK    1  A    between atoms: C2_2  and  C3_3 
REMARK    2  A    between atoms: C4_4  and  O1_5 
REMARK    3  A    between atoms: C12_13  and  C13_14 
REMARK    4  A    between atoms: C13_14  and  C15_16 
REMARK    5  A    between atoms: C15_16  and  C16_17 
REMARK    6  A    between atoms: C16_17  and  C17_18 
REMARK    7  A    between atoms: C26_27  and  C27_28 
REMARK    8  A    between atoms: C27_28  and  C28_29 
REMARK    9  A    between atoms: C28_29  and  C29_30 
REMARK   10  A    between atoms: C29_30  and  O3_32 
ROOT
HETATM    1  C3  UNL     1      -3.674  49.442 -26.418  1.00  0.00     0.045 C 
HETATM    2  C4  UNL     1      -2.342  50.210 -26.588  1.00  0.00     0.127 C 
HETATM    3  C5  UNL     1      -2.181  51.279 -25.516  1.00  0.00     0.038 C 
HETATM    4  C6  UNL     1      -1.985  50.622 -24.147  1.00  0.00     0.006 C 
HETATM    5  C7  UNL     1      -3.180  49.709 -23.787  1.00  0.00    -0.027 A 
HETATM    6  C8  UNL     1      -3.879  49.995 -22.453  1.00  0.00     0.011 C 
HETATM    7  C9  UNL     1      -3.002  50.444 -21.269  1.00  0.00     0.011 C 
HETATM    8  C10 UNL     1      -1.575  50.865 -21.641  1.00  0.00    -0.032 C 
HETATM    9  C11 UNL     1      -0.687  49.583 -21.666  1.00  0.00     0.016 C 
HETATM   10  C12 UNL     1      -0.895  51.932 -20.717  1.00  0.00    -0.002 C 
HETATM   11  C21 UNL     1       0.185  52.534 -21.655  1.00  0.00     0.006 C 
HETATM   12  C22 UNL     1      -0.208  52.202 -23.104  1.00  0.00     0.011 C 
HETATM   13  C23 UNL     1      -1.633  51.626 -23.015  1.00  0.00    -0.032 C 
HETATM   14  C24 UNL     1      -2.600  52.852 -23.044  1.00  0.00     0.016 C 
HETATM   15  C25 UNL     1      -3.029  48.247 -24.161  1.00  0.00     0.022 A 
HETATM   16  C26 UNL     1      -4.015  49.080 -24.952  1.00  0.00    -0.022 A 
ENDROOT
BRANCH  10  17
HETATM   17  C13 UNL     1      -0.330  51.520 -19.321  1.00  0.00    -0.014 C 
HETATM   18  C14 UNL     1      -1.444  51.025 -18.386  1.00  0.00     0.010 C 
BRANCH  17  19
HETATM   19  C15 UNL     1       0.390  52.698 -18.602  1.00  0.00     0.008 C 
BRANCH  19  20
HETATM   20  C16 UNL     1       0.913  52.365 -17.200  1.00  0.00     0.028 C 
BRANCH  20  21
HETATM   21  C17 UNL     1       2.413  52.480 -17.136  1.00  0.00    -0.025 C 
HETATM   22  C18 UNL     1       3.209  52.219 -16.081  1.00  0.00    -0.091 C 
HETATM   23  C19 UNL     1       4.699  52.424 -16.174  1.00  0.00     0.042 C 
HETATM   24  C20 UNL     1       2.735  51.701 -14.751  1.00  0.00     0.042 C 
ENDBRANCH  20  21
ENDBRANCH  19  20
ENDBRANCH  17  19
ENDBRANCH  10  17
BRANCH  16  25
HETATM   25  C27 UNL     1      -5.518  48.813 -24.749  1.00  0.00     0.021 C 
BRANCH  25  26
HETATM   26  C28 UNL     1      -6.271  49.979 -24.106  1.00  0.00     0.111 C 
BRANCH  26  27
HETATM   27  C29 UNL     1      -7.663  49.573 -23.703  1.00  0.00     0.139 C 
HETATM   28  O2  UNL     1      -8.051  49.239 -22.597  1.00  0.00    -0.650 OA
BRANCH  27  29
HETATM   29  O3  UNL     1      -8.518  49.610 -24.745  1.00  0.00    -0.776 OA
HETATM   30  H46 UNL     1      -9.374  49.334 -24.358  1.00  0.00     0.167 HD
ENDBRANCH  27  29
ENDBRANCH  26  27
ENDBRANCH  25  26
ENDBRANCH  16  25
BRANCH   2  31
HETATM   31  O1  UNL     1      -2.309  50.880 -27.856  1.00  0.00    -0.395 OA
HETATM   32  H6  UNL     1      -2.461  50.204 -28.540  1.00  0.00     0.210 HD
ENDBRANCH   2  31
BRANCH   1  33
HETATM   33  C2  UNL     1      -3.671  48.234 -27.341  1.00  0.00    -0.029 C 
HETATM   34  C1  UNL     1      -4.565  48.019 -28.316  1.00  0.00     0.007 C 
ENDBRANCH   1  33
TORSDOF 10
ENDMDL
MODEL 9
REMARK minimizedAffinity -8.22542
REMARK  10 active torsions:
REMARK  status: ('A' for Active; 'I' for Inactive)
REMARK    1  A    between atoms: C2_2  and  C3_3 
REMARK    2  A    between atoms: C4_4  and  O1_5 
REMARK    3  A    between atoms: C12_13  and  C13_14 
REMARK    4  A    between atoms: C13_14  and  C15_16 
REMARK    5  A    between atoms: C15_16  and  C16_17 
REMARK    6  A    between atoms: C16_17  and  C17_18 
REMARK    7  A    between atoms: C26_27  and  C27_28 
REMARK    8  A    between atoms: C27_28  and  C28_29 
REMARK    9  A    between atoms: C28_29  and  C29_30 
REMARK   10  A    between atoms: C29_30  and  O3_32 
ROOT
HETATM    1  C3  UNL     1       0.780  51.990 -25.817  1.00  0.00     0.045 C 
HETATM    2  C4  UNL     1       0.765  52.164 -24.279  1.00  0.00     0.127 C 
HETATM    3  C5  UNL     1      -0.623  52.542 -23.782  1.00  0.00     0.038 C 
HETATM    4  C6  UNL     1      -1.585  51.365 -23.968  1.00  0.00     0.006 C 
HETATM    5  C7  UNL     1      -1.670  50.939 -25.452  1.00  0.00    -0.027 A 
HETATM    6  C8  UNL     1      -3.070  50.906 -26.073  1.00  0.00     0.011 C 
HETATM    7  C9  UNL     1      -4.237  50.445 -25.179  1.00  0.00     0.011 C 
HETATM    8  C10 UNL     1      -3.920  50.378 -23.680  1.00  0.00    -0.032 C 
HETATM    9  C11 UNL     1      -3.290  48.983 -23.384  1.00  0.00     0.016 C 
HETATM   10  C12 UNL     1      -5.119  50.611 -22.699  1.00  0.00    -0.002 C 
HETATM   11  C21 UNL     1      -4.395  51.062 -21.402  1.00  0.00     0.006 C 
HETATM   12  C22 UNL     1      -2.985  51.536 -21.788  1.00  0.00     0.011 C 
HETATM   13  C23 UNL     1      -2.982  51.590 -23.326  1.00  0.00    -0.032 C 
HETATM   14  C24 UNL     1      -3.548  52.992 -23.714  1.00  0.00     0.016 C 
HETATM   15  C25 UNL     1      -0.726  49.830 -25.875  1.00  0.00     0.022 A 
HETATM   16  C26 UNL     1      -0.443  51.227 -26.382  1.00  0.00    -0.022 A 
ENDROOT
BRANCH  10  17
HETATM   17  C13 UNL     1      -6.164  49.478 -22.452  1.00  0.00    -0.014 C 
HETATM   18  C14 UNL     1      -7.199  49.408 -23.586  1.00  0.00     0.010 C 
BRANCH  17  19
HETATM   19  C15 UNL     1      -6.948  49.675 -21.121  1.00  0.00     0.008 C 
BRANCH  19  20
HETATM   20  C16 UNL     1      -7.298  48.375 -20.388  1.00  0.00     0.028 C 
BRANCH  20  21
HETATM   21  C17 UNL     1      -8.789  48.175 -20.313  1.00  0.00    -0.025 C 
HETATM   22  C18 UNL     1      -9.588  48.367 -19.246  1.00  0.00    -0.091 C 
HETATM   23  C19 UNL     1     -11.064  48.080 -19.330  1.00  0.00     0.042 C 
HETATM   24  C20 UNL     1      -9.130  48.879 -17.909  1.00  0.00     0.042 C 
ENDBRANCH  20  21
ENDBRANCH  19  20
ENDBRANCH  17  19
ENDBRANCH  10  17
BRANCH  16  25
HETATM   25  C27 UNL     1      -0.677  51.519 -27.875  1.00  0.00     0.021 C 
BRANCH  25  26
HETATM   26  C28 UNL     1       0.020  52.787 -28.373  1.00  0.00     0.111 C 
BRANCH  26  27
HETATM   27  C29 UNL     1      -0.719  54.022 -27.935  1.00  0.00     0.139 C 
HETATM   28  O2  UNL     1      -0.295  54.946 -27.262  1.00  0.00    -0.650 OA
BRANCH  27  29
HETATM   29  O3  UNL     1      -1.992  54.030 -28.381  1.00  0.00    -0.776 OA
HETATM   30  H46 UNL     1      -2.357  54.872 -28.040  1.00  0.00     0.167 HD
ENDBRANCH  27  29
ENDBRANCH  26  27
ENDBRANCH  25  26
ENDBRANCH  16  25
BRANCH   2  31
HETATM   31  O1  UNL     1       1.652  53.220 -23.887  1.00  0.00    -0.395 OA
HETATM   32  H6  UNL     1       2.530  53.003 -24.247  1.00  0.00     0.210 HD
ENDBRANCH   2  31
BRANCH   1  33
HETATM   33  C2  UNL     1       2.106  51.372 -26.232  1.00  0.00    -0.029 C 
HETATM   34  C1  UNL     1       2.828  51.761 -27.291  1.00  0.00     0.007 C 
ENDBRANCH   1  33
TORSDOF 10
ENDMDL
