MODEL 1
REMARK minimizedAffinity -10.5271902
REMARK  7 active torsions:
REMARK  status: ('A' for Active; 'I' for Inactive)
REMARK    1  A    between atoms: C4_4  and  C5_5 
REMARK    2  A    between atoms: C15_15  and  C16_16 
REMARK    3  A    between atoms: C16_16  and  C18_18 
REMARK    4  A    between atoms: C18_18  and  C19_19 
REMARK    5  A    between atoms: C23_25  and  C24_26 
REMARK    6  A    between atoms: C27_29  and  O3_30 
REMARK    7  A    between atoms: C30_33  and  O4_34 
ROOT
HETATM    1  C5  UNL     1      -0.522  51.993 -18.469  1.00  0.00     0.004 C 
HETATM    2  C6  UNL     1      -0.509  52.188 -19.804  1.00  0.00    -0.075 C 
HETATM    3  C7  UNL     1       0.630  52.801 -20.604  1.00  0.00     0.034 C 
HETATM    4  C8  UNL     1       1.057  51.920 -21.785  1.00  0.00     0.005 C 
HETATM    5  C9  UNL     1      -0.129  51.483 -22.660  1.00  0.00     0.010 C 
HETATM    6  C10 UNL     1      -1.260  50.846 -21.833  1.00  0.00    -0.033 C 
HETATM    7  C11 UNL     1      -0.729  49.493 -21.261  1.00  0.00     0.016 C 
HETATM    8  C12 UNL     1      -1.677  51.825 -20.707  1.00  0.00     0.023 C 
HETATM    9  C13 UNL     1      -2.947  51.187 -20.145  1.00  0.00     0.010 C 
HETATM   10  C14 UNL     1      -3.662  50.611 -21.373  1.00  0.00     0.006 C 
HETATM   11  C15 UNL     1      -2.624  50.539 -22.536  1.00  0.00    -0.002 C 
ENDROOT
BRANCH   1  12
HETATM   12  C4  UNL     1       0.537  52.313 -17.533  1.00  0.00     0.008 C 
HETATM   13  C3  UNL     1       1.070  51.499 -16.598  1.00  0.00    -0.048 C 
HETATM   14  C2  UNL     1       2.149  51.974 -15.722  1.00  0.00    -0.032 C 
HETATM   15  C26 UNL     1       0.660  50.072 -16.291  1.00  0.00     0.071 C 
HETATM   16  C1  UNL     1       3.301  52.445 -16.233  1.00  0.00     0.022 C 
HETATM   17  C30 UNL     1       1.851  51.812 -14.237  1.00  0.00     0.157 C 
HETATM   18  C28 UNL     1       1.510  50.348 -13.904  1.00  0.00     0.044 C 
HETATM   19  C27 UNL     1       0.358  49.855 -14.797  1.00  0.00     0.129 C 
HETATM   20  C29 UNL     1       1.180  50.178 -12.417  1.00  0.00     0.015 C 
BRANCH  17  21
HETATM   21  O4  UNL     1       2.968  52.226 -13.448  1.00  0.00    -0.390 OA
HETATM   22  H44 UNL     1       3.030  53.190 -13.558  1.00  0.00     0.210 HD
ENDBRANCH  17  21
BRANCH  19  23
HETATM   23  O3  UNL     1      -0.856  50.519 -14.437  1.00  0.00    -0.395 OA
HETATM   24  H38 UNL     1      -1.534  50.286 -15.094  1.00  0.00     0.210 HD
ENDBRANCH  19  23
ENDBRANCH   1  12
BRANCH  11  25
HETATM   25  C16 UNL     1      -3.126  51.343 -23.776  1.00  0.00    -0.011 C 
HETATM   26  C17 UNL     1      -4.640  51.594 -23.819  1.00  0.00     0.010 C 
BRANCH  25  27
HETATM   27  C18 UNL     1      -2.382  52.669 -24.044  1.00  0.00     0.038 C 
BRANCH  27  28
HETATM   28  C19 UNL     1      -1.128  52.621 -24.934  1.00  0.00     0.141 C 
HETATM   29  O1  UNL     1      -0.801  53.997 -25.226  1.00  0.00    -0.311 OA
HETATM   30  C20 UNL     1      -0.274  54.111 -26.470  1.00  0.00     0.289 C 
HETATM   31  O2  UNL     1       0.222  55.115 -26.943  1.00  0.00    -0.260 OA
HETATM   32  C21 UNL     1      -0.427  52.799 -27.138  1.00  0.00     0.014 C 
HETATM   33  C22 UNL     1       0.233  52.537 -28.274  1.00  0.00     0.025 C 
HETATM   34  C23 UNL     1      -1.328  51.947 -26.299  1.00  0.00     0.053 C 
BRANCH  34  35
HETATM   35  C24 UNL     1      -1.008  50.445 -26.298  1.00  0.00     0.007 C 
HETATM   36  C25 UNL     1      -2.240  49.579 -26.541  1.00  0.00     0.006 C 
ENDBRANCH  34  35
ENDBRANCH  27  28
ENDBRANCH  25  27
ENDBRANCH  11  25
TORSDOF 7
ENDMDL
MODEL 2
REMARK minimizedAffinity -10.2936249
REMARK  7 active torsions:
REMARK  status: ('A' for Active; 'I' for Inactive)
REMARK    1  A    between atoms: C4_4  and  C5_5 
REMARK    2  A    between atoms: C15_15  and  C16_16 
REMARK    3  A    between atoms: C16_16  and  C18_18 
REMARK    4  A    between atoms: C18_18  and  C19_19 
REMARK    5  A    between atoms: C23_25  and  C24_26 
REMARK    6  A    between atoms: C27_29  and  O3_30 
REMARK    7  A    between atoms: C30_33  and  O4_34 
ROOT
HETATM    1  C5  UNL     1      -3.667  48.641 -24.226  1.00  0.00     0.004 C 
HETATM    2  C6  UNL     1      -3.062  49.835 -24.384  1.00  0.00    -0.075 C 
HETATM    3  C7  UNL     1      -3.292  50.806 -25.532  1.00  0.00     0.034 C 
HETATM    4  C8  UNL     1      -3.630  52.221 -25.046  1.00  0.00     0.005 C 
HETATM    5  C9  UNL     1      -2.628  52.746 -24.004  1.00  0.00     0.010 C 
HETATM    6  C10 UNL     1      -2.427  51.758 -22.840  1.00  0.00    -0.033 C 
HETATM    7  C11 UNL     1      -3.765  51.688 -22.037  1.00  0.00     0.016 C 
HETATM    8  C12 UNL     1      -2.024  50.376 -23.413  1.00  0.00     0.023 C 
HETATM    9  C13 UNL     1      -1.617  49.589 -22.168  1.00  0.00     0.010 C 
HETATM   10  C14 UNL     1      -0.911  50.619 -21.279  1.00  0.00     0.006 C 
HETATM   11  C15 UNL     1      -1.288  52.038 -21.804  1.00  0.00    -0.002 C 
ENDROOT
BRANCH   1  12
HETATM   12  C4  UNL     1      -4.658  48.045 -25.100  1.00  0.00     0.008 C 
HETATM   13  C3  UNL     1      -5.993  48.242 -25.071  1.00  0.00    -0.048 C 
HETATM   14  C2  UNL     1      -6.869  47.563 -26.034  1.00  0.00    -0.032 C 
HETATM   15  C26 UNL     1      -6.765  49.108 -24.094  1.00  0.00     0.071 C 
HETATM   16  C1  UNL     1      -6.691  47.712 -27.359  1.00  0.00     0.022 C 
HETATM   17  C30 UNL     1      -7.993  46.764 -25.385  1.00  0.00     0.157 C 
HETATM   18  C28 UNL     1      -8.831  47.657 -24.452  1.00  0.00     0.044 C 
HETATM   19  C27 UNL     1      -7.921  48.346 -23.419  1.00  0.00     0.129 C 
HETATM   20  C29 UNL     1      -9.947  46.857 -23.772  1.00  0.00     0.015 C 
BRANCH  17  21
HETATM   21  O4  UNL     1      -8.846  46.192 -26.379  1.00  0.00    -0.390 OA
HETATM   22  H44 UNL     1      -8.316  45.509 -26.824  1.00  0.00     0.210 HD
ENDBRANCH  17  21
BRANCH  19  23
HETATM   23  O3  UNL     1      -7.406  47.378 -22.502  1.00  0.00    -0.395 OA
HETATM   24  H38 UNL     1      -6.740  47.816 -21.943  1.00  0.00     0.210 HD
ENDBRANCH  19  23
ENDBRANCH   1  12
BRANCH  11  25
HETATM   25  C16 UNL     1      -0.007  52.852 -22.170  1.00  0.00    -0.011 C 
HETATM   26  C17 UNL     1       0.758  53.432 -20.972  1.00  0.00     0.010 C 
BRANCH  25  27
HETATM   27  C18 UNL     1       0.985  52.130 -23.107  1.00  0.00     0.038 C 
BRANCH  27  28
HETATM   28  C19 UNL     1       1.219  52.730 -24.504  1.00  0.00     0.141 C 
HETATM   29  O1  UNL     1       0.854  54.124 -24.398  1.00  0.00    -0.311 OA
HETATM   30  C20 UNL     1       0.313  54.567 -25.561  1.00  0.00     0.289 C 
HETATM   31  O2  UNL     1       0.039  55.722 -25.822  1.00  0.00    -0.260 OA
HETATM   32  C21 UNL     1       0.113  53.389 -26.434  1.00  0.00     0.014 C 
HETATM   33  C22 UNL     1      -0.160  53.550 -27.735  1.00  0.00     0.025 C 
HETATM   34  C23 UNL     1       0.329  52.155 -25.614  1.00  0.00     0.053 C 
BRANCH  34  35
HETATM   35  C24 UNL     1       0.959  50.967 -26.357  1.00  0.00     0.007 C 
HETATM   36  C25 UNL     1       2.456  51.143 -26.589  1.00  0.00     0.006 C 
ENDBRANCH  34  35
ENDBRANCH  27  28
ENDBRANCH  25  27
ENDBRANCH  11  25
TORSDOF 7
ENDMDL
MODEL 3
REMARK minimizedAffinity -9.96130657
REMARK  7 active torsions:
REMARK  status: ('A' for Active; 'I' for Inactive)
REMARK    1  A    between atoms: C4_4  and  C5_5 
REMARK    2  A    between atoms: C15_15  and  C16_16 
REMARK    3  A    between atoms: C16_16  and  C18_18 
REMARK    4  A    between atoms: C18_18  and  C19_19 
REMARK    5  A    between atoms: C23_25  and  C24_26 
REMARK    6  A    between atoms: C27_29  and  O3_30 
REMARK    7  A    between atoms: C30_33  and  O4_34 
ROOT
HETATM    1  C5  UNL     1      -4.543  48.288 -26.581  1.00  0.00     0.004 C 
HETATM    2  C6  UNL     1      -3.537  48.841 -25.874  1.00  0.00    -0.075 C 
HETATM    3  C7  UNL     1      -2.267  49.444 -26.455  1.00  0.00     0.034 C 
HETATM    4  C8  UNL     1      -2.007  50.868 -25.944  1.00  0.00     0.005 C 
HETATM    5  C9  UNL     1      -2.079  50.972 -24.412  1.00  0.00     0.010 C 
HETATM    6  C10 UNL     1      -3.382  50.376 -23.848  1.00  0.00    -0.033 C 
HETATM    7  C11 UNL     1      -4.564  51.282 -24.317  1.00  0.00     0.016 C 
HETATM    8  C12 UNL     1      -3.533  48.920 -24.356  1.00  0.00     0.023 C 
HETATM    9  C13 UNL     1      -4.703  48.385 -23.530  1.00  0.00     0.010 C 
HETATM   10  C14 UNL     1      -4.514  49.014 -22.145  1.00  0.00     0.006 C 
HETATM   11  C15 UNL     1      -3.523  50.209 -22.298  1.00  0.00    -0.002 C 
ENDROOT
BRANCH   1  12
HETATM   12  C4  UNL     1      -4.629  48.164 -28.022  1.00  0.00     0.008 C 
HETATM   13  C3  UNL     1      -5.738  47.935 -28.755  1.00  0.00    -0.048 C 
HETATM   14  C2  UNL     1      -5.661  47.839 -30.218  1.00  0.00    -0.032 C 
HETATM   15  C26 UNL     1      -7.147  47.724 -28.235  1.00  0.00     0.071 C 
HETATM   16  C1  UNL     1      -5.159  48.848 -30.954  1.00  0.00     0.022 C 
HETATM   17  C30 UNL     1      -6.250  46.552 -30.782  1.00  0.00     0.157 C 
HETATM   18  C28 UNL     1      -7.708  46.371 -30.321  1.00  0.00     0.044 C 
HETATM   19  C27 UNL     1      -7.791  46.438 -28.786  1.00  0.00     0.129 C 
HETATM   20  C29 UNL     1      -8.302  45.065 -30.859  1.00  0.00     0.015 C 
BRANCH  17  21
HETATM   21  O4  UNL     1      -6.206  46.558 -32.210  1.00  0.00    -0.390 OA
HETATM   22  H44 UNL     1      -5.266  46.494 -32.448  1.00  0.00     0.210 HD
ENDBRANCH  17  21
BRANCH  19  23
HETATM   23  O3  UNL     1      -7.165  45.287 -28.213  1.00  0.00    -0.395 OA
HETATM   24  H38 UNL     1      -7.120  45.416 -27.250  1.00  0.00     0.210 HD
ENDBRANCH  19  23
ENDBRANCH   1  12
BRANCH  11  25
HETATM   25  C16 UNL     1      -2.288  50.028 -21.361  1.00  0.00    -0.011 C 
HETATM   26  C17 UNL     1      -1.343  48.881 -21.745  1.00  0.00     0.010 C 
BRANCH  25  27
HETATM   27  C18 UNL     1      -1.462  51.306 -21.108  1.00  0.00     0.038 C 
BRANCH  27  28
HETATM   28  C19 UNL     1      -0.271  51.211 -20.138  1.00  0.00     0.141 C 
HETATM   29  O1  UNL     1      -0.664  50.256 -19.127  1.00  0.00    -0.311 OA
HETATM   30  C20 UNL     1      -0.137  50.590 -17.923  1.00  0.00     0.289 C 
HETATM   31  O2  UNL     1      -0.176  49.909 -16.916  1.00  0.00    -0.260 OA
HETATM   32  C21 UNL     1       0.476  51.930 -18.063  1.00  0.00     0.014 C 
HETATM   33  C22 UNL     1       1.296  52.401 -17.114  1.00  0.00     0.025 C 
HETATM   34  C23 UNL     1       0.052  52.505 -19.378  1.00  0.00     0.053 C 
BRANCH  34  35
HETATM   35  C24 UNL     1       1.092  53.390 -20.081  1.00  0.00     0.007 C 
HETATM   36  C25 UNL     1       1.021  53.291 -21.602  1.00  0.00     0.006 C 
ENDBRANCH  34  35
ENDBRANCH  27  28
ENDBRANCH  25  27
ENDBRANCH  11  25
TORSDOF 7
ENDMDL
MODEL 4
REMARK minimizedAffinity -9.93391895
REMARK  7 active torsions:
REMARK  status: ('A' for Active; 'I' for Inactive)
REMARK    1  A    between atoms: C4_4  and  C5_5 
REMARK    2  A    between atoms: C15_15  and  C16_16 
REMARK    3  A    between atoms: C16_16  and  C18_18 
REMARK    4  A    between atoms: C18_18  and  C19_19 
REMARK    5  A    between atoms: C23_25  and  C24_26 
REMARK    6  A    between atoms: C27_29  and  O3_30 
REMARK    7  A    between atoms: C30_33  and  O4_34 
ROOT
HETATM    1  C5  UNL     1       0.091  52.095 -18.117  1.00  0.00     0.004 C 
HETATM    2  C6  UNL     1       0.149  52.588 -19.371  1.00  0.00    -0.075 C 
HETATM    3  C7  UNL     1       1.257  53.464 -19.934  1.00  0.00     0.034 C 
HETATM    4  C8  UNL     1       1.829  52.915 -21.247  1.00  0.00     0.005 C 
HETATM    5  C9  UNL     1       0.738  52.585 -22.279  1.00  0.00     0.010 C 
HETATM    6  C10 UNL     1      -0.362  51.680 -21.695  1.00  0.00    -0.033 C 
HETATM    7  C11 UNL     1       0.276  50.284 -21.399  1.00  0.00     0.016 C 
HETATM    8  C12 UNL     1      -0.930  52.338 -20.412  1.00  0.00     0.023 C 
HETATM    9  C13 UNL     1      -2.155  51.479 -20.096  1.00  0.00     0.010 C 
HETATM   10  C14 UNL     1      -2.746  51.136 -21.468  1.00  0.00     0.006 C 
HETATM   11  C15 UNL     1      -1.652  51.421 -22.542  1.00  0.00    -0.002 C 
ENDROOT
BRANCH   1  12
HETATM   12  C4  UNL     1       1.065  52.287 -17.062  1.00  0.00     0.008 C 
HETATM   13  C3  UNL     1       1.368  51.426 -16.067  1.00  0.00    -0.048 C 
HETATM   14  C2  UNL     1       2.390  51.767 -15.069  1.00  0.00    -0.032 C 
HETATM   15  C26 UNL     1       0.734  50.073 -15.808  1.00  0.00     0.071 C 
HETATM   16  C1  UNL     1       3.647  52.069 -15.439  1.00  0.00     0.022 C 
HETATM   17  C30 UNL     1       1.898  51.675 -13.630  1.00  0.00     0.157 C 
HETATM   18  C28 UNL     1       1.324  50.277 -13.336  1.00  0.00     0.044 C 
HETATM   19  C27 UNL     1       0.229  49.927 -14.360  1.00  0.00     0.129 C 
HETATM   20  C29 UNL     1       0.800  50.181 -11.899  1.00  0.00     0.015 C 
BRANCH  17  21
HETATM   21  O4  UNL     1       2.960  51.949 -12.713  1.00  0.00    -0.390 OA
HETATM   22  H44 UNL     1       3.165  52.894 -12.818  1.00  0.00     0.210 HD
ENDBRANCH  17  21
BRANCH  19  23
HETATM   23  O3  UNL     1      -0.917  50.756 -14.150  1.00  0.00    -0.395 OA
HETATM   24  H38 UNL     1      -1.538  50.604 -14.883  1.00  0.00     0.210 HD
ENDBRANCH  19  23
ENDBRANCH   1  12
BRANCH  11  25
HETATM   25  C16 UNL     1      -2.172  52.438 -23.605  1.00  0.00    -0.011 C 
HETATM   26  C17 UNL     1      -1.079  53.116 -24.444  1.00  0.00     0.010 C 
BRANCH  25  27
HETATM   27  C18 UNL     1      -3.275  51.903 -24.543  1.00  0.00     0.038 C 
BRANCH  27  28
HETATM   28  C19 UNL     1      -2.910  50.752 -25.496  1.00  0.00     0.141 C 
HETATM   29  O1  UNL     1      -2.933  51.319 -26.824  1.00  0.00    -0.311 OA
HETATM   30  C20 UNL     1      -3.357  50.403 -27.729  1.00  0.00     0.289 C 
HETATM   31  O2  UNL     1      -3.350  50.541 -28.937  1.00  0.00    -0.260 OA
HETATM   32  C21 UNL     1      -3.834  49.222 -26.975  1.00  0.00     0.014 C 
HETATM   33  C22 UNL     1      -4.065  48.064 -27.608  1.00  0.00     0.025 C 
HETATM   34  C23 UNL     1      -3.915  49.592 -25.527  1.00  0.00     0.053 C 
BRANCH  34  35
HETATM   35  C24 UNL     1      -3.588  48.464 -24.536  1.00  0.00     0.007 C 
HETATM   36  C25 UNL     1      -4.494  48.475 -23.309  1.00  0.00     0.006 C 
ENDBRANCH  34  35
ENDBRANCH  27  28
ENDBRANCH  25  27
ENDBRANCH  11  25
TORSDOF 7
ENDMDL
MODEL 5
REMARK minimizedAffinity -9.89126492
REMARK  7 active torsions:
REMARK  status: ('A' for Active; 'I' for Inactive)
REMARK    1  A    between atoms: C4_4  and  C5_5 
REMARK    2  A    between atoms: C15_15  and  C16_16 
REMARK    3  A    between atoms: C16_16  and  C18_18 
REMARK    4  A    between atoms: C18_18  and  C19_19 
REMARK    5  A    between atoms: C23_25  and  C24_26 
REMARK    6  A    between atoms: C27_29  and  O3_30 
REMARK    7  A    between atoms: C30_33  and  O4_34 
ROOT
HETATM    1  C5  UNL     1      -2.641  51.276 -23.776  1.00  0.00     0.004 C 
HETATM    2  C6  UNL     1      -3.095  51.144 -25.039  1.00  0.00    -0.075 C 
HETATM    3  C7  UNL     1      -2.678  51.993 -26.230  1.00  0.00     0.034 C 
HETATM    4  C8  UNL     1      -2.217  51.145 -27.422  1.00  0.00     0.005 C 
HETATM    5  C9  UNL     1      -3.223  50.042 -27.791  1.00  0.00     0.010 C 
HETATM    6  C10 UNL     1      -3.615  49.181 -26.576  1.00  0.00    -0.033 C 
HETATM    7  C11 UNL     1      -2.352  48.373 -26.137  1.00  0.00     0.016 C 
HETATM    8  C12 UNL     1      -4.130  50.107 -25.446  1.00  0.00     0.023 C 
HETATM    9  C13 UNL     1      -4.709  49.123 -24.429  1.00  0.00     0.010 C 
HETATM   10  C14 UNL     1      -5.355  48.026 -25.283  1.00  0.00     0.006 C 
HETATM   11  C15 UNL     1      -4.783  48.152 -26.729  1.00  0.00    -0.002 C 
ENDROOT
BRANCH   1  12
HETATM   12  C4  UNL     1      -1.666  52.236 -23.299  1.00  0.00     0.008 C 
HETATM   13  C3  UNL     1      -0.713  52.032 -22.365  1.00  0.00    -0.048 C 
HETATM   14  C2  UNL     1       0.208  53.112 -21.990  1.00  0.00    -0.032 C 
HETATM   15  C26 UNL     1      -0.465  50.760 -21.579  1.00  0.00     0.071 C 
HETATM   16  C1  UNL     1       0.980  53.717 -22.911  1.00  0.00     0.022 C 
HETATM   17  C30 UNL     1       0.236  53.405 -20.496  1.00  0.00     0.157 C 
HETATM   18  C28 UNL     1       0.566  52.133 -19.694  1.00  0.00     0.044 C 
HETATM   19  C27 UNL     1      -0.418  51.007 -20.059  1.00  0.00     0.129 C 
HETATM   20  C29 UNL     1       0.568  52.409 -18.187  1.00  0.00     0.015 C 
BRANCH  17  21
HETATM   21  O4  UNL     1       1.203  54.414 -20.195  1.00  0.00    -0.390 OA
HETATM   22  H44 UNL     1       0.857  55.238 -20.577  1.00  0.00     0.210 HD
ENDBRANCH  17  21
BRANCH  19  23
HETATM   23  O3  UNL     1      -1.723  51.322 -19.569  1.00  0.00    -0.395 OA
HETATM   24  H38 UNL     1      -2.346  50.662 -19.920  1.00  0.00     0.210 HD
ENDBRANCH  19  23
ENDBRANCH   1  12
BRANCH  11  25
HETATM   25  C16 UNL     1      -5.936  48.344 -27.765  1.00  0.00    -0.011 C 
HETATM   26  C17 UNL     1      -5.548  48.076 -29.226  1.00  0.00     0.010 C 
BRANCH  25  27
HETATM   27  C18 UNL     1      -7.244  47.592 -27.439  1.00  0.00     0.038 C 
BRANCH  27  28
HETATM   28  C19 UNL     1      -8.572  48.254 -27.846  1.00  0.00     0.141 C 
HETATM   29  O1  UNL     1      -9.372  48.302 -26.644  1.00  0.00    -0.311 OA
HETATM   30  C20 UNL     1     -10.687  48.148 -26.936  1.00  0.00     0.289 C 
HETATM   31  O2  UNL     1     -11.609  48.280 -26.155  1.00  0.00    -0.260 OA
HETATM   32  C21 UNL     1     -10.783  47.779 -28.367  1.00  0.00     0.014 C 
HETATM   33  C22 UNL     1     -11.964  47.818 -28.997  1.00  0.00     0.025 C 
HETATM   34  C23 UNL     1      -9.406  47.461 -28.862  1.00  0.00     0.053 C 
BRANCH  34  35
HETATM   35  C24 UNL     1      -9.124  47.843 -30.324  1.00  0.00     0.007 C 
HETATM   36  C25 UNL     1      -8.834  49.330 -30.500  1.00  0.00     0.006 C 
ENDBRANCH  34  35
ENDBRANCH  27  28
ENDBRANCH  25  27
ENDBRANCH  11  25
TORSDOF 7
ENDMDL
MODEL 6
REMARK minimizedAffinity -9.83672619
REMARK  7 active torsions:
REMARK  status: ('A' for Active; 'I' for Inactive)
REMARK    1  A    between atoms: C4_4  and  C5_5 
REMARK    2  A    between atoms: C15_15  and  C16_16 
REMARK    3  A    between atoms: C16_16  and  C18_18 
REMARK    4  A    between atoms: C18_18  and  C19_19 
REMARK    5  A    between atoms: C23_25  and  C24_26 
REMARK    6  A    between atoms: C27_29  and  O3_30 
REMARK    7  A    between atoms: C30_33  and  O4_34 
ROOT
HETATM    1  C5  UNL     1      -2.450  50.776 -17.923  1.00  0.00     0.004 C 
HETATM    2  C6  UNL     1      -1.802  51.472 -18.879  1.00  0.00    -0.075 C 
HETATM    3  C7  UNL     1      -0.743  52.537 -18.643  1.00  0.00     0.034 C 
HETATM    4  C8  UNL     1       0.543  52.273 -19.438  1.00  0.00     0.005 C 
HETATM    5  C9  UNL     1       0.275  52.008 -20.929  1.00  0.00     0.010 C 
HETATM    6  C10 UNL     1      -0.783  50.911 -21.145  1.00  0.00    -0.033 C 
HETATM    7  C11 UNL     1      -0.177  49.559 -20.651  1.00  0.00     0.016 C 
HETATM    8  C12 UNL     1      -2.068  51.288 -20.365  1.00  0.00     0.023 C 
HETATM    9  C13 UNL     1      -3.090  50.269 -20.868  1.00  0.00     0.010 C 
HETATM   10  C14 UNL     1      -2.760  50.097 -22.355  1.00  0.00     0.006 C 
HETATM   11  C15 UNL     1      -1.327  50.665 -22.592  1.00  0.00    -0.002 C 
ENDROOT
BRANCH   1  12
HETATM   12  C4  UNL     1      -2.267  50.890 -16.490  1.00  0.00     0.008 C 
HETATM   13  C3  UNL     1      -1.213  50.457 -15.767  1.00  0.00    -0.048 C 
HETATM   14  C2  UNL     1      -1.174  50.652 -14.312  1.00  0.00    -0.032 C 
HETATM   15  C26 UNL     1       0.008  49.721 -16.286  1.00  0.00     0.071 C 
HETATM   16  C1  UNL     1      -1.272  51.881 -13.774  1.00  0.00     0.022 C 
HETATM   17  C30 UNL     1      -0.951  49.367 -13.525  1.00  0.00     0.157 C 
HETATM   18  C28 UNL     1       0.331  48.654 -13.993  1.00  0.00     0.044 C 
HETATM   19  C27 UNL     1       0.282  48.417 -15.513  1.00  0.00     0.129 C 
HETATM   20  C29 UNL     1       0.551  47.345 -13.228  1.00  0.00     0.015 C 
BRANCH  17  21
HETATM   21  O4  UNL     1      -0.852  49.640 -12.126  1.00  0.00    -0.390 OA
HETATM   22  H44 UNL     1      -1.740  49.921 -11.846  1.00  0.00     0.210 HD
ENDBRANCH  17  21
BRANCH  19  23
HETATM   23  O3  UNL     1      -0.716  47.441 -15.822  1.00  0.00    -0.395 OA
HETATM   24  H38 UNL     1      -0.814  47.404 -16.789  1.00  0.00     0.210 HD
ENDBRANCH  19  23
ENDBRANCH   1  12
BRANCH  11  25
HETATM   25  C16 UNL     1      -1.348  51.786 -23.679  1.00  0.00    -0.011 C 
HETATM   26  C17 UNL     1      -2.630  52.630 -23.717  1.00  0.00     0.010 C 
BRANCH  25  27
HETATM   27  C18 UNL     1      -0.121  52.722 -23.682  1.00  0.00     0.038 C 
BRANCH  27  28
HETATM   28  C19 UNL     1       0.536  53.040 -25.036  1.00  0.00     0.141 C 
HETATM   29  O1  UNL     1       0.115  54.381 -25.372  1.00  0.00    -0.311 OA
HETATM   30  C20 UNL     1      -0.032  54.515 -26.713  1.00  0.00     0.289 C 
HETATM   31  O2  UNL     1      -0.240  55.557 -27.304  1.00  0.00    -0.260 OA
HETATM   32  C21 UNL     1       0.097  53.167 -27.311  1.00  0.00     0.014 C 
HETATM   33  C22 UNL     1       0.256  53.027 -28.633  1.00  0.00     0.025 C 
HETATM   34  C23 UNL     1       0.071  52.159 -26.205  1.00  0.00     0.053 C 
BRANCH  34  35
HETATM   35  C24 UNL     1       0.943  50.913 -26.423  1.00  0.00     0.007 C 
HETATM   36  C25 UNL     1       2.436  51.219 -26.364  1.00  0.00     0.006 C 
ENDBRANCH  34  35
ENDBRANCH  27  28
ENDBRANCH  25  27
ENDBRANCH  11  25
TORSDOF 7
ENDMDL
MODEL 7
REMARK minimizedAffinity -9.80603409
REMARK  7 active torsions:
REMARK  status: ('A' for Active; 'I' for Inactive)
REMARK    1  A    between atoms: C4_4  and  C5_5 
REMARK    2  A    between atoms: C15_15  and  C16_16 
REMARK    3  A    between atoms: C16_16  and  C18_18 
REMARK    4  A    between atoms: C18_18  and  C19_19 
REMARK    5  A    between atoms: C23_25  and  C24_26 
REMARK    6  A    between atoms: C27_29  and  O3_30 
REMARK    7  A    between atoms: C30_33  and  O4_34 
ROOT
HETATM    1  C5  UNL     1      -5.425  48.051 -26.870  1.00  0.00     0.004 C 
HETATM    2  C6  UNL     1      -4.257  48.292 -26.239  1.00  0.00    -0.075 C 
HETATM    3  C7  UNL     1      -2.897  48.430 -26.905  1.00  0.00     0.034 C 
HETATM    4  C8  UNL     1      -2.175  49.722 -26.500  1.00  0.00     0.005 C 
HETATM    5  C9  UNL     1      -2.124  49.923 -24.977  1.00  0.00     0.010 C 
HETATM    6  C10 UNL     1      -3.515  49.800 -24.326  1.00  0.00    -0.033 C 
HETATM    7  C11 UNL     1      -4.377  51.009 -24.812  1.00  0.00     0.016 C 
HETATM    8  C12 UNL     1      -4.144  48.443 -24.730  1.00  0.00     0.023 C 
HETATM    9  C13 UNL     1      -5.375  48.350 -23.829  1.00  0.00     0.010 C 
HETATM   10  C14 UNL     1      -4.921  48.958 -22.497  1.00  0.00     0.006 C 
HETATM   11  C15 UNL     1      -3.615  49.767 -22.765  1.00  0.00    -0.002 C 
ENDROOT
BRANCH   1  12
HETATM   12  C4  UNL     1      -5.625  47.886 -28.295  1.00  0.00     0.008 C 
HETATM   13  C3  UNL     1      -6.653  47.260 -28.906  1.00  0.00    -0.048 C 
HETATM   14  C2  UNL     1      -6.715  47.180 -30.371  1.00  0.00    -0.032 C 
HETATM   15  C26 UNL     1      -7.819  46.557 -28.237  1.00  0.00     0.071 C 
HETATM   16  C1  UNL     1      -6.702  48.292 -31.127  1.00  0.00     0.022 C 
HETATM   17  C30 UNL     1      -6.859  45.760 -30.903  1.00  0.00     0.157 C 
HETATM   18  C28 UNL     1      -8.088  45.066 -30.288  1.00  0.00     0.044 C 
HETATM   19  C27 UNL     1      -8.012  45.118 -28.751  1.00  0.00     0.129 C 
HETATM   20  C29 UNL     1      -8.226  43.627 -30.794  1.00  0.00     0.015 C 
BRANCH  17  21
HETATM   21  O4  UNL     1      -6.985  45.763 -32.327  1.00  0.00    -0.390 OA
HETATM   22  H44 UNL     1      -6.120  46.043 -32.671  1.00  0.00     0.210 HD
ENDBRANCH  17  21
BRANCH  19  23
HETATM   23  O3  UNL     1      -6.949  44.281 -28.288  1.00  0.00    -0.395 OA
HETATM   24  H38 UNL     1      -6.843  44.430 -27.332  1.00  0.00     0.210 HD
ENDBRANCH  19  23
ENDBRANCH   1  12
BRANCH  11  25
HETATM   25  C16 UNL     1      -2.449  49.252 -21.863  1.00  0.00    -0.011 C 
HETATM   26  C17 UNL     1      -2.327  47.725 -21.768  1.00  0.00     0.010 C 
BRANCH  25  27
HETATM   27  C18 UNL     1      -1.063  49.855 -22.173  1.00  0.00     0.038 C 
BRANCH  27  28
HETATM   28  C19 UNL     1      -0.804  51.312 -21.752  1.00  0.00     0.141 C 
HETATM   29  O1  UNL     1      -0.349  51.991 -22.944  1.00  0.00    -0.311 OA
HETATM   30  C20 UNL     1       0.557  52.950 -22.633  1.00  0.00     0.289 C 
HETATM   31  O2  UNL     1       1.012  53.774 -23.403  1.00  0.00    -0.260 OA
HETATM   32  C21 UNL     1       0.892  52.797 -21.200  1.00  0.00     0.014 C 
HETATM   33  C22 UNL     1       1.558  53.762 -20.553  1.00  0.00     0.025 C 
HETATM   34  C23 UNL     1       0.317  51.500 -20.720  1.00  0.00     0.053 C 
BRANCH  34  35
HETATM   35  C24 UNL     1      -0.176  51.491 -19.265  1.00  0.00     0.007 C 
HETATM   36  C25 UNL     1      -0.570  52.878 -18.767  1.00  0.00     0.006 C 
ENDBRANCH  34  35
ENDBRANCH  27  28
ENDBRANCH  25  27
ENDBRANCH  11  25
TORSDOF 7
ENDMDL
MODEL 8
REMARK minimizedAffinity -9.6685009
REMARK  7 active torsions:
REMARK  status: ('A' for Active; 'I' for Inactive)
REMARK    1  A    between atoms: C4_4  and  C5_5 
REMARK    2  A    between atoms: C15_15  and  C16_16 
REMARK    3  A    between atoms: C16_16  and  C18_18 
REMARK    4  A    between atoms: C18_18  and  C19_19 
REMARK    5  A    between atoms: C23_25  and  C24_26 
REMARK    6  A    between atoms: C27_29  and  O3_30 
REMARK    7  A    between atoms: C30_33  and  O4_34 
ROOT
HETATM    1  C5  UNL     1      -4.111  48.421 -22.867  1.00  0.00     0.004 C 
HETATM    2  C6  UNL     1      -3.546  49.575 -23.276  1.00  0.00    -0.075 C 
HETATM    3  C7  UNL     1      -4.060  50.474 -24.390  1.00  0.00     0.034 C 
HETATM    4  C8  UNL     1      -4.219  51.932 -23.940  1.00  0.00     0.005 C 
HETATM    5  C9  UNL     1      -2.958  52.483 -23.255  1.00  0.00     0.010 C 
HETATM    6  C10 UNL     1      -2.467  51.569 -22.116  1.00  0.00    -0.033 C 
HETATM    7  C11 UNL     1      -3.534  51.611 -20.977  1.00  0.00     0.016 C 
HETATM    8  C12 UNL     1      -2.269  50.135 -22.669  1.00  0.00     0.023 C 
HETATM    9  C13 UNL     1      -1.553  49.418 -21.525  1.00  0.00     0.010 C 
HETATM   10  C14 UNL     1      -0.607  50.475 -20.944  1.00  0.00     0.006 C 
HETATM   11  C15 UNL     1      -1.081  51.870 -21.455  1.00  0.00    -0.002 C 
ENDROOT
BRANCH   1  12
HETATM   12  C4  UNL     1      -5.317  47.810 -23.390  1.00  0.00     0.008 C 
HETATM   13  C3  UNL     1      -6.224  47.083 -22.705  1.00  0.00    -0.048 C 
HETATM   14  C2  UNL     1      -7.405  46.531 -23.381  1.00  0.00    -0.032 C 
HETATM   15  C26 UNL     1      -6.172  46.712 -21.235  1.00  0.00     0.071 C 
HETATM   16  C1  UNL     1      -8.267  47.331 -24.035  1.00  0.00     0.022 C 
HETATM   17  C30 UNL     1      -7.567  45.027 -23.205  1.00  0.00     0.157 C 
HETATM   18  C28 UNL     1      -7.594  44.650 -21.713  1.00  0.00     0.044 C 
HETATM   19  C27 UNL     1      -6.342  45.198 -21.005  1.00  0.00     0.129 C 
HETATM   20  C29 UNL     1      -7.728  43.135 -21.524  1.00  0.00     0.015 C 
BRANCH  17  21
HETATM   21  O4  UNL     1      -8.770  44.571 -23.827  1.00  0.00    -0.390 OA
HETATM   22  H44 UNL     1      -8.629  44.669 -24.784  1.00  0.00     0.210 HD
ENDBRANCH  17  21
BRANCH  19  23
HETATM   23  O3  UNL     1      -5.181  44.496 -21.455  1.00  0.00    -0.395 OA
HETATM   24  H38 UNL     1      -4.397  44.943 -21.091  1.00  0.00     0.210 HD
ENDBRANCH  19  23
ENDBRANCH   1  12
BRANCH  11  25
HETATM   25  C16 UNL     1       0.068  52.601 -22.217  1.00  0.00    -0.011 C 
HETATM   26  C17 UNL     1       1.180  53.170 -21.324  1.00  0.00     0.010 C 
BRANCH  25  27
HETATM   27  C18 UNL     1       0.703  51.800 -23.373  1.00  0.00     0.038 C 
BRANCH  27  28
HETATM   28  C19 UNL     1       1.016  52.551 -24.679  1.00  0.00     0.141 C 
HETATM   29  O1  UNL     1       0.741  53.943 -24.407  1.00  0.00    -0.311 OA
HETATM   30  C20 UNL     1       0.265  54.562 -25.515  1.00  0.00     0.289 C 
HETATM   31  O2  UNL     1       0.075  55.757 -25.635  1.00  0.00    -0.260 OA
HETATM   32  C21 UNL     1       0.012  53.518 -26.534  1.00  0.00     0.014 C 
HETATM   33  C22 UNL     1      -0.213  53.858 -27.809  1.00  0.00     0.025 C 
HETATM   34  C23 UNL     1       0.121  52.180 -25.870  1.00  0.00     0.053 C 
BRANCH  34  35
HETATM   35  C24 UNL     1       0.692  51.053 -26.744  1.00  0.00     0.007 C 
HETATM   36  C25 UNL     1       2.215  51.085 -26.829  1.00  0.00     0.006 C 
ENDBRANCH  34  35
ENDBRANCH  27  28
ENDBRANCH  25  27
ENDBRANCH  11  25
TORSDOF 7
ENDMDL
MODEL 9
REMARK minimizedAffinity -9.6558094
REMARK  7 active torsions:
REMARK  status: ('A' for Active; 'I' for Inactive)
REMARK    1  A    between atoms: C4_4  and  C5_5 
REMARK    2  A    between atoms: C15_15  and  C16_16 
REMARK    3  A    between atoms: C16_16  and  C18_18 
REMARK    4  A    between atoms: C18_18  and  C19_19 
REMARK    5  A    between atoms: C23_25  and  C24_26 
REMARK    6  A    between atoms: C27_29  and  O3_30 
REMARK    7  A    between atoms: C30_33  and  O4_34 
ROOT
HETATM    1  C5  UNL     1      -0.918  50.047 -19.235  1.00  0.00     0.004 C 
HETATM    2  C6  UNL     1      -1.052  49.526 -20.471  1.00  0.00    -0.075 C 
HETATM    3  C7  UNL     1      -0.746  48.092 -20.872  1.00  0.00     0.034 C 
HETATM    4  C8  UNL     1      -1.917  47.425 -21.605  1.00  0.00     0.005 C 
HETATM    5  C9  UNL     1      -2.451  48.275 -22.769  1.00  0.00     0.010 C 
HETATM    6  C10 UNL     1      -2.775  49.717 -22.336  1.00  0.00    -0.033 C 
HETATM    7  C11 UNL     1      -3.990  49.660 -21.356  1.00  0.00     0.016 C 
HETATM    8  C12 UNL     1      -1.523  50.338 -21.668  1.00  0.00     0.023 C 
HETATM    9  C13 UNL     1      -1.900  51.812 -21.528  1.00  0.00     0.010 C 
HETATM   10  C14 UNL     1      -2.693  52.127 -22.802  1.00  0.00     0.006 C 
HETATM   11  C15 UNL     1      -3.128  50.771 -23.437  1.00  0.00    -0.002 C 
ENDROOT
BRANCH   1  12
HETATM   12  C4  UNL     1      -0.472  49.354 -18.043  1.00  0.00     0.008 C 
HETATM   13  C3  UNL     1      -0.221  49.896 -16.833  1.00  0.00    -0.048 C 
HETATM   14  C2  UNL     1       0.225  49.053 -15.715  1.00  0.00    -0.032 C 
HETATM   15  C26 UNL     1      -0.318  51.360 -16.451  1.00  0.00     0.071 C 
HETATM   16  C1  UNL     1      -0.510  48.007 -15.299  1.00  0.00     0.022 C 
HETATM   17  C30 UNL     1       1.522  49.524 -15.070  1.00  0.00     0.157 C 
HETATM   18  C28 UNL     1       1.404  50.989 -14.609  1.00  0.00     0.044 C 
HETATM   19  C27 UNL     1       0.968  51.881 -15.784  1.00  0.00     0.129 C 
HETATM   20  C29 UNL     1       2.713  51.482 -13.984  1.00  0.00     0.015 C 
BRANCH  17  21
HETATM   21  O4  UNL     1       1.858  48.704 -13.949  1.00  0.00    -0.390 OA
HETATM   22  H44 UNL     1       2.094  47.835 -14.316  1.00  0.00     0.210 HD
ENDBRANCH  17  21
BRANCH  19  23
HETATM   23  O3  UNL     1       2.023  51.970 -16.746  1.00  0.00    -0.395 OA
HETATM   24  H38 UNL     1       1.679  52.431 -17.530  1.00  0.00     0.210 HD
ENDBRANCH  19  23
ENDBRANCH   1  12
BRANCH  11  25
HETATM   25  C16 UNL     1      -2.606  50.655 -24.904  1.00  0.00    -0.011 C 
HETATM   26  C17 UNL     1      -3.410  49.707 -25.806  1.00  0.00     0.010 C 
BRANCH  25  27
HETATM   27  C18 UNL     1      -2.396  51.998 -25.635  1.00  0.00     0.038 C 
BRANCH  27  28
HETATM   28  C19 UNL     1      -0.959  52.384 -26.027  1.00  0.00     0.141 C 
HETATM   29  O1  UNL     1      -0.841  52.083 -27.435  1.00  0.00    -0.311 OA
HETATM   30  C20 UNL     1       0.415  51.670 -27.734  1.00  0.00     0.289 C 
HETATM   31  O2  UNL     1       0.854  51.479 -28.851  1.00  0.00    -0.260 OA
HETATM   32  C21 UNL     1       1.138  51.487 -26.455  1.00  0.00     0.014 C 
HETATM   33  C22 UNL     1       2.469  51.338 -26.445  1.00  0.00     0.025 C 
HETATM   34  C23 UNL     1       0.143  51.566 -25.339  1.00  0.00     0.053 C 
BRANCH  34  35
HETATM   35  C24 UNL     1       0.657  52.197 -24.036  1.00  0.00     0.007 C 
HETATM   36  C25 UNL     1       0.685  53.721 -24.088  1.00  0.00     0.006 C 
ENDBRANCH  34  35
ENDBRANCH  27  28
ENDBRANCH  25  27
ENDBRANCH  11  25
TORSDOF 7
ENDMDL
