MODEL 1
REMARK minimizedAffinity -8.07119846
REMARK CNNscore 0.50486213
REMARK CNNaffinity 7.44163275
REMARK  16 active torsions:
REMARK  status: ('A' for Active; 'I' for Inactive)
REMARK    1  A    between atoms: C2_2  and  N1_3 
REMARK    2  A    between atoms: N1_3  and  C3_4 
REMARK    3  A    between atoms: C3_4  and  C4_5 
REMARK    4  A    between atoms: C9_11  and  S1_12 
REMARK    5  A    between atoms: S1_12  and  N2_15 
REMARK    6  A    between atoms: N2_15  and  C10_16 
REMARK    7  A    between atoms: N2_15  and  C14_20 
REMARK    8  A    between atoms: C10_16  and  C11_17 
REMARK    9  A    between atoms: C14_20  and  C15_21 
REMARK   10  A    between atoms: C15_21  and  O4_22 
REMARK   11  A    between atoms: C15_21  and  C16_23 
REMARK   12  A    between atoms: C16_23  and  C17_24 
REMARK   13  A    between atoms: C16_23  and  N3_31 
REMARK   14  A    between atoms: C17_24  and  C18_25 
REMARK       I    between atoms: N3_31  and  C24_32 
REMARK   15  A    between atoms: C24_32  and  O6_34 
REMARK   16  A    between atoms: O6_34  and  C25_35 
ROOT
HETATM    1  C15 UNL     1      12.453  -6.109  30.444  1.00  0.00     0.155 C 
ENDROOT
BRANCH   1   2
HETATM    2  C14 UNL     1      11.315  -6.126  31.479  1.00  0.00     0.141 C 
BRANCH   2   3
HETATM    3  N2  UNL     1      10.999  -4.840  32.229  1.00  0.00    -0.204 NA
BRANCH   3   4
HETATM    4  S1  UNL     1      10.536  -3.553  31.141  1.00  0.00     0.243 S 
HETATM    5  O2  UNL     1      10.868  -2.273  31.726  1.00  0.00    -0.206 OA
HETATM    6  O3  UNL     1      10.993  -3.929  29.817  1.00  0.00    -0.206 OA
BRANCH   4   7
HETATM    7  C9  UNL     1       8.750  -3.610  31.131  1.00  0.00     0.075 A 
HETATM    8  C8  UNL     1       8.031  -2.518  31.635  1.00  0.00     0.027 A 
HETATM    9  C7  UNL     1       6.633  -2.514  31.598  1.00  0.00     0.039 A 
HETATM   10  C6  UNL     1       6.017  -3.631  31.035  1.00  0.00     0.086 A 
HETATM   11  O1  UNL     1       4.675  -3.812  30.915  1.00  0.00    -0.321 OA
HETATM   12  C32 UNL     1       6.699  -4.724  30.510  1.00  0.00     0.009 A 
HETATM   13  C5  UNL     1       4.489  -5.015  30.314  1.00  0.00     0.152 A 
HETATM   14  C4  UNL     1       5.696  -5.632  30.042  1.00  0.00     0.005 A 
HETATM   15  C31 UNL     1       8.105  -4.710  30.540  1.00  0.00     0.039 A 
BRANCH  14  16
HETATM   16  C3  UNL     1       5.894  -6.971  29.421  1.00  0.00     0.311 C 
BRANCH  16  17
HETATM   17  N1  UNL     1       5.228  -7.059  28.117  1.00  0.00     0.087 N 
HETATM   18  H6  UNL     1       4.559  -7.829  28.172  1.00  0.00     0.316 HD
BRANCH  17  19
HETATM   19  C2  UNL     1       6.149  -7.339  27.011  1.00  0.00     0.265 C 
HETATM   20  C1  UNL     1       7.456  -6.582  27.180  1.00  0.00     0.037 C 
ENDBRANCH  17  19
ENDBRANCH  16  17
ENDBRANCH  14  16
ENDBRANCH   4   7
ENDBRANCH   3   4
BRANCH   3  21
HETATM   21  C10 UNL     1       9.948  -5.135  33.278  1.00  0.00     0.111 C 
BRANCH  21  22
HETATM   22  C11 UNL     1       9.869  -4.056  34.374  1.00  0.00    -0.009 C 
HETATM   23  C12 UNL     1       8.910  -4.412  35.506  1.00  0.00     0.011 C 
HETATM   24  C13 UNL     1      11.236  -3.676  34.936  1.00  0.00     0.011 C 
ENDBRANCH  21  22
ENDBRANCH   3  21
ENDBRANCH   2   3
ENDBRANCH   1   2
BRANCH   1  25
HETATM   25  O4  UNL     1      13.714  -5.849  31.057  1.00  0.00    -0.392 OA
HETATM   26  H24 UNL     1      14.395  -5.966  30.372  1.00  0.00     0.210 HD
ENDBRANCH   1  25
BRANCH   1  27
HETATM   27  C16 UNL     1      12.523  -7.292  29.433  1.00  0.00     0.120 C 
BRANCH  27  28
HETATM   28  C17 UNL     1      11.404  -8.336  29.626  1.00  0.00     0.066 C 
BRANCH  28  29
HETATM   29  C18 UNL     1      10.804  -8.868  28.339  1.00  0.00    -0.056 A 
HETATM   30  C19 UNL     1      10.811  -8.107  27.163  1.00  0.00     0.007 A 
HETATM   31  C20 UNL     1      10.243  -8.612  25.992  1.00  0.00     0.001 A 
HETATM   32  C21 UNL     1       9.652  -9.874  25.987  1.00  0.00     0.000 A 
HETATM   33  C22 UNL     1       9.627 -10.634  27.155  1.00  0.00     0.001 A 
HETATM   34  C23 UNL     1      10.196 -10.133  28.325  1.00  0.00     0.007 A 
ENDBRANCH  28  29
ENDBRANCH  27  28
BRANCH  27  35
HETATM   35  N3  UNL     1      13.839  -7.951  29.543  1.00  0.00    -0.329 N 
HETATM   36  C24 UNL     1      14.037  -9.099  30.247  1.00  0.00     0.361 C 
HETATM   37  O5  UNL     1      13.155  -9.771  30.759  1.00  0.00    -0.238 OA
HETATM   38  H33 UNL     1      14.684  -7.431  29.327  1.00  0.00     0.165 HD
BRANCH  36  39
HETATM   39  O6  UNL     1      15.361  -9.385  30.271  1.00  0.00    -0.296 OA
BRANCH  39  40
HETATM   40  C25 UNL     1      16.025  -9.142  31.517  1.00  0.00     0.166 C 
HETATM   41  C26 UNL     1      17.291  -8.328  31.308  1.00  0.00     0.204 C 
HETATM   42  O7  UNL     1      18.173  -8.666  32.382  1.00  0.00    -0.358 OA
HETATM   43  C27 UNL     1      17.747  -9.915  32.929  1.00  0.00     0.266 C 
HETATM   44  O8  UNL     1      17.260  -9.759  34.269  1.00  0.00    -0.361 OA
HETATM   45  C30 UNL     1      16.597 -10.430  32.088  1.00  0.00     0.075 C 
HETATM   46  C28 UNL     1      15.947 -10.322  34.358  1.00  0.00     0.171 C 
HETATM   47  C29 UNL     1      15.729 -11.137  33.100  1.00  0.00     0.038 C 
ENDBRANCH  39  40
ENDBRANCH  36  39
ENDBRANCH  27  35
ENDBRANCH   1  27
TORSDOF 16
ENDMDL
MODEL 2
REMARK minimizedAffinity -7.92215204
REMARK CNNscore 0.486753255
REMARK CNNaffinity 7.52354765
REMARK  16 active torsions:
REMARK  status: ('A' for Active; 'I' for Inactive)
REMARK    1  A    between atoms: C2_2  and  N1_3 
REMARK    2  A    between atoms: N1_3  and  C3_4 
REMARK    3  A    between atoms: C3_4  and  C4_5 
REMARK    4  A    between atoms: C9_11  and  S1_12 
REMARK    5  A    between atoms: S1_12  and  N2_15 
REMARK    6  A    between atoms: N2_15  and  C10_16 
REMARK    7  A    between atoms: N2_15  and  C14_20 
REMARK    8  A    between atoms: C10_16  and  C11_17 
REMARK    9  A    between atoms: C14_20  and  C15_21 
REMARK   10  A    between atoms: C15_21  and  O4_22 
REMARK   11  A    between atoms: C15_21  and  C16_23 
REMARK   12  A    between atoms: C16_23  and  C17_24 
REMARK   13  A    between atoms: C16_23  and  N3_31 
REMARK   14  A    between atoms: C17_24  and  C18_25 
REMARK       I    between atoms: N3_31  and  C24_32 
REMARK   15  A    between atoms: C24_32  and  O6_34 
REMARK   16  A    between atoms: O6_34  and  C25_35 
ROOT
HETATM    1  C15 UNL     1      12.123  -5.744  30.556  1.00  0.00     0.155 C 
ENDROOT
BRANCH   1   2
HETATM    2  C14 UNL     1      11.049  -5.831  31.653  1.00  0.00     0.141 C 
BRANCH   2   3
HETATM    3  N2  UNL     1      10.702  -4.570  32.430  1.00  0.00    -0.204 NA
BRANCH   3   4
HETATM    4  S1  UNL     1      10.189  -3.278  31.370  1.00  0.00     0.243 S 
HETATM    5  O2  UNL     1      10.304  -2.008  32.052  1.00  0.00    -0.206 OA
HETATM    6  O3  UNL     1      10.812  -3.511  30.081  1.00  0.00    -0.206 OA
BRANCH   4   7
HETATM    7  C9  UNL     1       8.433  -3.543  31.174  1.00  0.00     0.075 A 
HETATM    8  C8  UNL     1       7.543  -2.542  31.584  1.00  0.00     0.027 A 
HETATM    9  C7  UNL     1       6.165  -2.701  31.401  1.00  0.00     0.039 A 
HETATM   10  C6  UNL     1       5.746  -3.885  30.795  1.00  0.00     0.086 A 
HETATM   11  O1  UNL     1       4.454  -4.222  30.538  1.00  0.00    -0.321 OA
HETATM   12  C32 UNL     1       6.602  -4.892  30.360  1.00  0.00     0.009 A 
HETATM   13  C5  UNL     1       4.473  -5.440  29.941  1.00  0.00     0.152 A 
HETATM   14  C4  UNL     1       5.766  -5.913  29.806  1.00  0.00     0.005 A 
HETATM   15  C31 UNL     1       7.985  -4.713  30.537  1.00  0.00     0.039 A 
BRANCH  14  16
HETATM   16  C3  UNL     1       6.182  -7.221  29.229  1.00  0.00     0.311 C 
BRANCH  16  17
HETATM   17  N1  UNL     1       5.791  -7.334  27.820  1.00  0.00     0.087 N 
HETATM   18  H6  UNL     1       5.693  -6.384  27.458  1.00  0.00     0.316 HD
BRANCH  17  19
HETATM   19  C2  UNL     1       4.514  -8.026  27.623  1.00  0.00     0.265 C 
HETATM   20  C1  UNL     1       4.728  -9.424  27.067  1.00  0.00     0.037 C 
ENDBRANCH  17  19
ENDBRANCH  16  17
ENDBRANCH  14  16
ENDBRANCH   4   7
ENDBRANCH   3   4
BRANCH   3  21
HETATM   21  C10 UNL     1       9.671  -4.915  33.483  1.00  0.00     0.111 C 
BRANCH  21  22
HETATM   22  C11 UNL     1       9.700  -3.962  34.693  1.00  0.00    -0.009 C 
HETATM   23  C12 UNL     1       8.795  -4.407  35.837  1.00  0.00     0.011 C 
HETATM   24  C13 UNL     1      11.112  -3.695  35.206  1.00  0.00     0.011 C 
ENDBRANCH  21  22
ENDBRANCH   3  21
ENDBRANCH   2   3
ENDBRANCH   1   2
BRANCH   1  25
HETATM   25  O4  UNL     1      13.405  -5.441  31.102  1.00  0.00    -0.392 OA
HETATM   26  H24 UNL     1      14.050  -5.514  30.376  1.00  0.00     0.210 HD
ENDBRANCH   1  25
BRANCH   1  27
HETATM   27  C16 UNL     1      12.185  -6.901  29.516  1.00  0.00     0.120 C 
BRANCH  27  28
HETATM   28  C17 UNL     1      11.062  -7.946  29.687  1.00  0.00     0.066 C 
BRANCH  28  29
HETATM   29  C18 UNL     1      10.198  -8.156  28.459  1.00  0.00    -0.056 A 
HETATM   30  C19 UNL     1      10.023  -7.141  27.509  1.00  0.00     0.007 A 
HETATM   31  C20 UNL     1       9.215  -7.352  26.390  1.00  0.00     0.001 A 
HETATM   32  C21 UNL     1       8.565  -8.573  26.216  1.00  0.00     0.000 A 
HETATM   33  C22 UNL     1       8.721  -9.585  27.161  1.00  0.00     0.001 A 
HETATM   34  C23 UNL     1       9.530  -9.377  28.277  1.00  0.00     0.007 A 
ENDBRANCH  28  29
ENDBRANCH  27  28
BRANCH  27  35
HETATM   35  N3  UNL     1      13.498  -7.569  29.605  1.00  0.00    -0.329 N 
HETATM   36  C24 UNL     1      13.699  -8.723  30.298  1.00  0.00     0.361 C 
HETATM   37  O5  UNL     1      12.820  -9.393  30.817  1.00  0.00    -0.238 OA
HETATM   38  H33 UNL     1      14.344  -7.052  29.382  1.00  0.00     0.165 HD
BRANCH  36  39
HETATM   39  O6  UNL     1      15.021  -9.016  30.304  1.00  0.00    -0.296 OA
BRANCH  39  40
HETATM   40  C25 UNL     1      15.414 -10.127  29.490  1.00  0.00     0.166 C 
HETATM   41  C26 UNL     1      14.566 -10.205  28.232  1.00  0.00     0.204 C 
HETATM   42  O7  UNL     1      14.548 -11.580  27.838  1.00  0.00    -0.358 OA
HETATM   43  C27 UNL     1      14.906 -12.371  28.973  1.00  0.00     0.266 C 
HETATM   44  O8  UNL     1      16.166 -13.026  28.775  1.00  0.00    -0.361 OA
HETATM   45  C30 UNL     1      15.061 -11.445  30.162  1.00  0.00     0.075 C 
HETATM   46  C28 UNL     1      17.032 -12.717  29.873  1.00  0.00     0.171 C 
HETATM   47  C29 UNL     1      16.171 -12.092  30.953  1.00  0.00     0.038 C 
ENDBRANCH  39  40
ENDBRANCH  36  39
ENDBRANCH  27  35
ENDBRANCH   1  27
TORSDOF 16
ENDMDL
MODEL 3
REMARK minimizedAffinity -8.13828564
REMARK CNNscore 0.444947302
REMARK CNNaffinity 7.34906912
REMARK  16 active torsions:
REMARK  status: ('A' for Active; 'I' for Inactive)
REMARK    1  A    between atoms: C2_2  and  N1_3 
REMARK    2  A    between atoms: N1_3  and  C3_4 
REMARK    3  A    between atoms: C3_4  and  C4_5 
REMARK    4  A    between atoms: C9_11  and  S1_12 
REMARK    5  A    between atoms: S1_12  and  N2_15 
REMARK    6  A    between atoms: N2_15  and  C10_16 
REMARK    7  A    between atoms: N2_15  and  C14_20 
REMARK    8  A    between atoms: C10_16  and  C11_17 
REMARK    9  A    between atoms: C14_20  and  C15_21 
REMARK   10  A    between atoms: C15_21  and  O4_22 
REMARK   11  A    between atoms: C15_21  and  C16_23 
REMARK   12  A    between atoms: C16_23  and  C17_24 
REMARK   13  A    between atoms: C16_23  and  N3_31 
REMARK   14  A    between atoms: C17_24  and  C18_25 
REMARK       I    between atoms: N3_31  and  C24_32 
REMARK   15  A    between atoms: C24_32  and  O6_34 
REMARK   16  A    between atoms: O6_34  and  C25_35 
ROOT
HETATM    1  C15 UNL     1      10.663  -6.095  29.385  1.00  0.00     0.155 C 
ENDROOT
BRANCH   1   2
HETATM    2  C14 UNL     1       9.361  -6.652  28.786  1.00  0.00     0.141 C 
BRANCH   2   3
HETATM    3  N2  UNL     1       9.271  -8.146  28.509  1.00  0.00    -0.204 NA
BRANCH   3   4
HETATM    4  S1  UNL     1       7.616  -8.709  28.533  1.00  0.00     0.243 S 
HETATM    5  O2  UNL     1       7.192  -9.040  27.190  1.00  0.00    -0.206 OA
HETATM    6  O3  UNL     1       7.504  -9.656  29.624  1.00  0.00    -0.206 OA
BRANCH   4   7
HETATM    7  C9  UNL     1       6.667  -7.262  28.975  1.00  0.00     0.075 A 
HETATM    8  C8  UNL     1       5.317  -7.193  28.607  1.00  0.00     0.027 A 
HETATM    9  C7  UNL     1       4.536  -6.094  28.980  1.00  0.00     0.039 A 
HETATM   10  C6  UNL     1       5.169  -5.101  29.728  1.00  0.00     0.086 A 
HETATM   11  O1  UNL     1       4.580  -3.960  30.176  1.00  0.00    -0.321 OA
HETATM   12  C32 UNL     1       6.501  -5.144  30.125  1.00  0.00     0.009 A 
HETATM   13  C5  UNL     1       5.526  -3.269  30.861  1.00  0.00     0.152 A 
HETATM   14  C4  UNL     1       6.735  -3.940  30.863  1.00  0.00     0.005 A 
HETATM   15  C31 UNL     1       7.271  -6.261  29.756  1.00  0.00     0.039 A 
BRANCH  14  16
HETATM   16  C3  UNL     1       8.009  -3.481  31.483  1.00  0.00     0.311 C 
BRANCH  16  17
HETATM   17  N1  UNL     1       7.888  -2.118  32.008  1.00  0.00     0.087 N 
HETATM   18  H6  UNL     1       7.349  -1.579  31.328  1.00  0.00     0.316 HD
BRANCH  17  19
HETATM   19  C2  UNL     1       9.180  -1.448  32.192  1.00  0.00     0.265 C 
HETATM   20  C1  UNL     1      10.180  -1.886  31.136  1.00  0.00     0.037 C 
ENDBRANCH  17  19
ENDBRANCH  16  17
ENDBRANCH  14  16
ENDBRANCH   4   7
ENDBRANCH   3   4
BRANCH   3  21
HETATM   21  C10 UNL     1       9.978  -8.441  27.203  1.00  0.00     0.111 C 
BRANCH  21  22
HETATM   22  C11 UNL     1      10.247  -7.179  26.363  1.00  0.00    -0.009 C 
HETATM   23  C12 UNL     1      11.444  -7.318  25.428  1.00  0.00     0.011 C 
HETATM   24  C13 UNL     1       9.021  -6.707  25.589  1.00  0.00     0.011 C 
ENDBRANCH  21  22
ENDBRANCH   3  21
ENDBRANCH   2   3
ENDBRANCH   1   2
BRANCH   1  25
HETATM   25  O4  UNL     1      10.753  -4.682  29.219  1.00  0.00    -0.392 OA
HETATM   26  H24 UNL     1      11.536  -4.384  29.716  1.00  0.00     0.210 HD
ENDBRANCH   1  25
BRANCH   1  27
HETATM   27  C16 UNL     1      11.041  -6.543  30.828  1.00  0.00     0.120 C 
BRANCH  27  28
HETATM   28  C17 UNL     1      11.611  -5.404  31.699  1.00  0.00     0.066 C 
BRANCH  28  29
HETATM   29  C18 UNL     1      10.771  -5.050  32.911  1.00  0.00    -0.056 A 
HETATM   30  C19 UNL     1      11.157  -4.033  33.793  1.00  0.00     0.007 A 
HETATM   31  C20 UNL     1      10.374  -3.731  34.909  1.00  0.00     0.001 A 
HETATM   32  C21 UNL     1       9.207  -4.449  35.161  1.00  0.00     0.000 A 
HETATM   33  C22 UNL     1       8.820  -5.472  34.298  1.00  0.00     0.001 A 
HETATM   34  C23 UNL     1       9.599  -5.774  33.181  1.00  0.00     0.007 A 
ENDBRANCH  28  29
ENDBRANCH  27  28
BRANCH  27  35
HETATM   35  N3  UNL     1      12.018  -7.646  30.758  1.00  0.00    -0.329 N 
HETATM   36  C24 UNL     1      12.828  -7.853  29.684  1.00  0.00     0.361 C 
HETATM   37  O5  UNL     1      12.929  -7.104  28.725  1.00  0.00    -0.238 OA
HETATM   38  H33 UNL     1      11.928  -8.441  31.385  1.00  0.00     0.165 HD
BRANCH  36  39
HETATM   39  O6  UNL     1      13.513  -9.008  29.858  1.00  0.00    -0.296 OA
BRANCH  39  40
HETATM   40  C25 UNL     1      12.732 -10.208  29.801  1.00  0.00     0.166 C 
HETATM   41  C26 UNL     1      13.015 -11.098  31.000  1.00  0.00     0.204 C 
HETATM   42  O7  UNL     1      12.748 -12.440  30.582  1.00  0.00    -0.358 OA
HETATM   43  C27 UNL     1      12.783 -12.475  29.154  1.00  0.00     0.266 C 
HETATM   44  O8  UNL     1      11.488 -12.759  28.608  1.00  0.00    -0.361 OA
HETATM   45  C30 UNL     1      13.190 -11.101  28.659  1.00  0.00     0.075 C 
HETATM   46  C28 UNL     1      11.149 -11.745  27.656  1.00  0.00     0.171 C 
HETATM   47  C29 UNL     1      12.415 -10.963  27.371  1.00  0.00     0.038 C 
ENDBRANCH  39  40
ENDBRANCH  36  39
ENDBRANCH  27  35
ENDBRANCH   1  27
TORSDOF 16
ENDMDL
MODEL 4
REMARK minimizedAffinity -8.06506252
REMARK CNNscore 0.432897031
REMARK CNNaffinity 7.44346237
REMARK  16 active torsions:
REMARK  status: ('A' for Active; 'I' for Inactive)
REMARK    1  A    between atoms: C2_2  and  N1_3 
REMARK    2  A    between atoms: N1_3  and  C3_4 
REMARK    3  A    between atoms: C3_4  and  C4_5 
REMARK    4  A    between atoms: C9_11  and  S1_12 
REMARK    5  A    between atoms: S1_12  and  N2_15 
REMARK    6  A    between atoms: N2_15  and  C10_16 
REMARK    7  A    between atoms: N2_15  and  C14_20 
REMARK    8  A    between atoms: C10_16  and  C11_17 
REMARK    9  A    between atoms: C14_20  and  C15_21 
REMARK   10  A    between atoms: C15_21  and  O4_22 
REMARK   11  A    between atoms: C15_21  and  C16_23 
REMARK   12  A    between atoms: C16_23  and  C17_24 
REMARK   13  A    between atoms: C16_23  and  N3_31 
REMARK   14  A    between atoms: C17_24  and  C18_25 
REMARK       I    between atoms: N3_31  and  C24_32 
REMARK   15  A    between atoms: C24_32  and  O6_34 
REMARK   16  A    between atoms: O6_34  and  C25_35 
ROOT
HETATM    1  C15 UNL     1      12.351  -6.611  30.421  1.00  0.00     0.155 C 
ENDROOT
BRANCH   1   2
HETATM    2  C14 UNL     1      11.039  -6.359  31.183  1.00  0.00     0.141 C 
BRANCH   2   3
HETATM    3  N2  UNL     1      10.925  -5.102  32.033  1.00  0.00    -0.204 NA
BRANCH   3   4
HETATM    4  S1  UNL     1      10.472  -3.712  31.074  1.00  0.00     0.243 S 
HETATM    5  O2  UNL     1      10.803  -2.497  31.785  1.00  0.00    -0.206 OA
HETATM    6  O3  UNL     1      10.936  -3.956  29.723  1.00  0.00    -0.206 OA
BRANCH   4   7
HETATM    7  C9  UNL     1       8.686  -3.762  31.048  1.00  0.00     0.075 A 
HETATM    8  C8  UNL     1       7.966  -2.694  31.600  1.00  0.00     0.027 A 
HETATM    9  C7  UNL     1       6.568  -2.683  31.552  1.00  0.00     0.039 A 
HETATM   10  C6  UNL     1       5.954  -3.770  30.930  1.00  0.00     0.086 A 
HETATM   11  O1  UNL     1       4.611  -3.940  30.791  1.00  0.00    -0.321 OA
HETATM   12  C32 UNL     1       6.636  -4.837  30.357  1.00  0.00     0.009 A 
HETATM   13  C5  UNL     1       4.427  -5.111  30.131  1.00  0.00     0.152 A 
HETATM   14  C4  UNL     1       5.635  -5.718  29.838  1.00  0.00     0.005 A 
HETATM   15  C31 UNL     1       8.042  -4.830  30.399  1.00  0.00     0.039 A 
BRANCH  14  16
HETATM   16  C3  UNL     1       5.833  -7.025  29.152  1.00  0.00     0.311 C 
BRANCH  16  17
HETATM   17  N1  UNL     1       4.736  -7.315  28.224  1.00  0.00     0.087 N 
HETATM   18  H6  UNL     1       4.040  -7.857  28.739  1.00  0.00     0.316 HD
BRANCH  17  19
HETATM   19  C2  UNL     1       5.151  -8.103  27.059  1.00  0.00     0.265 C 
HETATM   20  C1  UNL     1       5.954  -9.322  27.481  1.00  0.00     0.037 C 
ENDBRANCH  17  19
ENDBRANCH  16  17
ENDBRANCH  14  16
ENDBRANCH   4   7
ENDBRANCH   3   4
BRANCH   3  21
HETATM   21  C10 UNL     1       9.967  -5.371  33.174  1.00  0.00     0.111 C 
BRANCH  21  22
HETATM   22  C11 UNL     1       9.908  -4.222  34.198  1.00  0.00    -0.009 C 
HETATM   23  C12 UNL     1       8.874  -4.443  35.297  1.00  0.00     0.011 C 
HETATM   24  C13 UNL     1      11.269  -3.897  34.806  1.00  0.00     0.011 C 
ENDBRANCH  21  22
ENDBRANCH   3  21
ENDBRANCH   2   3
ENDBRANCH   1   2
BRANCH   1  25
HETATM   25  O4  UNL     1      13.415  -5.813  30.933  1.00  0.00    -0.392 OA
HETATM   26  H24 UNL     1      14.231  -6.103  30.488  1.00  0.00     0.210 HD
ENDBRANCH   1  25
BRANCH   1  27
HETATM   27  C16 UNL     1      12.780  -8.092  30.199  1.00  0.00     0.120 C 
BRANCH  27  28
HETATM   28  C17 UNL     1      14.302  -8.318  30.321  1.00  0.00     0.066 C 
BRANCH  28  29
HETATM   29  C18 UNL     1      14.698  -9.602  31.023  1.00  0.00    -0.056 A 
HETATM   30  C19 UNL     1      16.043  -9.958  31.188  1.00  0.00     0.007 A 
HETATM   31  C20 UNL     1      16.385 -11.150  31.828  1.00  0.00     0.001 A 
HETATM   32  C21 UNL     1      15.389 -12.004  32.298  1.00  0.00     0.000 A 
HETATM   33  C22 UNL     1      14.048 -11.668  32.127  1.00  0.00     0.001 A 
HETATM   34  C23 UNL     1      13.703 -10.476  31.491  1.00  0.00     0.007 A 
ENDBRANCH  28  29
ENDBRANCH  27  28
BRANCH  27  35
HETATM   35  N3  UNL     1      12.321  -8.540  28.870  1.00  0.00    -0.329 N 
HETATM   36  C24 UNL     1      13.002  -8.279  27.721  1.00  0.00     0.361 C 
HETATM   37  O5  UNL     1      14.106  -7.761  27.661  1.00  0.00    -0.238 OA
HETATM   38  H33 UNL     1      11.352  -8.819  28.739  1.00  0.00     0.165 HD
BRANCH  36  39
HETATM   39  O6  UNL     1      12.270  -8.700  26.663  1.00  0.00    -0.296 OA
BRANCH  39  40
HETATM   40  C25 UNL     1      10.870  -8.402  26.719  1.00  0.00     0.166 C 
HETATM   41  C26 UNL     1      10.057  -9.479  26.019  1.00  0.00     0.204 C 
HETATM   42  O7  UNL     1       8.857  -8.849  25.561  1.00  0.00    -0.358 OA
HETATM   43  C27 UNL     1       9.087  -7.439  25.514  1.00  0.00     0.266 C 
HETATM   44  O8  UNL     1       8.285  -6.748  26.480  1.00  0.00    -0.361 OA
HETATM   45  C30 UNL     1      10.538  -7.186  25.868  1.00  0.00     0.075 C 
HETATM   46  C28 UNL     1       9.133  -5.927  27.291  1.00  0.00     0.171 C 
HETATM   47  C29 UNL     1      10.482  -5.870  26.604  1.00  0.00     0.038 C 
ENDBRANCH  39  40
ENDBRANCH  36  39
ENDBRANCH  27  35
ENDBRANCH   1  27
TORSDOF 16
ENDMDL
MODEL 5
REMARK minimizedAffinity -8.81113529
REMARK CNNscore 0.387799382
REMARK CNNaffinity 7.30125427
REMARK  16 active torsions:
REMARK  status: ('A' for Active; 'I' for Inactive)
REMARK    1  A    between atoms: C2_2  and  N1_3 
REMARK    2  A    between atoms: N1_3  and  C3_4 
REMARK    3  A    between atoms: C3_4  and  C4_5 
REMARK    4  A    between atoms: C9_11  and  S1_12 
REMARK    5  A    between atoms: S1_12  and  N2_15 
REMARK    6  A    between atoms: N2_15  and  C10_16 
REMARK    7  A    between atoms: N2_15  and  C14_20 
REMARK    8  A    between atoms: C10_16  and  C11_17 
REMARK    9  A    between atoms: C14_20  and  C15_21 
REMARK   10  A    between atoms: C15_21  and  O4_22 
REMARK   11  A    between atoms: C15_21  and  C16_23 
REMARK   12  A    between atoms: C16_23  and  C17_24 
REMARK   13  A    between atoms: C16_23  and  N3_31 
REMARK   14  A    between atoms: C17_24  and  C18_25 
REMARK       I    between atoms: N3_31  and  C24_32 
REMARK   15  A    between atoms: C24_32  and  O6_34 
REMARK   16  A    between atoms: O6_34  and  C25_35 
ROOT
HETATM    1  C15 UNL     1      11.243  -6.206  29.142  1.00  0.00     0.155 C 
ENDROOT
BRANCH   1   2
HETATM    2  C14 UNL     1       9.750  -6.522  28.947  1.00  0.00     0.141 C 
BRANCH   2   3
HETATM    3  N2  UNL     1       9.356  -7.530  27.877  1.00  0.00    -0.204 NA
BRANCH   3   4
HETATM    4  S1  UNL     1       7.808  -8.265  28.220  1.00  0.00     0.243 S 
HETATM    5  O2  UNL     1       7.214  -8.752  26.995  1.00  0.00    -0.206 OA
HETATM    6  O3  UNL     1       7.989  -9.124  29.374  1.00  0.00    -0.206 OA
BRANCH   4   7
HETATM    7  C9  UNL     1       6.776  -6.897  28.724  1.00  0.00     0.075 A 
HETATM    8  C8  UNL     1       5.475  -6.800  28.214  1.00  0.00     0.027 A 
HETATM    9  C7  UNL     1       4.627  -5.766  28.625  1.00  0.00     0.039 A 
HETATM   10  C6  UNL     1       5.144  -4.866  29.557  1.00  0.00     0.086 A 
HETATM   11  O1  UNL     1       4.477  -3.798  30.071  1.00  0.00    -0.321 OA
HETATM   12  C32 UNL     1       6.423  -4.941  30.098  1.00  0.00     0.009 A 
HETATM   13  C5  UNL     1       5.321  -3.186  30.940  1.00  0.00     0.152 A 
HETATM   14  C4  UNL     1       6.539  -3.837  31.000  1.00  0.00     0.005 A 
HETATM   15  C31 UNL     1       7.260  -5.994  29.687  1.00  0.00     0.039 A 
BRANCH  14  16
HETATM   16  C3  UNL     1       7.722  -3.443  31.815  1.00  0.00     0.311 C 
BRANCH  16  17
HETATM   17  N1  UNL     1       7.918  -1.989  31.807  1.00  0.00     0.087 N 
HETATM   18  H6  UNL     1       7.821  -1.678  30.838  1.00  0.00     0.316 HD
BRANCH  17  19
HETATM   19  C2  UNL     1       9.241  -1.576  32.285  1.00  0.00     0.265 C 
HETATM   20  C1  UNL     1      10.239  -1.506  31.141  1.00  0.00     0.037 C 
ENDBRANCH  17  19
ENDBRANCH  16  17
ENDBRANCH  14  16
ENDBRANCH   4   7
ENDBRANCH   3   4
BRANCH   3  21
HETATM   21  C10 UNL     1       9.402  -6.848  26.526  1.00  0.00     0.111 C 
BRANCH  21  22
HETATM   22  C11 UNL     1      10.373  -7.524  25.541  1.00  0.00    -0.009 C 
HETATM   23  C12 UNL     1      11.307  -8.531  26.205  1.00  0.00     0.011 C 
HETATM   24  C13 UNL     1       9.665  -8.162  24.349  1.00  0.00     0.011 C 
ENDBRANCH  21  22
ENDBRANCH   3  21
ENDBRANCH   2   3
ENDBRANCH   1   2
BRANCH   1  25
HETATM   25  O4  UNL     1      11.572  -4.910  28.648  1.00  0.00    -0.392 OA
HETATM   26  H24 UNL     1      12.495  -4.732  28.905  1.00  0.00     0.210 HD
ENDBRANCH   1  25
BRANCH   1  27
HETATM   27  C16 UNL     1      11.857  -6.474  30.548  1.00  0.00     0.120 C 
BRANCH  27  28
HETATM   28  C17 UNL     1      12.220  -5.187  31.318  1.00  0.00     0.066 C 
BRANCH  28  29
HETATM   29  C18 UNL     1      11.358  -4.912  32.535  1.00  0.00    -0.056 A 
HETATM   30  C19 UNL     1      11.730  -3.955  33.489  1.00  0.00     0.007 A 
HETATM   31  C20 UNL     1      10.927  -3.725  34.608  1.00  0.00     0.001 A 
HETATM   32  C21 UNL     1       9.754  -4.455  34.791  1.00  0.00     0.000 A 
HETATM   33  C22 UNL     1       9.382  -5.419  33.856  1.00  0.00     0.001 A 
HETATM   34  C23 UNL     1      10.180  -5.648  32.736  1.00  0.00     0.007 A 
ENDBRANCH  28  29
ENDBRANCH  27  28
BRANCH  27  35
HETATM   35  N3  UNL     1      13.058  -7.318  30.404  1.00  0.00    -0.329 N 
HETATM   36  C24 UNL     1      13.004  -8.635  30.064  1.00  0.00     0.361 C 
HETATM   37  O5  UNL     1      11.994  -9.233  29.728  1.00  0.00    -0.238 OA
HETATM   38  H33 UNL     1      13.938  -7.019  30.816  1.00  0.00     0.165 HD
BRANCH  36  39
HETATM   39  O6  UNL     1      14.248  -9.167  30.140  1.00  0.00    -0.296 OA
BRANCH  39  40
HETATM   40  C25 UNL     1      14.361 -10.372  30.905  1.00  0.00     0.166 C 
HETATM   41  C26 UNL     1      13.304 -10.424  31.996  1.00  0.00     0.204 C 
HETATM   42  O7  UNL     1      13.842 -11.236  33.045  1.00  0.00    -0.358 OA
HETATM   43  C27 UNL     1      15.261 -11.283  32.885  1.00  0.00     0.266 C 
HETATM   44  O8  UNL     1      15.704 -12.604  32.547  1.00  0.00    -0.361 OA
HETATM   45  C30 UNL     1      15.636 -10.373  31.734  1.00  0.00     0.075 C 
HETATM   46  C28 UNL     1      16.497 -12.541  31.356  1.00  0.00     0.171 C 
HETATM   47  C29 UNL     1      16.816 -11.080  31.114  1.00  0.00     0.038 C 
ENDBRANCH  39  40
ENDBRANCH  36  39
ENDBRANCH  27  35
ENDBRANCH   1  27
TORSDOF 16
ENDMDL
MODEL 6
REMARK minimizedAffinity -7.6904254
REMARK CNNscore 0.333872229
REMARK CNNaffinity 7.21852493
REMARK  16 active torsions:
REMARK  status: ('A' for Active; 'I' for Inactive)
REMARK    1  A    between atoms: C2_2  and  N1_3 
REMARK    2  A    between atoms: N1_3  and  C3_4 
REMARK    3  A    between atoms: C3_4  and  C4_5 
REMARK    4  A    between atoms: C9_11  and  S1_12 
REMARK    5  A    between atoms: S1_12  and  N2_15 
REMARK    6  A    between atoms: N2_15  and  C10_16 
REMARK    7  A    between atoms: N2_15  and  C14_20 
REMARK    8  A    between atoms: C10_16  and  C11_17 
REMARK    9  A    between atoms: C14_20  and  C15_21 
REMARK   10  A    between atoms: C15_21  and  O4_22 
REMARK   11  A    between atoms: C15_21  and  C16_23 
REMARK   12  A    between atoms: C16_23  and  C17_24 
REMARK   13  A    between atoms: C16_23  and  N3_31 
REMARK   14  A    between atoms: C17_24  and  C18_25 
REMARK       I    between atoms: N3_31  and  C24_32 
REMARK   15  A    between atoms: C24_32  and  O6_34 
REMARK   16  A    between atoms: O6_34  and  C25_35 
ROOT
HETATM    1  C15 UNL     1       6.079  -8.181  25.819  1.00  0.00     0.155 C 
ENDROOT
BRANCH   1   2
HETATM    2  C14 UNL     1       7.297  -8.834  26.493  1.00  0.00     0.141 C 
BRANCH   2   3
HETATM    3  N2  UNL     1       8.251  -7.949  27.282  1.00  0.00    -0.204 NA
BRANCH   3   4
HETATM    4  S1  UNL     1       8.024  -8.128  29.005  1.00  0.00     0.243 S 
HETATM    5  O2  UNL     1       7.101  -9.211  29.268  1.00  0.00    -0.206 OA
HETATM    6  O3  UNL     1       9.337  -8.080  29.617  1.00  0.00    -0.206 OA
BRANCH   4   7
HETATM    7  C9  UNL     1       7.150  -6.647  29.489  1.00  0.00     0.075 A 
HETATM    8  C8  UNL     1       5.805  -6.499  29.127  1.00  0.00     0.027 A 
HETATM    9  C7  UNL     1       5.082  -5.372  29.530  1.00  0.00     0.039 A 
HETATM   10  C6  UNL     1       5.766  -4.433  30.302  1.00  0.00     0.086 A 
HETATM   11  O1  UNL     1       5.237  -3.275  30.782  1.00  0.00    -0.321 OA
HETATM   12  C32 UNL     1       7.094  -4.554  30.694  1.00  0.00     0.009 A 
HETATM   13  C5  UNL     1       6.218  -2.652  31.481  1.00  0.00     0.152 A 
HETATM   14  C4  UNL     1       7.391  -3.384  31.463  1.00  0.00     0.005 A 
HETATM   15  C31 UNL     1       7.806  -5.699  30.294  1.00  0.00     0.039 A 
BRANCH  14  16
HETATM   16  C3  UNL     1       8.688  -3.007  32.090  1.00  0.00     0.311 C 
BRANCH  16  17
HETATM   17  N1  UNL     1       9.800  -3.142  31.143  1.00  0.00     0.087 N 
HETATM   18  H6  UNL     1      10.160  -4.093  31.235  1.00  0.00     0.316 HD
BRANCH  17  19
HETATM   19  C2  UNL     1      10.904  -2.213  31.405  1.00  0.00     0.265 C 
HETATM   20  C1  UNL     1      10.395  -0.790  31.572  1.00  0.00     0.037 C 
ENDBRANCH  17  19
ENDBRANCH  16  17
ENDBRANCH  14  16
ENDBRANCH   4   7
ENDBRANCH   3   4
BRANCH   3  21
HETATM   21  C10 UNL     1       9.668  -8.244  26.838  1.00  0.00     0.111 C 
BRANCH  21  22
HETATM   22  C11 UNL     1      10.239  -7.175  25.888  1.00  0.00    -0.009 C 
HETATM   23  C12 UNL     1      11.518  -6.525  26.405  1.00  0.00     0.011 C 
HETATM   24  C13 UNL     1      10.442  -7.689  24.466  1.00  0.00     0.011 C 
ENDBRANCH  21  22
ENDBRANCH   3  21
ENDBRANCH   2   3
ENDBRANCH   1   2
BRANCH   1  25
HETATM   25  O4  UNL     1       6.375  -7.777  24.483  1.00  0.00    -0.392 OA
HETATM   26  H24 UNL     1       5.538  -7.480  24.082  1.00  0.00     0.210 HD
ENDBRANCH   1  25
BRANCH   1  27
HETATM   27  C16 UNL     1       4.715  -8.925  25.920  1.00  0.00     0.120 C 
BRANCH  27  28
HETATM   28  C17 UNL     1       4.804 -10.279  26.655  1.00  0.00     0.066 C 
BRANCH  28  29
HETATM   29  C18 UNL     1       3.643 -11.219  26.395  1.00  0.00    -0.056 A 
HETATM   30  C19 UNL     1       3.724 -12.228  25.427  1.00  0.00     0.007 A 
HETATM   31  C20 UNL     1       2.640 -13.076  25.197  1.00  0.00     0.001 A 
HETATM   32  C21 UNL     1       1.460 -12.917  25.923  1.00  0.00     0.000 A 
HETATM   33  C22 UNL     1       1.362 -11.908  26.879  1.00  0.00     0.001 A 
HETATM   34  C23 UNL     1       2.446 -11.062  27.112  1.00  0.00     0.007 A 
ENDBRANCH  28  29
ENDBRANCH  27  28
BRANCH  27  35
HETATM   35  N3  UNL     1       4.169  -9.133  24.565  1.00  0.00    -0.329 N 
HETATM   36  C24 UNL     1       2.887  -8.830  24.226  1.00  0.00     0.361 C 
HETATM   37  O5  UNL     1       2.087  -8.253  24.947  1.00  0.00    -0.238 OA
HETATM   38  H33 UNL     1       4.646  -9.757  23.920  1.00  0.00     0.165 HD
BRANCH  36  39
HETATM   39  O6  UNL     1       2.647  -9.252  22.962  1.00  0.00    -0.296 OA
BRANCH  39  40
HETATM   40  C25 UNL     1       1.289  -9.146  22.520  1.00  0.00     0.166 C 
HETATM   41  C26 UNL     1       0.557 -10.467  22.691  1.00  0.00     0.204 C 
HETATM   42  O7  UNL     1      -0.479 -10.489  21.706  1.00  0.00    -0.358 OA
HETATM   43  C27 UNL     1      -0.145  -9.541  20.690  1.00  0.00     0.266 C 
HETATM   44  O8  UNL     1      -1.072  -8.448  20.672  1.00  0.00    -0.361 OA
HETATM   45  C30 UNL     1       1.221  -8.969  21.011  1.00  0.00     0.075 C 
HETATM   46  C28 UNL     1      -0.347  -7.217  20.767  1.00  0.00     0.171 C 
HETATM   47  C29 UNL     1       1.113  -7.544  20.526  1.00  0.00     0.038 C 
ENDBRANCH  39  40
ENDBRANCH  36  39
ENDBRANCH  27  35
ENDBRANCH   1  27
TORSDOF 16
ENDMDL
MODEL 7
REMARK minimizedAffinity -7.98120213
REMARK CNNscore 0.271239728
REMARK CNNaffinity 7.5476799
REMARK  16 active torsions:
REMARK  status: ('A' for Active; 'I' for Inactive)
REMARK    1  A    between atoms: C2_2  and  N1_3 
REMARK    2  A    between atoms: N1_3  and  C3_4 
REMARK    3  A    between atoms: C3_4  and  C4_5 
REMARK    4  A    between atoms: C9_11  and  S1_12 
REMARK    5  A    between atoms: S1_12  and  N2_15 
REMARK    6  A    between atoms: N2_15  and  C10_16 
REMARK    7  A    between atoms: N2_15  and  C14_20 
REMARK    8  A    between atoms: C10_16  and  C11_17 
REMARK    9  A    between atoms: C14_20  and  C15_21 
REMARK   10  A    between atoms: C15_21  and  O4_22 
REMARK   11  A    between atoms: C15_21  and  C16_23 
REMARK   12  A    between atoms: C16_23  and  C17_24 
REMARK   13  A    between atoms: C16_23  and  N3_31 
REMARK   14  A    between atoms: C17_24  and  C18_25 
REMARK       I    between atoms: N3_31  and  C24_32 
REMARK   15  A    between atoms: C24_32  and  O6_34 
REMARK   16  A    between atoms: O6_34  and  C25_35 
ROOT
HETATM    1  C15 UNL     1      13.182  -7.906  28.494  1.00  0.00     0.155 C 
ENDROOT
BRANCH   1   2
HETATM    2  C14 UNL     1      12.151  -7.067  27.720  1.00  0.00     0.141 C 
BRANCH   2   3
HETATM    3  N2  UNL     1      10.686  -7.471  27.792  1.00  0.00    -0.204 NA
BRANCH   3   4
HETATM    4  S1  UNL     1       9.656  -6.321  26.971  1.00  0.00     0.243 S 
HETATM    5  O2  UNL     1      10.384  -5.094  26.734  1.00  0.00    -0.206 OA
HETATM    6  O3  UNL     1       8.992  -7.034  25.897  1.00  0.00    -0.206 OA
BRANCH   4   7
HETATM    7  C9  UNL     1       8.416  -5.899  28.185  1.00  0.00     0.075 A 
HETATM    8  C8  UNL     1       8.794  -5.180  29.325  1.00  0.00     0.027 A 
HETATM    9  C7  UNL     1       7.838  -4.794  30.270  1.00  0.00     0.039 A 
HETATM   10  C6  UNL     1       6.517  -5.156  30.008  1.00  0.00     0.086 A 
HETATM   11  O1  UNL     1       5.452  -4.877  30.807  1.00  0.00    -0.321 OA
HETATM   12  C32 UNL     1       6.102  -5.854  28.879  1.00  0.00     0.009 A 
HETATM   13  C5  UNL     1       4.355  -5.392  30.197  1.00  0.00     0.152 A 
HETATM   14  C4  UNL     1       4.686  -6.013  29.007  1.00  0.00     0.005 A 
HETATM   15  C31 UNL     1       7.072  -6.223  27.929  1.00  0.00     0.039 A 
BRANCH  14  16
HETATM   16  C3  UNL     1       3.757  -6.718  28.079  1.00  0.00     0.311 C 
BRANCH  16  17
HETATM   17  N1  UNL     1       2.364  -6.589  28.517  1.00  0.00     0.087 N 
HETATM   18  H6  UNL     1       2.265  -7.137  29.374  1.00  0.00     0.316 HD
BRANCH  17  19
HETATM   19  C2  UNL     1       1.397  -7.099  27.540  1.00  0.00     0.265 C 
HETATM   20  C1  UNL     1       0.962  -8.513  27.887  1.00  0.00     0.037 C 
ENDBRANCH  17  19
ENDBRANCH  16  17
ENDBRANCH  14  16
ENDBRANCH   4   7
ENDBRANCH   3   4
BRANCH   3  21
HETATM   21  C10 UNL     1      10.543  -8.880  27.257  1.00  0.00     0.111 C 
BRANCH  21  22
HETATM   22  C11 UNL     1      10.000  -9.872  28.303  1.00  0.00    -0.009 C 
HETATM   23  C12 UNL     1       8.499  -9.741  28.539  1.00  0.00     0.011 C 
HETATM   24  C13 UNL     1      10.365 -11.321  27.996  1.00  0.00     0.011 C 
ENDBRANCH  21  22
ENDBRANCH   3  21
ENDBRANCH   2   3
ENDBRANCH   1   2
BRANCH   1  25
HETATM   25  O4  UNL     1      14.517  -7.533  28.159  1.00  0.00    -0.392 OA
HETATM   26  H24 UNL     1      15.109  -8.017  28.762  1.00  0.00     0.210 HD
ENDBRANCH   1  25
BRANCH   1  27
HETATM   27  C16 UNL     1      12.979  -8.056  30.030  1.00  0.00     0.120 C 
BRANCH  27  28
HETATM   28  C17 UNL     1      12.656  -9.499  30.472  1.00  0.00     0.066 C 
BRANCH  28  29
HETATM   29  C18 UNL     1      13.785 -10.209  31.194  1.00  0.00    -0.056 A 
HETATM   30  C19 UNL     1      13.599 -10.767  32.466  1.00  0.00     0.007 A 
HETATM   31  C20 UNL     1      14.654 -11.408  33.117  1.00  0.00     0.001 A 
HETATM   32  C21 UNL     1      15.907 -11.487  32.511  1.00  0.00     0.000 A 
HETATM   33  C22 UNL     1      16.108 -10.923  31.253  1.00  0.00     0.001 A 
HETATM   34  C23 UNL     1      15.054 -10.285  30.599  1.00  0.00     0.007 A 
ENDBRANCH  28  29
ENDBRANCH  27  28
BRANCH  27  35
HETATM   35  N3  UNL     1      11.901  -7.152  30.473  1.00  0.00    -0.329 N 
HETATM   36  C24 UNL     1      12.135  -5.981  31.127  1.00  0.00     0.361 C 
HETATM   37  O5  UNL     1      13.237  -5.490  31.316  1.00  0.00    -0.238 OA
HETATM   38  H33 UNL     1      10.949  -7.500  30.546  1.00  0.00     0.165 HD
BRANCH  36  39
HETATM   39  O6  UNL     1      10.954  -5.443  31.514  1.00  0.00    -0.296 OA
BRANCH  39  40
HETATM   40  C25 UNL     1      10.815  -5.201  32.920  1.00  0.00     0.166 C 
HETATM   41  C26 UNL     1       9.519  -5.794  33.447  1.00  0.00     0.204 C 
HETATM   42  O7  UNL     1       9.148  -5.013  34.586  1.00  0.00    -0.358 OA
HETATM   43  C27 UNL     1       9.832  -3.761  34.507  1.00  0.00     0.266 C 
HETATM   44  O8  UNL     1      10.791  -3.623  35.563  1.00  0.00    -0.361 OA
HETATM   45  C30 UNL     1      10.594  -3.722  33.197  1.00  0.00     0.075 C 
HETATM   46  C28 UNL     1      12.068  -3.308  34.997  1.00  0.00     0.171 C 
HETATM   47  C29 UNL     1      11.830  -2.932  33.549  1.00  0.00     0.038 C 
ENDBRANCH  39  40
ENDBRANCH  36  39
ENDBRANCH  27  35
ENDBRANCH   1  27
TORSDOF 16
ENDMDL
MODEL 8
REMARK minimizedAffinity -7.78553438
REMARK CNNscore 0.258255541
REMARK CNNaffinity 6.9512558
REMARK  16 active torsions:
REMARK  status: ('A' for Active; 'I' for Inactive)
REMARK    1  A    between atoms: C2_2  and  N1_3 
REMARK    2  A    between atoms: N1_3  and  C3_4 
REMARK    3  A    between atoms: C3_4  and  C4_5 
REMARK    4  A    between atoms: C9_11  and  S1_12 
REMARK    5  A    between atoms: S1_12  and  N2_15 
REMARK    6  A    between atoms: N2_15  and  C10_16 
REMARK    7  A    between atoms: N2_15  and  C14_20 
REMARK    8  A    between atoms: C10_16  and  C11_17 
REMARK    9  A    between atoms: C14_20  and  C15_21 
REMARK   10  A    between atoms: C15_21  and  O4_22 
REMARK   11  A    between atoms: C15_21  and  C16_23 
REMARK   12  A    between atoms: C16_23  and  C17_24 
REMARK   13  A    between atoms: C16_23  and  N3_31 
REMARK   14  A    between atoms: C17_24  and  C18_25 
REMARK       I    between atoms: N3_31  and  C24_32 
REMARK   15  A    between atoms: C24_32  and  O6_34 
REMARK   16  A    between atoms: O6_34  and  C25_35 
ROOT
HETATM    1  C15 UNL     1      11.764  -6.977  30.272  1.00  0.00     0.155 C 
ENDROOT
BRANCH   1   2
HETATM    2  C14 UNL     1      12.367  -5.786  31.036  1.00  0.00     0.141 C 
BRANCH   2   3
HETATM    3  N2  UNL     1      11.421  -4.797  31.702  1.00  0.00    -0.204 NA
BRANCH   3   4
HETATM    4  S1  UNL     1      10.848  -3.591  30.574  1.00  0.00     0.243 S 
HETATM    5  O2  UNL     1      11.334  -2.286  30.964  1.00  0.00    -0.206 OA
HETATM    6  O3  UNL     1      11.062  -4.117  29.241  1.00  0.00    -0.206 OA
BRANCH   4   7
HETATM    7  C9  UNL     1       9.085  -3.532  30.854  1.00  0.00     0.075 A 
HETATM    8  C8  UNL     1       8.539  -2.442  31.545  1.00  0.00     0.027 A 
HETATM    9  C7  UNL     1       7.158  -2.345  31.739  1.00  0.00     0.039 A 
HETATM   10  C6  UNL     1       6.377  -3.371  31.207  1.00  0.00     0.086 A 
HETATM   11  O1  UNL     1       5.023  -3.455  31.297  1.00  0.00    -0.321 OA
HETATM   12  C32 UNL     1       6.881  -4.458  30.501  1.00  0.00     0.009 A 
HETATM   13  C5  UNL     1       4.653  -4.590  30.651  1.00  0.00     0.152 A 
HETATM   14  C4  UNL     1       5.751  -5.259  30.141  1.00  0.00     0.005 A 
HETATM   15  C31 UNL     1       8.271  -4.537  30.301  1.00  0.00     0.039 A 
BRANCH  14  16
HETATM   16  C3  UNL     1       5.745  -6.552  29.402  1.00  0.00     0.311 C 
BRANCH  16  17
HETATM   17  N1  UNL     1       4.843  -6.503  28.247  1.00  0.00     0.087 N 
HETATM   18  H6  UNL     1       5.102  -5.682  27.696  1.00  0.00     0.316 HD
BRANCH  17  19
HETATM   19  C2  UNL     1       3.430  -6.372  28.615  1.00  0.00     0.265 C 
HETATM   20  C1  UNL     1       2.572  -7.375  27.862  1.00  0.00     0.037 C 
ENDBRANCH  17  19
ENDBRANCH  16  17
ENDBRANCH  14  16
ENDBRANCH   4   7
ENDBRANCH   3   4
BRANCH   3  21
HETATM   21  C10 UNL     1      10.299  -5.569  32.363  1.00  0.00     0.111 C 
BRANCH  21  22
HETATM   22  C11 UNL     1      10.099  -5.195  33.844  1.00  0.00    -0.009 C 
HETATM   23  C12 UNL     1      10.771  -3.882  34.233  1.00  0.00     0.011 C 
HETATM   24  C13 UNL     1       8.633  -5.187  34.264  1.00  0.00     0.011 C 
ENDBRANCH  21  22
ENDBRANCH   3  21
ENDBRANCH   2   3
ENDBRANCH   1   2
BRANCH   1  25
HETATM   25  O4  UNL     1      10.340  -6.980  30.348  1.00  0.00    -0.392 OA
HETATM   26  H24 UNL     1      10.024  -7.685  29.755  1.00  0.00     0.210 HD
ENDBRANCH   1  25
BRANCH   1  27
HETATM   27  C16 UNL     1      12.278  -7.239  28.826  1.00  0.00     0.120 C 
BRANCH  27  28
HETATM   28  C17 UNL     1      11.186  -7.084  27.747  1.00  0.00     0.066 C 
BRANCH  28  29
HETATM   29  C18 UNL     1      11.598  -7.533  26.358  1.00  0.00    -0.056 A 
HETATM   30  C19 UNL     1      12.761  -7.043  25.749  1.00  0.00     0.007 A 
HETATM   31  C20 UNL     1      13.117  -7.462  24.466  1.00  0.00     0.001 A 
HETATM   32  C21 UNL     1      12.309  -8.363  23.774  1.00  0.00     0.000 A 
HETATM   33  C22 UNL     1      11.142  -8.846  24.364  1.00  0.00     0.001 A 
HETATM   34  C23 UNL     1      10.787  -8.431  25.646  1.00  0.00     0.007 A 
ENDBRANCH  28  29
ENDBRANCH  27  28
BRANCH  27  35
HETATM   35  N3  UNL     1      12.858  -8.593  28.750  1.00  0.00    -0.329 N 
HETATM   36  C24 UNL     1      12.187  -9.711  29.142  1.00  0.00     0.361 C 
HETATM   37  O5  UNL     1      11.015  -9.745  29.481  1.00  0.00    -0.238 OA
HETATM   38  H33 UNL     1      13.864  -8.707  28.661  1.00  0.00     0.165 HD
BRANCH  36  39
HETATM   39  O6  UNL     1      13.021 -10.777  29.077  1.00  0.00    -0.296 OA
BRANCH  39  40
HETATM   40  C25 UNL     1      13.329 -11.400  30.330  1.00  0.00     0.166 C 
HETATM   41  C26 UNL     1      12.060 -11.763  31.082  1.00  0.00     0.204 C 
HETATM   42  O7  UNL     1      12.396 -11.758  32.473  1.00  0.00    -0.358 OA
HETATM   43  C27 UNL     1      13.591 -10.991  32.637  1.00  0.00     0.266 C 
HETATM   44  O8  UNL     1      14.684 -11.814  33.063  1.00  0.00    -0.361 OA
HETATM   45  C30 UNL     1      13.964 -10.406  31.290  1.00  0.00     0.075 C 
HETATM   46  C28 UNL     1      15.787 -11.628  32.168  1.00  0.00     0.171 C 
HETATM   47  C29 UNL     1      15.472 -10.407  31.327  1.00  0.00     0.038 C 
ENDBRANCH  39  40
ENDBRANCH  36  39
ENDBRANCH  27  35
ENDBRANCH   1  27
TORSDOF 16
ENDMDL
MODEL 9
REMARK minimizedAffinity -7.84334946
REMARK CNNscore 0.231097385
REMARK CNNaffinity 6.72341156
REMARK  16 active torsions:
REMARK  status: ('A' for Active; 'I' for Inactive)
REMARK    1  A    between atoms: C2_2  and  N1_3 
REMARK    2  A    between atoms: N1_3  and  C3_4 
REMARK    3  A    between atoms: C3_4  and  C4_5 
REMARK    4  A    between atoms: C9_11  and  S1_12 
REMARK    5  A    between atoms: S1_12  and  N2_15 
REMARK    6  A    between atoms: N2_15  and  C10_16 
REMARK    7  A    between atoms: N2_15  and  C14_20 
REMARK    8  A    between atoms: C10_16  and  C11_17 
REMARK    9  A    between atoms: C14_20  and  C15_21 
REMARK   10  A    between atoms: C15_21  and  O4_22 
REMARK   11  A    between atoms: C15_21  and  C16_23 
REMARK   12  A    between atoms: C16_23  and  C17_24 
REMARK   13  A    between atoms: C16_23  and  N3_31 
REMARK   14  A    between atoms: C17_24  and  C18_25 
REMARK       I    between atoms: N3_31  and  C24_32 
REMARK   15  A    between atoms: C24_32  and  O6_34 
REMARK   16  A    between atoms: O6_34  and  C25_35 
ROOT
HETATM    1  C15 UNL     1      11.035  -6.361  29.786  1.00  0.00     0.155 C 
ENDROOT
BRANCH   1   2
HETATM    2  C14 UNL     1      10.598  -7.675  29.117  1.00  0.00     0.141 C 
BRANCH   2   3
HETATM    3  N2  UNL     1      11.386  -8.173  27.914  1.00  0.00    -0.204 NA
BRANCH   3   4
HETATM    4  S1  UNL     1      11.372  -9.917  27.809  1.00  0.00     0.243 S 
HETATM    5  O2  UNL     1      10.012 -10.403  27.896  1.00  0.00    -0.206 OA
HETATM    6  O3  UNL     1      12.245 -10.286  26.712  1.00  0.00    -0.206 OA
BRANCH   4   7
HETATM    7  C9  UNL     1      12.153 -10.453  29.323  1.00  0.00     0.075 A 
HETATM    8  C8  UNL     1      11.490 -11.374  30.145  1.00  0.00     0.027 A 
HETATM    9  C7  UNL     1      12.096 -11.848  31.313  1.00  0.00     0.039 A 
HETATM   10  C6  UNL     1      13.373 -11.364  31.596  1.00  0.00     0.086 A 
HETATM   11  O1  UNL     1      14.118 -11.701  32.683  1.00  0.00    -0.321 OA
HETATM   12  C32 UNL     1      14.068 -10.463  30.796  1.00  0.00     0.009 A 
HETATM   13  C5  UNL     1      15.289 -11.023  32.586  1.00  0.00     0.152 A 
HETATM   14  C4  UNL     1      15.322 -10.237  31.448  1.00  0.00     0.005 A 
HETATM   15  C31 UNL     1      13.453 -10.006  29.617  1.00  0.00     0.039 A 
BRANCH  14  16
HETATM   16  C3  UNL     1      16.424  -9.331  31.022  1.00  0.00     0.311 C 
BRANCH  16  17
HETATM   17  N1  UNL     1      17.655 -10.078  30.745  1.00  0.00     0.087 N 
HETATM   18  H6  UNL     1      18.438  -9.465  30.974  1.00  0.00     0.316 HD
BRANCH  17  19
HETATM   19  C2  UNL     1      17.790 -10.478  29.340  1.00  0.00     0.265 C 
HETATM   20  C1  UNL     1      19.248 -10.693  28.970  1.00  0.00     0.037 C 
ENDBRANCH  17  19
ENDBRANCH  16  17
ENDBRANCH  14  16
ENDBRANCH   4   7
ENDBRANCH   3   4
BRANCH   3  21
HETATM   21  C10 UNL     1      10.848  -7.500  26.668  1.00  0.00     0.111 C 
BRANCH  21  22
HETATM   22  C11 UNL     1      11.491  -8.028  25.372  1.00  0.00    -0.009 C 
HETATM   23  C12 UNL     1      10.513  -8.118  24.204  1.00  0.00     0.011 C 
HETATM   24  C13 UNL     1      12.736  -7.246  24.964  1.00  0.00     0.011 C 
ENDBRANCH  21  22
ENDBRANCH   3  21
ENDBRANCH   2   3
ENDBRANCH   1   2
BRANCH   1  25
HETATM   25  O4  UNL     1      12.455  -6.251  29.845  1.00  0.00    -0.392 OA
HETATM   26  H24 UNL     1      12.660  -5.356  30.171  1.00  0.00     0.210 HD
ENDBRANCH   1  25
BRANCH   1  27
HETATM   27  C16 UNL     1      10.363  -5.044  29.295  1.00  0.00     0.120 C 
BRANCH  27  28
HETATM   28  C17 UNL     1      11.272  -3.804  29.418  1.00  0.00     0.066 C 
BRANCH  28  29
HETATM   29  C18 UNL     1      11.119  -3.031  30.713  1.00  0.00    -0.056 A 
HETATM   30  C19 UNL     1      10.244  -1.941  30.812  1.00  0.00     0.007 A 
HETATM   31  C20 UNL     1      10.125  -1.236  32.011  1.00  0.00     0.001 A 
HETATM   32  C21 UNL     1      10.887  -1.605  33.118  1.00  0.00     0.000 A 
HETATM   33  C22 UNL     1      11.771  -2.678  33.028  1.00  0.00     0.001 A 
HETATM   34  C23 UNL     1      11.889  -3.385  31.832  1.00  0.00     0.007 A 
ENDBRANCH  28  29
ENDBRANCH  27  28
BRANCH  27  35
HETATM   35  N3  UNL     1       9.117  -4.819  30.052  1.00  0.00    -0.329 N 
HETATM   36  C24 UNL     1       8.903  -5.326  31.297  1.00  0.00     0.361 C 
HETATM   37  O5  UNL     1       9.737  -5.911  31.971  1.00  0.00    -0.238 OA
HETATM   38  H33 UNL     1       8.279  -4.513  29.566  1.00  0.00     0.165 HD
BRANCH  36  39
HETATM   39  O6  UNL     1       7.629  -5.062  31.674  1.00  0.00    -0.296 OA
BRANCH  39  40
HETATM   40  C25 UNL     1       6.716  -4.768  30.609  1.00  0.00     0.166 C 
HETATM   41  C26 UNL     1       5.835  -3.581  30.962  1.00  0.00     0.204 C 
HETATM   42  O7  UNL     1       4.617  -3.747  30.230  1.00  0.00    -0.358 OA
HETATM   43  C27 UNL     1       4.512  -5.120  29.850  1.00  0.00     0.266 C 
HETATM   44  O8  UNL     1       4.604  -5.277  28.428  1.00  0.00    -0.361 OA
HETATM   45  C30 UNL     1       5.678  -5.869  30.463  1.00  0.00     0.075 C 
HETATM   46  C28 UNL     1       5.631  -6.228  28.127  1.00  0.00     0.171 C 
HETATM   47  C29 UNL     1       5.985  -6.922  29.426  1.00  0.00     0.038 C 
ENDBRANCH  39  40
ENDBRANCH  36  39
ENDBRANCH  27  35
ENDBRANCH   1  27
TORSDOF 16
ENDMDL
