MODEL 1
REMARK minimizedAffinity -11.2473249
REMARK CNNscore 0.833694637
REMARK CNNaffinity 7.42401648
REMARK  5 active torsions:
REMARK  status: ('A' for Active; 'I' for Inactive)
REMARK    1  A    between atoms: C2_2  and  C3_3 
REMARK    2  A    between atoms: C6_6  and  C7_7 
REMARK    3  A    between atoms: C7_7  and  O1_9 
REMARK    4  A    between atoms: C14_17  and  O4_18 
REMARK    5  A    between atoms: C23_30  and  O6_31 
ROOT
HETATM    1  C3  UNL     1      -0.182  51.670 -26.689  1.00  0.00     0.008 C 
HETATM    2  C4  UNL     1      -1.499  50.974 -26.454  1.00  0.00    -0.023 C 
HETATM    3  C5  UNL     1      -1.660  49.641 -26.495  1.00  0.00     0.004 C 
HETATM    4  C6  UNL     1      -2.919  48.893 -26.118  1.00  0.00     0.182 C 
HETATM    5  O2  UNL     1      -3.750  49.702 -25.261  1.00  0.00    -0.308 OA
HETATM    6  C9  UNL     1      -3.386  49.733 -23.945  1.00  0.00     0.276 C 
HETATM    7  O3  UNL     1      -2.404  49.158 -23.480  1.00  0.00    -0.264 OA
HETATM    8  C10 UNL     1      -4.453  50.449 -23.066  1.00  0.00     0.095 C 
HETATM    9  C11 UNL     1      -5.236  51.536 -23.820  1.00  0.00     0.036 C 
HETATM   10  C12 UNL     1      -5.407  49.287 -22.806  1.00  0.00     0.002 C 
HETATM   11  C13 UNL     1      -6.031  48.906 -21.690  1.00  0.00     0.053 C 
HETATM   12  C14 UNL     1      -5.959  49.663 -20.455  1.00  0.00     0.140 C 
HETATM   13  N1  UNL     1      -5.156  50.509 -19.960  1.00  0.00    -0.333 N 
ATOM     14  H1  UNL     1      -5.393  50.903 -19.050  1.00  0.00     0.168 HD
HETATM   15  C15 UNL     1      -3.993  50.936 -20.549  1.00  0.00     0.097 C 
HETATM   16  C16 UNL     1      -3.693  51.025 -21.860  1.00  0.00     0.045 C 
HETATM   17  C17 UNL     1      -2.476  51.837 -22.240  1.00  0.00     0.194 C 
HETATM   18  O5  UNL     1      -2.425  52.394 -23.328  1.00  0.00    -0.287 OA
HETATM   19  C18 UNL     1      -1.359  51.986 -21.292  1.00  0.00     0.046 A 
HETATM   20  C19 UNL     1      -1.637  51.755 -19.950  1.00  0.00     0.032 A 
HETATM   21  C20 UNL     1      -0.648  51.908 -18.964  1.00  0.00     0.026 A 
HETATM   22  C21 UNL     1       0.637  52.332 -19.303  1.00  0.00    -0.027 A 
HETATM   23  C22 UNL     1       1.676  52.533 -18.237  1.00  0.00     0.051 C 
HETATM   24  C23 UNL     1       0.898  52.636 -20.641  1.00  0.00     0.086 A 
HETATM   25  C24 UNL     1      -0.075  52.442 -21.649  1.00  0.00     0.059 A 
HETATM   26  C25 UNL     1       0.349  52.833 -23.017  1.00  0.00     0.163 C 
HETATM   27  O7  UNL     1       0.896  53.933 -23.128  1.00  0.00    -0.292 OA
HETATM   28  C26 UNL     1       0.306  51.835 -24.156  1.00  0.00     0.084 C 
HETATM   29  C27 UNL     1       0.129  52.583 -25.486  1.00  0.00     0.016 C 
HETATM   30  C28 UNL     1      -3.002  51.429 -19.521  1.00  0.00     0.210 C 
HETATM   31  O8  UNL     1      -3.291  51.528 -18.331  1.00  0.00    -0.285 OA
ENDROOT
BRANCH   4  32
HETATM   32  C7  UNL     1      -3.720  48.496 -27.383  1.00  0.00     0.147 C 
HETATM   33  C8  UNL     1      -3.730  49.608 -28.428  1.00  0.00     0.042 C 
BRANCH  32  34
HETATM   34  O1  UNL     1      -5.079  48.207 -27.035  1.00  0.00    -0.393 OA
HETATM   35  H14 UNL     1      -5.506  47.829 -27.823  1.00  0.00     0.210 HD
ENDBRANCH  32  34
ENDBRANCH   4  32
BRANCH   1  36
HETATM   36  C2  UNL     1      -0.214  52.503 -27.984  1.00  0.00     0.004 C 
HETATM   37  C1  UNL     1      -0.326  54.002 -27.735  1.00  0.00     0.006 C 
ENDBRANCH   1  36
BRANCH  12  38
HETATM   38  O4  UNL     1      -7.023  49.347 -19.699  1.00  0.00    -0.346 OA
HETATM   39  H20 UNL     1      -6.941  49.857 -18.873  1.00  0.00     0.219 HD
ENDBRANCH  12  38
BRANCH  24  40
HETATM   40  O6  UNL     1       2.138  53.159 -20.924  1.00  0.00    -0.359 OA
HETATM   41  H25 UNL     1       2.062  53.702 -21.740  1.00  0.00     0.217 HD
ENDBRANCH  24  40
TORSDOF 5
ENDMDL
MODEL 2
REMARK minimizedAffinity -10.9136839
REMARK CNNscore 0.806127846
REMARK CNNaffinity 7.35468149
REMARK  5 active torsions:
REMARK  status: ('A' for Active; 'I' for Inactive)
REMARK    1  A    between atoms: C2_2  and  C3_3 
REMARK    2  A    between atoms: C6_6  and  C7_7 
REMARK    3  A    between atoms: C7_7  and  O1_9 
REMARK    4  A    between atoms: C14_17  and  O4_18 
REMARK    5  A    between atoms: C23_30  and  O6_31 
ROOT
HETATM    1  C3  UNL     1      -0.365  51.305 -17.477  1.00  0.00     0.008 C 
HETATM    2  C4  UNL     1      -1.387  50.362 -18.063  1.00  0.00    -0.023 C 
HETATM    3  C5  UNL     1      -2.714  50.534 -17.951  1.00  0.00     0.004 C 
HETATM    4  C6  UNL     1      -3.771  49.705 -18.646  1.00  0.00     0.182 C 
HETATM    5  O2  UNL     1      -3.215  49.041 -19.799  1.00  0.00    -0.308 OA
HETATM    6  C9  UNL     1      -3.094  49.811 -20.921  1.00  0.00     0.276 C 
HETATM    7  O3  UNL     1      -3.390  51.002 -20.984  1.00  0.00    -0.264 OA
HETATM    8  C10 UNL     1      -2.691  48.963 -22.163  1.00  0.00     0.095 C 
HETATM    9  C11 UNL     1      -1.847  47.727 -21.812  1.00  0.00     0.036 C 
HETATM   10  C12 UNL     1      -4.065  48.474 -22.611  1.00  0.00     0.002 C 
HETATM   11  C13 UNL     1      -4.603  48.381 -23.828  1.00  0.00     0.053 C 
HETATM   12  C14 UNL     1      -3.859  48.678 -25.037  1.00  0.00     0.140 C 
HETATM   13  N1  UNL     1      -2.832  49.365 -25.320  1.00  0.00    -0.333 N 
ATOM     14  H1  UNL     1      -2.518  49.361 -26.290  1.00  0.00     0.168 HD
HETATM   15  C15 UNL     1      -2.109  50.114 -24.427  1.00  0.00     0.097 C 
HETATM   16  C16 UNL     1      -1.938  49.919 -23.104  1.00  0.00     0.045 C 
HETATM   17  C17 UNL     1      -0.831  50.692 -22.426  1.00  0.00     0.194 C 
HETATM   18  O5  UNL     1      -0.276  50.231 -21.437  1.00  0.00    -0.287 OA
HETATM   19  C18 UNL     1      -0.395  51.991 -22.966  1.00  0.00     0.046 A 
HETATM   20  C19 UNL     1      -0.696  52.251 -24.298  1.00  0.00     0.032 A 
HETATM   21  C20 UNL     1      -0.291  53.446 -24.917  1.00  0.00     0.026 A 
HETATM   22  C21 UNL     1       0.460  54.391 -24.218  1.00  0.00    -0.027 A 
HETATM   23  C22 UNL     1       0.926  55.646 -24.901  1.00  0.00     0.051 C 
HETATM   24  C23 UNL     1       0.829  54.098 -22.904  1.00  0.00     0.086 A 
HETATM   25  C24 UNL     1       0.388  52.922 -22.255  1.00  0.00     0.059 A 
HETATM   26  C25 UNL     1       0.882  52.745 -20.866  1.00  0.00     0.163 C 
HETATM   27  O7  UNL     1       2.089  52.930 -20.687  1.00  0.00    -0.292 OA
HETATM   28  C26 UNL     1      -0.086  52.567 -19.715  1.00  0.00     0.084 C 
HETATM   29  C27 UNL     1       0.593  51.769 -18.592  1.00  0.00     0.016 C 
HETATM   30  C28 UNL     1      -1.376  51.239 -25.117  1.00  0.00     0.210 C 
HETATM   31  O8  UNL     1      -1.361  51.357 -26.339  1.00  0.00    -0.285 OA
ENDROOT
BRANCH   4  32
HETATM   32  C7  UNL     1      -4.361  48.647 -17.680  1.00  0.00     0.147 C 
HETATM   33  C8  UNL     1      -3.802  47.253 -17.947  1.00  0.00     0.042 C 
BRANCH  32  34
HETATM   34  O1  UNL     1      -5.784  48.587 -17.827  1.00  0.00    -0.393 OA
HETATM   35  H14 UNL     1      -6.126  48.021 -17.113  1.00  0.00     0.210 HD
ENDBRANCH  32  34
ENDBRANCH   4  32
BRANCH   1  36
HETATM   36  C2  UNL     1       0.435  50.629 -16.347  1.00  0.00     0.004 C 
HETATM   37  C1  UNL     1       0.240  49.119 -16.290  1.00  0.00     0.006 C 
ENDBRANCH   1  36
BRANCH  12  38
HETATM   38  O4  UNL     1      -4.449  48.048 -26.065  1.00  0.00    -0.346 OA
HETATM   39  H20 UNL     1      -3.939  48.277 -26.863  1.00  0.00     0.219 HD
ENDBRANCH  12  38
BRANCH  24  40
HETATM   40  O6  UNL     1       1.663  54.997 -22.282  1.00  0.00    -0.359 OA
HETATM   41  H25 UNL     1       2.169  54.517 -21.590  1.00  0.00     0.217 HD
ENDBRANCH  24  40
TORSDOF 5
ENDMDL
MODEL 3
REMARK minimizedAffinity -7.71699095
REMARK CNNscore 0.677517354
REMARK CNNaffinity 6.31647491
REMARK  5 active torsions:
REMARK  status: ('A' for Active; 'I' for Inactive)
REMARK    1  A    between atoms: C2_2  and  C3_3 
REMARK    2  A    between atoms: C6_6  and  C7_7 
REMARK    3  A    between atoms: C7_7  and  O1_9 
REMARK    4  A    between atoms: C14_17  and  O4_18 
REMARK    5  A    between atoms: C23_30  and  O6_31 
ROOT
HETATM    1  C3  UNL     1       7.404  55.381  -5.717  1.00  0.00     0.008 C 
HETATM    2  C4  UNL     1       6.959  54.589  -6.920  1.00  0.00    -0.023 C 
HETATM    3  C5  UNL     1       6.746  53.263  -6.906  1.00  0.00     0.004 C 
HETATM    4  C6  UNL     1       6.155  52.454  -8.040  1.00  0.00     0.182 C 
HETATM    5  O2  UNL     1       5.407  53.305  -8.932  1.00  0.00    -0.308 OA
HETATM    6  C9  UNL     1       4.145  53.628  -8.518  1.00  0.00     0.276 C 
HETATM    7  O3  UNL     1       3.650  53.274  -7.451  1.00  0.00    -0.264 OA
HETATM    8  C10 UNL     1       3.343  54.363  -9.631  1.00  0.00     0.095 C 
HETATM    9  C11 UNL     1       4.228  55.186 -10.582  1.00  0.00     0.036 C 
HETATM   10  C12 UNL     1       2.812  53.165 -10.413  1.00  0.00     0.002 C 
HETATM   11  C13 UNL     1       1.606  52.930 -10.933  1.00  0.00     0.053 C 
HETATM   12  C14 UNL     1       0.538  53.911 -10.908  1.00  0.00     0.140 C 
HETATM   13  N1  UNL     1       0.260  54.926 -10.201  1.00  0.00    -0.333 N 
ATOM     14  H1  UNL     1      -0.577  55.454 -10.448  1.00  0.00     0.168 HD
HETATM   15  C15 UNL     1       0.993  55.371  -9.131  1.00  0.00     0.097 C 
HETATM   16  C16 UNL     1       2.315  55.245  -8.902  1.00  0.00     0.045 C 
HETATM   17  C17 UNL     1       2.918  56.111  -7.820  1.00  0.00     0.194 C 
HETATM   18  O5  UNL     1       4.090  56.454  -7.888  1.00  0.00    -0.287 OA
HETATM   19  C18 UNL     1       2.090  56.570  -6.691  1.00  0.00     0.046 A 
HETATM   20  C19 UNL     1       0.713  56.567  -6.879  1.00  0.00     0.032 A 
HETATM   21  C20 UNL     1      -0.160  57.021  -5.877  1.00  0.00     0.026 A 
HETATM   22  C21 UNL     1       0.335  57.525  -4.674  1.00  0.00    -0.027 A 
HETATM   23  C22 UNL     1      -0.604  58.049  -3.625  1.00  0.00     0.051 C 
HETATM   24  C23 UNL     1       1.720  57.600  -4.513  1.00  0.00     0.086 A 
HETATM   25  C24 UNL     1       2.609  57.102  -5.495  1.00  0.00     0.059 A 
HETATM   26  C25 UNL     1       4.050  57.274  -5.185  1.00  0.00     0.163 C 
HETATM   27  O7  UNL     1       4.396  58.392  -4.792  1.00  0.00    -0.292 OA
HETATM   28  C26 UNL     1       4.983  56.082  -5.146  1.00  0.00     0.084 C 
HETATM   29  C27 UNL     1       6.412  56.537  -5.477  1.00  0.00     0.016 C 
HETATM   30  C28 UNL     1       0.141  56.165  -8.170  1.00  0.00     0.210 C 
HETATM   31  O8  UNL     1      -1.028  56.453  -8.417  1.00  0.00    -0.285 OA
ENDROOT
BRANCH   4  32
HETATM   32  C7  UNL     1       7.270  51.730  -8.836  1.00  0.00     0.147 C 
HETATM   33  C8  UNL     1       6.705  50.882  -9.970  1.00  0.00     0.042 C 
BRANCH  32  34
HETATM   34  O1  UNL     1       8.013  50.867  -7.968  1.00  0.00    -0.393 OA
HETATM   35  H14 UNL     1       8.782  50.544  -8.468  1.00  0.00     0.210 HD
ENDBRANCH  32  34
ENDBRANCH   4  32
BRANCH   1  36
HETATM   36  C2  UNL     1       8.825  55.944  -5.914  1.00  0.00     0.004 C 
HETATM   37  C1  UNL     1       9.087  57.215  -5.115  1.00  0.00     0.006 C 
ENDBRANCH   1  36
BRANCH  12  38
HETATM   38  O4  UNL     1      -0.333  53.618 -11.887  1.00  0.00    -0.346 OA
HETATM   39  H20 UNL     1      -1.044  54.281 -11.837  1.00  0.00     0.219 HD
ENDBRANCH  12  38
BRANCH  24  40
HETATM   40  O6  UNL     1       2.176  58.205  -3.366  1.00  0.00    -0.359 OA
HETATM   41  H25 UNL     1       3.071  58.570  -3.547  1.00  0.00     0.217 HD
ENDBRANCH  24  40
TORSDOF 5
ENDMDL
MODEL 4
REMARK minimizedAffinity -11.5373592
REMARK CNNscore 0.673927307
REMARK CNNaffinity 6.69969368
REMARK  5 active torsions:
REMARK  status: ('A' for Active; 'I' for Inactive)
REMARK    1  A    between atoms: C2_2  and  C3_3 
REMARK    2  A    between atoms: C6_6  and  C7_7 
REMARK    3  A    between atoms: C7_7  and  O1_9 
REMARK    4  A    between atoms: C14_17  and  O4_18 
REMARK    5  A    between atoms: C23_30  and  O6_31 
ROOT
HETATM    1  C3  UNL     1      -4.613  47.246 -22.082  1.00  0.00     0.008 C 
HETATM    2  C4  UNL     1      -4.073  47.543 -20.705  1.00  0.00    -0.023 C 
HETATM    3  C5  UNL     1      -3.212  46.747 -20.051  1.00  0.00     0.004 C 
HETATM    4  C6  UNL     1      -2.529  47.075 -18.742  1.00  0.00     0.182 C 
HETATM    5  O2  UNL     1      -2.517  48.500 -18.522  1.00  0.00    -0.308 OA
HETATM    6  C9  UNL     1      -1.548  49.193 -19.191  1.00  0.00     0.276 C 
HETATM    7  O3  UNL     1      -0.741  48.687 -19.968  1.00  0.00    -0.264 OA
HETATM    8  C10 UNL     1      -1.476  50.678 -18.730  1.00  0.00     0.095 C 
HETATM    9  C11 UNL     1      -2.827  51.235 -18.250  1.00  0.00     0.036 C 
HETATM   10  C12 UNL     1      -0.573  50.535 -17.508  1.00  0.00     0.002 C 
HETATM   11  C13 UNL     1       0.451  51.281 -17.091  1.00  0.00     0.053 C 
HETATM   12  C14 UNL     1       0.844  52.511 -17.751  1.00  0.00     0.140 C 
HETATM   13  N1  UNL     1       0.696  53.001 -18.911  1.00  0.00    -0.333 N 
ATOM     14  H1  UNL     1       1.074  53.933 -19.078  1.00  0.00     0.168 HD
HETATM   15  C15 UNL     1       0.067  52.379 -19.959  1.00  0.00     0.097 C 
HETATM   16  C16 UNL     1      -0.927  51.469 -19.929  1.00  0.00     0.045 C 
HETATM   17  C17 UNL     1      -1.659  51.198 -21.223  1.00  0.00     0.194 C 
HETATM   18  O5  UNL     1      -2.828  50.835 -21.203  1.00  0.00    -0.287 OA
HETATM   19  C18 UNL     1      -0.979  51.395 -22.514  1.00  0.00     0.046 A 
HETATM   20  C19 UNL     1       0.135  52.226 -22.519  1.00  0.00     0.032 A 
HETATM   21  C20 UNL     1       0.829  52.507 -23.707  1.00  0.00     0.026 A 
HETATM   22  C21 UNL     1       0.396  51.986 -24.927  1.00  0.00    -0.027 A 
HETATM   23  C22 UNL     1       1.120  52.327 -26.198  1.00  0.00     0.051 C 
HETATM   24  C23 UNL     1      -0.767  51.213 -24.936  1.00  0.00     0.086 A 
HETATM   25  C24 UNL     1      -1.448  50.885 -23.741  1.00  0.00     0.059 A 
HETATM   26  C25 UNL     1      -2.679  50.074 -23.920  1.00  0.00     0.163 C 
HETATM   27  O7  UNL     1      -3.463  50.454 -24.794  1.00  0.00    -0.292 OA
HETATM   28  C26 UNL     1      -2.837  48.740 -23.220  1.00  0.00     0.084 C 
HETATM   29  C27 UNL     1      -4.330  48.447 -23.006  1.00  0.00     0.016 C 
HETATM   30  C28 UNL     1       0.562  52.900 -21.287  1.00  0.00     0.210 C 
HETATM   31  O8  UNL     1       1.341  53.847 -21.368  1.00  0.00    -0.285 OA
ENDROOT
BRANCH   4  32
HETATM   32  C7  UNL     1      -3.246  46.378 -17.560  1.00  0.00     0.147 C 
HETATM   33  C8  UNL     1      -3.549  47.349 -16.422  1.00  0.00     0.042 C 
BRANCH  32  34
HETATM   34  O1  UNL     1      -2.426  45.328 -17.036  1.00  0.00    -0.393 OA
HETATM   35  H14 UNL     1      -2.964  44.830 -16.397  1.00  0.00     0.210 HD
ENDBRANCH  32  34
ENDBRANCH   4  32
BRANCH   1  36
HETATM   36  C2  UNL     1      -6.127  46.964 -22.039  1.00  0.00     0.004 C 
HETATM   37  C1  UNL     1      -6.975  48.158 -22.459  1.00  0.00     0.006 C 
ENDBRANCH   1  36
BRANCH  12  38
HETATM   38  O4  UNL     1       1.527  53.265 -16.875  1.00  0.00    -0.346 OA
HETATM   39  H20 UNL     1       1.791  54.075 -17.349  1.00  0.00     0.219 HD
ENDBRANCH  12  38
BRANCH  24  40
HETATM   40  O6  UNL     1      -1.230  50.811 -26.166  1.00  0.00    -0.359 OA
HETATM   41  H25 UNL     1      -2.201  50.669 -26.097  1.00  0.00     0.217 HD
ENDBRANCH  24  40
TORSDOF 5
ENDMDL
MODEL 5
REMARK minimizedAffinity -10.6028767
REMARK CNNscore 0.500978589
REMARK CNNaffinity 6.48299837
REMARK  5 active torsions:
REMARK  status: ('A' for Active; 'I' for Inactive)
REMARK    1  A    between atoms: C2_2  and  C3_3 
REMARK    2  A    between atoms: C6_6  and  C7_7 
REMARK    3  A    between atoms: C7_7  and  O1_9 
REMARK    4  A    between atoms: C14_17  and  O4_18 
REMARK    5  A    between atoms: C23_30  and  O6_31 
ROOT
HETATM    1  C3  UNL     1      -0.591  52.138 -23.817  1.00  0.00     0.008 C 
HETATM    2  C4  UNL     1      -1.756  51.192 -23.661  1.00  0.00    -0.023 C 
HETATM    3  C5  UNL     1      -1.705  49.886 -23.967  1.00  0.00     0.004 C 
HETATM    4  C6  UNL     1      -2.793  48.872 -23.686  1.00  0.00     0.182 C 
HETATM    5  O2  UNL     1      -3.664  49.344 -22.638  1.00  0.00    -0.308 OA
HETATM    6  C9  UNL     1      -3.196  49.182 -21.364  1.00  0.00     0.276 C 
HETATM    7  O3  UNL     1      -2.099  48.706 -21.081  1.00  0.00    -0.264 OA
HETATM    8  C10 UNL     1      -4.283  49.517 -20.302  1.00  0.00     0.095 C 
HETATM    9  C11 UNL     1      -5.291  50.578 -20.773  1.00  0.00     0.036 C 
HETATM   10  C12 UNL     1      -5.014  48.180 -20.236  1.00  0.00     0.002 C 
HETATM   11  C13 UNL     1      -5.471  47.487 -19.191  1.00  0.00     0.053 C 
HETATM   12  C14 UNL     1      -5.413  47.992 -17.832  1.00  0.00     0.140 C 
HETATM   13  N1  UNL     1      -4.714  48.852 -17.217  1.00  0.00    -0.333 N 
ATOM     14  H1  UNL     1      -4.930  49.015 -16.234  1.00  0.00     0.168 HD
HETATM   15  C15 UNL     1      -3.690  49.580 -17.766  1.00  0.00     0.097 C 
HETATM   16  C16 UNL     1      -3.522  49.972 -19.045  1.00  0.00     0.045 C 
HETATM   17  C17 UNL     1      -2.488  51.040 -19.314  1.00  0.00     0.194 C 
HETATM   18  O5  UNL     1      -2.620  51.798 -20.266  1.00  0.00    -0.287 OA
HETATM   19  C18 UNL     1      -1.330  51.193 -18.417  1.00  0.00     0.046 A 
HETATM   20  C19 UNL     1      -1.450  50.663 -17.138  1.00  0.00     0.032 A 
HETATM   21  C20 UNL     1      -0.416  50.790 -16.196  1.00  0.00     0.026 A 
HETATM   22  C21 UNL     1       0.751  51.487 -16.508  1.00  0.00    -0.027 A 
HETATM   23  C22 UNL     1       1.834  51.655 -15.480  1.00  0.00     0.051 C 
HETATM   24  C23 UNL     1       0.843  52.086 -17.766  1.00  0.00     0.086 A 
HETATM   25  C24 UNL     1      -0.170  51.926 -18.739  1.00  0.00     0.059 A 
HETATM   26  C25 UNL     1       0.066  52.641 -20.018  1.00  0.00     0.163 C 
HETATM   27  O7  UNL     1       0.419  53.820 -19.929  1.00  0.00    -0.292 OA
HETATM   28  C26 UNL     1       0.083  51.891 -21.334  1.00  0.00     0.084 C 
HETATM   29  C27 UNL     1      -0.326  52.840 -22.471  1.00  0.00     0.016 C 
HETATM   30  C28 UNL     1      -2.704  50.027 -16.713  1.00  0.00     0.210 C 
HETATM   31  O8  UNL     1      -2.900  49.843 -15.514  1.00  0.00    -0.285 OA
ENDROOT
BRANCH   4  32
HETATM   32  C7  UNL     1      -3.627  48.595 -24.961  1.00  0.00     0.147 C 
HETATM   33  C8  UNL     1      -2.766  48.600 -26.221  1.00  0.00     0.042 C 
BRANCH  32  34
HETATM   34  O1  UNL     1      -4.639  49.597 -25.115  1.00  0.00    -0.393 OA
HETATM   35  H14 UNL     1      -5.223  49.311 -25.838  1.00  0.00     0.210 HD
ENDBRANCH  32  34
ENDBRANCH   4  32
BRANCH   1  36
HETATM   36  C2  UNL     1      -0.868  53.188 -24.910  1.00  0.00     0.004 C 
HETATM   37  C1  UNL     1      -0.668  52.656 -26.324  1.00  0.00     0.006 C 
ENDBRANCH   1  36
BRANCH  12  38
HETATM   38  O4  UNL     1      -6.343  47.356 -17.102  1.00  0.00    -0.346 OA
HETATM   39  H20 UNL     1      -6.271  47.702 -16.194  1.00  0.00     0.219 HD
ENDBRANCH  12  38
BRANCH  24  40
HETATM   40  O6  UNL     1       1.954  52.860 -18.001  1.00  0.00    -0.359 OA
HETATM   41  H25 UNL     1       1.723  53.529 -18.683  1.00  0.00     0.217 HD
ENDBRANCH  24  40
TORSDOF 5
ENDMDL
MODEL 6
REMARK minimizedAffinity -10.2698383
REMARK CNNscore 0.413770944
REMARK CNNaffinity 6.89505911
REMARK  5 active torsions:
REMARK  status: ('A' for Active; 'I' for Inactive)
REMARK    1  A    between atoms: C2_2  and  C3_3 
REMARK    2  A    between atoms: C6_6  and  C7_7 
REMARK    3  A    between atoms: C7_7  and  O1_9 
REMARK    4  A    between atoms: C14_17  and  O4_18 
REMARK    5  A    between atoms: C23_30  and  O6_31 
ROOT
HETATM    1  C3  UNL     1      -5.298  47.786 -18.795  1.00  0.00     0.008 C 
HETATM    2  C4  UNL     1      -5.391  48.382 -20.177  1.00  0.00    -0.023 C 
HETATM    3  C5  UNL     1      -6.239  49.368 -20.511  1.00  0.00     0.004 C 
HETATM    4  C6  UNL     1      -6.263  50.099 -21.835  1.00  0.00     0.182 C 
HETATM    5  O2  UNL     1      -4.993  49.969 -22.507  1.00  0.00    -0.308 OA
HETATM    6  C9  UNL     1      -4.007  50.808 -22.072  1.00  0.00     0.276 C 
HETATM    7  O3  UNL     1      -4.132  51.611 -21.150  1.00  0.00    -0.264 OA
HETATM    8  C10 UNL     1      -2.750  50.747 -22.989  1.00  0.00     0.095 C 
HETATM    9  C11 UNL     1      -2.551  49.380 -23.663  1.00  0.00     0.036 C 
HETATM   10  C12 UNL     1      -3.161  51.742 -24.071  1.00  0.00     0.002 C 
HETATM   11  C13 UNL     1      -2.465  52.704 -24.679  1.00  0.00     0.053 C 
HETATM   12  C14 UNL     1      -1.049  52.913 -24.444  1.00  0.00     0.140 C 
HETATM   13  N1  UNL     1      -0.237  52.633 -23.511  1.00  0.00    -0.333 N 
ATOM     14  H1  UNL     1       0.740  52.894 -23.646  1.00  0.00     0.168 HD
HETATM   15  C15 UNL     1      -0.566  52.007 -22.337  1.00  0.00     0.097 C 
HETATM   16  C16 UNL     1      -1.555  51.124 -22.098  1.00  0.00     0.045 C 
HETATM   17  C17 UNL     1      -1.488  50.339 -20.808  1.00  0.00     0.194 C 
HETATM   18  O5  UNL     1      -1.983  49.221 -20.742  1.00  0.00    -0.287 OA
HETATM   19  C18 UNL     1      -0.805  50.903 -19.631  1.00  0.00     0.046 A 
HETATM   20  C19 UNL     1       0.117  51.916 -19.865  1.00  0.00     0.032 A 
HETATM   21  C20 UNL     1       0.848  52.493 -18.813  1.00  0.00     0.026 A 
HETATM   22  C21 UNL     1       0.694  52.037 -17.504  1.00  0.00    -0.027 A 
HETATM   23  C22 UNL     1       1.512  52.630 -16.392  1.00  0.00     0.051 C 
HETATM   24  C23 UNL     1      -0.175  50.968 -17.277  1.00  0.00     0.086 A 
HETATM   25  C24 UNL     1      -0.952  50.410 -18.319  1.00  0.00     0.059 A 
HETATM   26  C25 UNL     1      -1.811  49.267 -17.922  1.00  0.00     0.163 C 
HETATM   27  O7  UNL     1      -1.274  48.388 -17.243  1.00  0.00    -0.292 OA
HETATM   28  C26 UNL     1      -3.307  49.304 -18.155  1.00  0.00     0.084 C 
HETATM   29  C27 UNL     1      -3.840  47.871 -18.304  1.00  0.00     0.016 C 
HETATM   30  C28 UNL     1       0.411  52.350 -21.237  1.00  0.00     0.210 C 
HETATM   31  O8  UNL     1       1.424  53.012 -21.446  1.00  0.00    -0.285 OA
ENDROOT
BRANCH   4  32
HETATM   32  C7  UNL     1      -7.386  49.545 -22.747  1.00  0.00     0.147 C 
HETATM   33  C8  UNL     1      -7.344  48.023 -22.846  1.00  0.00     0.042 C 
BRANCH  32  34
HETATM   34  O1  UNL     1      -7.252  50.076 -24.071  1.00  0.00    -0.393 OA
HETATM   35  H14 UNL     1      -8.048  49.819 -24.568  1.00  0.00     0.210 HD
ENDBRANCH  32  34
ENDBRANCH   4  32
BRANCH   1  36
HETATM   36  C2  UNL     1      -5.768  46.318 -18.787  1.00  0.00     0.004 C 
HETATM   37  C1  UNL     1      -7.243  46.155 -19.131  1.00  0.00     0.006 C 
ENDBRANCH   1  36
BRANCH  12  38
HETATM   38  O4  UNL     1      -0.534  53.567 -25.497  1.00  0.00    -0.346 OA
HETATM   39  H20 UNL     1       0.410  53.708 -25.306  1.00  0.00     0.219 HD
ENDBRANCH  12  38
BRANCH  24  40
HETATM   40  O6  UNL     1      -0.219  50.469 -15.997  1.00  0.00    -0.359 OA
HETATM   41  H25 UNL     1      -0.497  49.527 -16.045  1.00  0.00     0.217 HD
ENDBRANCH  24  40
TORSDOF 5
ENDMDL
MODEL 7
REMARK minimizedAffinity -7.87625504
REMARK CNNscore 0.406524569
REMARK CNNaffinity 6.27936602
REMARK  5 active torsions:
REMARK  status: ('A' for Active; 'I' for Inactive)
REMARK    1  A    between atoms: C2_2  and  C3_3 
REMARK    2  A    between atoms: C6_6  and  C7_7 
REMARK    3  A    between atoms: C7_7  and  O1_9 
REMARK    4  A    between atoms: C14_17  and  O4_18 
REMARK    5  A    between atoms: C23_30  and  O6_31 
ROOT
HETATM    1  C3  UNL     1      -4.642  46.537 -17.487  1.00  0.00     0.008 C 
HETATM    2  C4  UNL     1      -4.518  47.209 -18.831  1.00  0.00    -0.023 C 
HETATM    3  C5  UNL     1      -5.405  48.097 -19.309  1.00  0.00     0.004 C 
HETATM    4  C6  UNL     1      -5.246  48.908 -20.576  1.00  0.00     0.182 C 
HETATM    5  O2  UNL     1      -3.856  48.991 -20.951  1.00  0.00    -0.308 OA
HETATM    6  C9  UNL     1      -3.117  49.920 -20.274  1.00  0.00     0.276 C 
HETATM    7  O3  UNL     1      -3.552  50.635 -19.374  1.00  0.00    -0.264 OA
HETATM    8  C10 UNL     1      -1.697  50.088 -20.889  1.00  0.00     0.095 C 
HETATM    9  C11 UNL     1      -1.163  48.808 -21.553  1.00  0.00     0.036 C 
HETATM   10  C12 UNL     1      -2.001  51.092 -21.996  1.00  0.00     0.002 C 
HETATM   11  C13 UNL     1      -1.335  52.177 -22.396  1.00  0.00     0.053 C 
HETATM   12  C14 UNL     1      -0.049  52.553 -21.842  1.00  0.00     0.140 C 
HETATM   13  N1  UNL     1       0.574  52.317 -20.763  1.00  0.00    -0.333 N 
ATOM     14  H1  UNL     1       1.509  52.713 -20.666  1.00  0.00     0.168 HD
HETATM   15  C15 UNL     1       0.092  51.575 -19.716  1.00  0.00     0.097 C 
HETATM   16  C16 UNL     1      -0.789  50.555 -19.739  1.00  0.00     0.045 C 
HETATM   17  C17 UNL     1      -0.891  49.698 -18.497  1.00  0.00     0.194 C 
HETATM   18  O5  UNL     1      -1.223  48.524 -18.587  1.00  0.00    -0.287 OA
HETATM   19  C18 UNL     1      -0.566  50.265 -17.177  1.00  0.00     0.046 A 
HETATM   20  C19 UNL     1       0.230  51.404 -17.160  1.00  0.00     0.032 A 
HETATM   21  C20 UNL     1       0.627  51.997 -15.950  1.00  0.00     0.026 A 
HETATM   22  C21 UNL     1       0.260  51.436 -14.727  1.00  0.00    -0.027 A 
HETATM   23  C22 UNL     1       0.725  52.053 -13.438  1.00  0.00     0.051 C 
HETATM   24  C23 UNL     1      -0.476  50.250 -14.742  1.00  0.00     0.086 A 
HETATM   25  C24 UNL     1      -0.921  49.668 -15.951  1.00  0.00     0.059 A 
HETATM   26  C25 UNL     1      -1.674  48.398 -15.800  1.00  0.00     0.163 C 
HETATM   27  O7  UNL     1      -1.176  47.551 -15.053  1.00  0.00    -0.292 OA
HETATM   28  C26 UNL     1      -3.074  48.255 -16.360  1.00  0.00     0.084 C 
HETATM   29  C27 UNL     1      -3.351  46.778 -16.680  1.00  0.00     0.016 C 
HETATM   30  C28 UNL     1       0.749  51.965 -18.413  1.00  0.00     0.210 C 
HETATM   31  O8  UNL     1       1.678  52.767 -18.365  1.00  0.00    -0.285 OA
ENDROOT
BRANCH   4  32
HETATM   32  C7  UNL     1      -6.054  48.276 -21.736  1.00  0.00     0.147 C 
HETATM   33  C8  UNL     1      -7.481  47.930 -21.319  1.00  0.00     0.042 C 
BRANCH  32  34
HETATM   34  O1  UNL     1      -5.420  47.071 -22.178  1.00  0.00    -0.393 OA
HETATM   35  H14 UNL     1      -5.874  46.785 -22.990  1.00  0.00     0.210 HD
ENDBRANCH  32  34
ENDBRANCH   4  32
BRANCH   1  36
HETATM   36  C2  UNL     1      -4.887  45.023 -17.641  1.00  0.00     0.004 C 
HETATM   37  C1  UNL     1      -6.308  44.683 -18.073  1.00  0.00     0.006 C 
ENDBRANCH   1  36
BRANCH  12  38
HETATM   38  O4  UNL     1       0.583  53.339 -22.728  1.00  0.00    -0.346 OA
HETATM   39  H20 UNL     1       1.434  53.589 -22.324  1.00  0.00     0.219 HD
ENDBRANCH  12  38
BRANCH  24  40
HETATM   40  O6  UNL     1      -0.724  49.662 -13.524  1.00  0.00    -0.359 OA
HETATM   41  H25 UNL     1      -0.847  48.697 -13.668  1.00  0.00     0.217 HD
ENDBRANCH  24  40
TORSDOF 5
ENDMDL
MODEL 8
REMARK minimizedAffinity -7.89660406
REMARK CNNscore 0.323827326
REMARK CNNaffinity 4.99582052
REMARK  5 active torsions:
REMARK  status: ('A' for Active; 'I' for Inactive)
REMARK    1  A    between atoms: C2_2  and  C3_3 
REMARK    2  A    between atoms: C6_6  and  C7_7 
REMARK    3  A    between atoms: C7_7  and  O1_9 
REMARK    4  A    between atoms: C14_17  and  O4_18 
REMARK    5  A    between atoms: C23_30  and  O6_31 
ROOT
HETATM    1  C3  UNL     1       8.142  65.422 -35.918  1.00  0.00     0.008 C 
HETATM    2  C4  UNL     1       6.688  65.257 -35.552  1.00  0.00    -0.023 C 
HETATM    3  C5  UNL     1       6.173  65.599 -34.359  1.00  0.00     0.004 C 
HETATM    4  C6  UNL     1       4.703  65.595 -34.001  1.00  0.00     0.182 C 
HETATM    5  O2  UNL     1       3.893  65.659 -35.192  1.00  0.00    -0.308 OA
HETATM    6  C9  UNL     1       3.746  66.901 -35.740  1.00  0.00     0.276 C 
HETATM    7  O3  UNL     1       4.279  67.921 -35.307  1.00  0.00    -0.264 OA
HETATM    8  C10 UNL     1       2.691  66.908 -36.884  1.00  0.00     0.095 C 
HETATM    9  C11 UNL     1       2.588  65.566 -37.629  1.00  0.00     0.036 C 
HETATM   10  C12 UNL     1       1.413  67.084 -36.069  1.00  0.00     0.002 C 
HETATM   11  C13 UNL     1       0.345  67.855 -36.280  1.00  0.00     0.053 C 
HETATM   12  C14 UNL     1       0.181  68.654 -37.479  1.00  0.00     0.140 C 
HETATM   13  N1  UNL     1       0.959  69.142 -38.353  1.00  0.00    -0.333 N 
ATOM     14  H1  UNL     1       0.534  69.655 -39.125  1.00  0.00     0.168 HD
HETATM   15  C15 UNL     1       2.326  69.034 -38.345  1.00  0.00     0.097 C 
HETATM   16  C16 UNL     1       3.094  68.054 -37.827  1.00  0.00     0.045 C 
HETATM   17  C17 UNL     1       4.545  68.014 -38.247  1.00  0.00     0.194 C 
HETATM   18  O5  UNL     1       5.148  66.950 -38.273  1.00  0.00    -0.287 OA
HETATM   19  C18 UNL     1       5.233  69.251 -38.653  1.00  0.00     0.046 A 
HETATM   20  C19 UNL     1       4.433  70.314 -39.055  1.00  0.00     0.032 A 
HETATM   21  C20 UNL     1       4.995  71.523 -39.496  1.00  0.00     0.026 A 
HETATM   22  C21 UNL     1       6.379  71.679 -39.578  1.00  0.00    -0.027 A 
HETATM   23  C22 UNL     1       6.970  72.961 -40.091  1.00  0.00     0.051 C 
HETATM   24  C23 UNL     1       7.184  70.587 -39.246  1.00  0.00     0.086 A 
HETATM   25  C24 UNL     1       6.632  69.381 -38.757  1.00  0.00     0.059 A 
HETATM   26  C25 UNL     1       7.618  68.308 -38.469  1.00  0.00     0.163 C 
HETATM   27  O7  UNL     1       8.463  68.093 -39.343  1.00  0.00    -0.292 OA
HETATM   28  C26 UNL     1       7.703  67.681 -37.093  1.00  0.00     0.084 C 
HETATM   29  C27 UNL     1       8.247  66.250 -37.214  1.00  0.00     0.016 C 
HETATM   30  C28 UNL     1       2.973  70.165 -39.109  1.00  0.00     0.210 C 
HETATM   31  O8  UNL     1       2.315  70.986 -39.742  1.00  0.00    -0.285 OA
ENDROOT
BRANCH   4  32
HETATM   32  C7  UNL     1       4.338  64.322 -33.198  1.00  0.00     0.147 C 
HETATM   33  C8  UNL     1       4.012  64.637 -31.742  1.00  0.00     0.042 C 
BRANCH  32  34
HETATM   34  O1  UNL     1       5.433  63.399 -33.214  1.00  0.00    -0.393 OA
HETATM   35  H14 UNL     1       5.116  62.565 -32.825  1.00  0.00     0.210 HD
ENDBRANCH  32  34
ENDBRANCH   4  32
BRANCH   1  36
HETATM   36  C2  UNL     1       8.826  64.056 -36.113  1.00  0.00     0.004 C 
HETATM   37  C1  UNL     1       9.077  63.314 -34.806  1.00  0.00     0.006 C 
ENDBRANCH   1  36
BRANCH  12  38
HETATM   38  O4  UNL     1      -1.127  68.908 -37.647  1.00  0.00    -0.346 OA
HETATM   39  H20 UNL     1      -1.205  69.457 -38.447  1.00  0.00     0.219 HD
ENDBRANCH  12  38
BRANCH  24  40
HETATM   40  O6  UNL     1       8.536  70.735 -39.446  1.00  0.00    -0.359 OA
HETATM   41  H25 UNL     1       8.924  69.843 -39.591  1.00  0.00     0.217 HD
ENDBRANCH  24  40
TORSDOF 5
ENDMDL
MODEL 9
REMARK minimizedAffinity -11.4916868
REMARK CNNscore 0.316854149
REMARK CNNaffinity 6.90133905
REMARK  5 active torsions:
REMARK  status: ('A' for Active; 'I' for Inactive)
REMARK    1  A    between atoms: C2_2  and  C3_3 
REMARK    2  A    between atoms: C6_6  and  C7_7 
REMARK    3  A    between atoms: C7_7  and  O1_9 
REMARK    4  A    between atoms: C14_17  and  O4_18 
REMARK    5  A    between atoms: C23_30  and  O6_31 
ROOT
HETATM    1  C3  UNL     1       0.139  51.460 -25.915  1.00  0.00     0.008 C 
HETATM    2  C4  UNL     1       0.232  51.644 -24.420  1.00  0.00    -0.023 C 
HETATM    3  C5  UNL     1      -0.066  52.790 -23.788  1.00  0.00     0.004 C 
HETATM    4  C6  UNL     1      -0.135  52.976 -22.288  1.00  0.00     0.182 C 
HETATM    5  O2  UNL     1      -0.328  51.708 -21.630  1.00  0.00    -0.308 OA
HETATM    6  C9  UNL     1      -1.610  51.236 -21.622  1.00  0.00     0.276 C 
HETATM    7  O3  UNL     1      -2.563  51.799 -22.156  1.00  0.00    -0.264 OA
HETATM    8  C10 UNL     1      -1.758  49.981 -20.712  1.00  0.00     0.095 C 
HETATM    9  C11 UNL     1      -0.476  49.136 -20.622  1.00  0.00     0.036 C 
HETATM   10  C12 UNL     1      -1.965  50.654 -19.359  1.00  0.00     0.002 C 
HETATM   11  C13 UNL     1      -2.816  50.377 -18.369  1.00  0.00     0.053 C 
HETATM   12  C14 UNL     1      -3.699  49.227 -18.396  1.00  0.00     0.140 C 
HETATM   13  N1  UNL     1      -4.190  48.485 -19.299  1.00  0.00    -0.333 N 
ATOM     14  H1  UNL     1      -4.778  47.708 -18.999  1.00  0.00     0.168 HD
HETATM   15  C15 UNL     1      -3.992  48.643 -20.647  1.00  0.00     0.097 C 
HETATM   16  C16 UNL     1      -2.934  49.174 -21.290  1.00  0.00     0.045 C 
HETATM   17  C17 UNL     1      -2.826  48.923 -22.776  1.00  0.00     0.194 C 
HETATM   18  O5  UNL     1      -1.728  48.891 -23.316  1.00  0.00    -0.287 OA
HETATM   19  C18 UNL     1      -4.038  48.688 -23.578  1.00  0.00     0.046 A 
HETATM   20  C19 UNL     1      -5.175  48.273 -22.893  1.00  0.00     0.032 A 
HETATM   21  C20 UNL     1      -6.371  47.986 -23.573  1.00  0.00     0.026 A 
HETATM   22  C21 UNL     1      -6.440  48.076 -24.963  1.00  0.00    -0.027 A 
HETATM   23  C22 UNL     1      -7.710  47.726 -25.684  1.00  0.00     0.051 C 
HETATM   24  C23 UNL     1      -5.279  48.419 -25.659  1.00  0.00     0.086 A 
HETATM   25  C24 UNL     1      -4.082  48.755 -24.984  1.00  0.00     0.059 A 
HETATM   26  C25 UNL     1      -2.932  49.077 -25.865  1.00  0.00     0.163 C 
HETATM   27  O7  UNL     1      -2.718  48.293 -26.795  1.00  0.00    -0.292 OA
HETATM   28  C26 UNL     1      -2.214  50.406 -25.750  1.00  0.00     0.084 C 
HETATM   29  C27 UNL     1      -0.761  50.247 -26.221  1.00  0.00     0.016 C 
HETATM   30  C28 UNL     1      -5.125  48.041 -21.444  1.00  0.00     0.210 C 
HETATM   31  O8  UNL     1      -6.026  47.396 -20.915  1.00  0.00    -0.285 OA
ENDROOT
BRANCH   4  32
HETATM   32  C7  UNL     1       1.160  53.639 -21.757  1.00  0.00     0.147 C 
HETATM   33  C8  UNL     1       1.029  54.064 -20.298  1.00  0.00     0.042 C 
BRANCH  32  34
HETATM   34  O1  UNL     1       1.469  54.805 -22.529  1.00  0.00    -0.393 OA
HETATM   35  H14 UNL     1       2.354  55.106 -22.259  1.00  0.00     0.210 HD
ENDBRANCH  32  34
ENDBRANCH   4  32
BRANCH   1  36
HETATM   36  C2  UNL     1       1.533  51.248 -26.538  1.00  0.00     0.004 C 
HETATM   37  C1  UNL     1       1.616  51.690 -27.994  1.00  0.00     0.006 C 
ENDBRANCH   1  36
BRANCH  12  38
HETATM   38  O4  UNL     1      -4.048  48.929 -17.134  1.00  0.00    -0.346 OA
HETATM   39  H20 UNL     1      -4.651  48.166 -17.183  1.00  0.00     0.219 HD
ENDBRANCH  12  38
BRANCH  24  40
HETATM   40  O6  UNL     1      -5.351  48.388 -27.031  1.00  0.00    -0.359 OA
HETATM   41  H25 UNL     1      -4.446  48.225 -27.382  1.00  0.00     0.217 HD
ENDBRANCH  24  40
TORSDOF 5
ENDMDL
