MODEL 1
REMARK minimizedAffinity -7.78277493
REMARK CNNscore 0.733144045
REMARK CNNaffinity 7.24017382
REMARK  9 active torsions:
REMARK  status: ('A' for Active; 'I' for Inactive)
REMARK       I    between atoms: N1_1  and  C1_2 
REMARK       I    between atoms: C1_2  and  N2_3 
REMARK    1  A    between atoms: N3_4  and  C2_6 
REMARK    2  A    between atoms: C11_16  and  S1_17 
REMARK    3  A    between atoms: S1_17  and  O4_20 
REMARK    4  A    between atoms: C18_27  and  C19_28 
REMARK    5  A    between atoms: C19_28  and  C20_29 
REMARK    6  A    between atoms: C20_29  and  C21_30 
REMARK    7  A    between atoms: C21_30  and  O5_31 
REMARK    8  A    between atoms: C22_33  and  C23_34 
REMARK    9  A    between atoms: C26_37  and  O7_38 
ROOT
HETATM    1  C2  UNL     1      -2.706  10.125  17.349  1.00  0.00     0.263 C 
HETATM    2  O1  UNL     1      -3.498  11.330  17.615  1.00  0.00    -0.322 OA
HETATM    3  C3  UNL     1      -2.867  12.518  17.342  1.00  0.00     0.071 C 
HETATM    4  C4  UNL     1      -2.802  13.440  18.390  1.00  0.00     0.037 C 
HETATM    5  C5  UNL     1      -1.929  14.525  18.307  1.00  0.00     0.010 C 
HETATM    6  C6  UNL     1      -1.150  14.714  17.155  1.00  0.00    -0.058 C 
HETATM    7  C7  UNL     1      -1.368  13.882  16.045  1.00  0.00     0.010 C 
HETATM    8  C8  UNL     1      -2.221  12.782  16.138  1.00  0.00     0.037 C 
HETATM    9  C9  UNL     1      -0.008  15.703  17.158  1.00  0.00     0.040 C 
HETATM   10  C10 UNL     1       1.191  15.232  18.017  1.00  0.00     0.027 C 
HETATM   11  C11 UNL     1       1.757  13.821  17.707  1.00  0.00     0.130 C 
HETATM   12  C12 UNL     1       2.791  13.235  18.744  1.00  0.00     0.037 C 
HETATM   13  C13 UNL     1       3.009  13.927  20.086  1.00  0.00    -0.014 C 
HETATM   14  C14 UNL     1       3.948  13.404  20.909  1.00  0.00    -0.050 C 
HETATM   15  C15 UNL     1       4.674  12.161  20.440  1.00  0.00     0.042 C 
HETATM   16  C16 UNL     1       3.516  11.165  20.278  1.00  0.00     0.001 C 
HETATM   17  C17 UNL     1       2.674  11.114  21.601  1.00  0.00     0.037 C 
HETATM   18  C18 UNL     1       3.404  11.304  22.961  1.00  0.00     0.123 C 
HETATM   19  O6  UNL     1       4.328  12.404  23.054  1.00  0.00    -0.371 OA
HETATM   20  C22 UNL     1       3.990  13.641  22.403  1.00  0.00     0.183 C 
HETATM   21  C29 UNL     1       2.728  11.634  18.970  1.00  0.00     0.032 C 
HETATM   22  C30 UNL     1       1.367  10.999  18.703  1.00  0.00    -0.053 C 
HETATM   23  C31 UNL     1       0.261  11.152  19.546  1.00  0.00     0.008 C 
HETATM   24  C32 UNL     1      -1.017  10.733  19.153  1.00  0.00     0.012 C 
HETATM   25  C33 UNL     1      -1.251  10.254  17.857  1.00  0.00    -0.010 C 
HETATM   26  C34 UNL     1      -0.140  10.035  17.032  1.00  0.00     0.012 C 
HETATM   27  C35 UNL     1       1.149  10.376  17.459  1.00  0.00     0.008 C 
ENDROOT
BRANCH   1  28
HETATM   28  N3  UNL     1      -2.835   9.629  15.972  1.00  0.00    -0.341 N 
HETATM   29  C1  UNL     1      -2.953   8.376  15.751  1.00  0.00     0.124 C 
HETATM   30  N1  UNL     1      -3.133   7.941  14.485  1.00  0.00    -0.279 NA
HETATM   31  N2  UNL     1      -2.936   7.320  16.597  1.00  0.00    -0.279 NA
HETATM   32  H1  UNL     1      -3.927   7.319  14.408  1.00  0.00     0.126 HD
HETATM   33  H2  UNL     1      -3.276   8.743  13.872  1.00  0.00     0.126 HD
HETATM   34  H3  UNL     1      -2.587   6.484  16.142  1.00  0.00     0.126 HD
HETATM   35  H4  UNL     1      -2.429   7.486  17.457  1.00  0.00     0.126 HD
ATOM     36  H3  UNL     1      -2.832  10.285  15.191  1.00  0.00     0.164 HD
ENDBRANCH   1  28
BRANCH  11  37
HETATM   37  S1  UNL     1       2.547  13.764  16.043  1.00  0.00     0.099 S 
HETATM   38  O2  UNL     1       1.852  12.833  15.183  1.00  0.00    -0.601 OA
HETATM   39  O3  UNL     1       2.910  15.080  15.569  1.00  0.00    -0.601 OA
BRANCH  37  40
HETATM   40  O4  UNL     1       3.947  13.078  16.458  1.00  0.00    -0.295 OA
HETATM   41  H15 UNL     1       4.674  13.629  16.091  1.00  0.00     0.232 HD
ENDBRANCH  37  40
ENDBRANCH  11  37
BRANCH  18  42
HETATM   42  C19 UNL     1       4.202  10.056  23.387  1.00  0.00     0.034 C 
BRANCH  42  43
HETATM   43  C20 UNL     1       3.699   8.756  22.753  1.00  0.00     0.028 C 
BRANCH  43  44
HETATM   44  C21 UNL     1       2.323   8.364  23.276  1.00  0.00     0.164 C 
BRANCH  44  45
HETATM   45  O5  UNL     1       1.568   7.714  22.264  1.00  0.00    -0.401 OA
HETATM   46  H30 UNL     1       1.476   8.337  21.522  1.00  0.00     0.209 HD
ENDBRANCH  44  45
ENDBRANCH  43  44
ENDBRANCH  42  43
ENDBRANCH  18  42
BRANCH  20  47
HETATM   47  C23 UNL     1       5.017  14.703  22.759  1.00  0.00    -0.025 A 
HETATM   48  C24 UNL     1       4.659  16.053  22.908  1.00  0.00     0.013 A 
HETATM   49  C25 UNL     1       5.606  17.008  23.287  1.00  0.00     0.037 A 
HETATM   50  C26 UNL     1       6.919  16.609  23.525  1.00  0.00     0.065 A 
HETATM   51  C27 UNL     1       7.297  15.280  23.388  1.00  0.00     0.037 A 
HETATM   52  C28 UNL     1       6.349  14.328  23.009  1.00  0.00     0.013 A 
BRANCH  50  53
HETATM   53  O7  UNL     1       7.873  17.507  23.911  1.00  0.00    -0.361 OA
HETATM   54  H34 UNL     1       7.459  18.383  23.971  1.00  0.00     0.217 HD
ENDBRANCH  50  53
ENDBRANCH  20  47
TORSDOF 9
ENDMDL
MODEL 2
REMARK minimizedAffinity -10.8967667
REMARK CNNscore 0.183579415
REMARK CNNaffinity 7.36553049
REMARK  9 active torsions:
REMARK  status: ('A' for Active; 'I' for Inactive)
REMARK       I    between atoms: N1_1  and  C1_2 
REMARK       I    between atoms: C1_2  and  N2_3 
REMARK    1  A    between atoms: N3_4  and  C2_6 
REMARK    2  A    between atoms: C11_16  and  S1_17 
REMARK    3  A    between atoms: S1_17  and  O4_20 
REMARK    4  A    between atoms: C18_27  and  C19_28 
REMARK    5  A    between atoms: C19_28  and  C20_29 
REMARK    6  A    between atoms: C20_29  and  C21_30 
REMARK    7  A    between atoms: C21_30  and  O5_31 
REMARK    8  A    between atoms: C22_33  and  C23_34 
REMARK    9  A    between atoms: C26_37  and  O7_38 
ROOT
HETATM    1  C2  UNL     1       1.596   5.683  10.612  1.00  0.00     0.263 C 
HETATM    2  O1  UNL     1       1.392   6.980   9.957  1.00  0.00    -0.322 OA
HETATM    3  C3  UNL     1       0.813   7.947  10.740  1.00  0.00     0.071 C 
HETATM    4  C4  UNL     1      -0.345   8.542  10.235  1.00  0.00     0.037 C 
HETATM    5  C5  UNL     1      -1.162   9.296  11.077  1.00  0.00     0.010 C 
HETATM    6  C6  UNL     1      -0.799   9.495  12.417  1.00  0.00    -0.058 C 
HETATM    7  C7  UNL     1       0.458   9.044  12.852  1.00  0.00     0.010 C 
HETATM    8  C8  UNL     1       1.262   8.267  12.018  1.00  0.00     0.037 C 
HETATM    9  C9  UNL     1      -1.794  10.059  13.404  1.00  0.00     0.040 C 
HETATM   10  C10 UNL     1      -2.927   9.061  13.751  1.00  0.00     0.027 C 
HETATM   11  C11 UNL     1      -2.489   7.654  14.237  1.00  0.00     0.130 C 
HETATM   12  C12 UNL     1      -3.621   6.560  14.332  1.00  0.00     0.037 C 
HETATM   13  C13 UNL     1      -5.000   6.828  13.738  1.00  0.00    -0.014 C 
HETATM   14  C14 UNL     1      -5.944   5.871  13.900  1.00  0.00    -0.050 C 
HETATM   15  C15 UNL     1      -5.537   4.606  14.626  1.00  0.00     0.042 C 
HETATM   16  C16 UNL     1      -4.412   4.076  13.724  1.00  0.00     0.001 C 
HETATM   17  C17 UNL     1      -4.920   3.987  12.242  1.00  0.00     0.037 C 
HETATM   18  C18 UNL     1      -6.411   3.630  11.982  1.00  0.00     0.123 C 
HETATM   19  O6  UNL     1      -7.394   4.344  12.756  1.00  0.00    -0.371 OA
HETATM   20  C22 UNL     1      -7.173   5.738  13.028  1.00  0.00     0.183 C 
HETATM   21  C29 UNL     1      -3.169   5.048  13.976  1.00  0.00     0.032 C 
HETATM   22  C30 UNL     1      -1.986   4.938  13.020  1.00  0.00    -0.053 C 
HETATM   23  C31 UNL     1      -2.063   5.227  11.653  1.00  0.00     0.008 C 
HETATM   24  C32 UNL     1      -0.910   5.320  10.862  1.00  0.00     0.012 C 
HETATM   25  C33 UNL     1       0.366   5.242  11.438  1.00  0.00    -0.010 C 
HETATM   26  C34 UNL     1       0.451   4.887  12.790  1.00  0.00     0.012 C 
HETATM   27  C35 UNL     1      -0.705   4.711  13.559  1.00  0.00     0.008 C 
ENDROOT
BRANCH   1  28
HETATM   28  N3  UNL     1       2.881   5.577  11.317  1.00  0.00    -0.341 N 
HETATM   29  C1  UNL     1       3.937   6.080  10.801  1.00  0.00     0.124 C 
HETATM   30  N1  UNL     1       5.098   6.028  11.490  1.00  0.00    -0.279 NA
HETATM   31  N2  UNL     1       4.137   6.703   9.617  1.00  0.00    -0.279 NA
HETATM   32  H1  UNL     1       5.540   6.936  11.553  1.00  0.00     0.126 HD
HETATM   33  H2  UNL     1       4.916   5.679  12.429  1.00  0.00     0.126 HD
HETATM   34  H3  UNL     1       5.084   6.572   9.282  1.00  0.00     0.126 HD
HETATM   35  H4  UNL     1       3.474   6.447   8.897  1.00  0.00     0.126 HD
ATOM     36  H3  UNL     1       2.931   5.102  12.218  1.00  0.00     0.164 HD
ENDBRANCH   1  28
BRANCH  11  37
HETATM   37  S1  UNL     1      -1.657   7.737  15.879  1.00  0.00     0.099 S 
HETATM   38  O2  UNL     1      -0.465   6.919  15.886  1.00  0.00    -0.601 OA
HETATM   39  O3  UNL     1      -1.637   9.080  16.409  1.00  0.00    -0.601 OA
BRANCH  37  40
HETATM   40  O4  UNL     1      -2.771   6.967  16.758  1.00  0.00    -0.295 OA
HETATM   41  H15 UNL     1      -2.980   7.528  17.538  1.00  0.00     0.232 HD
ENDBRANCH  37  40
ENDBRANCH  11  37
BRANCH  18  42
HETATM   42  C19 UNL     1      -6.713   2.136  12.206  1.00  0.00     0.034 C 
BRANCH  42  43
HETATM   43  C20 UNL     1      -5.823   1.197  11.386  1.00  0.00     0.028 C 
BRANCH  43  44
HETATM   44  C21 UNL     1      -4.380   1.685  11.332  1.00  0.00     0.164 C 
BRANCH  44  45
HETATM   45  O5  UNL     1      -3.478   0.595  11.441  1.00  0.00    -0.401 OA
HETATM   46  H30 UNL     1      -3.648   0.158  12.293  1.00  0.00     0.209 HD
ENDBRANCH  44  45
ENDBRANCH  43  44
ENDBRANCH  42  43
ENDBRANCH  18  42
BRANCH  20  47
HETATM   47  C23 UNL     1      -8.395   6.325  13.713  1.00  0.00    -0.025 A 
HETATM   48  C24 UNL     1      -8.312   6.931  14.978  1.00  0.00     0.013 A 
HETATM   49  C25 UNL     1      -9.436   7.511  15.569  1.00  0.00     0.037 A 
HETATM   50  C26 UNL     1     -10.652   7.492  14.890  1.00  0.00     0.065 A 
HETATM   51  C27 UNL     1     -10.760   6.902  13.638  1.00  0.00     0.037 A 
HETATM   52  C28 UNL     1      -9.635   6.323  13.048  1.00  0.00     0.013 A 
BRANCH  50  53
HETATM   53  O7  UNL     1     -11.772   8.059  15.426  1.00  0.00    -0.361 OA
HETATM   54  H34 UNL     1     -11.539   8.434  16.291  1.00  0.00     0.217 HD
ENDBRANCH  50  53
ENDBRANCH  20  47
TORSDOF 9
ENDMDL
MODEL 3
REMARK minimizedAffinity -7.00728989
REMARK CNNscore 0.181544393
REMARK CNNaffinity 5.52320528
REMARK  9 active torsions:
REMARK  status: ('A' for Active; 'I' for Inactive)
REMARK       I    between atoms: N1_1  and  C1_2 
REMARK       I    between atoms: C1_2  and  N2_3 
REMARK    1  A    between atoms: N3_4  and  C2_6 
REMARK    2  A    between atoms: C11_16  and  S1_17 
REMARK    3  A    between atoms: S1_17  and  O4_20 
REMARK    4  A    between atoms: C18_27  and  C19_28 
REMARK    5  A    between atoms: C19_28  and  C20_29 
REMARK    6  A    between atoms: C20_29  and  C21_30 
REMARK    7  A    between atoms: C21_30  and  O5_31 
REMARK    8  A    between atoms: C22_33  and  C23_34 
REMARK    9  A    between atoms: C26_37  and  O7_38 
ROOT
HETATM    1  C2  UNL     1      -1.290  15.582  18.167  1.00  0.00     0.263 C 
HETATM    2  O1  UNL     1      -0.876  15.928  16.804  1.00  0.00    -0.322 OA
HETATM    3  C3  UNL     1      -0.196  14.944  16.130  1.00  0.00     0.071 C 
HETATM    4  C4  UNL     1       1.055  15.296  15.618  1.00  0.00     0.037 C 
HETATM    5  C5  UNL     1       1.938  14.300  15.197  1.00  0.00     0.010 C 
HETATM    6  C6  UNL     1       1.553  12.953  15.247  1.00  0.00    -0.058 C 
HETATM    7  C7  UNL     1       0.227  12.638  15.589  1.00  0.00     0.010 C 
HETATM    8  C8  UNL     1      -0.645  13.631  16.035  1.00  0.00     0.037 C 
HETATM    9  C9  UNL     1       2.578  11.857  15.068  1.00  0.00     0.040 C 
HETATM   10  C10 UNL     1       3.541  11.734  16.275  1.00  0.00     0.027 C 
HETATM   11  C11 UNL     1       2.886  11.578  17.673  1.00  0.00     0.130 C 
HETATM   12  C12 UNL     1       3.845  11.722  18.917  1.00  0.00     0.037 C 
HETATM   13  C13 UNL     1       5.271  12.231  18.733  1.00  0.00    -0.014 C 
HETATM   14  C14 UNL     1       6.061  12.280  19.832  1.00  0.00    -0.050 C 
HETATM   15  C15 UNL     1       5.448  11.858  21.151  1.00  0.00     0.042 C 
HETATM   16  C16 UNL     1       4.295  12.864  21.296  1.00  0.00     0.001 C 
HETATM   17  C17 UNL     1       4.844  14.325  21.132  1.00  0.00     0.037 C 
HETATM   18  C18 UNL     1       6.278  14.647  21.641  1.00  0.00     0.123 C 
HETATM   19  O6  UNL     1       7.321  13.726  21.269  1.00  0.00    -0.371 OA
HETATM   20  C22 UNL     1       7.292  13.151  19.951  1.00  0.00     0.183 C 
HETATM   21  C29 UNL     1       3.196  12.410  20.229  1.00  0.00     0.032 C 
HETATM   22  C30 UNL     1       2.048  13.375  19.949  1.00  0.00    -0.053 C 
HETATM   23  C31 UNL     1       2.221  14.642  19.381  1.00  0.00     0.008 C 
HETATM   24  C32 UNL     1       1.126  15.400  18.946  1.00  0.00     0.012 C 
HETATM   25  C33 UNL     1      -0.170  14.866  18.957  1.00  0.00    -0.010 C 
HETATM   26  C34 UNL     1      -0.359  13.628  19.584  1.00  0.00     0.012 C 
HETATM   27  C35 UNL     1       0.727  12.909  20.096  1.00  0.00     0.008 C 
ENDROOT
BRANCH   1  28
HETATM   28  N3  UNL     1      -2.604  14.927  18.233  1.00  0.00    -0.341 N 
HETATM   29  C1  UNL     1      -3.609  15.450  17.641  1.00  0.00     0.124 C 
HETATM   30  N1  UNL     1      -4.796  14.805  17.660  1.00  0.00    -0.279 NA
HETATM   31  N2  UNL     1      -3.728  16.604  16.946  1.00  0.00    -0.279 NA
HETATM   32  H1  UNL     1      -5.187  14.707  16.732  1.00  0.00     0.126 HD
HETATM   33  H2  UNL     1      -4.670  13.881  18.069  1.00  0.00     0.126 HD
HETATM   34  H3  UNL     1      -4.669  16.978  17.003  1.00  0.00     0.126 HD
HETATM   35  H4  UNL     1      -3.056  17.315  17.203  1.00  0.00     0.126 HD
ATOM     36  H3  UNL     1      -2.715  14.056  18.751  1.00  0.00     0.164 HD
ENDBRANCH   1  28
BRANCH  11  37
HETATM   37  S1  UNL     1       2.010   9.965  17.830  1.00  0.00     0.099 S 
HETATM   38  O2  UNL     1       0.579  10.168  17.886  1.00  0.00    -0.601 OA
HETATM   39  O3  UNL     1       2.582   8.952  16.975  1.00  0.00    -0.601 OA
BRANCH  37  40
HETATM   40  O4  UNL     1       2.494   9.566  19.318  1.00  0.00    -0.295 OA
HETATM   41  H15 UNL     1       2.854   8.652  19.282  1.00  0.00     0.232 HD
ENDBRANCH  37  40
ENDBRANCH  11  37
BRANCH  18  42
HETATM   42  C19 UNL     1       6.353  14.761  23.175  1.00  0.00     0.034 C 
BRANCH  42  43
HETATM   43  C20 UNL     1       7.083  16.015  23.666  1.00  0.00     0.028 C 
BRANCH  43  44
HETATM   44  C21 UNL     1       8.549  15.734  23.974  1.00  0.00     0.164 C 
BRANCH  44  45
HETATM   45  O5  UNL     1       8.804  14.338  23.973  1.00  0.00    -0.401 OA
HETATM   46  H30 UNL     1       8.239  13.937  24.656  1.00  0.00     0.209 HD
ENDBRANCH  44  45
ENDBRANCH  43  44
ENDBRANCH  42  43
ENDBRANCH  18  42
BRANCH  20  47
HETATM   47  C23 UNL     1       8.557  12.343  19.719  1.00  0.00    -0.025 A 
HETATM   48  C24 UNL     1       8.636  11.372  18.707  1.00  0.00     0.013 A 
HETATM   49  C25 UNL     1       9.825  10.676  18.473  1.00  0.00     0.037 A 
HETATM   50  C26 UNL     1      10.944  10.956  19.252  1.00  0.00     0.065 A 
HETATM   51  C27 UNL     1      10.893  11.913  20.256  1.00  0.00     0.037 A 
HETATM   52  C28 UNL     1       9.704  12.608  20.488  1.00  0.00     0.013 A 
BRANCH  50  53
HETATM   53  O7  UNL     1      12.129  10.309  19.048  1.00  0.00    -0.361 OA
HETATM   54  H34 UNL     1      12.012   9.682  18.315  1.00  0.00     0.217 HD
ENDBRANCH  50  53
ENDBRANCH  20  47
TORSDOF 9
ENDMDL
MODEL 4
REMARK minimizedAffinity -8.58465958
REMARK CNNscore 0.167360052
REMARK CNNaffinity 6.59849596
REMARK  9 active torsions:
REMARK  status: ('A' for Active; 'I' for Inactive)
REMARK       I    between atoms: N1_1  and  C1_2 
REMARK       I    between atoms: C1_2  and  N2_3 
REMARK    1  A    between atoms: N3_4  and  C2_6 
REMARK    2  A    between atoms: C11_16  and  S1_17 
REMARK    3  A    between atoms: S1_17  and  O4_20 
REMARK    4  A    between atoms: C18_27  and  C19_28 
REMARK    5  A    between atoms: C19_28  and  C20_29 
REMARK    6  A    between atoms: C20_29  and  C21_30 
REMARK    7  A    between atoms: C21_30  and  O5_31 
REMARK    8  A    between atoms: C22_33  and  C23_34 
REMARK    9  A    between atoms: C26_37  and  O7_38 
ROOT
HETATM    1  C2  UNL     1      -1.216   4.887  11.524  1.00  0.00     0.263 C 
HETATM    2  O1  UNL     1      -0.511   5.469  10.377  1.00  0.00    -0.322 OA
HETATM    3  C3  UNL     1       0.623   6.179  10.684  1.00  0.00     0.071 C 
HETATM    4  C4  UNL     1       0.676   7.494  10.217  1.00  0.00     0.037 C 
HETATM    5  C5  UNL     1       1.627   8.376  10.731  1.00  0.00     0.010 C 
HETATM    6  C6  UNL     1       2.557   7.931  11.682  1.00  0.00    -0.058 C 
HETATM    7  C7  UNL     1       2.603   6.562  11.996  1.00  0.00     0.010 C 
HETATM    8  C8  UNL     1       1.635   5.687  11.503  1.00  0.00     0.037 C 
HETATM    9  C9  UNL     1       3.400   8.921  12.450  1.00  0.00     0.040 C 
HETATM   10  C10 UNL     1       2.579   9.734  13.482  1.00  0.00     0.027 C 
HETATM   11  C11 UNL     1       1.727   8.917  14.491  1.00  0.00     0.130 C 
HETATM   12  C12 UNL     1       0.693   9.733  15.358  1.00  0.00     0.037 C 
HETATM   13  C13 UNL     1       0.393  11.191  15.026  1.00  0.00    -0.014 C 
HETATM   14  C14 UNL     1      -0.464  11.851  15.842  1.00  0.00    -0.050 C 
HETATM   15  C15 UNL     1      -1.074  11.074  16.989  1.00  0.00     0.042 C 
HETATM   16  C16 UNL     1      -1.822   9.956  16.246  1.00  0.00     0.001 C 
HETATM   17  C17 UNL     1      -2.759  10.582  15.154  1.00  0.00     0.037 C 
HETATM   18  C18 UNL     1      -3.421  11.961  15.436  1.00  0.00     0.123 C 
HETATM   19  O6  UNL     1      -2.565  13.000  15.949  1.00  0.00    -0.371 OA
HETATM   20  C22 UNL     1      -1.223  13.097  15.441  1.00  0.00     0.183 C 
HETATM   21  C29 UNL     1      -0.689   8.968  15.708  1.00  0.00     0.032 C 
HETATM   22  C30 UNL     1      -1.107   7.902  14.700  1.00  0.00    -0.053 C 
HETATM   23  C31 UNL     1      -1.601   8.193  13.423  1.00  0.00     0.008 C 
HETATM   24  C32 UNL     1      -1.767   7.188  12.460  1.00  0.00     0.012 C 
HETATM   25  C33 UNL     1      -1.333   5.877  12.705  1.00  0.00    -0.010 C 
HETATM   26  C34 UNL     1      -0.901   5.565  14.000  1.00  0.00     0.012 C 
HETATM   27  C35 UNL     1      -0.817   6.554  14.987  1.00  0.00     0.008 C 
ENDROOT
BRANCH   1  28
HETATM   28  N3  UNL     1      -0.736   3.547  11.889  1.00  0.00    -0.341 N 
HETATM   29  C1  UNL     1      -1.026   2.541  11.156  1.00  0.00     0.124 C 
HETATM   30  N1  UNL     1      -0.527   1.327  11.472  1.00  0.00    -0.279 NA
HETATM   31  N2  UNL     1      -1.789   2.445  10.043  1.00  0.00    -0.279 NA
HETATM   32  H1  UNL     1      -0.074   0.887  10.681  1.00  0.00     0.126 HD
HETATM   33  H2  UNL     1       0.148   1.427  12.229  1.00  0.00     0.126 HD
HETATM   34  H3  UNL     1      -2.212   1.528   9.959  1.00  0.00     0.126 HD
HETATM   35  H4  UNL     1      -2.496   3.163   9.961  1.00  0.00     0.126 HD
ATOM     36  H3  UNL     1      -0.170   3.419  12.728  1.00  0.00     0.164 HD
ENDBRANCH   1  28
BRANCH  11  37
HETATM   37  S1  UNL     1       2.793   7.961  15.650  1.00  0.00     0.099 S 
HETATM   38  O2  UNL     1       4.188   8.268  15.429  1.00  0.00    -0.601 OA
HETATM   39  O3  UNL     1       2.245   7.925  16.987  1.00  0.00    -0.601 OA
BRANCH  37  40
HETATM   40  O4  UNL     1       2.530   6.481  15.062  1.00  0.00    -0.295 OA
HETATM   41  H15 UNL     1       2.273   5.899  15.812  1.00  0.00     0.232 HD
ENDBRANCH  37  40
ENDBRANCH  11  37
BRANCH  18  42
HETATM   42  C19 UNL     1      -4.595  11.865  16.429  1.00  0.00     0.034 C 
BRANCH  42  43
HETATM   43  C20 UNL     1      -4.703  13.064  17.375  1.00  0.00     0.028 C 
BRANCH  43  44
HETATM   44  C21 UNL     1      -5.895  13.951  17.035  1.00  0.00     0.164 C 
BRANCH  44  45
HETATM   45  O5  UNL     1      -6.731  13.320  16.077  1.00  0.00    -0.401 OA
HETATM   46  H30 UNL     1      -6.197  13.164  15.280  1.00  0.00     0.209 HD
ENDBRANCH  44  45
ENDBRANCH  43  44
ENDBRANCH  42  43
ENDBRANCH  18  42
BRANCH  20  47
HETATM   47  C23 UNL     1      -0.557  14.345  15.994  1.00  0.00    -0.025 A 
HETATM   48  C24 UNL     1      -0.758  15.607  15.411  1.00  0.00     0.013 A 
HETATM   49  C25 UNL     1      -0.179  16.752  15.965  1.00  0.00     0.037 A 
HETATM   50  C26 UNL     1       0.603  16.635  17.111  1.00  0.00     0.065 A 
HETATM   51  C27 UNL     1       0.815  15.399  17.707  1.00  0.00     0.037 A 
HETATM   52  C28 UNL     1       0.234  14.257  17.153  1.00  0.00     0.013 A 
BRANCH  50  53
HETATM   53  O7  UNL     1       1.176  17.729  17.692  1.00  0.00    -0.361 OA
HETATM   54  H34 UNL     1       0.933  18.513  17.172  1.00  0.00     0.217 HD
ENDBRANCH  50  53
ENDBRANCH  20  47
TORSDOF 9
ENDMDL
MODEL 5
REMARK minimizedAffinity -6.95926332
REMARK CNNscore 0.166293234
REMARK CNNaffinity 6.24550295
REMARK  9 active torsions:
REMARK  status: ('A' for Active; 'I' for Inactive)
REMARK       I    between atoms: N1_1  and  C1_2 
REMARK       I    between atoms: C1_2  and  N2_3 
REMARK    1  A    between atoms: N3_4  and  C2_6 
REMARK    2  A    between atoms: C11_16  and  S1_17 
REMARK    3  A    between atoms: S1_17  and  O4_20 
REMARK    4  A    between atoms: C18_27  and  C19_28 
REMARK    5  A    between atoms: C19_28  and  C20_29 
REMARK    6  A    between atoms: C20_29  and  C21_30 
REMARK    7  A    between atoms: C21_30  and  O5_31 
REMARK    8  A    between atoms: C22_33  and  C23_34 
REMARK    9  A    between atoms: C26_37  and  O7_38 
ROOT
HETATM    1  C2  UNL     1     -17.988   3.013  14.462  1.00  0.00     0.263 C 
HETATM    2  O1  UNL     1     -18.284   3.091  15.897  1.00  0.00    -0.322 OA
HETATM    3  C3  UNL     1     -18.451   4.359  16.393  1.00  0.00     0.071 C 
HETATM    4  C4  UNL     1     -17.639   4.713  17.474  1.00  0.00     0.037 C 
HETATM    5  C5  UNL     1     -17.518   6.054  17.841  1.00  0.00     0.010 C 
HETATM    6  C6  UNL     1     -18.242   7.039  17.155  1.00  0.00    -0.058 C 
HETATM    7  C7  UNL     1     -19.190   6.641  16.197  1.00  0.00     0.010 C 
HETATM    8  C8  UNL     1     -19.291   5.304  15.812  1.00  0.00     0.037 C 
HETATM    9  C9  UNL     1     -17.914   8.501  17.344  1.00  0.00     0.040 C 
HETATM   10  C10 UNL     1     -16.563   8.901  16.702  1.00  0.00     0.027 C 
HETATM   11  C11 UNL     1     -16.370   8.539  15.205  1.00  0.00     0.130 C 
HETATM   12  C12 UNL     1     -14.912   8.700  14.626  1.00  0.00     0.037 C 
HETATM   13  C13 UNL     1     -13.737   8.955  15.563  1.00  0.00    -0.014 C 
HETATM   14  C14 UNL     1     -12.520   9.138  14.999  1.00  0.00    -0.050 C 
HETATM   15  C15 UNL     1     -12.428   9.037  13.491  1.00  0.00     0.042 C 
HETATM   16  C16 UNL     1     -12.903   7.598  13.244  1.00  0.00     0.001 C 
HETATM   17  C17 UNL     1     -12.075   6.607  14.134  1.00  0.00     0.037 C 
HETATM   18  C18 UNL     1     -10.584   6.935  14.432  1.00  0.00     0.123 C 
HETATM   19  O6  UNL     1     -10.286   8.280  14.853  1.00  0.00    -0.371 OA
HETATM   20  C22 UNL     1     -11.210   8.944  15.732  1.00  0.00     0.183 C 
HETATM   21  C29 UNL     1     -14.479   7.617  13.505  1.00  0.00     0.032 C 
HETATM   22  C30 UNL     1     -15.193   6.272  13.599  1.00  0.00    -0.053 C 
HETATM   23  C31 UNL     1     -14.937   5.327  14.598  1.00  0.00     0.008 C 
HETATM   24  C32 UNL     1     -15.762   4.208  14.769  1.00  0.00     0.012 C 
HETATM   25  C33 UNL     1     -16.939   4.059  14.021  1.00  0.00    -0.010 C 
HETATM   26  C34 UNL     1     -17.165   4.964  12.976  1.00  0.00     0.012 C 
HETATM   27  C35 UNL     1     -16.292   6.034  12.752  1.00  0.00     0.008 C 
ENDROOT
BRANCH   1  28
HETATM   28  N3  UNL     1     -19.190   2.953  13.618  1.00  0.00    -0.341 N 
HETATM   29  C1  UNL     1     -20.034   2.006  13.773  1.00  0.00     0.124 C 
HETATM   30  N1  UNL     1     -21.163   1.999  13.032  1.00  0.00    -0.279 NA
HETATM   31  N2  UNL     1     -20.022   0.932  14.595  1.00  0.00    -0.279 NA
HETATM   32  H1  UNL     1     -21.990   1.890  13.604  1.00  0.00     0.126 HD
HETATM   33  H2  UNL     1     -21.230   2.873  12.513  1.00  0.00     0.126 HD
HETATM   34  H3  UNL     1     -20.531   0.151  14.196  1.00  0.00     0.126 HD
HETATM   35  H4  UNL     1     -19.097   0.636  14.877  1.00  0.00     0.126 HD
ATOM     36  H3  UNL     1     -19.351   3.667  12.908  1.00  0.00     0.164 HD
ENDBRANCH   1  28
BRANCH  11  37
HETATM   37  S1  UNL     1     -17.507   9.509  14.127  1.00  0.00     0.099 S 
HETATM   38  O2  UNL     1     -18.366   8.626  13.371  1.00  0.00    -0.601 OA
HETATM   39  O3  UNL     1     -18.047  10.664  14.807  1.00  0.00    -0.601 OA
BRANCH  37  40
HETATM   40  O4  UNL     1     -16.417  10.112  13.100  1.00  0.00    -0.295 OA
HETATM   41  H15 UNL     1     -16.555  11.084  13.050  1.00  0.00     0.232 HD
ENDBRANCH  37  40
ENDBRANCH  11  37
BRANCH  18  42
HETATM   42  C19 UNL     1      -9.663   6.665  13.227  1.00  0.00     0.034 C 
BRANCH  42  43
HETATM   43  C20 UNL     1      -8.591   5.605  13.494  1.00  0.00     0.028 C 
BRANCH  43  44
HETATM   44  C21 UNL     1      -7.877   5.841  14.820  1.00  0.00     0.164 C 
BRANCH  44  45
HETATM   45  O5  UNL     1      -8.175   4.803  15.742  1.00  0.00    -0.401 OA
HETATM   46  H30 UNL     1      -9.137   4.800  15.879  1.00  0.00     0.209 HD
ENDBRANCH  44  45
ENDBRANCH  43  44
ENDBRANCH  42  43
ENDBRANCH  18  42
BRANCH  20  47
HETATM   47  C23 UNL     1     -10.628  10.277  16.171  1.00  0.00    -0.025 A 
HETATM   48  C24 UNL     1      -9.785  11.025  15.333  1.00  0.00     0.013 A 
HETATM   49  C25 UNL     1      -9.301  12.273  15.733  1.00  0.00     0.037 A 
HETATM   50  C26 UNL     1      -9.666  12.780  16.978  1.00  0.00     0.065 A 
HETATM   51  C27 UNL     1     -10.501  12.061  17.823  1.00  0.00     0.037 A 
HETATM   52  C28 UNL     1     -10.983  10.814  17.421  1.00  0.00     0.013 A 
BRANCH  50  53
HETATM   53  O7  UNL     1      -9.227  14.000  17.403  1.00  0.00    -0.361 OA
HETATM   54  H34 UNL     1      -8.666  14.381  16.707  1.00  0.00     0.217 HD
ENDBRANCH  50  53
ENDBRANCH  20  47
TORSDOF 9
ENDMDL
MODEL 6
REMARK minimizedAffinity -6.87587309
REMARK CNNscore 0.162655264
REMARK CNNaffinity 5.99127388
REMARK  9 active torsions:
REMARK  status: ('A' for Active; 'I' for Inactive)
REMARK       I    between atoms: N1_1  and  C1_2 
REMARK       I    between atoms: C1_2  and  N2_3 
REMARK    1  A    between atoms: N3_4  and  C2_6 
REMARK    2  A    between atoms: C11_16  and  S1_17 
REMARK    3  A    between atoms: S1_17  and  O4_20 
REMARK    4  A    between atoms: C18_27  and  C19_28 
REMARK    5  A    between atoms: C19_28  and  C20_29 
REMARK    6  A    between atoms: C20_29  and  C21_30 
REMARK    7  A    between atoms: C21_30  and  O5_31 
REMARK    8  A    between atoms: C22_33  and  C23_34 
REMARK    9  A    between atoms: C26_37  and  O7_38 
ROOT
HETATM    1  C2  UNL     1     -18.203   4.058  14.428  1.00  0.00     0.263 C 
HETATM    2  O1  UNL     1     -18.827   4.696  15.592  1.00  0.00    -0.322 OA
HETATM    3  C3  UNL     1     -18.963   6.059  15.511  1.00  0.00     0.071 C 
HETATM    4  C4  UNL     1     -18.404   6.800  16.555  1.00  0.00     0.037 C 
HETATM    5  C5  UNL     1     -18.222   8.176  16.410  1.00  0.00     0.010 C 
HETATM    6  C6  UNL     1     -18.640   8.820  15.236  1.00  0.00    -0.058 C 
HETATM    7  C7  UNL     1     -19.364   8.088  14.281  1.00  0.00     0.010 C 
HETATM    8  C8  UNL     1     -19.522   6.708  14.415  1.00  0.00     0.037 C 
HETATM    9  C9  UNL     1     -18.202  10.236  14.943  1.00  0.00     0.040 C 
HETATM   10  C10 UNL     1     -16.698  10.337  14.587  1.00  0.00     0.027 C 
HETATM   11  C11 UNL     1     -16.190   9.415  13.447  1.00  0.00     0.130 C 
HETATM   12  C12 UNL     1     -14.626   9.319  13.265  1.00  0.00     0.037 C 
HETATM   13  C13 UNL     1     -13.693   9.910  14.317  1.00  0.00    -0.014 C 
HETATM   14  C14 UNL     1     -12.362   9.843  14.076  1.00  0.00    -0.050 C 
HETATM   15  C15 UNL     1     -11.918   9.158  12.800  1.00  0.00     0.042 C 
HETATM   16  C16 UNL     1     -12.481   7.742  12.994  1.00  0.00     0.001 C 
HETATM   17  C17 UNL     1     -12.014   7.171  14.379  1.00  0.00     0.037 C 
HETATM   18  C18 UNL     1     -10.613   7.574  14.921  1.00  0.00     0.123 C 
HETATM   19  O6  UNL     1     -10.274   8.973  14.869  1.00  0.00    -0.371 OA
HETATM   20  C22 UNL     1     -11.301   9.939  15.150  1.00  0.00     0.183 C 
HETATM   21  C29 UNL     1     -14.060   7.879  12.794  1.00  0.00     0.032 C 
HETATM   22  C30 UNL     1     -14.925   6.687  13.190  1.00  0.00    -0.053 C 
HETATM   23  C31 UNL     1     -15.031   6.207  14.501  1.00  0.00     0.008 C 
HETATM   24  C32 UNL     1     -15.996   5.253  14.851  1.00  0.00     0.012 C 
HETATM   25  C33 UNL     1     -16.964   4.836  13.927  1.00  0.00    -0.010 C 
HETATM   26  C34 UNL     1     -16.824   5.259  12.599  1.00  0.00     0.012 C 
HETATM   27  C35 UNL     1     -15.805   6.147  12.233  1.00  0.00     0.008 C 
ENDROOT
BRANCH   1  28
HETATM   28  N3  UNL     1     -19.161   3.684  13.379  1.00  0.00    -0.341 N 
HETATM   29  C1  UNL     1     -20.168   2.950  13.664  1.00  0.00     0.124 C 
HETATM   30  N1  UNL     1     -21.072   2.665  12.702  1.00  0.00    -0.279 NA
HETATM   31  N2  UNL     1     -20.535   2.360  14.824  1.00  0.00    -0.279 NA
HETATM   32  H1  UNL     1     -22.018   2.865  13.002  1.00  0.00     0.126 HD
HETATM   33  H2  UNL     1     -20.862   3.216  11.871  1.00  0.00     0.126 HD
HETATM   34  H3  UNL     1     -21.062   1.509  14.659  1.00  0.00     0.126 HD
HETATM   35  H4  UNL     1     -19.769   2.177  15.459  1.00  0.00     0.126 HD
ATOM     36  H3  UNL     1     -19.024   4.010  12.423  1.00  0.00     0.164 HD
ENDBRANCH   1  28
BRANCH  11  37
HETATM   37  S1  UNL     1     -16.910   9.895  11.821  1.00  0.00     0.099 S 
HETATM   38  O2  UNL     1     -16.135   9.335  10.737  1.00  0.00    -0.601 OA
HETATM   39  O3  UNL     1     -18.352   9.812  11.821  1.00  0.00    -0.601 OA
BRANCH  37  40
HETATM   40  O4  UNL     1     -16.592  11.477  11.869  1.00  0.00    -0.295 OA
HETATM   41  H15 UNL     1     -17.426  11.959  11.672  1.00  0.00     0.232 HD
ENDBRANCH  37  40
ENDBRANCH  11  37
BRANCH  18  42
HETATM   42  C19 UNL     1      -9.464   6.843  14.201  1.00  0.00     0.034 C 
BRANCH  42  43
HETATM   43  C20 UNL     1      -8.087   7.094  14.822  1.00  0.00     0.028 C 
BRANCH  43  44
HETATM   44  C21 UNL     1      -8.030   6.644  16.277  1.00  0.00     0.164 C 
BRANCH  44  45
HETATM   45  O5  UNL     1      -6.720   6.217  16.619  1.00  0.00    -0.401 OA
HETATM   46  H30 UNL     1      -6.492   5.475  16.034  1.00  0.00     0.209 HD
ENDBRANCH  44  45
ENDBRANCH  43  44
ENDBRANCH  42  43
ENDBRANCH  18  42
BRANCH  20  47
HETATM   47  C23 UNL     1     -10.695  11.331  15.196  1.00  0.00    -0.025 A 
HETATM   48  C24 UNL     1      -9.456  11.575  15.812  1.00  0.00     0.013 A 
HETATM   49  C25 UNL     1      -8.888  12.852  15.799  1.00  0.00     0.037 A 
HETATM   50  C26 UNL     1      -9.561  13.891  15.161  1.00  0.00     0.065 A 
HETATM   51  C27 UNL     1     -10.785  13.675  14.543  1.00  0.00     0.037 A 
HETATM   52  C28 UNL     1     -11.350  12.399  14.557  1.00  0.00     0.013 A 
BRANCH  50  53
HETATM   53  O7  UNL     1      -9.036  15.150  15.113  1.00  0.00    -0.361 OA
HETATM   54  H34 UNL     1      -8.182  15.142  15.576  1.00  0.00     0.217 HD
ENDBRANCH  50  53
ENDBRANCH  20  47
TORSDOF 9
ENDMDL
MODEL 7
REMARK minimizedAffinity -6.65398788
REMARK CNNscore 0.159784615
REMARK CNNaffinity 6.23067427
REMARK  9 active torsions:
REMARK  status: ('A' for Active; 'I' for Inactive)
REMARK       I    between atoms: N1_1  and  C1_2 
REMARK       I    between atoms: C1_2  and  N2_3 
REMARK    1  A    between atoms: N3_4  and  C2_6 
REMARK    2  A    between atoms: C11_16  and  S1_17 
REMARK    3  A    between atoms: S1_17  and  O4_20 
REMARK    4  A    between atoms: C18_27  and  C19_28 
REMARK    5  A    between atoms: C19_28  and  C20_29 
REMARK    6  A    between atoms: C20_29  and  C21_30 
REMARK    7  A    between atoms: C21_30  and  O5_31 
REMARK    8  A    between atoms: C22_33  and  C23_34 
REMARK    9  A    between atoms: C26_37  and  O7_38 
ROOT
HETATM    1  C2  UNL     1      -4.381   9.512  14.890  1.00  0.00     0.263 C 
HETATM    2  O1  UNL     1      -4.285   9.007  13.517  1.00  0.00    -0.322 OA
HETATM    3  C3  UNL     1      -3.113   8.364  13.209  1.00  0.00     0.071 C 
HETATM    4  C4  UNL     1      -2.410   8.851  12.105  1.00  0.00     0.037 C 
HETATM    5  C5  UNL     1      -1.083   8.471  11.904  1.00  0.00     0.010 C 
HETATM    6  C6  UNL     1      -0.469   7.568  12.784  1.00  0.00    -0.058 C 
HETATM    7  C7  UNL     1      -1.249   6.951  13.775  1.00  0.00     0.010 C 
HETATM    8  C8  UNL     1      -2.568   7.351  13.992  1.00  0.00     0.037 C 
HETATM    9  C9  UNL     1       1.028   7.366  12.752  1.00  0.00     0.040 C 
HETATM   10  C10 UNL     1       1.810   8.588  13.296  1.00  0.00     0.027 C 
HETATM   11  C11 UNL     1       1.408   9.099  14.705  1.00  0.00     0.130 C 
HETATM   12  C12 UNL     1       2.007  10.490  15.144  1.00  0.00     0.037 C 
HETATM   13  C13 UNL     1       2.730  11.370  14.130  1.00  0.00    -0.014 C 
HETATM   14  C14 UNL     1       3.269  12.527  14.583  1.00  0.00    -0.050 C 
HETATM   15  C15 UNL     1       3.077  12.860  16.047  1.00  0.00     0.042 C 
HETATM   16  C16 UNL     1       1.546  12.925  16.154  1.00  0.00     0.001 C 
HETATM   17  C17 UNL     1       0.980  13.898  15.061  1.00  0.00     0.037 C 
HETATM   18  C18 UNL     1       1.824  15.140  14.655  1.00  0.00     0.123 C 
HETATM   19  O6  UNL     1       3.220  14.915  14.383  1.00  0.00    -0.371 OA
HETATM   20  C22 UNL     1       3.601  13.709  13.699  1.00  0.00     0.183 C 
HETATM   21  C29 UNL     1       1.046  11.410  16.064  1.00  0.00     0.032 C 
HETATM   22  C30 UNL     1      -0.448  11.173  15.872  1.00  0.00    -0.053 C 
HETATM   23  C31 UNL     1      -1.159  11.581  14.737  1.00  0.00     0.008 C 
HETATM   24  C32 UNL     1      -2.474  11.154  14.510  1.00  0.00     0.012 C 
HETATM   25  C33 UNL     1      -3.081  10.211  15.351  1.00  0.00    -0.010 C 
HETATM   26  C34 UNL     1      -2.403   9.851  16.522  1.00  0.00     0.012 C 
HETATM   27  C35 UNL     1      -1.121  10.346  16.791  1.00  0.00     0.008 C 
ENDROOT
BRANCH   1  28
HETATM   28  N3  UNL     1      -4.922   8.530  15.841  1.00  0.00    -0.341 N 
HETATM   29  C1  UNL     1      -6.030   7.943  15.592  1.00  0.00     0.124 C 
HETATM   30  N1  UNL     1      -6.483   6.999  16.445  1.00  0.00    -0.279 NA
HETATM   31  N2  UNL     1      -6.901   8.089  14.568  1.00  0.00    -0.279 NA
HETATM   32  H1  UNL     1      -6.725   6.142  15.965  1.00  0.00     0.126 HD
HETATM   33  H2  UNL     1      -5.765   6.801  17.140  1.00  0.00     0.126 HD
HETATM   34  H3  UNL     1      -7.850   7.873  14.853  1.00  0.00     0.126 HD
HETATM   35  H4  UNL     1      -6.870   8.996  14.122  1.00  0.00     0.126 HD
ATOM     36  H3  UNL     1      -4.413   8.317  16.698  1.00  0.00     0.164 HD
ENDBRANCH   1  28
BRANCH  11  37
HETATM   37  S1  UNL     1       1.832   7.872  16.012  1.00  0.00     0.099 S 
HETATM   38  O2  UNL     1       2.723   8.458  16.988  1.00  0.00    -0.601 OA
HETATM   39  O3  UNL     1       0.682   7.102  16.427  1.00  0.00    -0.601 OA
BRANCH  37  40
HETATM   40  O4  UNL     1       2.706   6.852  15.117  1.00  0.00    -0.295 OA
HETATM   41  H15 UNL     1       2.354   5.946  15.263  1.00  0.00     0.232 HD
ENDBRANCH  37  40
ENDBRANCH  11  37
BRANCH  18  42
HETATM   42  C19 UNL     1       1.782  16.259  15.712  1.00  0.00     0.034 C 
BRANCH  42  43
HETATM   43  C20 UNL     1       1.583  17.658  15.122  1.00  0.00     0.028 C 
BRANCH  43  44
HETATM   44  C21 UNL     1       2.898  18.422  15.016  1.00  0.00     0.164 C 
BRANCH  44  45
HETATM   45  O5  UNL     1       3.889  17.832  15.843  1.00  0.00    -0.401 OA
HETATM   46  H30 UNL     1       3.562  17.861  16.758  1.00  0.00     0.209 HD
ENDBRANCH  44  45
ENDBRANCH  43  44
ENDBRANCH  42  43
ENDBRANCH  18  42
BRANCH  20  47
HETATM   47  C23 UNL     1       5.085  13.751  13.377  1.00  0.00    -0.025 A 
HETATM   48  C24 UNL     1       5.605  13.157  12.215  1.00  0.00     0.013 A 
HETATM   49  C25 UNL     1       6.965  13.251  11.909  1.00  0.00     0.037 A 
HETATM   50  C26 UNL     1       7.811  13.948  12.768  1.00  0.00     0.065 A 
HETATM   51  C27 UNL     1       7.321  14.547  13.921  1.00  0.00     0.037 A 
HETATM   52  C28 UNL     1       5.962  14.452  14.224  1.00  0.00     0.013 A 
BRANCH  50  53
HETATM   53  O7  UNL     1       9.143  14.076  12.500  1.00  0.00    -0.361 OA
HETATM   54  H34 UNL     1       9.331  13.617  11.665  1.00  0.00     0.217 HD
ENDBRANCH  50  53
ENDBRANCH  20  47
TORSDOF 9
ENDMDL
MODEL 8
REMARK minimizedAffinity -6.78168583
REMARK CNNscore 0.159458905
REMARK CNNaffinity 5.42222738
REMARK  9 active torsions:
REMARK  status: ('A' for Active; 'I' for Inactive)
REMARK       I    between atoms: N1_1  and  C1_2 
REMARK       I    between atoms: C1_2  and  N2_3 
REMARK    1  A    between atoms: N3_4  and  C2_6 
REMARK    2  A    between atoms: C11_16  and  S1_17 
REMARK    3  A    between atoms: S1_17  and  O4_20 
REMARK    4  A    between atoms: C18_27  and  C19_28 
REMARK    5  A    between atoms: C19_28  and  C20_29 
REMARK    6  A    between atoms: C20_29  and  C21_30 
REMARK    7  A    between atoms: C21_30  and  O5_31 
REMARK    8  A    between atoms: C22_33  and  C23_34 
REMARK    9  A    between atoms: C26_37  and  O7_38 
ROOT
HETATM    1  C2  UNL     1      -2.964  14.228  17.083  1.00  0.00     0.263 C 
HETATM    2  O1  UNL     1      -2.320  15.031  16.038  1.00  0.00    -0.322 OA
HETATM    3  C3  UNL     1      -1.157  14.509  15.532  1.00  0.00     0.071 C 
HETATM    4  C4  UNL     1      -0.033  15.337  15.580  1.00  0.00     0.037 C 
HETATM    5  C5  UNL     1       1.237  14.797  15.379  1.00  0.00     0.010 C 
HETATM    6  C6  UNL     1       1.383  13.434  15.086  1.00  0.00    -0.058 C 
HETATM    7  C7  UNL     1       0.231  12.662  14.860  1.00  0.00     0.010 C 
HETATM    8  C8  UNL     1      -1.037  13.195  15.087  1.00  0.00     0.037 C 
HETATM    9  C9  UNL     1       2.743  12.779  15.146  1.00  0.00     0.040 C 
HETATM   10  C10 UNL     1       3.275  12.631  16.593  1.00  0.00     0.027 C 
HETATM   11  C11 UNL     1       2.338  11.923  17.608  1.00  0.00     0.130 C 
HETATM   12  C12 UNL     1       2.756  12.009  19.127  1.00  0.00     0.037 C 
HETATM   13  C13 UNL     1       3.877  12.947  19.563  1.00  0.00    -0.014 C 
HETATM   14  C14 UNL     1       4.224  12.934  20.872  1.00  0.00    -0.050 C 
HETATM   15  C15 UNL     1       3.446  12.015  21.791  1.00  0.00     0.042 C 
HETATM   16  C16 UNL     1       2.017  12.558  21.640  1.00  0.00     0.001 C 
HETATM   17  C17 UNL     1       2.008  14.104  21.906  1.00  0.00     0.037 C 
HETATM   18  C18 UNL     1       2.997  14.690  22.954  1.00  0.00     0.123 C 
HETATM   19  O6  UNL     1       4.367  14.253  22.869  1.00  0.00    -0.371 OA
HETATM   20  C22 UNL     1       4.948  14.066  21.567  1.00  0.00     0.183 C 
HETATM   21  C29 UNL     1       1.538  12.099  20.187  1.00  0.00     0.032 C 
HETATM   22  C30 UNL     1       0.255  12.719  19.641  1.00  0.00    -0.053 C 
HETATM   23  C31 UNL     1       0.108  14.084  19.369  1.00  0.00     0.008 C 
HETATM   24  C32 UNL     1      -1.006  14.571  18.672  1.00  0.00     0.012 C 
HETATM   25  C33 UNL     1      -1.951  13.694  18.121  1.00  0.00    -0.010 C 
HETATM   26  C34 UNL     1      -1.847  12.335  18.446  1.00  0.00     0.012 C 
HETATM   27  C35 UNL     1      -0.778  11.862  19.216  1.00  0.00     0.008 C 
ENDROOT
BRANCH   1  28
HETATM   28  N3  UNL     1      -3.898  13.221  16.559  1.00  0.00    -0.341 N 
HETATM   29  C1  UNL     1      -3.486  12.039  16.303  1.00  0.00     0.124 C 
HETATM   30  N1  UNL     1      -4.368  11.109  15.880  1.00  0.00    -0.279 NA
HETATM   31  N2  UNL     1      -2.250  11.494  16.381  1.00  0.00    -0.279 NA
HETATM   32  H1  UNL     1      -4.311  10.258  16.424  1.00  0.00     0.126 HD
HETATM   33  H2  UNL     1      -5.312  11.485  15.948  1.00  0.00     0.126 HD
HETATM   34  H3  UNL     1      -2.131  10.744  15.709  1.00  0.00     0.126 HD
HETATM   35  H4  UNL     1      -1.495  12.161  16.296  1.00  0.00     0.126 HD
ATOM     36  H3  UNL     1      -4.875  13.466  16.399  1.00  0.00     0.164 HD
ENDBRANCH   1  28
BRANCH  11  37
HETATM   37  S1  UNL     1       2.118  10.142  17.192  1.00  0.00     0.099 S 
HETATM   38  O2  UNL     1       0.739   9.866  16.856  1.00  0.00    -0.601 OA
HETATM   39  O3  UNL     1       3.195   9.640  16.370  1.00  0.00    -0.601 OA
BRANCH  37  40
HETATM   40  O4  UNL     1       2.390   9.512  18.653  1.00  0.00    -0.295 OA
HETATM   41  H15 UNL     1       3.066   8.804  18.555  1.00  0.00     0.232 HD
ENDBRANCH  37  40
ENDBRANCH  11  37
BRANCH  18  42
HETATM   42  C19 UNL     1       2.562  14.409  24.404  1.00  0.00     0.034 C 
BRANCH  42  43
HETATM   43  C20 UNL     1       2.229  15.672  25.204  1.00  0.00     0.028 C 
BRANCH  43  44
HETATM   44  C21 UNL     1       1.088  15.437  26.187  1.00  0.00     0.164 C 
BRANCH  44  45
HETATM   45  O5  UNL     1       0.533  14.142  26.011  1.00  0.00    -0.401 OA
HETATM   46  H30 UNL     1       0.201  14.087  25.099  1.00  0.00     0.209 HD
ENDBRANCH  44  45
ENDBRANCH  43  44
ENDBRANCH  42  43
ENDBRANCH  18  42
BRANCH  20  47
HETATM   47  C23 UNL     1       6.430  13.761  21.708  1.00  0.00    -0.025 A 
HETATM   48  C24 UNL     1       6.923  12.971  22.760  1.00  0.00     0.013 A 
HETATM   49  C25 UNL     1       8.282  12.658  22.845  1.00  0.00     0.037 A 
HETATM   50  C26 UNL     1       9.154  13.134  21.869  1.00  0.00     0.065 A 
HETATM   51  C27 UNL     1       8.691  13.914  20.818  1.00  0.00     0.037 A 
HETATM   52  C28 UNL     1       7.333  14.225  20.735  1.00  0.00     0.013 A 
BRANCH  50  53
HETATM   53  O7  UNL     1      10.486  12.841  21.906  1.00  0.00    -0.361 OA
HETATM   54  H34 UNL     1      10.655  12.286  22.686  1.00  0.00     0.217 HD
ENDBRANCH  50  53
ENDBRANCH  20  47
TORSDOF 9
ENDMDL
MODEL 9
REMARK minimizedAffinity -7.50061083
REMARK CNNscore 0.157221392
REMARK CNNaffinity 4.89597893
REMARK  9 active torsions:
REMARK  status: ('A' for Active; 'I' for Inactive)
REMARK       I    between atoms: N1_1  and  C1_2 
REMARK       I    between atoms: C1_2  and  N2_3 
REMARK    1  A    between atoms: N3_4  and  C2_6 
REMARK    2  A    between atoms: C11_16  and  S1_17 
REMARK    3  A    between atoms: S1_17  and  O4_20 
REMARK    4  A    between atoms: C18_27  and  C19_28 
REMARK    5  A    between atoms: C19_28  and  C20_29 
REMARK    6  A    between atoms: C20_29  and  C21_30 
REMARK    7  A    between atoms: C21_30  and  O5_31 
REMARK    8  A    between atoms: C22_33  and  C23_34 
REMARK    9  A    between atoms: C26_37  and  O7_38 
ROOT
HETATM    1  C2  UNL     1      -0.843  11.165  16.927  1.00  0.00     0.263 C 
HETATM    2  O1  UNL     1      -1.025  10.739  18.318  1.00  0.00    -0.322 OA
HETATM    3  C3  UNL     1      -0.328  11.467  19.250  1.00  0.00     0.071 C 
HETATM    4  C4  UNL     1       0.512  10.743  20.100  1.00  0.00     0.037 C 
HETATM    5  C5  UNL     1       1.475  11.409  20.857  1.00  0.00     0.010 C 
HETATM    6  C6  UNL     1       1.572  12.807  20.799  1.00  0.00    -0.058 C 
HETATM    7  C7  UNL     1       0.599  13.525  20.083  1.00  0.00     0.010 C 
HETATM    8  C8  UNL     1      -0.346  12.857  19.305  1.00  0.00     0.037 C 
HETATM    9  C9  UNL     1       2.772  13.516  21.381  1.00  0.00     0.040 C 
HETATM   10  C10 UNL     1       4.062  13.290  20.553  1.00  0.00     0.027 C 
HETATM   11  C11 UNL     1       3.981  13.612  19.037  1.00  0.00     0.130 C 
HETATM   12  C12 UNL     1       5.195  13.133  18.152  1.00  0.00     0.037 C 
HETATM   13  C13 UNL     1       6.248  12.195  18.734  1.00  0.00    -0.014 C 
HETATM   14  C14 UNL     1       7.293  11.865  17.939  1.00  0.00    -0.050 C 
HETATM   15  C15 UNL     1       7.307  12.427  16.534  1.00  0.00     0.042 C 
HETATM   16  C16 UNL     1       6.010  11.845  15.952  1.00  0.00     0.001 C 
HETATM   17  C17 UNL     1       5.987  10.291  16.160  1.00  0.00     0.037 C 
HETATM   18  C18 UNL     1       7.330   9.508  16.104  1.00  0.00     0.123 C 
HETATM   19  O6  UNL     1       8.429  10.051  16.860  1.00  0.00    -0.371 OA
HETATM   20  C22 UNL     1       8.156  10.639  18.144  1.00  0.00     0.183 C 
HETATM   21  C29 UNL     1       4.825  12.659  16.650  1.00  0.00     0.032 C 
HETATM   22  C30 UNL     1       3.407  12.125  16.475  1.00  0.00    -0.053 C 
HETATM   23  C31 UNL     1       2.979  10.885  16.963  1.00  0.00     0.008 C 
HETATM   24  C32 UNL     1       1.623  10.534  16.967  1.00  0.00     0.012 C 
HETATM   25  C33 UNL     1       0.638  11.459  16.591  1.00  0.00    -0.010 C 
HETATM   26  C34 UNL     1       1.062  12.674  16.040  1.00  0.00     0.012 C 
HETATM   27  C35 UNL     1       2.423  12.989  15.957  1.00  0.00     0.008 C 
ENDROOT
BRANCH   1  28
HETATM   28  N3  UNL     1      -1.788  12.207  16.504  1.00  0.00    -0.341 N 
HETATM   29  C1  UNL     1      -3.047  12.010  16.607  1.00  0.00     0.124 C 
HETATM   30  N1  UNL     1      -3.901  13.001  16.271  1.00  0.00    -0.279 NA
HETATM   31  N2  UNL     1      -3.744  10.927  17.019  1.00  0.00    -0.279 NA
HETATM   32  H1  UNL     1      -4.577  13.180  17.003  1.00  0.00     0.126 HD
HETATM   33  H2  UNL     1      -3.373  13.852  16.088  1.00  0.00     0.126 HD
HETATM   34  H3  UNL     1      -4.653  10.876  16.573  1.00  0.00     0.126 HD
HETATM   35  H4  UNL     1      -3.252  10.049  16.908  1.00  0.00     0.126 HD
ATOM     36  H3  UNL     1      -1.441  13.089  16.127  1.00  0.00     0.164 HD
ENDBRANCH   1  28
BRANCH  11  37
HETATM   37  S1  UNL     1       3.757  15.417  18.745  1.00  0.00     0.099 S 
HETATM   38  O2  UNL     1       3.775  16.141  19.996  1.00  0.00    -0.601 OA
HETATM   39  O3  UNL     1       4.520  15.882  17.610  1.00  0.00    -0.601 OA
BRANCH  37  40
HETATM   40  O4  UNL     1       2.228  15.395  18.228  1.00  0.00    -0.295 OA
HETATM   41  H15 UNL     1       2.189  15.891  17.380  1.00  0.00     0.232 HD
ENDBRANCH  37  40
ENDBRANCH  11  37
BRANCH  18  42
HETATM   42  C19 UNL     1       7.859   9.336  14.668  1.00  0.00     0.034 C 
BRANCH  42  43
HETATM   43  C20 UNL     1       8.018   7.874  14.240  1.00  0.00     0.028 C 
BRANCH  43  44
HETATM   44  C21 UNL     1       6.716   7.298  13.696  1.00  0.00     0.164 C 
BRANCH  44  45
HETATM   45  O5  UNL     1       6.066   6.510  14.682  1.00  0.00    -0.401 OA
HETATM   46  H30 UNL     1       6.671   5.789  14.927  1.00  0.00     0.209 HD
ENDBRANCH  44  45
ENDBRANCH  43  44
ENDBRANCH  42  43
ENDBRANCH  18  42
BRANCH  20  47
HETATM   47  C23 UNL     1       9.464  10.999  18.829  1.00  0.00    -0.025 A 
HETATM   48  C24 UNL     1      10.706  10.650  18.275  1.00  0.00     0.013 A 
HETATM   49  C25 UNL     1      11.899  11.035  18.892  1.00  0.00     0.037 A 
HETATM   50  C26 UNL     1      11.850  11.779  20.068  1.00  0.00     0.065 A 
HETATM   51  C27 UNL     1      10.634  12.140  20.633  1.00  0.00     0.037 A 
HETATM   52  C28 UNL     1       9.444  11.754  20.015  1.00  0.00     0.013 A 
BRANCH  50  53
HETATM   53  O7  UNL     1      12.991  12.188  20.696  1.00  0.00    -0.361 OA
HETATM   54  H34 UNL     1      13.752  11.870  20.183  1.00  0.00     0.217 HD
ENDBRANCH  50  53
ENDBRANCH  20  47
TORSDOF 9
ENDMDL
