MODEL 1
REMARK minimizedAffinity -6.45615053
REMARK CNNscore 0.505743861
REMARK CNNaffinity 7.08265877
REMARK  17 active torsions:
REMARK  status: ('A' for Active; 'I' for Inactive)
REMARK    1  A    between atoms: C2_2  and  C3_3 
REMARK    2  A    between atoms: C2_2  and  C26_32 
REMARK    3  A    between atoms: C4_4  and  C5_5 
REMARK    4  A    between atoms: C6_6  and  C7_7 
REMARK    5  A    between atoms: C6_6  and  C9_11 
REMARK    6  A    between atoms: C7_7  and  O1_8 
REMARK    7  A    between atoms: O1_8  and  C8_9 
REMARK    8  A    between atoms: C8_9  and  O2_10 
REMARK    9  A    between atoms: C13_15  and  O3_16 
REMARK   10  A    between atoms: C14_17  and  C15_18 
REMARK   11  A    between atoms: C15_18  and  C16_19 
REMARK   12  A    between atoms: C16_19  and  C17_20 
REMARK   13  A    between atoms: C17_20  and  O4_21 
REMARK   14  A    between atoms: C19_23  and  C21_25 
REMARK   15  A    between atoms: C24_29  and  O6_31 
REMARK   16  A    between atoms: C26_32  and  C27_33 
REMARK   17  A    between atoms: C27_33  and  C28_34 
ROOT
HETATM    1  C9  UNL     1      -4.266   6.115  13.527  1.00  0.00     0.046 C 
HETATM    2  C10 UNL     1      -4.902   7.172  12.612  1.00  0.00     0.013 C 
HETATM    3  C11 UNL     1      -5.929   7.901  13.475  1.00  0.00     0.017 C 
HETATM    4  C12 UNL     1      -6.450   6.857  14.509  1.00  0.00     0.024 C 
HETATM    5  C13 UNL     1      -5.085   6.156  14.854  1.00  0.00     0.138 C 
HETATM    6  C14 UNL     1      -7.460   5.836  13.767  1.00  0.00     0.029 C 
HETATM    7  C18 UNL     1      -8.916   6.275  13.956  1.00  0.00    -0.066 C 
HETATM    8  C19 UNL     1      -9.768   6.667  12.973  1.00  0.00    -0.021 C 
HETATM    9  C20 UNL     1     -11.227   7.004  13.170  1.00  0.00     0.052 C 
HETATM   10  C22 UNL     1      -9.335   6.277  15.425  1.00  0.00     0.038 C 
HETATM   11  C23 UNL     1      -8.194   6.661  16.375  1.00  0.00     0.042 C 
HETATM   12  C24 UNL     1      -7.179   7.604  15.717  1.00  0.00     0.065 C 
HETATM   13  C25 UNL     1      -7.881   8.925  15.322  1.00  0.00     0.047 C 
ENDROOT
BRANCH   1  14
HETATM   14  C6  UNL     1      -2.751   6.099  13.728  1.00  0.00    -0.050 C 
HETATM   15  C5  UNL     1      -1.906   7.123  13.987  1.00  0.00     0.005 C 
BRANCH  15  16
HETATM   16  C4  UNL     1      -2.202   8.505  14.300  1.00  0.00     0.001 C 
HETATM   17  C3  UNL     1      -1.956   9.043  15.507  1.00  0.00     0.006 C 
BRANCH  17  18
HETATM   18  C2  UNL     1      -2.259  10.413  15.931  1.00  0.00    -0.067 C 
HETATM   19  C1  UNL     1      -2.536  11.322  14.980  1.00  0.00     0.019 C 
BRANCH  18  20
HETATM   20  C26 UNL     1      -2.232  10.729  17.421  1.00  0.00     0.041 C 
BRANCH  20  21
HETATM   21  C27 UNL     1      -1.104  11.622  17.982  1.00  0.00     0.032 C 
BRANCH  21  22
HETATM   22  C28 UNL     1      -0.193  10.904  18.945  1.00  0.00    -0.024 C 
HETATM   23  C29 UNL     1       0.604  11.442  19.887  1.00  0.00    -0.091 C 
HETATM   24  C30 UNL     1       0.769  12.914  20.151  1.00  0.00     0.042 C 
HETATM   25  C31 UNL     1       1.434  10.560  20.785  1.00  0.00     0.042 C 
ENDBRANCH  21  22
ENDBRANCH  20  21
ENDBRANCH  18  20
ENDBRANCH  17  18
ENDBRANCH  15  16
BRANCH  14  26
HETATM   26  C7  UNL     1      -2.184   4.682  13.633  1.00  0.00     0.205 C 
BRANCH  26  27
HETATM   27  O1  UNL     1      -1.868   4.265  12.307  1.00  0.00    -0.363 OA
BRANCH  27  28
HETATM   28  C8  UNL     1      -2.848   3.439  11.691  1.00  0.00     0.334 C 
BRANCH  28  29
HETATM   29  O2  UNL     1      -2.305   2.310  11.032  1.00  0.00    -0.377 OA
HETATM   30  H10 UNL     1      -2.282   2.561  10.086  1.00  0.00     0.212 HD
ENDBRANCH  28  29
ENDBRANCH  27  28
ENDBRANCH  26  27
ENDBRANCH  14  26
ENDBRANCH   1  14
BRANCH   5  31
HETATM   31  O3  UNL     1      -4.341   6.813  15.887  1.00  0.00    -0.394 OA
HETATM   32  H17 UNL     1      -4.052   7.680  15.537  1.00  0.00     0.210 HD
ENDBRANCH   5  31
BRANCH   6  33
HETATM   33  C15 UNL     1      -7.313   4.333  14.161  1.00  0.00     0.012 C 
BRANCH  33  34
HETATM   34  C16 UNL     1      -7.811   3.304  13.127  1.00  0.00     0.027 C 
BRANCH  34  35
HETATM   35  C17 UNL     1      -6.713   2.710  12.252  1.00  0.00     0.164 C 
BRANCH  35  36
HETATM   36  O4  UNL     1      -6.998   1.351  11.948  1.00  0.00    -0.401 OA
HETATM   37  H25 UNL     1      -7.748   1.348  11.329  1.00  0.00     0.209 HD
ENDBRANCH  35  36
ENDBRANCH  34  35
ENDBRANCH  33  34
ENDBRANCH   6  33
BRANCH  12  38
HETATM   38  O6  UNL     1      -6.275   8.031  16.742  1.00  0.00    -0.389 OA
HETATM   39  H37 UNL     1      -5.631   7.312  16.910  1.00  0.00     0.210 HD
ENDBRANCH  12  38
BRANCH   8  40
HETATM   40  C21 UNL     1      -9.347   6.817  11.541  1.00  0.00     0.265 C 
HETATM   41  O5  UNL     1      -9.235   5.864  10.779  1.00  0.00    -0.302 OA
ENDBRANCH   8  40
TORSDOF 17
ENDMDL
MODEL 2
REMARK minimizedAffinity -7.17760706
REMARK CNNscore 0.314894676
REMARK CNNaffinity 6.38422346
REMARK  17 active torsions:
REMARK  status: ('A' for Active; 'I' for Inactive)
REMARK    1  A    between atoms: C2_2  and  C3_3 
REMARK    2  A    between atoms: C2_2  and  C26_32 
REMARK    3  A    between atoms: C4_4  and  C5_5 
REMARK    4  A    between atoms: C6_6  and  C7_7 
REMARK    5  A    between atoms: C6_6  and  C9_11 
REMARK    6  A    between atoms: C7_7  and  O1_8 
REMARK    7  A    between atoms: O1_8  and  C8_9 
REMARK    8  A    between atoms: C8_9  and  O2_10 
REMARK    9  A    between atoms: C13_15  and  O3_16 
REMARK   10  A    between atoms: C14_17  and  C15_18 
REMARK   11  A    between atoms: C15_18  and  C16_19 
REMARK   12  A    between atoms: C16_19  and  C17_20 
REMARK   13  A    between atoms: C17_20  and  O4_21 
REMARK   14  A    between atoms: C19_23  and  C21_25 
REMARK   15  A    between atoms: C24_29  and  O6_31 
REMARK   16  A    between atoms: C26_32  and  C27_33 
REMARK   17  A    between atoms: C27_33  and  C28_34 
ROOT
HETATM    1  C9  UNL     1      -3.020   8.993  14.438  1.00  0.00     0.046 C 
HETATM    2  C10 UNL     1      -3.312   8.452  13.030  1.00  0.00     0.013 C 
HETATM    3  C11 UNL     1      -2.443   7.206  12.878  1.00  0.00     0.017 C 
HETATM    4  C12 UNL     1      -1.167   7.455  13.740  1.00  0.00     0.024 C 
HETATM    5  C13 UNL     1      -1.846   8.127  14.990  1.00  0.00     0.138 C 
HETATM    6  C14 UNL     1      -0.204   8.499  12.967  1.00  0.00     0.029 C 
HETATM    7  C18 UNL     1       0.871   7.759  12.164  1.00  0.00    -0.066 C 
HETATM    8  C19 UNL     1       1.010   7.770  10.813  1.00  0.00    -0.021 C 
HETATM    9  C20 UNL     1       2.134   7.111  10.050  1.00  0.00     0.052 C 
HETATM   10  C22 UNL     1       1.792   6.929  13.056  1.00  0.00     0.038 C 
HETATM   11  C23 UNL     1       1.074   6.338  14.276  1.00  0.00     0.042 C 
HETATM   12  C24 UNL     1      -0.413   6.075  14.009  1.00  0.00     0.065 C 
HETATM   13  C25 UNL     1      -0.557   5.035  12.872  1.00  0.00     0.047 C 
ENDROOT
BRANCH   1  14
HETATM   14  C6  UNL     1      -4.169   9.191  15.427  1.00  0.00    -0.050 C 
HETATM   15  C5  UNL     1      -5.416   8.667  15.414  1.00  0.00     0.005 C 
BRANCH  15  16
HETATM   16  C4  UNL     1      -5.979   7.652  14.549  1.00  0.00     0.001 C 
HETATM   17  C3  UNL     1      -5.679   6.347  14.672  1.00  0.00     0.006 C 
BRANCH  17  18
HETATM   18  C2  UNL     1      -6.161   5.255  13.823  1.00  0.00    -0.067 C 
HETATM   19  C1  UNL     1      -5.282   4.667  12.992  1.00  0.00     0.019 C 
BRANCH  18  20
HETATM   20  C26 UNL     1      -7.629   4.859  13.920  1.00  0.00     0.041 C 
BRANCH  20  21
HETATM   21  C27 UNL     1      -8.695   5.736  13.230  1.00  0.00     0.032 C 
BRANCH  21  22
HETATM   22  C28 UNL     1      -9.416   6.662  14.177  1.00  0.00    -0.024 C 
HETATM   23  C29 UNL     1     -10.519   7.396  13.937  1.00  0.00    -0.091 C 
HETATM   24  C30 UNL     1     -11.252   7.461  12.626  1.00  0.00     0.042 C 
HETATM   25  C31 UNL     1     -11.121   8.253  15.022  1.00  0.00     0.042 C 
ENDBRANCH  21  22
ENDBRANCH  20  21
ENDBRANCH  18  20
ENDBRANCH  17  18
ENDBRANCH  15  16
BRANCH  14  26
HETATM   26  C7  UNL     1      -3.766  10.105  16.584  1.00  0.00     0.205 C 
BRANCH  26  27
HETATM   27  O1  UNL     1      -4.006  11.490  16.348  1.00  0.00    -0.363 OA
BRANCH  27  28
HETATM   28  C8  UNL     1      -2.836  12.270  16.129  1.00  0.00     0.334 C 
BRANCH  28  29
HETATM   29  O2  UNL     1      -2.772  12.845  14.838  1.00  0.00    -0.377 OA
HETATM   30  H10 UNL     1      -2.173  12.257  14.333  1.00  0.00     0.212 HD
ENDBRANCH  28  29
ENDBRANCH  27  28
ENDBRANCH  26  27
ENDBRANCH  14  26
ENDBRANCH   1  14
BRANCH   5  31
HETATM   31  O3  UNL     1      -2.324   7.190  15.962  1.00  0.00    -0.394 OA
HETATM   32  H17 UNL     1      -3.065   6.695  15.558  1.00  0.00     0.210 HD
ENDBRANCH   5  31
BRANCH   6  33
HETATM   33  C15 UNL     1       0.469   9.588  13.861  1.00  0.00     0.012 C 
BRANCH  33  34
HETATM   34  C16 UNL     1       0.543   9.284  15.370  1.00  0.00     0.027 C 
BRANCH  34  35
HETATM   35  C17 UNL     1       1.934   9.437  15.974  1.00  0.00     0.164 C 
BRANCH  35  36
HETATM   36  O4  UNL     1       2.762  10.227  15.131  1.00  0.00    -0.401 OA
HETATM   37  H25 UNL     1       2.436  11.142  15.187  1.00  0.00     0.209 HD
ENDBRANCH  35  36
ENDBRANCH  34  35
ENDBRANCH  33  34
ENDBRANCH   6  33
BRANCH  12  38
HETATM   38  O6  UNL     1      -0.925   5.365  15.141  1.00  0.00    -0.389 OA
HETATM   39  H37 UNL     1      -1.079   6.005  15.867  1.00  0.00     0.210 HD
ENDBRANCH  12  38
BRANCH   8  40
HETATM   40  C21 UNL     1       0.038   8.454   9.897  1.00  0.00     0.265 C 
HETATM   41  O5  UNL     1       0.363   8.916   8.811  1.00  0.00    -0.302 OA
ENDBRANCH   8  40
TORSDOF 17
ENDMDL
MODEL 3
REMARK minimizedAffinity -6.38584948
REMARK CNNscore 0.30805397
REMARK CNNaffinity 6.68459654
REMARK  17 active torsions:
REMARK  status: ('A' for Active; 'I' for Inactive)
REMARK    1  A    between atoms: C2_2  and  C3_3 
REMARK    2  A    between atoms: C2_2  and  C26_32 
REMARK    3  A    between atoms: C4_4  and  C5_5 
REMARK    4  A    between atoms: C6_6  and  C7_7 
REMARK    5  A    between atoms: C6_6  and  C9_11 
REMARK    6  A    between atoms: C7_7  and  O1_8 
REMARK    7  A    between atoms: O1_8  and  C8_9 
REMARK    8  A    between atoms: C8_9  and  O2_10 
REMARK    9  A    between atoms: C13_15  and  O3_16 
REMARK   10  A    between atoms: C14_17  and  C15_18 
REMARK   11  A    between atoms: C15_18  and  C16_19 
REMARK   12  A    between atoms: C16_19  and  C17_20 
REMARK   13  A    between atoms: C17_20  and  O4_21 
REMARK   14  A    between atoms: C19_23  and  C21_25 
REMARK   15  A    between atoms: C24_29  and  O6_31 
REMARK   16  A    between atoms: C26_32  and  C27_33 
REMARK   17  A    between atoms: C27_33  and  C28_34 
ROOT
HETATM    1  C9  UNL     1      -3.760   4.499  12.370  1.00  0.00     0.046 C 
HETATM    2  C10 UNL     1      -4.335   5.793  11.775  1.00  0.00     0.013 C 
HETATM    3  C11 UNL     1      -4.829   6.611  12.965  1.00  0.00     0.017 C 
HETATM    4  C12 UNL     1      -5.276   5.581  14.047  1.00  0.00     0.024 C 
HETATM    5  C13 UNL     1      -4.106   4.541  13.890  1.00  0.00     0.138 C 
HETATM    6  C14 UNL     1      -6.693   4.937  13.611  1.00  0.00     0.029 C 
HETATM    7  C18 UNL     1      -7.857   5.670  14.286  1.00  0.00    -0.066 C 
HETATM    8  C19 UNL     1      -8.827   6.383  13.656  1.00  0.00    -0.021 C 
HETATM    9  C20 UNL     1     -10.018   7.018  14.334  1.00  0.00     0.052 C 
HETATM   10  C22 UNL     1      -7.806   5.562  15.808  1.00  0.00     0.038 C 
HETATM   11  C23 UNL     1      -6.375   5.533  16.360  1.00  0.00     0.042 C 
HETATM   12  C24 UNL     1      -5.389   6.299  15.469  1.00  0.00     0.065 C 
HETATM   13  C25 UNL     1      -5.801   7.788  15.403  1.00  0.00     0.047 C 
ENDROOT
BRANCH   1  14
HETATM   14  C6  UNL     1      -2.313   4.105  12.069  1.00  0.00    -0.050 C 
HETATM   15  C5  UNL     1      -1.217   4.887  11.941  1.00  0.00     0.005 C 
BRANCH  15  16
HETATM   16  C4  UNL     1      -1.059   6.302  12.198  1.00  0.00     0.001 C 
HETATM   17  C3  UNL     1       0.069   6.825  12.708  1.00  0.00     0.006 C 
BRANCH  17  18
HETATM   18  C2  UNL     1       0.308   8.231  13.043  1.00  0.00    -0.067 C 
HETATM   19  C1  UNL     1      -0.681   9.112  12.809  1.00  0.00     0.019 C 
BRANCH  18  20
HETATM   20  C26 UNL     1       1.662   8.615  13.625  1.00  0.00     0.041 C 
BRANCH  20  21
HETATM   21  C27 UNL     1       2.934   8.413  12.774  1.00  0.00     0.032 C 
BRANCH  21  22
HETATM   22  C28 UNL     1       2.648   8.188  11.311  1.00  0.00    -0.024 C 
HETATM   23  C29 UNL     1       3.520   8.207  10.285  1.00  0.00    -0.091 C 
HETATM   24  C30 UNL     1       4.991   8.494  10.399  1.00  0.00     0.042 C 
HETATM   25  C31 UNL     1       3.054   7.932   8.877  1.00  0.00     0.042 C 
ENDBRANCH  21  22
ENDBRANCH  20  21
ENDBRANCH  18  20
ENDBRANCH  17  18
ENDBRANCH  15  16
BRANCH  14  26
HETATM   26  C7  UNL     1      -2.159   2.590  11.932  1.00  0.00     0.205 C 
BRANCH  26  27
HETATM   27  O1  UNL     1      -0.909   2.176  11.386  1.00  0.00    -0.363 OA
BRANCH  27  28
HETATM   28  C8  UNL     1      -0.921   0.892  10.774  1.00  0.00     0.334 C 
BRANCH  28  29
HETATM   29  O2  UNL     1      -0.922   0.939   9.359  1.00  0.00    -0.377 OA
HETATM   30  H10 UNL     1      -1.858   0.793   9.107  1.00  0.00     0.212 HD
ENDBRANCH  28  29
ENDBRANCH  27  28
ENDBRANCH  26  27
ENDBRANCH  14  26
ENDBRANCH   1  14
BRANCH   5  31
HETATM   31  O3  UNL     1      -2.943   4.856  14.664  1.00  0.00    -0.394 OA
HETATM   32  H17 UNL     1      -2.553   5.673  14.294  1.00  0.00     0.210 HD
ENDBRANCH   5  31
BRANCH   6  33
HETATM   33  C15 UNL     1      -6.839   3.400  13.844  1.00  0.00     0.012 C 
BRANCH  33  34
HETATM   34  C16 UNL     1      -7.370   2.576  12.655  1.00  0.00     0.027 C 
BRANCH  34  35
HETATM   35  C17 UNL     1      -6.292   2.094  11.692  1.00  0.00     0.164 C 
BRANCH  35  36
HETATM   36  O4  UNL     1      -6.631   0.820  11.160  1.00  0.00    -0.401 OA
HETATM   37  H25 UNL     1      -7.377   0.955  10.548  1.00  0.00     0.209 HD
ENDBRANCH  35  36
ENDBRANCH  34  35
ENDBRANCH  33  34
ENDBRANCH   6  33
BRANCH  12  38
HETATM   38  O6  UNL     1      -4.143   6.355  16.171  1.00  0.00    -0.389 OA
HETATM   39  H37 UNL     1      -3.692   5.491  16.078  1.00  0.00     0.210 HD
ENDBRANCH  12  38
BRANCH   8  40
HETATM   40  C21 UNL     1      -8.826   6.633  12.176  1.00  0.00     0.265 C 
HETATM   41  O5  UNL     1      -9.213   5.802  11.364  1.00  0.00    -0.302 OA
ENDBRANCH   8  40
TORSDOF 17
ENDMDL
MODEL 4
REMARK minimizedAffinity -6.4366107
REMARK CNNscore 0.284363121
REMARK CNNaffinity 7.04069376
REMARK  17 active torsions:
REMARK  status: ('A' for Active; 'I' for Inactive)
REMARK    1  A    between atoms: C2_2  and  C3_3 
REMARK    2  A    between atoms: C2_2  and  C26_32 
REMARK    3  A    between atoms: C4_4  and  C5_5 
REMARK    4  A    between atoms: C6_6  and  C7_7 
REMARK    5  A    between atoms: C6_6  and  C9_11 
REMARK    6  A    between atoms: C7_7  and  O1_8 
REMARK    7  A    between atoms: O1_8  and  C8_9 
REMARK    8  A    between atoms: C8_9  and  O2_10 
REMARK    9  A    between atoms: C13_15  and  O3_16 
REMARK   10  A    between atoms: C14_17  and  C15_18 
REMARK   11  A    between atoms: C15_18  and  C16_19 
REMARK   12  A    between atoms: C16_19  and  C17_20 
REMARK   13  A    between atoms: C17_20  and  O4_21 
REMARK   14  A    between atoms: C19_23  and  C21_25 
REMARK   15  A    between atoms: C24_29  and  O6_31 
REMARK   16  A    between atoms: C26_32  and  C27_33 
REMARK   17  A    between atoms: C27_33  and  C28_34 
ROOT
HETATM    1  C9  UNL     1      -3.707   4.367  12.452  1.00  0.00     0.046 C 
HETATM    2  C10 UNL     1      -4.222   5.673  11.830  1.00  0.00     0.013 C 
HETATM    3  C11 UNL     1      -4.782   6.491  12.992  1.00  0.00     0.017 C 
HETATM    4  C12 UNL     1      -5.316   5.460  14.033  1.00  0.00     0.024 C 
HETATM    5  C13 UNL     1      -4.154   4.404  13.946  1.00  0.00     0.138 C 
HETATM    6  C14 UNL     1      -6.710   4.842  13.498  1.00  0.00     0.029 C 
HETATM    7  C18 UNL     1      -7.905   5.588  14.100  1.00  0.00    -0.066 C 
HETATM    8  C19 UNL     1      -8.820   6.321  13.412  1.00  0.00    -0.021 C 
HETATM    9  C20 UNL     1     -10.044   6.969  14.013  1.00  0.00     0.052 C 
HETATM   10  C22 UNL     1      -7.957   5.469  15.621  1.00  0.00     0.038 C 
HETATM   11  C23 UNL     1      -6.568   5.414  16.267  1.00  0.00     0.042 C 
HETATM   12  C24 UNL     1      -5.513   6.170  15.449  1.00  0.00     0.065 C 
HETATM   13  C25 UNL     1      -5.897   7.666  15.367  1.00  0.00     0.047 C 
ENDROOT
BRANCH   1  14
HETATM   14  C6  UNL     1      -2.250   3.952  12.246  1.00  0.00    -0.050 C 
HETATM   15  C5  UNL     1      -1.114   4.628  12.530  1.00  0.00     0.005 C 
BRANCH  15  16
HETATM   16  C4  UNL     1      -0.938   5.873  13.248  1.00  0.00     0.001 C 
HETATM   17  C3  UNL     1      -1.094   7.074  12.666  1.00  0.00     0.006 C 
BRANCH  17  18
HETATM   18  C2  UNL     1      -0.895   8.382  13.294  1.00  0.00    -0.067 C 
HETATM   19  C1  UNL     1      -1.553   9.436  12.779  1.00  0.00     0.019 C 
BRANCH  18  20
HETATM   20  C26 UNL     1       0.051   8.476  14.484  1.00  0.00     0.041 C 
BRANCH  20  21
HETATM   21  C27 UNL     1      -0.068   9.674  15.450  1.00  0.00     0.032 C 
BRANCH  21  22
HETATM   22  C28 UNL     1      -1.192   9.533  16.445  1.00  0.00    -0.024 C 
HETATM   23  C29 UNL     1      -1.495  10.350  17.472  1.00  0.00    -0.091 C 
HETATM   24  C30 UNL     1      -0.728  11.585  17.857  1.00  0.00     0.042 C 
HETATM   25  C31 UNL     1      -2.683  10.063  18.356  1.00  0.00     0.042 C 
ENDBRANCH  21  22
ENDBRANCH  20  21
ENDBRANCH  18  20
ENDBRANCH  17  18
ENDBRANCH  15  16
BRANCH  14  26
HETATM   26  C7  UNL     1      -2.142   2.547  11.652  1.00  0.00     0.205 C 
BRANCH  26  27
HETATM   27  O1  UNL     1      -0.912   2.286  10.982  1.00  0.00    -0.363 OA
BRANCH  27  28
HETATM   28  C8  UNL     1      -0.703   0.925  10.625  1.00  0.00     0.334 C 
BRANCH  28  29
HETATM   29  O2  UNL     1      -0.624   0.713   9.227  1.00  0.00    -0.377 OA
HETATM   30  H10 UNL     1      -1.511   0.383   8.975  1.00  0.00     0.212 HD
ENDBRANCH  28  29
ENDBRANCH  27  28
ENDBRANCH  26  27
ENDBRANCH  14  26
ENDBRANCH   1  14
BRANCH   5  31
HETATM   31  O3  UNL     1      -3.041   4.695  14.799  1.00  0.00    -0.394 OA
HETATM   32  H17 UNL     1      -2.614   5.508  14.462  1.00  0.00     0.210 HD
ENDBRANCH   5  31
BRANCH   6  33
HETATM   33  C15 UNL     1      -6.894   3.306  13.709  1.00  0.00     0.012 C 
BRANCH  33  34
HETATM   34  C16 UNL     1      -7.377   2.501  12.486  1.00  0.00     0.027 C 
BRANCH  34  35
HETATM   35  C17 UNL     1      -6.315   1.599  11.868  1.00  0.00     0.164 C 
BRANCH  35  36
HETATM   36  O4  UNL     1      -5.762   2.203  10.706  1.00  0.00    -0.401 OA
HETATM   37  H25 UNL     1      -5.215   2.951  11.005  1.00  0.00     0.209 HD
ENDBRANCH  35  36
ENDBRANCH  34  35
ENDBRANCH  33  34
ENDBRANCH   6  33
BRANCH  12  38
HETATM   38  O6  UNL     1      -4.316   6.203  16.234  1.00  0.00    -0.389 OA
HETATM   39  H37 UNL     1      -3.873   5.332  16.165  1.00  0.00     0.210 HD
ENDBRANCH  12  38
BRANCH   8  40
HETATM   40  C21 UNL     1      -8.717   6.580  11.938  1.00  0.00     0.265 C 
HETATM   41  O5  UNL     1      -9.142   5.799  11.096  1.00  0.00    -0.302 OA
ENDBRANCH   8  40
TORSDOF 17
ENDMDL
MODEL 5
REMARK minimizedAffinity -6.55020666
REMARK CNNscore 0.243752912
REMARK CNNaffinity 6.88478994
REMARK  17 active torsions:
REMARK  status: ('A' for Active; 'I' for Inactive)
REMARK    1  A    between atoms: C2_2  and  C3_3 
REMARK    2  A    between atoms: C2_2  and  C26_32 
REMARK    3  A    between atoms: C4_4  and  C5_5 
REMARK    4  A    between atoms: C6_6  and  C7_7 
REMARK    5  A    between atoms: C6_6  and  C9_11 
REMARK    6  A    between atoms: C7_7  and  O1_8 
REMARK    7  A    between atoms: O1_8  and  C8_9 
REMARK    8  A    between atoms: C8_9  and  O2_10 
REMARK    9  A    between atoms: C13_15  and  O3_16 
REMARK   10  A    between atoms: C14_17  and  C15_18 
REMARK   11  A    between atoms: C15_18  and  C16_19 
REMARK   12  A    between atoms: C16_19  and  C17_20 
REMARK   13  A    between atoms: C17_20  and  O4_21 
REMARK   14  A    between atoms: C19_23  and  C21_25 
REMARK   15  A    between atoms: C24_29  and  O6_31 
REMARK   16  A    between atoms: C26_32  and  C27_33 
REMARK   17  A    between atoms: C27_33  and  C28_34 
ROOT
HETATM    1  C9  UNL     1      -4.338   5.954  13.579  1.00  0.00     0.046 C 
HETATM    2  C10 UNL     1      -4.909   7.052  12.670  1.00  0.00     0.013 C 
HETATM    3  C11 UNL     1      -5.931   7.802  13.520  1.00  0.00     0.017 C 
HETATM    4  C12 UNL     1      -6.518   6.759  14.519  1.00  0.00     0.024 C 
HETATM    5  C13 UNL     1      -5.190   6.000  14.885  1.00  0.00     0.138 C 
HETATM    6  C14 UNL     1      -7.545   5.792  13.730  1.00  0.00     0.029 C 
HETATM    7  C18 UNL     1      -8.988   6.282  13.889  1.00  0.00    -0.066 C 
HETATM    8  C19 UNL     1      -9.798   6.724  12.892  1.00  0.00    -0.021 C 
HETATM    9  C20 UNL     1     -11.248   7.113  13.058  1.00  0.00     0.052 C 
HETATM   10  C22 UNL     1      -9.447   6.271  15.346  1.00  0.00     0.038 C 
HETATM   11  C23 UNL     1      -8.318   6.593  16.333  1.00  0.00     0.042 C 
HETATM   12  C24 UNL     1      -7.251   7.509  15.722  1.00  0.00     0.065 C 
HETATM   13  C25 UNL     1      -7.892   8.863  15.336  1.00  0.00     0.047 C 
ENDROOT
BRANCH   1  14
HETATM   14  C6  UNL     1      -2.830   5.877  13.819  1.00  0.00    -0.050 C 
HETATM   15  C5  UNL     1      -1.993   6.803  14.338  1.00  0.00     0.005 C 
BRANCH  15  16
HETATM   16  C4  UNL     1      -2.297   8.076  14.958  1.00  0.00     0.001 C 
HETATM   17  C3  UNL     1      -1.655   8.521  16.051  1.00  0.00     0.006 C 
BRANCH  17  18
HETATM   18  C2  UNL     1      -1.919   9.769  16.773  1.00  0.00    -0.067 C 
HETATM   19  C1  UNL     1      -0.866  10.510  17.158  1.00  0.00     0.019 C 
BRANCH  18  20
HETATM   20  C26 UNL     1      -3.368  10.147  17.053  1.00  0.00     0.041 C 
BRANCH  20  21
HETATM   21  C27 UNL     1      -3.747  11.638  17.180  1.00  0.00     0.032 C 
BRANCH  21  22
HETATM   22  C28 UNL     1      -4.034  12.068  18.596  1.00  0.00    -0.024 C 
HETATM   23  C29 UNL     1      -4.874  13.033  19.013  1.00  0.00    -0.091 C 
HETATM   24  C30 UNL     1      -5.694  13.920  18.118  1.00  0.00     0.042 C 
HETATM   25  C31 UNL     1      -5.056  13.309  20.485  1.00  0.00     0.042 C 
ENDBRANCH  21  22
ENDBRANCH  20  21
ENDBRANCH  18  20
ENDBRANCH  17  18
ENDBRANCH  15  16
BRANCH  14  26
HETATM   26  C7  UNL     1      -2.263   4.516  13.413  1.00  0.00     0.205 C 
BRANCH  26  27
HETATM   27  O1  UNL     1      -2.982   3.871  12.365  1.00  0.00    -0.363 OA
BRANCH  27  28
HETATM   28  C8  UNL     1      -2.287   2.802  11.734  1.00  0.00     0.334 C 
BRANCH  28  29
HETATM   29  O2  UNL     1      -3.133   1.752  11.303  1.00  0.00    -0.377 OA
HETATM   30  H10 UNL     1      -3.051   1.065  11.997  1.00  0.00     0.212 HD
ENDBRANCH  28  29
ENDBRANCH  27  28
ENDBRANCH  26  27
ENDBRANCH  14  26
ENDBRANCH   1  14
BRANCH   5  31
HETATM   31  O3  UNL     1      -4.450   6.608  15.950  1.00  0.00    -0.394 OA
HETATM   32  H17 UNL     1      -4.119   7.470  15.626  1.00  0.00     0.210 HD
ENDBRANCH   5  31
BRANCH   6  33
HETATM   33  C15 UNL     1      -7.465   4.276  14.096  1.00  0.00     0.012 C 
BRANCH  33  34
HETATM   34  C16 UNL     1      -7.822   3.282  12.974  1.00  0.00     0.027 C 
BRANCH  34  35
HETATM   35  C17 UNL     1      -6.618   2.709  12.235  1.00  0.00     0.164 C 
BRANCH  35  36
HETATM   36  O4  UNL     1      -6.860   1.361  11.856  1.00  0.00    -0.401 OA
HETATM   37  H25 UNL     1      -7.522   1.379  11.142  1.00  0.00     0.209 HD
ENDBRANCH  35  36
ENDBRANCH  34  35
ENDBRANCH  33  34
ENDBRANCH   6  33
BRANCH  12  38
HETATM   38  O6  UNL     1      -6.360   7.881  16.779  1.00  0.00    -0.389 OA
HETATM   39  H37 UNL     1      -5.748   7.135  16.949  1.00  0.00     0.210 HD
ENDBRANCH  12  38
BRANCH   8  40
HETATM   40  C21 UNL     1      -9.334   6.887  11.475  1.00  0.00     0.265 C 
HETATM   41  O5  UNL     1      -9.221   5.943  10.702  1.00  0.00    -0.302 OA
ENDBRANCH   8  40
TORSDOF 17
ENDMDL
MODEL 6
REMARK minimizedAffinity -5.73344374
REMARK CNNscore 0.229918733
REMARK CNNaffinity 6.17075205
REMARK  17 active torsions:
REMARK  status: ('A' for Active; 'I' for Inactive)
REMARK    1  A    between atoms: C2_2  and  C3_3 
REMARK    2  A    between atoms: C2_2  and  C26_32 
REMARK    3  A    between atoms: C4_4  and  C5_5 
REMARK    4  A    between atoms: C6_6  and  C7_7 
REMARK    5  A    between atoms: C6_6  and  C9_11 
REMARK    6  A    between atoms: C7_7  and  O1_8 
REMARK    7  A    between atoms: O1_8  and  C8_9 
REMARK    8  A    between atoms: C8_9  and  O2_10 
REMARK    9  A    between atoms: C13_15  and  O3_16 
REMARK   10  A    between atoms: C14_17  and  C15_18 
REMARK   11  A    between atoms: C15_18  and  C16_19 
REMARK   12  A    between atoms: C16_19  and  C17_20 
REMARK   13  A    between atoms: C17_20  and  O4_21 
REMARK   14  A    between atoms: C19_23  and  C21_25 
REMARK   15  A    between atoms: C24_29  and  O6_31 
REMARK   16  A    between atoms: C26_32  and  C27_33 
REMARK   17  A    between atoms: C27_33  and  C28_34 
ROOT
HETATM    1  C9  UNL     1     -12.032   9.585  14.264  1.00  0.00     0.046 C 
HETATM    2  C10 UNL     1     -10.610   9.981  14.691  1.00  0.00     0.013 C 
HETATM    3  C11 UNL     1     -10.636  10.033  16.216  1.00  0.00     0.017 C 
HETATM    4  C12 UNL     1     -12.083  10.456  16.614  1.00  0.00     0.024 C 
HETATM    5  C13 UNL     1     -12.884   9.593  15.570  1.00  0.00     0.138 C 
HETATM    6  C14 UNL     1     -12.268  12.036  16.330  1.00  0.00     0.029 C 
HETATM    7  C18 UNL     1     -12.021  12.852  17.603  1.00  0.00    -0.066 C 
HETATM    8  C19 UNL     1     -11.025  13.757  17.794  1.00  0.00    -0.021 C 
HETATM    9  C20 UNL     1     -10.858  14.619  19.022  1.00  0.00     0.052 C 
HETATM   10  C22 UNL     1     -13.016  12.513  18.712  1.00  0.00     0.038 C 
HETATM   11  C23 UNL     1     -13.440  11.039  18.706  1.00  0.00     0.042 C 
HETATM   12  C24 UNL     1     -12.346  10.118  18.151  1.00  0.00     0.065 C 
HETATM   13  C25 UNL     1     -11.090  10.208  19.050  1.00  0.00     0.047 C 
ENDROOT
BRANCH   1  14
HETATM   14  C6  UNL     1     -12.243   8.350  13.388  1.00  0.00    -0.050 C 
HETATM   15  C5  UNL     1     -11.439   7.279  13.202  1.00  0.00     0.005 C 
BRANCH  15  16
HETATM   16  C4  UNL     1     -10.218   6.913  13.887  1.00  0.00     0.001 C 
HETATM   17  C3  UNL     1      -9.228   6.229  13.289  1.00  0.00     0.006 C 
BRANCH  17  18
HETATM   18  C2  UNL     1      -7.979   5.776  13.908  1.00  0.00    -0.067 C 
HETATM   19  C1  UNL     1      -7.991   5.504  15.225  1.00  0.00     0.019 C 
BRANCH  18  20
HETATM   20  C26 UNL     1      -6.741   5.652  13.030  1.00  0.00     0.041 C 
BRANCH  20  21
HETATM   21  C27 UNL     1      -5.881   4.373  13.115  1.00  0.00     0.032 C 
BRANCH  21  22
HETATM   22  C28 UNL     1      -4.399   4.648  13.163  1.00  0.00    -0.024 C 
HETATM   23  C29 UNL     1      -3.473   4.357  12.230  1.00  0.00    -0.091 C 
HETATM   24  C30 UNL     1      -3.740   3.652  10.929  1.00  0.00     0.042 C 
HETATM   25  C31 UNL     1      -2.028   4.733  12.440  1.00  0.00     0.042 C 
ENDBRANCH  21  22
ENDBRANCH  20  21
ENDBRANCH  18  20
ENDBRANCH  17  18
ENDBRANCH  15  16
BRANCH  14  26
HETATM   26  C7  UNL     1     -13.593   8.391  12.670  1.00  0.00     0.205 C 
BRANCH  26  27
HETATM   27  O1  UNL     1     -14.581   7.530  13.229  1.00  0.00    -0.363 OA
BRANCH  27  28
HETATM   28  C8  UNL     1     -15.516   7.007  12.294  1.00  0.00     0.334 C 
BRANCH  28  29
HETATM   29  O2  UNL     1     -15.758   7.866  11.195  1.00  0.00    -0.377 OA
HETATM   30  H10 UNL     1     -16.602   8.314  11.410  1.00  0.00     0.212 HD
ENDBRANCH  28  29
ENDBRANCH  27  28
ENDBRANCH  26  27
ENDBRANCH  14  26
ENDBRANCH   1  14
BRANCH   5  31
HETATM   31  O3  UNL     1     -13.151   8.256  16.008  1.00  0.00    -0.394 OA
HETATM   32  H17 UNL     1     -12.295   7.785  16.061  1.00  0.00     0.210 HD
ENDBRANCH   5  31
BRANCH   6  33
HETATM   33  C15 UNL     1     -13.632  12.456  15.698  1.00  0.00     0.012 C 
BRANCH  33  34
HETATM   34  C16 UNL     1     -13.713  13.888  15.133  1.00  0.00     0.027 C 
BRANCH  34  35
HETATM   35  C17 UNL     1     -12.959  14.091  13.824  1.00  0.00     0.164 C 
BRANCH  35  36
HETATM   36  O4  UNL     1     -12.083  15.206  13.920  1.00  0.00    -0.401 OA
HETATM   37  H25 UNL     1     -11.355  14.947  14.513  1.00  0.00     0.209 HD
ENDBRANCH  35  36
ENDBRANCH  34  35
ENDBRANCH  33  34
ENDBRANCH   6  33
BRANCH  12  38
HETATM   38  O6  UNL     1     -12.782   8.771  18.365  1.00  0.00    -0.389 OA
HETATM   39  H37 UNL     1     -13.444   8.544  17.680  1.00  0.00     0.210 HD
ENDBRANCH  12  38
BRANCH   8  40
HETATM   40  C21 UNL     1      -9.946  14.008  16.783  1.00  0.00     0.265 C 
HETATM   41  O5  UNL     1     -10.056  14.836  15.887  1.00  0.00    -0.302 OA
ENDBRANCH   8  40
TORSDOF 17
ENDMDL
MODEL 7
REMARK minimizedAffinity -7.90670109
REMARK CNNscore 0.220936462
REMARK CNNaffinity 6.68799782
REMARK  17 active torsions:
REMARK  status: ('A' for Active; 'I' for Inactive)
REMARK    1  A    between atoms: C2_2  and  C3_3 
REMARK    2  A    between atoms: C2_2  and  C26_32 
REMARK    3  A    between atoms: C4_4  and  C5_5 
REMARK    4  A    between atoms: C6_6  and  C7_7 
REMARK    5  A    between atoms: C6_6  and  C9_11 
REMARK    6  A    between atoms: C7_7  and  O1_8 
REMARK    7  A    between atoms: O1_8  and  C8_9 
REMARK    8  A    between atoms: C8_9  and  O2_10 
REMARK    9  A    between atoms: C13_15  and  O3_16 
REMARK   10  A    between atoms: C14_17  and  C15_18 
REMARK   11  A    between atoms: C15_18  and  C16_19 
REMARK   12  A    between atoms: C16_19  and  C17_20 
REMARK   13  A    between atoms: C17_20  and  O4_21 
REMARK   14  A    between atoms: C19_23  and  C21_25 
REMARK   15  A    between atoms: C24_29  and  O6_31 
REMARK   16  A    between atoms: C26_32  and  C27_33 
REMARK   17  A    between atoms: C27_33  and  C28_34 
ROOT
HETATM    1  C9  UNL     1      -3.069   8.950  14.471  1.00  0.00     0.046 C 
HETATM    2  C10 UNL     1      -3.385   8.427  13.062  1.00  0.00     0.013 C 
HETATM    3  C11 UNL     1      -2.550   7.160  12.895  1.00  0.00     0.017 C 
HETATM    4  C12 UNL     1      -1.262   7.370  13.748  1.00  0.00     0.024 C 
HETATM    5  C13 UNL     1      -1.914   8.050  15.007  1.00  0.00     0.138 C 
HETATM    6  C14 UNL     1      -0.278   8.394  12.975  1.00  0.00     0.029 C 
HETATM    7  C18 UNL     1       0.771   7.632  12.159  1.00  0.00    -0.066 C 
HETATM    8  C19 UNL     1       0.901   7.650  10.806  1.00  0.00    -0.021 C 
HETATM    9  C20 UNL     1       2.002   6.967  10.030  1.00  0.00     0.052 C 
HETATM   10  C22 UNL     1       1.677   6.772  13.038  1.00  0.00     0.038 C 
HETATM   11  C23 UNL     1       0.954   6.192  14.259  1.00  0.00     0.042 C 
HETATM   12  C24 UNL     1      -0.542   5.969  14.001  1.00  0.00     0.065 C 
HETATM   13  C25 UNL     1      -0.721   4.941  12.859  1.00  0.00     0.047 C 
ENDROOT
BRANCH   1  14
HETATM   14  C6  UNL     1      -4.205   9.171  15.470  1.00  0.00    -0.050 C 
HETATM   15  C5  UNL     1      -5.409   8.560  15.552  1.00  0.00     0.005 C 
BRANCH  15  16
HETATM   16  C4  UNL     1      -5.916   7.419  14.820  1.00  0.00     0.001 C 
HETATM   17  C3  UNL     1      -7.219   7.091  14.800  1.00  0.00     0.006 C 
BRANCH  17  18
HETATM   18  C2  UNL     1      -7.820   5.936  14.128  1.00  0.00    -0.067 C 
HETATM   19  C1  UNL     1      -8.833   6.161  13.273  1.00  0.00     0.019 C 
BRANCH  18  20
HETATM   20  C26 UNL     1      -7.271   4.551  14.443  1.00  0.00     0.041 C 
BRANCH  20  21
HETATM   21  C27 UNL     1      -7.076   3.537  13.295  1.00  0.00     0.032 C 
BRANCH  21  22
HETATM   22  C28 UNL     1      -5.849   3.804  12.460  1.00  0.00    -0.024 C 
HETATM   23  C29 UNL     1      -5.252   2.978  11.579  1.00  0.00    -0.091 C 
HETATM   24  C30 UNL     1      -5.691   1.574  11.269  1.00  0.00     0.042 C 
HETATM   25  C31 UNL     1      -4.037   3.428  10.808  1.00  0.00     0.042 C 
ENDBRANCH  21  22
ENDBRANCH  20  21
ENDBRANCH  18  20
ENDBRANCH  17  18
ENDBRANCH  15  16
BRANCH  14  26
HETATM   26  C7  UNL     1      -3.844  10.231  16.510  1.00  0.00     0.205 C 
BRANCH  26  27
HETATM   27  O1  UNL     1      -3.086   9.738  17.611  1.00  0.00    -0.363 OA
BRANCH  27  28
HETATM   28  C8  UNL     1      -2.716  10.722  18.570  1.00  0.00     0.334 C 
BRANCH  28  29
HETATM   29  O2  UNL     1      -1.360  10.641  18.970  1.00  0.00    -0.377 OA
HETATM   30  H10 UNL     1      -1.382  10.171  19.829  1.00  0.00     0.212 HD
ENDBRANCH  28  29
ENDBRANCH  27  28
ENDBRANCH  26  27
ENDBRANCH  14  26
ENDBRANCH   1  14
BRANCH   5  31
HETATM   31  O3  UNL     1      -2.408   7.119  15.977  1.00  0.00    -0.394 OA
HETATM   32  H17 UNL     1      -3.164   6.646  15.575  1.00  0.00     0.210 HD
ENDBRANCH   5  31
BRANCH   6  33
HETATM   33  C15 UNL     1       0.430   9.459  13.870  1.00  0.00     0.012 C 
BRANCH  33  34
HETATM   34  C16 UNL     1       0.553   9.120  15.369  1.00  0.00     0.027 C 
BRANCH  34  35
HETATM   35  C17 UNL     1       0.764  10.329  16.272  1.00  0.00     0.164 C 
BRANCH  35  36
HETATM   36  O4  UNL     1       1.155   9.917  17.575  1.00  0.00    -0.401 OA
HETATM   37  H25 UNL     1       2.064   9.577  17.507  1.00  0.00     0.209 HD
ENDBRANCH  35  36
ENDBRANCH  34  35
ENDBRANCH  33  34
ENDBRANCH   6  33
BRANCH  12  38
HETATM   38  O6  UNL     1      -1.063   5.265  15.133  1.00  0.00    -0.389 OA
HETATM   39  H37 UNL     1      -1.195   5.903  15.865  1.00  0.00     0.210 HD
ENDBRANCH  12  38
BRANCH   8  40
HETATM   40  C21 UNL     1      -0.060   8.365   9.903  1.00  0.00     0.265 C 
HETATM   41  O5  UNL     1       0.291   8.923   8.871  1.00  0.00    -0.302 OA
ENDBRANCH   8  40
TORSDOF 17
ENDMDL
MODEL 8
REMARK minimizedAffinity -5.94904804
REMARK CNNscore 0.220024109
REMARK CNNaffinity 5.39221048
REMARK  17 active torsions:
REMARK  status: ('A' for Active; 'I' for Inactive)
REMARK    1  A    between atoms: C2_2  and  C3_3 
REMARK    2  A    between atoms: C2_2  and  C26_32 
REMARK    3  A    between atoms: C4_4  and  C5_5 
REMARK    4  A    between atoms: C6_6  and  C7_7 
REMARK    5  A    between atoms: C6_6  and  C9_11 
REMARK    6  A    between atoms: C7_7  and  O1_8 
REMARK    7  A    between atoms: O1_8  and  C8_9 
REMARK    8  A    between atoms: C8_9  and  O2_10 
REMARK    9  A    between atoms: C13_15  and  O3_16 
REMARK   10  A    between atoms: C14_17  and  C15_18 
REMARK   11  A    between atoms: C15_18  and  C16_19 
REMARK   12  A    between atoms: C16_19  and  C17_20 
REMARK   13  A    between atoms: C17_20  and  O4_21 
REMARK   14  A    between atoms: C19_23  and  C21_25 
REMARK   15  A    between atoms: C24_29  and  O6_31 
REMARK   16  A    between atoms: C26_32  and  C27_33 
REMARK   17  A    between atoms: C27_33  and  C28_34 
ROOT
HETATM    1  C9  UNL     1     -14.451  -4.257  14.092  1.00  0.00     0.046 C 
HETATM    2  C10 UNL     1     -15.864  -4.646  13.632  1.00  0.00     0.013 C 
HETATM    3  C11 UNL     1     -16.370  -3.465  12.808  1.00  0.00     0.017 C 
HETATM    4  C12 UNL     1     -15.700  -2.193  13.412  1.00  0.00     0.024 C 
HETATM    5  C13 UNL     1     -14.258  -2.772  13.657  1.00  0.00     0.138 C 
HETATM    6  C14 UNL     1     -16.427  -1.824  14.807  1.00  0.00     0.029 C 
HETATM    7  C18 UNL     1     -17.511  -0.762  14.595  1.00  0.00    -0.066 C 
HETATM    8  C19 UNL     1     -18.844  -0.928  14.797  1.00  0.00    -0.021 C 
HETATM    9  C20 UNL     1     -19.884   0.160  14.672  1.00  0.00     0.052 C 
HETATM   10  C22 UNL     1     -16.940   0.552  14.066  1.00  0.00     0.038 C 
HETATM   11  C23 UNL     1     -15.740   0.353  13.133  1.00  0.00     0.042 C 
HETATM   12  C24 UNL     1     -15.802  -0.981  12.378  1.00  0.00     0.065 C 
HETATM   13  C25 UNL     1     -17.062  -1.009  11.481  1.00  0.00     0.047 C 
ENDROOT
BRANCH   1  14
HETATM   14  C6  UNL     1     -13.268  -5.165  13.756  1.00  0.00    -0.050 C 
HETATM   15  C5  UNL     1     -13.082  -5.978  12.692  1.00  0.00     0.005 C 
BRANCH  15  16
HETATM   16  C4  UNL     1     -13.873  -6.114  11.487  1.00  0.00     0.001 C 
HETATM   17  C3  UNL     1     -13.964  -5.140  10.566  1.00  0.00     0.006 C 
BRANCH  17  18
HETATM   18  C2  UNL     1     -14.769  -5.165   9.342  1.00  0.00    -0.067 C 
HETATM   19  C1  UNL     1     -15.850  -5.965   9.315  1.00  0.00     0.019 C 
BRANCH  18  20
HETATM   20  C26 UNL     1     -14.331  -4.297   8.170  1.00  0.00     0.041 C 
BRANCH  20  21
HETATM   21  C27 UNL     1     -14.514  -4.823   6.731  1.00  0.00     0.032 C 
BRANCH  21  22
HETATM   22  C28 UNL     1     -13.323  -5.591   6.216  1.00  0.00    -0.024 C 
HETATM   23  C29 UNL     1     -13.122  -6.922   6.243  1.00  0.00    -0.091 C 
HETATM   24  C30 UNL     1     -14.063  -7.932   6.840  1.00  0.00     0.042 C 
HETATM   25  C31 UNL     1     -11.871  -7.522   5.653  1.00  0.00     0.042 C 
ENDBRANCH  21  22
ENDBRANCH  20  21
ENDBRANCH  18  20
ENDBRANCH  17  18
ENDBRANCH  15  16
BRANCH  14  26
HETATM   26  C7  UNL     1     -12.164  -5.067  14.810  1.00  0.00     0.205 C 
BRANCH  26  27
HETATM   27  O1  UNL     1     -11.870  -6.297  15.467  1.00  0.00    -0.363 OA
BRANCH  27  28
HETATM   28  C8  UNL     1     -12.992  -6.940  16.060  1.00  0.00     0.334 C 
BRANCH  28  29
HETATM   29  O2  UNL     1     -13.507  -6.256  17.187  1.00  0.00    -0.377 OA
HETATM   30  H10 UNL     1     -13.139  -6.735  17.958  1.00  0.00     0.212 HD
ENDBRANCH  28  29
ENDBRANCH  27  28
ENDBRANCH  26  27
ENDBRANCH  14  26
ENDBRANCH   1  14
BRANCH   5  31
HETATM   31  O3  UNL     1     -13.398  -2.688  12.515  1.00  0.00    -0.394 OA
HETATM   32  H17 UNL     1     -13.755  -3.289  11.831  1.00  0.00     0.210 HD
ENDBRANCH   5  31
BRANCH   6  33
HETATM   33  C15 UNL     1     -15.481  -1.378  15.967  1.00  0.00     0.012 C 
BRANCH  33  34
HETATM   34  C16 UNL     1     -16.149  -1.110  17.329  1.00  0.00     0.027 C 
BRANCH  34  35
HETATM   35  C17 UNL     1     -16.743  -2.347  17.993  1.00  0.00     0.164 C 
BRANCH  35  36
HETATM   36  O4  UNL     1     -16.258  -2.483  19.322  1.00  0.00    -0.401 OA
HETATM   37  H25 UNL     1     -16.669  -1.776  19.850  1.00  0.00     0.209 HD
ENDBRANCH  35  36
ENDBRANCH  34  35
ENDBRANCH  33  34
ENDBRANCH   6  33
BRANCH  12  38
HETATM   38  O6  UNL     1     -14.741  -0.970  11.417  1.00  0.00    -0.389 OA
HETATM   39  H37 UNL     1     -13.899  -1.169  11.878  1.00  0.00     0.210 HD
ENDBRANCH  12  38
BRANCH   8  40
HETATM   40  C21 UNL     1     -19.455  -2.246  15.174  1.00  0.00     0.265 C 
HETATM   41  O5  UNL     1     -20.305  -2.802  14.489  1.00  0.00    -0.302 OA
ENDBRANCH   8  40
TORSDOF 17
ENDMDL
MODEL 9
REMARK minimizedAffinity -7.3542366
REMARK CNNscore 0.216672435
REMARK CNNaffinity 5.71222687
REMARK  17 active torsions:
REMARK  status: ('A' for Active; 'I' for Inactive)
REMARK    1  A    between atoms: C2_2  and  C3_3 
REMARK    2  A    between atoms: C2_2  and  C26_32 
REMARK    3  A    between atoms: C4_4  and  C5_5 
REMARK    4  A    between atoms: C6_6  and  C7_7 
REMARK    5  A    between atoms: C6_6  and  C9_11 
REMARK    6  A    between atoms: C7_7  and  O1_8 
REMARK    7  A    between atoms: O1_8  and  C8_9 
REMARK    8  A    between atoms: C8_9  and  O2_10 
REMARK    9  A    between atoms: C13_15  and  O3_16 
REMARK   10  A    between atoms: C14_17  and  C15_18 
REMARK   11  A    between atoms: C15_18  and  C16_19 
REMARK   12  A    between atoms: C16_19  and  C17_20 
REMARK   13  A    between atoms: C17_20  and  O4_21 
REMARK   14  A    between atoms: C19_23  and  C21_25 
REMARK   15  A    between atoms: C24_29  and  O6_31 
REMARK   16  A    between atoms: C26_32  and  C27_33 
REMARK   17  A    between atoms: C27_33  and  C28_34 
ROOT
HETATM    1  C9  UNL     1      -1.320  10.076  16.321  1.00  0.00     0.046 C 
HETATM    2  C10 UNL     1      -1.869  10.436  14.932  1.00  0.00     0.013 C 
HETATM    3  C11 UNL     1      -2.532   9.165  14.408  1.00  0.00     0.017 C 
HETATM    4  C12 UNL     1      -1.738   7.973  15.023  1.00  0.00     0.024 C 
HETATM    5  C13 UNL     1      -1.536   8.539  16.477  1.00  0.00     0.138 C 
HETATM    6  C14 UNL     1      -0.325   7.826  14.252  1.00  0.00     0.029 C 
HETATM    7  C18 UNL     1      -0.417   6.776  13.139  1.00  0.00    -0.066 C 
HETATM    8  C19 UNL     1      -0.277   7.007  11.807  1.00  0.00    -0.021 C 
HETATM    9  C20 UNL     1      -0.276   5.942  10.736  1.00  0.00     0.052 C 
HETATM   10  C22 UNL     1      -0.739   5.384  13.680  1.00  0.00     0.038 C 
HETATM   11  C23 UNL     1      -1.658   5.415  14.908  1.00  0.00     0.042 C 
HETATM   12  C24 UNL     1      -2.594   6.630  14.907  1.00  0.00     0.065 C 
HETATM   13  C25 UNL     1      -3.520   6.568  13.670  1.00  0.00     0.047 C 
ENDROOT
BRANCH   1  14
HETATM   14  C6  UNL     1      -1.747  10.894  17.540  1.00  0.00    -0.050 C 
HETATM   15  C5  UNL     1      -1.048  11.205  18.655  1.00  0.00     0.005 C 
BRANCH  15  16
HETATM   16  C4  UNL     1       0.351  10.988  18.957  1.00  0.00     0.001 C 
HETATM   17  C3  UNL     1       0.797  10.763  20.205  1.00  0.00     0.006 C 
BRANCH  17  18
HETATM   18  C2  UNL     1       2.191  10.576  20.615  1.00  0.00    -0.067 C 
HETATM   19  C1  UNL     1       3.145  11.217  19.916  1.00  0.00     0.019 C 
BRANCH  18  20
HETATM   20  C26 UNL     1       2.480   9.661  21.797  1.00  0.00     0.041 C 
BRANCH  20  21
HETATM   21  C27 UNL     1       3.000  10.272  23.115  1.00  0.00     0.032 C 
BRANCH  21  22
HETATM   22  C28 UNL     1       4.470  10.607  23.084  1.00  0.00    -0.024 C 
HETATM   23  C29 UNL     1       5.039  11.824  23.007  1.00  0.00    -0.091 C 
HETATM   24  C30 UNL     1       4.297  13.127  22.903  1.00  0.00     0.042 C 
HETATM   25  C31 UNL     1       6.540  11.971  23.013  1.00  0.00     0.042 C 
ENDBRANCH  21  22
ENDBRANCH  20  21
ENDBRANCH  18  20
ENDBRANCH  17  18
ENDBRANCH  15  16
BRANCH  14  26
HETATM   26  C7  UNL     1      -3.173  11.424  17.392  1.00  0.00     0.205 C 
BRANCH  26  27
HETATM   27  O1  UNL     1      -3.254  12.757  16.896  1.00  0.00    -0.363 OA
BRANCH  27  28
HETATM   28  C8  UNL     1      -4.256  13.562  17.506  1.00  0.00     0.334 C 
BRANCH  28  29
HETATM   29  O2  UNL     1      -5.442  13.668  16.740  1.00  0.00    -0.377 OA
HETATM   30  H10 UNL     1      -5.371  14.536  16.291  1.00  0.00     0.212 HD
ENDBRANCH  28  29
ENDBRANCH  27  28
ENDBRANCH  26  27
ENDBRANCH  14  26
ENDBRANCH   1  14
BRANCH   5  31
HETATM   31  O3  UNL     1      -2.630   8.270  17.360  1.00  0.00    -0.394 OA
HETATM   32  H17 UNL     1      -3.402   8.778  17.039  1.00  0.00     0.210 HD
ENDBRANCH   5  31
BRANCH   6  33
HETATM   33  C15 UNL     1       0.911   7.521  15.155  1.00  0.00     0.012 C 
BRANCH  33  34
HETATM   34  C16 UNL     1       2.285   7.518  14.456  1.00  0.00     0.027 C 
BRANCH  34  35
HETATM   35  C17 UNL     1       3.469   7.720  15.394  1.00  0.00     0.164 C 
BRANCH  35  36
HETATM   36  O4  UNL     1       3.837   6.491  16.006  1.00  0.00    -0.401 OA
HETATM   37  H25 UNL     1       4.242   5.938  15.315  1.00  0.00     0.209 HD
ENDBRANCH  35  36
ENDBRANCH  34  35
ENDBRANCH  33  34
ENDBRANCH   6  33
BRANCH  12  38
HETATM   38  O6  UNL     1      -3.514   6.454  15.989  1.00  0.00    -0.389 OA
HETATM   39  H37 UNL     1      -3.062   6.692  16.825  1.00  0.00     0.210 HD
ENDBRANCH  12  38
BRANCH   8  40
HETATM   40  C21 UNL     1      -0.106   8.381  11.231  1.00  0.00     0.265 C 
HETATM   41  O5  UNL     1       0.981   8.822  10.879  1.00  0.00    -0.302 OA
ENDBRANCH   8  40
TORSDOF 17
ENDMDL
