MODEL 1
REMARK minimizedAffinity -7.20223236
REMARK CNNscore 0.792023182
REMARK CNNaffinity 7.10606337
REMARK  6 active torsions:
REMARK  status: ('A' for Active; 'I' for Inactive)
REMARK    1  A    between atoms: C2_2  and  C30_31 
REMARK    2  A    between atoms: C3_3  and  C4_4 
REMARK    3  A    between atoms: C4_4  and  C5_5 
REMARK    4  A    between atoms: C5_5  and  C6_6 
REMARK    5  A    between atoms: C6_6  and  C8_8 
REMARK    6  A    between atoms: C30_31  and  O2_32 
ROOT
HETATM    1  C8  UNL     1       3.971  55.142  -8.613  1.00  0.00    -0.002 C 
HETATM    2  C9  UNL     1       4.168  56.126  -9.814  1.00  0.00     0.006 C 
HETATM    3  C10 UNL     1       2.926  56.018 -10.718  1.00  0.00     0.011 C 
HETATM    4  C11 UNL     1       2.431  54.595 -10.454  1.00  0.00    -0.032 C 
HETATM    5  C12 UNL     1       3.422  53.639 -11.217  1.00  0.00     0.016 C 
HETATM    6  C13 UNL     1       1.028  54.209 -10.991  1.00  0.00     0.004 C 
HETATM    7  C14 UNL     1      -0.182  55.165 -10.705  1.00  0.00     0.007 C 
HETATM    8  C15 UNL     1      -1.463  54.465 -10.142  1.00  0.00     0.007 C 
HETATM    9  C16 UNL     1      -1.805  53.213 -10.961  1.00  0.00     0.010 C 
HETATM   10  C17 UNL     1      -2.923  52.228 -10.615  1.00  0.00     0.018 C 
HETATM   11  C18 UNL     1      -4.286  52.931 -10.584  1.00  0.00     0.023 C 
HETATM   12  C19 UNL     1      -2.686  51.527  -9.274  1.00  0.00     0.023 C 
HETATM   13  C20 UNL     1      -2.938  51.180 -11.763  1.00  0.00     0.135 C 
HETATM   14  O1  UNL     1      -3.584  50.133 -11.661  1.00  0.00    -0.297 OA
HETATM   15  C21 UNL     1      -2.221  51.515 -13.091  1.00  0.00     0.080 C 
HETATM   16  C22 UNL     1      -0.839  52.203 -12.939  1.00  0.00     0.018 C 
HETATM   17  C23 UNL     1      -0.595  52.445 -11.458  1.00  0.00    -0.026 A 
HETATM   18  C24 UNL     1       0.474  51.470 -11.080  1.00  0.00     0.021 A 
HETATM   19  C25 UNL     1       0.642  52.821 -10.503  1.00  0.00    -0.027 A 
HETATM   20  C26 UNL     1       0.836  52.618  -8.980  1.00  0.00     0.011 C 
HETATM   21  C27 UNL     1       2.233  53.058  -8.478  1.00  0.00     0.011 C 
HETATM   22  C28 UNL     1       2.552  54.507  -8.888  1.00  0.00    -0.032 C 
HETATM   23  C29 UNL     1       1.585  55.421  -8.069  1.00  0.00     0.016 C 
ENDROOT
BRANCH   1  24
HETATM   24  C6  UNL     1       5.150  54.172  -8.297  1.00  0.00    -0.014 C 
HETATM   25  C7  UNL     1       6.269  54.272  -9.349  1.00  0.00     0.010 C 
BRANCH  24  26
HETATM   26  C5  UNL     1       5.756  54.490  -6.899  1.00  0.00     0.008 C 
BRANCH  26  27
HETATM   27  C4  UNL     1       6.489  55.836  -6.811  1.00  0.00     0.028 C 
BRANCH  27  28
HETATM   28  C3  UNL     1       7.866  55.754  -6.216  1.00  0.00    -0.022 C 
HETATM   29  C2  UNL     1       8.370  56.505  -5.215  1.00  0.00    -0.064 C 
HETATM   30  C1  UNL     1       7.633  57.628  -4.534  1.00  0.00     0.045 C 
BRANCH  29  31
HETATM   31  C30 UNL     1       9.774  56.282  -4.713  1.00  0.00     0.197 C 
BRANCH  31  32
HETATM   32  O2  UNL     1      10.651  56.146  -5.821  1.00  0.00    -0.397 OA
HETATM   33  H48 UNL     1      10.455  56.887  -6.420  1.00  0.00     0.209 HD
ENDBRANCH  31  32
ENDBRANCH  29  31
ENDBRANCH  27  28
ENDBRANCH  26  27
ENDBRANCH  24  26
ENDBRANCH   1  24
TORSDOF 6
ENDMDL
MODEL 2
REMARK minimizedAffinity -8.37960815
REMARK CNNscore 0.540739417
REMARK CNNaffinity 7.04965734
REMARK  6 active torsions:
REMARK  status: ('A' for Active; 'I' for Inactive)
REMARK    1  A    between atoms: C2_2  and  C30_31 
REMARK    2  A    between atoms: C3_3  and  C4_4 
REMARK    3  A    between atoms: C4_4  and  C5_5 
REMARK    4  A    between atoms: C5_5  and  C6_6 
REMARK    5  A    between atoms: C6_6  and  C8_8 
REMARK    6  A    between atoms: C30_31  and  O2_32 
ROOT
HETATM    1  C8  UNL     1      -5.299  47.795 -21.088  1.00  0.00    -0.002 C 
HETATM    2  C9  UNL     1      -4.432  46.545 -21.455  1.00  0.00     0.006 C 
HETATM    3  C10 UNL     1      -2.952  46.929 -21.263  1.00  0.00     0.011 C 
HETATM    4  C11 UNL     1      -2.957  48.442 -21.484  1.00  0.00    -0.032 C 
HETATM    5  C12 UNL     1      -3.109  48.657 -23.036  1.00  0.00     0.016 C 
HETATM    6  C13 UNL     1      -1.676  49.230 -21.105  1.00  0.00     0.004 C 
HETATM    7  C14 UNL     1      -1.023  48.984 -19.701  1.00  0.00     0.007 C 
HETATM    8  C15 UNL     1      -0.680  50.279 -18.891  1.00  0.00     0.007 C 
HETATM    9  C16 UNL     1       0.049  51.299 -19.777  1.00  0.00     0.010 C 
HETATM   10  C17 UNL     1       0.425  52.715 -19.340  1.00  0.00     0.018 C 
HETATM   11  C18 UNL     1       1.348  52.687 -18.116  1.00  0.00     0.023 C 
HETATM   12  C19 UNL     1      -0.805  53.573 -19.026  1.00  0.00     0.023 C 
HETATM   13  C20 UNL     1       1.209  53.334 -20.532  1.00  0.00     0.135 C 
HETATM   14  O1  UNL     1       1.457  54.543 -20.571  1.00  0.00    -0.297 OA
HETATM   15  C21 UNL     1       1.778  52.396 -21.621  1.00  0.00     0.080 C 
HETATM   16  C22 UNL     1       0.829  51.256 -22.070  1.00  0.00     0.018 C 
HETATM   17  C23 UNL     1      -0.428  51.326 -21.217  1.00  0.00    -0.026 A 
HETATM   18  C24 UNL     1      -1.493  51.820 -22.142  1.00  0.00     0.021 A 
HETATM   19  C25 UNL     1      -1.919  50.725 -21.244  1.00  0.00    -0.027 A 
HETATM   20  C26 UNL     1      -3.214  51.216 -20.550  1.00  0.00     0.011 C 
HETATM   21  C27 UNL     1      -4.460  50.373 -20.920  1.00  0.00     0.011 C 
HETATM   22  C28 UNL     1      -4.228  48.874 -20.663  1.00  0.00    -0.032 C 
HETATM   23  C29 UNL     1      -4.139  48.700 -19.112  1.00  0.00     0.016 C 
ENDROOT
BRANCH   1  24
HETATM   24  C6  UNL     1      -6.389  48.223 -22.118  1.00  0.00    -0.014 C 
HETATM   25  C7  UNL     1      -6.315  49.726 -22.436  1.00  0.00     0.010 C 
BRANCH  24  26
HETATM   26  C5  UNL     1      -6.225  47.427 -23.445  1.00  0.00     0.008 C 
BRANCH  26  27
HETATM   27  C4  UNL     1      -6.466  48.250 -24.719  1.00  0.00     0.028 C 
BRANCH  27  28
HETATM   28  C3  UNL     1      -5.257  48.401 -25.598  1.00  0.00    -0.022 C 
HETATM   29  C2  UNL     1      -5.173  48.153 -26.921  1.00  0.00    -0.064 C 
HETATM   30  C1  UNL     1      -6.299  47.614 -27.764  1.00  0.00     0.045 C 
BRANCH  29  31
HETATM   31  C30 UNL     1      -3.884  48.377 -27.669  1.00  0.00     0.197 C 
BRANCH  31  32
HETATM   32  O2  UNL     1      -4.062  49.428 -28.606  1.00  0.00    -0.397 OA
HETATM   33  H48 UNL     1      -4.482  50.160 -28.122  1.00  0.00     0.209 HD
ENDBRANCH  31  32
ENDBRANCH  29  31
ENDBRANCH  27  28
ENDBRANCH  26  27
ENDBRANCH  24  26
ENDBRANCH   1  24
TORSDOF 6
ENDMDL
MODEL 3
REMARK minimizedAffinity -7.10620356
REMARK CNNscore 0.459648937
REMARK CNNaffinity 6.20639944
REMARK  6 active torsions:
REMARK  status: ('A' for Active; 'I' for Inactive)
REMARK    1  A    between atoms: C2_2  and  C30_31 
REMARK    2  A    between atoms: C3_3  and  C4_4 
REMARK    3  A    between atoms: C4_4  and  C5_5 
REMARK    4  A    between atoms: C5_5  and  C6_6 
REMARK    5  A    between atoms: C6_6  and  C8_8 
REMARK    6  A    between atoms: C30_31  and  O2_32 
ROOT
HETATM    1  C8  UNL     1       1.956  54.405  -9.398  1.00  0.00    -0.002 C 
HETATM    2  C9  UNL     1       2.243  55.508 -10.470  1.00  0.00     0.006 C 
HETATM    3  C10 UNL     1       3.547  56.224 -10.070  1.00  0.00     0.011 C 
HETATM    4  C11 UNL     1       3.586  56.045  -8.551  1.00  0.00    -0.032 C 
HETATM    5  C12 UNL     1       2.520  57.045  -7.965  1.00  0.00     0.016 C 
HETATM    6  C13 UNL     1       4.903  56.406  -7.816  1.00  0.00     0.004 C 
HETATM    7  C14 UNL     1       6.258  55.842  -8.369  1.00  0.00     0.007 C 
HETATM    8  C15 UNL     1       7.185  55.174  -7.300  1.00  0.00     0.007 C 
HETATM    9  C16 UNL     1       7.311  56.064  -6.055  1.00  0.00     0.010 C 
HETATM   10  C17 UNL     1       8.044  55.664  -4.774  1.00  0.00     0.018 C 
HETATM   11  C18 UNL     1       9.520  55.356  -5.057  1.00  0.00     0.023 C 
HETATM   12  C19 UNL     1       7.399  54.457  -4.087  1.00  0.00     0.023 C 
HETATM   13  C20 UNL     1       7.973  56.904  -3.838  1.00  0.00     0.135 C 
HETATM   14  O1  UNL     1       8.284  56.821  -2.647  1.00  0.00    -0.297 OA
HETATM   15  C21 UNL     1       7.614  58.279  -4.445  1.00  0.00     0.080 C 
HETATM   16  C22 UNL     1       6.465  58.261  -5.487  1.00  0.00     0.018 C 
HETATM   17  C23 UNL     1       6.044  56.815  -5.696  1.00  0.00    -0.026 A 
HETATM   18  C24 UNL     1       4.703  56.707  -5.044  1.00  0.00     0.021 A 
HETATM   19  C25 UNL     1       4.808  56.020  -6.348  1.00  0.00    -0.027 A 
HETATM   20  C26 UNL     1       4.307  54.572  -6.114  1.00  0.00     0.011 C 
HETATM   21  C27 UNL     1       3.016  54.239  -6.902  1.00  0.00     0.011 C 
HETATM   22  C28 UNL     1       3.177  54.533  -8.404  1.00  0.00    -0.032 C 
HETATM   23  C29 UNL     1       4.198  53.485  -8.953  1.00  0.00     0.016 C 
ENDROOT
BRANCH   1  24
HETATM   24  C6  UNL     1       0.523  54.374  -8.785  1.00  0.00    -0.014 C 
HETATM   25  C7  UNL     1      -0.228  55.696  -9.023  1.00  0.00     0.010 C 
BRANCH  24  26
HETATM   26  C5  UNL     1      -0.308  53.214  -9.407  1.00  0.00     0.008 C 
BRANCH  26  27
HETATM   27  C4  UNL     1      -1.810  53.506  -9.544  1.00  0.00     0.028 C 
BRANCH  27  28
HETATM   28  C3  UNL     1      -2.340  53.386 -10.944  1.00  0.00    -0.022 C 
HETATM   29  C2  UNL     1      -3.348  52.597 -11.372  1.00  0.00    -0.064 C 
HETATM   30  C1  UNL     1      -4.105  51.629 -10.502  1.00  0.00     0.045 C 
BRANCH  29  31
HETATM   31  C30 UNL     1      -3.778  52.609 -12.817  1.00  0.00     0.197 C 
BRANCH  31  32
HETATM   32  O2  UNL     1      -4.214  53.914 -13.166  1.00  0.00    -0.397 OA
HETATM   33  H48 UNL     1      -3.526  54.527 -12.853  1.00  0.00     0.209 HD
ENDBRANCH  31  32
ENDBRANCH  29  31
ENDBRANCH  27  28
ENDBRANCH  26  27
ENDBRANCH  24  26
ENDBRANCH   1  24
TORSDOF 6
ENDMDL
MODEL 4
REMARK minimizedAffinity -7.88789558
REMARK CNNscore 0.450124562
REMARK CNNaffinity 5.73455429
REMARK  6 active torsions:
REMARK  status: ('A' for Active; 'I' for Inactive)
REMARK    1  A    between atoms: C2_2  and  C30_31 
REMARK    2  A    between atoms: C3_3  and  C4_4 
REMARK    3  A    between atoms: C4_4  and  C5_5 
REMARK    4  A    between atoms: C5_5  and  C6_6 
REMARK    5  A    between atoms: C6_6  and  C8_8 
REMARK    6  A    between atoms: C30_31  and  O2_32 
ROOT
HETATM    1  C8  UNL     1       7.262  67.568 -36.395  1.00  0.00    -0.002 C 
HETATM    2  C9  UNL     1       7.891  66.748 -37.571  1.00  0.00     0.006 C 
HETATM    3  C10 UNL     1       6.910  66.804 -38.758  1.00  0.00     0.011 C 
HETATM    4  C11 UNL     1       5.555  67.003 -38.077  1.00  0.00    -0.032 C 
HETATM    5  C12 UNL     1       5.170  65.609 -37.455  1.00  0.00     0.016 C 
HETATM    6  C13 UNL     1       4.346  67.377 -38.974  1.00  0.00     0.004 C 
HETATM    7  C14 UNL     1       4.503  68.544 -40.009  1.00  0.00     0.007 C 
HETATM    8  C15 UNL     1       3.357  69.609 -39.988  1.00  0.00     0.007 C 
HETATM    9  C16 UNL     1       1.980  68.929 -39.980  1.00  0.00     0.010 C 
HETATM   10  C17 UNL     1       0.649  69.667 -39.842  1.00  0.00     0.018 C 
HETATM   11  C18 UNL     1       0.461  70.681 -40.978  1.00  0.00     0.023 C 
HETATM   12  C19 UNL     1       0.519  70.387 -38.496  1.00  0.00     0.023 C 
HETATM   13  C20 UNL     1      -0.456  68.580 -39.967  1.00  0.00     0.135 C 
HETATM   14  O1  UNL     1      -1.630  68.830 -39.679  1.00  0.00    -0.297 OA
HETATM   15  C21 UNL     1      -0.087  67.205 -40.567  1.00  0.00     0.080 C 
HETATM   16  C22 UNL     1       1.265  66.617 -40.087  1.00  0.00     0.018 C 
HETATM   17  C23 UNL     1       1.927  67.642 -39.179  1.00  0.00    -0.026 A 
HETATM   18  C24 UNL     1       1.826  67.061 -37.805  1.00  0.00     0.021 A 
HETATM   19  C25 UNL     1       3.130  67.685 -38.113  1.00  0.00    -0.027 A 
HETATM   20  C26 UNL     1       3.416  68.677 -36.959  1.00  0.00     0.011 C 
HETATM   21  C27 UNL     1       4.658  68.292 -36.117  1.00  0.00     0.011 C 
HETATM   22  C28 UNL     1       5.904  68.096 -37.001  1.00  0.00    -0.032 C 
HETATM   23  C29 UNL     1       6.281  69.510 -37.551  1.00  0.00     0.016 C 
ENDROOT
BRANCH   1  24
HETATM   24  C6  UNL     1       7.212  66.873 -35.000  1.00  0.00    -0.014 C 
HETATM   25  C7  UNL     1       6.607  67.794 -33.925  1.00  0.00     0.010 C 
BRANCH  24  26
HETATM   26  C5  UNL     1       6.362  65.572 -35.071  1.00  0.00     0.008 C 
BRANCH  26  27
HETATM   27  C4  UNL     1       6.780  64.478 -34.077  1.00  0.00     0.028 C 
BRANCH  27  28
HETATM   28  C3  UNL     1       5.775  63.374 -33.911  1.00  0.00    -0.022 C 
HETATM   29  C2  UNL     1       4.684  63.376 -33.118  1.00  0.00    -0.064 C 
HETATM   30  C1  UNL     1       4.301  64.499 -32.191  1.00  0.00     0.045 C 
BRANCH  29  31
HETATM   31  C30 UNL     1       3.755  62.189 -33.080  1.00  0.00     0.197 C 
BRANCH  31  32
HETATM   32  O2  UNL     1       2.849  62.337 -31.997  1.00  0.00    -0.397 OA
HETATM   33  H48 UNL     1       2.492  63.240 -32.059  1.00  0.00     0.209 HD
ENDBRANCH  31  32
ENDBRANCH  29  31
ENDBRANCH  27  28
ENDBRANCH  26  27
ENDBRANCH  24  26
ENDBRANCH   1  24
TORSDOF 6
ENDMDL
MODEL 5
REMARK minimizedAffinity -7.40028858
REMARK CNNscore 0.417863607
REMARK CNNaffinity 6.75464058
REMARK  6 active torsions:
REMARK  status: ('A' for Active; 'I' for Inactive)
REMARK    1  A    between atoms: C2_2  and  C30_31 
REMARK    2  A    between atoms: C3_3  and  C4_4 
REMARK    3  A    between atoms: C4_4  and  C5_5 
REMARK    4  A    between atoms: C5_5  and  C6_6 
REMARK    5  A    between atoms: C6_6  and  C8_8 
REMARK    6  A    between atoms: C30_31  and  O2_32 
ROOT
HETATM    1  C8  UNL     1      -2.823  52.162 -10.976  1.00  0.00    -0.002 C 
HETATM    2  C9  UNL     1      -3.071  51.437  -9.611  1.00  0.00     0.006 C 
HETATM    3  C10 UNL     1      -1.930  51.835  -8.654  1.00  0.00     0.011 C 
HETATM    4  C11 UNL     1      -0.776  52.151  -9.607  1.00  0.00    -0.032 C 
HETATM    5  C12 UNL     1      -0.243  50.762 -10.124  1.00  0.00     0.016 C 
HETATM    6  C13 UNL     1       0.474  52.852  -9.016  1.00  0.00     0.004 C 
HETATM    7  C14 UNL     1       0.277  54.119  -8.114  1.00  0.00     0.007 C 
HETATM    8  C15 UNL     1       1.177  55.345  -8.485  1.00  0.00     0.007 C 
HETATM    9  C16 UNL     1       2.636  54.910  -8.683  1.00  0.00     0.010 C 
HETATM   10  C17 UNL     1       3.757  55.830  -9.167  1.00  0.00     0.018 C 
HETATM   11  C18 UNL     1       3.940  57.021  -8.217  1.00  0.00     0.023 C 
HETATM   12  C19 UNL     1       3.513  56.350 -10.587  1.00  0.00     0.023 C 
HETATM   13  C20 UNL     1       5.055  54.974  -9.134  1.00  0.00     0.135 C 
HETATM   14  O1  UNL     1       6.092  55.369  -9.674  1.00  0.00    -0.297 OA
HETATM   15  C21 UNL     1       5.065  53.663  -8.316  1.00  0.00     0.080 C 
HETATM   16  C22 UNL     1       3.788  52.793  -8.448  1.00  0.00     0.018 C 
HETATM   17  C23 UNL     1       2.796  53.543  -9.322  1.00  0.00    -0.026 A 
HETATM   18  C24 UNL     1       2.770  52.786 -10.611  1.00  0.00     0.021 A 
HETATM   19  C25 UNL     1       1.443  53.224 -10.128  1.00  0.00    -0.027 A 
HETATM   20  C26 UNL     1       0.777  53.969 -11.313  1.00  0.00     0.011 C 
HETATM   21  C27 UNL     1      -0.493  53.260 -11.842  1.00  0.00     0.011 C 
HETATM   22  C28 UNL     1      -1.507  52.995 -10.715  1.00  0.00    -0.032 C 
HETATM   23  C29 UNL     1      -2.049  54.393 -10.271  1.00  0.00     0.016 C 
ENDROOT
BRANCH   1  24
HETATM   24  C6  UNL     1      -2.881  51.283 -12.262  1.00  0.00    -0.014 C 
HETATM   25  C7  UNL     1      -3.249  52.113 -13.504  1.00  0.00     0.010 C 
BRANCH  24  26
HETATM   26  C5  UNL     1      -1.507  50.598 -12.514  1.00  0.00     0.008 C 
BRANCH  26  27
HETATM   27  C4  UNL     1      -1.166  50.373 -13.994  1.00  0.00     0.028 C 
BRANCH  27  28
HETATM   28  C3  UNL     1       0.070  51.089 -14.462  1.00  0.00    -0.022 C 
HETATM   29  C2  UNL     1       0.597  51.083 -15.703  1.00  0.00    -0.064 C 
HETATM   30  C1  UNL     1       0.052  50.288 -16.861  1.00  0.00     0.045 C 
BRANCH  29  31
HETATM   31  C30 UNL     1       1.838  51.878 -16.019  1.00  0.00     0.197 C 
BRANCH  31  32
HETATM   32  O2  UNL     1       1.481  53.232 -16.249  1.00  0.00    -0.397 OA
HETATM   33  H48 UNL     1       0.905  53.494 -15.511  1.00  0.00     0.209 HD
ENDBRANCH  31  32
ENDBRANCH  29  31
ENDBRANCH  27  28
ENDBRANCH  26  27
ENDBRANCH  24  26
ENDBRANCH   1  24
TORSDOF 6
ENDMDL
MODEL 6
REMARK minimizedAffinity -7.21371937
REMARK CNNscore 0.386218965
REMARK CNNaffinity 6.70405531
REMARK  6 active torsions:
REMARK  status: ('A' for Active; 'I' for Inactive)
REMARK    1  A    between atoms: C2_2  and  C30_31 
REMARK    2  A    between atoms: C3_3  and  C4_4 
REMARK    3  A    between atoms: C4_4  and  C5_5 
REMARK    4  A    between atoms: C5_5  and  C6_6 
REMARK    5  A    between atoms: C6_6  and  C8_8 
REMARK    6  A    between atoms: C30_31  and  O2_32 
ROOT
HETATM    1  C8  UNL     1      -3.088  49.704 -22.809  1.00  0.00    -0.002 C 
HETATM    2  C9  UNL     1      -1.995  48.664 -22.396  1.00  0.00     0.006 C 
HETATM    3  C10 UNL     1      -2.703  47.497 -21.682  1.00  0.00     0.011 C 
HETATM    4  C11 UNL     1      -3.954  48.157 -21.100  1.00  0.00    -0.032 C 
HETATM    5  C12 UNL     1      -3.468  48.998 -19.860  1.00  0.00     0.016 C 
HETATM    6  C13 UNL     1      -5.060  47.230 -20.532  1.00  0.00     0.004 C 
HETATM    7  C14 UNL     1      -5.553  46.021 -21.400  1.00  0.00     0.007 C 
HETATM    8  C15 UNL     1      -7.108  45.889 -21.533  1.00  0.00     0.007 C 
HETATM    9  C16 UNL     1      -7.786  46.025 -20.162  1.00  0.00     0.010 C 
HETATM   10  C17 UNL     1      -9.298  46.064 -19.944  1.00  0.00     0.018 C 
HETATM   11  C18 UNL     1      -9.963  44.785 -20.467  1.00  0.00     0.023 C 
HETATM   12  C19 UNL     1      -9.952  47.280 -20.607  1.00  0.00     0.023 C 
HETATM   13  C20 UNL     1      -9.504  46.129 -18.404  1.00  0.00     0.135 C 
HETATM   14  O1  UNL     1     -10.609  46.390 -17.919  1.00  0.00    -0.297 OA
HETATM   15  C21 UNL     1      -8.328  45.749 -17.475  1.00  0.00     0.080 C 
HETATM   16  C22 UNL     1      -6.943  46.296 -17.908  1.00  0.00     0.018 C 
HETATM   17  C23 UNL     1      -7.117  47.020 -19.233  1.00  0.00    -0.026 A 
HETATM   18  C24 UNL     1      -6.964  48.470 -18.902  1.00  0.00     0.021 A 
HETATM   19  C25 UNL     1      -6.282  48.049 -20.145  1.00  0.00    -0.027 A 
HETATM   20  C26 UNL     1      -6.756  49.027 -21.249  1.00  0.00     0.011 C 
HETATM   21  C27 UNL     1      -5.611  49.901 -21.820  1.00  0.00     0.011 C 
HETATM   22  C28 UNL     1      -4.432  49.041 -22.310  1.00  0.00    -0.032 C 
HETATM   23  C29 UNL     1      -4.941  48.269 -23.570  1.00  0.00     0.016 C 
ENDROOT
BRANCH   1  24
HETATM   24  C6  UNL     1      -2.827  51.192 -22.424  1.00  0.00    -0.014 C 
HETATM   25  C7  UNL     1      -4.099  52.048 -22.560  1.00  0.00     0.010 C 
BRANCH  24  26
HETATM   26  C5  UNL     1      -2.318  51.292 -20.957  1.00  0.00     0.008 C 
BRANCH  26  27
HETATM   27  C4  UNL     1      -0.792  51.394 -20.814  1.00  0.00     0.028 C 
BRANCH  27  28
HETATM   28  C3  UNL     1      -0.134  52.289 -21.826  1.00  0.00    -0.022 C 
HETATM   29  C2  UNL     1       0.757  53.274 -21.590  1.00  0.00    -0.064 C 
HETATM   30  C1  UNL     1       1.222  53.696 -20.221  1.00  0.00     0.045 C 
BRANCH  29  31
HETATM   31  C30 UNL     1       1.346  54.072 -22.724  1.00  0.00     0.197 C 
BRANCH  31  32
HETATM   32  O2  UNL     1       2.048  55.188 -22.198  1.00  0.00    -0.397 OA
HETATM   33  H48 UNL     1       2.619  54.845 -21.489  1.00  0.00     0.209 HD
ENDBRANCH  31  32
ENDBRANCH  29  31
ENDBRANCH  27  28
ENDBRANCH  26  27
ENDBRANCH  24  26
ENDBRANCH   1  24
TORSDOF 6
ENDMDL
MODEL 7
REMARK minimizedAffinity -7.15782452
REMARK CNNscore 0.380417645
REMARK CNNaffinity 5.8022151
REMARK  6 active torsions:
REMARK  status: ('A' for Active; 'I' for Inactive)
REMARK    1  A    between atoms: C2_2  and  C30_31 
REMARK    2  A    between atoms: C3_3  and  C4_4 
REMARK    3  A    between atoms: C4_4  and  C5_5 
REMARK    4  A    between atoms: C5_5  and  C6_6 
REMARK    5  A    between atoms: C6_6  and  C8_8 
REMARK    6  A    between atoms: C30_31  and  O2_32 
ROOT
HETATM    1  C8  UNL     1      -7.321  46.629 -30.267  1.00  0.00    -0.002 C 
HETATM    2  C9  UNL     1      -8.393  47.684 -29.834  1.00  0.00     0.006 C 
HETATM    3  C10 UNL     1      -9.650  47.456 -30.694  1.00  0.00     0.011 C 
HETATM    4  C11 UNL     1      -9.085  46.834 -31.972  1.00  0.00    -0.032 C 
HETATM    5  C12 UNL     1      -8.405  48.011 -32.767  1.00  0.00     0.016 C 
HETATM    6  C13 UNL     1     -10.090  46.215 -32.978  1.00  0.00     0.004 C 
HETATM    7  C14 UNL     1     -11.183  45.226 -32.444  1.00  0.00     0.007 C 
HETATM    8  C15 UNL     1     -11.315  43.886 -33.244  1.00  0.00     0.007 C 
HETATM    9  C16 UNL     1     -11.365  44.156 -34.754  1.00  0.00     0.010 C 
HETATM   10  C17 UNL     1     -11.372  43.069 -35.829  1.00  0.00     0.018 C 
HETATM   11  C18 UNL     1     -12.581  42.139 -35.664  1.00  0.00     0.023 C 
HETATM   12  C19 UNL     1     -10.088  42.233 -35.821  1.00  0.00     0.023 C 
HETATM   13  C20 UNL     1     -11.509  43.814 -37.187  1.00  0.00     0.135 C 
HETATM   14  O1  UNL     1     -11.325  43.226 -38.257  1.00  0.00    -0.297 OA
HETATM   15  C21 UNL     1     -11.991  45.282 -37.190  1.00  0.00     0.080 C 
HETATM   16  C22 UNL     1     -11.376  46.180 -36.085  1.00  0.00     0.018 C 
HETATM   17  C23 UNL     1     -10.490  45.308 -35.210  1.00  0.00    -0.026 A 
HETATM   18  C24 UNL     1      -9.093  45.724 -35.544  1.00  0.00     0.021 A 
HETATM   19  C25 UNL     1      -9.343  45.513 -34.102  1.00  0.00    -0.027 A 
HETATM   20  C26 UNL     1      -8.236  44.547 -33.609  1.00  0.00     0.011 C 
HETATM   21  C27 UNL     1      -7.283  45.191 -32.572  1.00  0.00     0.011 C 
HETATM   22  C28 UNL     1      -8.058  45.796 -31.388  1.00  0.00    -0.032 C 
HETATM   23  C29 UNL     1      -8.667  44.592 -30.598  1.00  0.00     0.016 C 
ENDROOT
BRANCH   1  24
HETATM   24  C6  UNL     1      -5.892  47.166 -30.585  1.00  0.00    -0.014 C 
HETATM   25  C7  UNL     1      -5.790  47.699 -32.024  1.00  0.00     0.010 C 
BRANCH  24  26
HETATM   26  C5  UNL     1      -5.513  48.313 -29.604  1.00  0.00     0.008 C 
BRANCH  26  27
HETATM   27  C4  UNL     1      -5.142  47.848 -28.188  1.00  0.00     0.028 C 
BRANCH  27  28
HETATM   28  C3  UNL     1      -3.923  48.516 -27.616  1.00  0.00    -0.022 C 
HETATM   29  C2  UNL     1      -3.655  48.751 -26.315  1.00  0.00    -0.064 C 
HETATM   30  C1  UNL     1      -4.585  48.422 -25.177  1.00  0.00     0.045 C 
BRANCH  29  31
HETATM   31  C30 UNL     1      -2.368  49.415 -25.899  1.00  0.00     0.197 C 
BRANCH  31  32
HETATM   32  O2  UNL     1      -2.135  50.546 -26.725  1.00  0.00    -0.397 OA
HETATM   33  H48 UNL     1      -2.967  51.051 -26.741  1.00  0.00     0.209 HD
ENDBRANCH  31  32
ENDBRANCH  29  31
ENDBRANCH  27  28
ENDBRANCH  26  27
ENDBRANCH  24  26
ENDBRANCH   1  24
TORSDOF 6
ENDMDL
MODEL 8
REMARK minimizedAffinity -7.20756388
REMARK CNNscore 0.351365328
REMARK CNNaffinity 5.63927603
REMARK  6 active torsions:
REMARK  status: ('A' for Active; 'I' for Inactive)
REMARK    1  A    between atoms: C2_2  and  C30_31 
REMARK    2  A    between atoms: C3_3  and  C4_4 
REMARK    3  A    between atoms: C4_4  and  C5_5 
REMARK    4  A    between atoms: C5_5  and  C6_6 
REMARK    5  A    between atoms: C6_6  and  C8_8 
REMARK    6  A    between atoms: C30_31  and  O2_32 
ROOT
HETATM    1  C8  UNL     1      -8.169  46.900 -30.186  1.00  0.00    -0.002 C 
HETATM    2  C9  UNL     1      -8.842  47.668 -31.372  1.00  0.00     0.006 C 
HETATM    3  C10 UNL     1     -10.331  47.856 -31.025  1.00  0.00     0.011 C 
HETATM    4  C11 UNL     1     -10.619  46.677 -30.095  1.00  0.00    -0.032 C 
HETATM    5  C12 UNL     1     -10.700  45.403 -31.016  1.00  0.00     0.016 C 
HETATM    6  C13 UNL     1     -11.963  46.682 -29.320  1.00  0.00     0.004 C 
HETATM    7  C14 UNL     1     -12.385  47.978 -28.545  1.00  0.00     0.007 C 
HETATM    8  C15 UNL     1     -12.848  47.747 -27.067  1.00  0.00     0.007 C 
HETATM    9  C16 UNL     1     -13.849  46.586 -26.985  1.00  0.00     0.010 C 
HETATM   10  C17 UNL     1     -14.411  46.017 -25.682  1.00  0.00     0.018 C 
HETATM   11  C18 UNL     1     -15.157  47.096 -24.887  1.00  0.00     0.023 C 
HETATM   12  C19 UNL     1     -13.323  45.401 -24.798  1.00  0.00     0.023 C 
HETATM   13  C20 UNL     1     -15.433  44.923 -26.101  1.00  0.00     0.135 C 
HETATM   14  O1  UNL     1     -15.893  44.130 -25.274  1.00  0.00    -0.297 OA
HETATM   15  C21 UNL     1     -15.957  44.907 -27.555  1.00  0.00     0.080 C 
HETATM   16  C22 UNL     1     -14.884  45.160 -28.646  1.00  0.00     0.018 C 
HETATM   17  C23 UNL     1     -13.565  45.450 -27.949  1.00  0.00    -0.026 A 
HETATM   18  C24 UNL     1     -12.725  44.238 -28.196  1.00  0.00     0.021 A 
HETATM   19  C25 UNL     1     -12.006  45.522 -28.337  1.00  0.00    -0.027 A 
HETATM   20  C26 UNL     1     -10.742  45.409 -27.448  1.00  0.00     0.011 C 
HETATM   21  C27 UNL     1      -9.422  45.454 -28.257  1.00  0.00     0.011 C 
HETATM   22  C28 UNL     1      -9.353  46.698 -29.161  1.00  0.00    -0.032 C 
HETATM   23  C29 UNL     1      -9.219  47.929 -28.208  1.00  0.00     0.016 C 
ENDROOT
BRANCH   1  24
HETATM   24  C6  UNL     1      -7.306  45.654 -30.552  1.00  0.00    -0.014 C 
HETATM   25  C7  UNL     1      -7.780  44.997 -31.861  1.00  0.00     0.010 C 
BRANCH  24  26
HETATM   26  C5  UNL     1      -5.812  46.056 -30.713  1.00  0.00     0.008 C 
BRANCH  26  27
HETATM   27  C4  UNL     1      -5.213  45.754 -32.095  1.00  0.00     0.028 C 
BRANCH  27  28
HETATM   28  C3  UNL     1      -5.519  46.788 -33.142  1.00  0.00    -0.022 C 
HETATM   29  C2  UNL     1      -4.635  47.527 -33.842  1.00  0.00    -0.064 C 
HETATM   30  C1  UNL     1      -3.141  47.483 -33.652  1.00  0.00     0.045 C 
BRANCH  29  31
HETATM   31  C30 UNL     1      -5.104  48.513 -34.882  1.00  0.00     0.197 C 
BRANCH  31  32
HETATM   32  O2  UNL     1      -6.293  48.026 -35.486  1.00  0.00    -0.397 OA
HETATM   33  H48 UNL     1      -6.882  47.761 -34.759  1.00  0.00     0.209 HD
ENDBRANCH  31  32
ENDBRANCH  29  31
ENDBRANCH  27  28
ENDBRANCH  26  27
ENDBRANCH  24  26
ENDBRANCH   1  24
TORSDOF 6
ENDMDL
MODEL 9
REMARK minimizedAffinity -7.1546607
REMARK CNNscore 0.32150048
REMARK CNNaffinity 5.60950518
REMARK  6 active torsions:
REMARK  status: ('A' for Active; 'I' for Inactive)
REMARK    1  A    between atoms: C2_2  and  C30_31 
REMARK    2  A    between atoms: C3_3  and  C4_4 
REMARK    3  A    between atoms: C4_4  and  C5_5 
REMARK    4  A    between atoms: C5_5  and  C6_6 
REMARK    5  A    between atoms: C6_6  and  C8_8 
REMARK    6  A    between atoms: C30_31  and  O2_32 
ROOT
HETATM    1  C8  UNL     1      -6.177  46.811 -30.988  1.00  0.00    -0.002 C 
HETATM    2  C9  UNL     1      -6.417  48.356 -30.918  1.00  0.00     0.006 C 
HETATM    3  C10 UNL     1      -7.727  48.593 -30.141  1.00  0.00     0.011 C 
HETATM    4  C11 UNL     1      -8.515  47.307 -30.396  1.00  0.00    -0.032 C 
HETATM    5  C12 UNL     1      -9.041  47.402 -31.877  1.00  0.00     0.016 C 
HETATM    6  C13 UNL     1      -9.789  47.062 -29.546  1.00  0.00     0.004 C 
HETATM    7  C14 UNL     1      -9.706  47.236 -27.991  1.00  0.00     0.007 C 
HETATM    8  C15 UNL     1     -10.310  46.057 -27.157  1.00  0.00     0.007 C 
HETATM    9  C16 UNL     1     -11.693  45.661 -27.693  1.00  0.00     0.010 C 
HETATM   10  C17 UNL     1     -12.511  44.472 -27.189  1.00  0.00     0.018 C 
HETATM   11  C18 UNL     1     -12.813  44.607 -25.691  1.00  0.00     0.023 C 
HETATM   12  C19 UNL     1     -11.811  43.134 -27.444  1.00  0.00     0.023 C 
HETATM   13  C20 UNL     1     -13.857  44.521 -27.967  1.00  0.00     0.135 C 
HETATM   14  O1  UNL     1     -14.642  43.569 -27.941  1.00  0.00    -0.297 OA
HETATM   15  C21 UNL     1     -14.257  45.828 -28.687  1.00  0.00     0.080 C 
HETATM   16  C22 UNL     1     -13.110  46.538 -29.452  1.00  0.00     0.018 C 
HETATM   17  C23 UNL     1     -11.827  45.761 -29.201  1.00  0.00    -0.026 A 
HETATM   18  C24 UNL     1     -11.525  45.089 -30.502  1.00  0.00     0.021 A 
HETATM   19  C25 UNL     1     -10.348  45.675 -29.825  1.00  0.00    -0.027 A 
HETATM   20  C26 UNL     1      -9.288  44.547 -29.750  1.00  0.00     0.011 C 
HETATM   21  C27 UNL     1      -8.013  44.853 -30.575  1.00  0.00     0.011 C 
HETATM   22  C28 UNL     1      -7.403  46.213 -30.193  1.00  0.00    -0.032 C 
HETATM   23  C29 UNL     1      -6.847  46.055 -28.741  1.00  0.00     0.016 C 
ENDROOT
BRANCH   1  24
HETATM   24  C6  UNL     1      -5.860  46.211 -32.392  1.00  0.00    -0.014 C 
HETATM   25  C7  UNL     1      -5.413  47.295 -33.388  1.00  0.00     0.010 C 
BRANCH  24  26
HETATM   26  C5  UNL     1      -4.734  45.143 -32.284  1.00  0.00     0.008 C 
BRANCH  26  27
HETATM   27  C4  UNL     1      -5.148  43.731 -32.722  1.00  0.00     0.028 C 
BRANCH  27  28
HETATM   28  C3  UNL     1      -4.048  42.710 -32.643  1.00  0.00    -0.022 C 
HETATM   29  C2  UNL     1      -3.537  41.978 -33.654  1.00  0.00    -0.064 C 
HETATM   30  C1  UNL     1      -4.034  42.019 -35.076  1.00  0.00     0.045 C 
BRANCH  29  31
HETATM   31  C30 UNL     1      -2.412  41.005 -33.413  1.00  0.00     0.197 C 
BRANCH  31  32
HETATM   32  O2  UNL     1      -2.522  40.476 -32.100  1.00  0.00    -0.397 OA
HETATM   33  H48 UNL     1      -3.447  40.194 -31.995  1.00  0.00     0.209 HD
ENDBRANCH  31  32
ENDBRANCH  29  31
ENDBRANCH  27  28
ENDBRANCH  26  27
ENDBRANCH  24  26
ENDBRANCH   1  24
TORSDOF 6
ENDMDL
