MODEL 1
REMARK minimizedAffinity -6.91738272
REMARK CNNscore 0.512439072
REMARK CNNaffinity 7.19348669
REMARK  10 active torsions:
REMARK  status: ('A' for Active; 'I' for Inactive)
REMARK    1  A    between atoms: C2_2  and  O1_3 
REMARK    2  A    between atoms: O1_3  and  C3_4 
REMARK    3  A    between atoms: C3_4  and  C4_6 
REMARK    4  A    between atoms: C5_7  and  C6_8 
REMARK    5  A    between atoms: C12_16  and  C13_17 
REMARK    6  A    between atoms: C23_28  and  O5_29 
REMARK    7  A    between atoms: C27_34  and  C28_35 
REMARK    8  A    between atoms: C28_35  and  O7_36 
REMARK    9  A    between atoms: C38_47  and  C39_48 
REMARK   10  A    between atoms: C39_48  and  O8_49 
ROOT
HETATM    1  C4  UNL     1     -12.936  12.247  24.434  1.00  0.00     0.165 C 
HETATM    2  C5  UNL     1     -13.812  11.230  24.557  1.00  0.00     0.053 C 
HETATM    3  C7  UNL     1     -13.625  10.069  23.686  1.00  0.00    -0.002 C 
HETATM    4  C8  UNL     1     -13.742   8.786  24.123  1.00  0.00    -0.066 C 
HETATM    5  C9  UNL     1     -14.255   8.353  25.479  1.00  0.00     0.042 C 
HETATM    6  C10 UNL     1     -15.622   7.705  25.307  1.00  0.00     0.083 C 
HETATM    7  C11 UNL     1     -15.750   6.872  24.041  1.00  0.00     0.136 C 
HETATM    8  O4  UNL     1     -16.863   6.454  23.704  1.00  0.00    -0.297 OA
HETATM    9  C12 UNL     1     -14.496   6.513  23.232  1.00  0.00     0.092 C 
HETATM   10  C21 UNL     1     -13.340   7.528  23.370  1.00  0.00     0.052 C 
HETATM   11  C22 UNL     1     -13.079  10.430  22.343  1.00  0.00     0.044 C 
HETATM   12  C23 UNL     1     -13.478   9.897  21.112  1.00  0.00     0.091 C 
HETATM   13  C25 UNL     1     -12.794  10.275  19.968  1.00  0.00     0.013 C 
HETATM   14  C26 UNL     1     -11.800  11.245  20.014  1.00  0.00     0.089 C 
HETATM   15  O6  UNL     1     -11.263  11.517  18.779  1.00  0.00    -0.341 OA
HETATM   16  C27 UNL     1     -11.666  10.385  17.979  1.00  0.00     0.168 C 
HETATM   17  C37 UNL     1     -12.979   9.833  18.566  1.00  0.00     0.080 C 
HETATM   18  C38 UNL     1     -11.440  11.885  21.186  1.00  0.00     0.034 C 
HETATM   19  C40 UNL     1     -12.125  11.482  22.344  1.00  0.00     0.101 C 
HETATM   20  O9  UNL     1     -11.891  12.208  23.504  1.00  0.00    -0.302 OA
ENDROOT
BRANCH   2  21
HETATM   21  C6  UNL     1     -15.021  11.419  25.390  1.00  0.00     0.273 C 
HETATM   22  O3  UNL     1     -16.154  11.379  24.921  1.00  0.00    -0.301 OA
ENDBRANCH   2  21
BRANCH   1  23
HETATM   23  C3  UNL     1     -13.074  13.489  25.244  1.00  0.00     0.318 C 
HETATM   24  O2  UNL     1     -13.121  14.622  24.788  1.00  0.00    -0.257 OA
BRANCH  23  25
HETATM   25  O1  UNL     1     -13.110  13.156  26.558  1.00  0.00    -0.316 OA
BRANCH  25  26
HETATM   26  C2  UNL     1     -13.805  14.083  27.401  1.00  0.00     0.175 C 
HETATM   27  C1  UNL     1     -14.116  13.384  28.709  1.00  0.00     0.034 C 
ENDBRANCH  25  26
ENDBRANCH  23  25
ENDBRANCH   1  23
BRANCH  12  28
HETATM   28  O5  UNL     1     -14.499   8.995  20.994  1.00  0.00    -0.354 OA
HETATM   29  C24 UNL     1     -14.088   7.880  20.194  1.00  0.00     0.210 C 
ENDBRANCH  12  28
BRANCH   9  30
HETATM   30  C13 UNL     1     -14.028   5.085  23.495  1.00  0.00    -0.046 A 
HETATM   31  C14 UNL     1     -13.840   4.173  22.445  1.00  0.00     0.010 A 
HETATM   32  C15 UNL     1     -13.436   2.851  22.673  1.00  0.00     0.031 A 
HETATM   33  C16 UNL     1     -13.225   2.457  23.996  1.00  0.00     0.042 A 
HETATM   34  N1  UNL     1     -12.816   1.247  24.512  1.00  0.00    -0.365 N 
HETATM   35  C19 UNL     1     -13.405   3.325  25.074  1.00  0.00    -0.008 A 
HETATM   36  C17 UNL     1     -12.729   1.322  25.878  1.00  0.00     0.089 A 
HETATM   37  H14 UNL     1     -12.594   0.430  23.957  1.00  0.00     0.165 HD
HETATM   38  C18 UNL     1     -13.107   2.587  26.257  1.00  0.00     0.030 A 
HETATM   39  C20 UNL     1     -13.809   4.655  24.820  1.00  0.00     0.021 A 
ENDBRANCH   9  30
BRANCH  18  40
HETATM   40  C39 UNL     1     -10.387  12.950  21.212  1.00  0.00     0.208 C 
BRANCH  40  41
HETATM   41  O8  UNL     1      -9.321  12.575  20.344  1.00  0.00    -0.396 OA
HETATM   42  H42 UNL     1      -8.681  13.302  20.365  1.00  0.00     0.209 HD
ENDBRANCH  40  41
ENDBRANCH  18  40
BRANCH  16  43
HETATM   43  C28 UNL     1     -11.706  10.688  16.453  1.00  0.00     0.092 C 
HETATM   44  C29 UNL     1     -10.495  11.541  15.962  1.00  0.00     0.067 C 
HETATM   45  C30 UNL     1      -9.313  10.787  15.421  1.00  0.00    -0.027 C 
HETATM   46  C31 UNL     1      -9.308   9.464  15.200  1.00  0.00    -0.024 C 
HETATM   47  C32 UNL     1     -10.504   8.596  15.471  1.00  0.00     0.043 C 
HETATM   48  C33 UNL     1     -10.665   7.496  14.404  1.00  0.00     0.278 C 
HETATM   49  C36 UNL     1     -11.816   9.417  15.551  1.00  0.00     0.034 C 
HETATM   50  N2  UNL     1     -11.766   6.586  14.745  1.00  0.00     0.084 N 
HETATM   51  C34 UNL     1     -13.039   7.299  14.881  1.00  0.00     0.270 C 
HETATM   52  H32 UNL     1     -11.853   5.882  14.012  1.00  0.00     0.315 HD
HETATM   53  C35 UNL     1     -12.959   8.442  15.901  1.00  0.00     0.038 C 
BRANCH  43  54
HETATM   54  O7  UNL     1     -12.885  11.494  16.216  1.00  0.00    -0.386 OA
HETATM   55  H24 UNL     1     -13.669  10.964  16.432  1.00  0.00     0.210 HD
ENDBRANCH  43  54
ENDBRANCH  16  43
TORSDOF 10
ENDMDL
MODEL 2
REMARK minimizedAffinity -7.53964901
REMARK CNNscore 0.492525816
REMARK CNNaffinity 7.01935339
REMARK  10 active torsions:
REMARK  status: ('A' for Active; 'I' for Inactive)
REMARK    1  A    between atoms: C2_2  and  O1_3 
REMARK    2  A    between atoms: O1_3  and  C3_4 
REMARK    3  A    between atoms: C3_4  and  C4_6 
REMARK    4  A    between atoms: C5_7  and  C6_8 
REMARK    5  A    between atoms: C12_16  and  C13_17 
REMARK    6  A    between atoms: C23_28  and  O5_29 
REMARK    7  A    between atoms: C27_34  and  C28_35 
REMARK    8  A    between atoms: C28_35  and  O7_36 
REMARK    9  A    between atoms: C38_47  and  C39_48 
REMARK   10  A    between atoms: C39_48  and  O8_49 
ROOT
HETATM    1  C4  UNL     1     -11.017  11.215  21.802  1.00  0.00     0.165 C 
HETATM    2  C5  UNL     1     -11.834  10.602  22.683  1.00  0.00     0.053 C 
HETATM    3  C7  UNL     1     -12.509   9.381  22.240  1.00  0.00    -0.002 C 
HETATM    4  C8  UNL     1     -12.625   8.273  23.021  1.00  0.00    -0.066 C 
HETATM    5  C9  UNL     1     -12.266   8.177  24.488  1.00  0.00     0.042 C 
HETATM    6  C10 UNL     1     -13.546   8.060  25.304  1.00  0.00     0.083 C 
HETATM    7  C11 UNL     1     -14.625   7.224  24.633  1.00  0.00     0.136 C 
HETATM    8  O4  UNL     1     -15.764   7.213  25.112  1.00  0.00    -0.297 OA
HETATM    9  C12 UNL     1     -14.276   6.363  23.411  1.00  0.00     0.092 C 
HETATM   10  C21 UNL     1     -13.089   6.894  22.579  1.00  0.00     0.052 C 
HETATM   11  C22 UNL     1     -12.851   9.399  20.787  1.00  0.00     0.044 C 
HETATM   12  C23 UNL     1     -14.041   8.942  20.207  1.00  0.00     0.091 C 
HETATM   13  C25 UNL     1     -14.153   8.943  18.825  1.00  0.00     0.013 C 
HETATM   14  C26 UNL     1     -13.155   9.483  18.025  1.00  0.00     0.089 C 
HETATM   15  O6  UNL     1     -13.458   9.432  16.686  1.00  0.00    -0.341 OA
HETATM   16  C27 UNL     1     -14.522   8.458  16.619  1.00  0.00     0.168 C 
HETATM   17  C37 UNL     1     -15.268   8.478  17.967  1.00  0.00     0.080 C 
HETATM   18  C38 UNL     1     -12.006  10.048  18.549  1.00  0.00     0.034 C 
HETATM   19  C40 UNL     1     -11.891  10.026  19.949  1.00  0.00     0.101 C 
HETATM   20  O9  UNL     1     -10.824  10.715  20.509  1.00  0.00    -0.302 OA
ENDROOT
BRANCH   2  21
HETATM   21  C6  UNL     1     -12.174  11.291  23.948  1.00  0.00     0.273 C 
HETATM   22  O3  UNL     1     -11.410  11.318  24.907  1.00  0.00    -0.301 OA
ENDBRANCH   2  21
BRANCH   1  23
HETATM   23  C3  UNL     1     -10.324  12.487  22.145  1.00  0.00     0.318 C 
HETATM   24  O2  UNL     1     -10.847  13.592  22.152  1.00  0.00    -0.257 OA
BRANCH  23  25
HETATM   25  O1  UNL     1      -9.023  12.219  22.420  1.00  0.00    -0.316 OA
BRANCH  25  26
HETATM   26  C2  UNL     1      -8.109  13.283  22.127  1.00  0.00     0.175 C 
HETATM   27  C1  UNL     1      -6.806  12.991  22.843  1.00  0.00     0.034 C 
ENDBRANCH  25  26
ENDBRANCH  23  25
ENDBRANCH   1  23
BRANCH  12  28
HETATM   28  O5  UNL     1     -15.088   8.468  20.946  1.00  0.00    -0.354 OA
HETATM   29  C24 UNL     1     -15.615   7.274  20.356  1.00  0.00     0.210 C 
ENDBRANCH  12  28
BRANCH   9  30
HETATM   30  C13 UNL     1     -14.099   4.891  23.774  1.00  0.00    -0.046 A 
HETATM   31  C14 UNL     1     -15.205   4.052  23.978  1.00  0.00     0.010 A 
HETATM   32  C15 UNL     1     -15.058   2.705  24.337  1.00  0.00     0.031 A 
HETATM   33  C16 UNL     1     -13.760   2.213  24.491  1.00  0.00     0.042 A 
HETATM   34  N1  UNL     1     -13.318   0.950  24.816  1.00  0.00    -0.365 N 
HETATM   35  C19 UNL     1     -12.630   3.010  24.305  1.00  0.00    -0.008 A 
HETATM   36  C17 UNL     1     -11.947   0.921  24.840  1.00  0.00     0.089 A 
HETATM   37  H14 UNL     1     -13.921   0.156  24.992  1.00  0.00     0.165 HD
HETATM   38  C18 UNL     1     -11.493   2.184  24.548  1.00  0.00     0.030 A 
HETATM   39  C20 UNL     1     -12.802   4.364  23.940  1.00  0.00     0.021 A 
ENDBRANCH   9  30
BRANCH  18  40
HETATM   40  C39 UNL     1     -10.953  10.654  17.673  1.00  0.00     0.208 C 
BRANCH  40  41
HETATM   41  O8  UNL     1     -10.736  12.006  18.067  1.00  0.00    -0.396 OA
HETATM   42  H42 UNL     1     -10.029  12.348  17.500  1.00  0.00     0.209 HD
ENDBRANCH  40  41
ENDBRANCH  18  40
BRANCH  16  43
HETATM   43  C28 UNL     1     -15.431   8.621  15.366  1.00  0.00     0.092 C 
HETATM   44  C29 UNL     1     -14.652   9.093  14.098  1.00  0.00     0.067 C 
HETATM   45  C30 UNL     1     -14.164   8.020  13.166  1.00  0.00    -0.027 C 
HETATM   46  C31 UNL     1     -14.487   6.723  13.284  1.00  0.00    -0.024 C 
HETATM   47  C32 UNL     1     -15.388   6.213  14.373  1.00  0.00     0.043 C 
HETATM   48  C33 UNL     1     -16.319   5.095  13.866  1.00  0.00     0.278 C 
HETATM   49  C36 UNL     1     -16.248   7.340  14.998  1.00  0.00     0.034 C 
HETATM   50  N2  UNL     1     -17.110   4.526  14.964  1.00  0.00     0.084 N 
HETATM   51  C34 UNL     1     -17.921   5.545  15.636  1.00  0.00     0.270 C 
HETATM   52  H32 UNL     1     -17.723   3.802  14.591  1.00  0.00     0.315 HD
HETATM   53  C35 UNL     1     -17.075   6.720  16.143  1.00  0.00     0.038 C 
BRANCH  43  54
HETATM   54  O7  UNL     1     -16.379   9.671  15.668  1.00  0.00    -0.386 OA
HETATM   55  H24 UNL     1     -16.941   9.378  16.402  1.00  0.00     0.210 HD
ENDBRANCH  43  54
ENDBRANCH  16  43
TORSDOF 10
ENDMDL
MODEL 3
REMARK minimizedAffinity -7.72428656
REMARK CNNscore 0.483879328
REMARK CNNaffinity 6.8348012
REMARK  10 active torsions:
REMARK  status: ('A' for Active; 'I' for Inactive)
REMARK    1  A    between atoms: C2_2  and  O1_3 
REMARK    2  A    between atoms: O1_3  and  C3_4 
REMARK    3  A    between atoms: C3_4  and  C4_6 
REMARK    4  A    between atoms: C5_7  and  C6_8 
REMARK    5  A    between atoms: C12_16  and  C13_17 
REMARK    6  A    between atoms: C23_28  and  O5_29 
REMARK    7  A    between atoms: C27_34  and  C28_35 
REMARK    8  A    between atoms: C28_35  and  O7_36 
REMARK    9  A    between atoms: C38_47  and  C39_48 
REMARK   10  A    between atoms: C39_48  and  O8_49 
ROOT
HETATM    1  C4  UNL     1     -11.160  11.086  22.078  1.00  0.00     0.165 C 
HETATM    2  C5  UNL     1     -12.012  10.444  22.903  1.00  0.00     0.053 C 
HETATM    3  C7  UNL     1     -12.617   9.204  22.415  1.00  0.00    -0.002 C 
HETATM    4  C8  UNL     1     -12.747   8.089  23.185  1.00  0.00    -0.066 C 
HETATM    5  C9  UNL     1     -12.482   8.000  24.672  1.00  0.00     0.042 C 
HETATM    6  C10 UNL     1     -13.808   7.838  25.402  1.00  0.00     0.083 C 
HETATM    7  C11 UNL     1     -14.813   6.970  24.662  1.00  0.00     0.136 C 
HETATM    8  O4  UNL     1     -15.980   6.920  25.065  1.00  0.00    -0.297 OA
HETATM    9  C12 UNL     1     -14.357   6.125  23.464  1.00  0.00     0.092 C 
HETATM   10  C21 UNL     1     -13.136   6.698  22.711  1.00  0.00     0.052 C 
HETATM   11  C22 UNL     1     -12.864   9.215  20.943  1.00  0.00     0.044 C 
HETATM   12  C23 UNL     1     -13.998   8.723  20.286  1.00  0.00     0.091 C 
HETATM   13  C25 UNL     1     -14.020   8.725  18.900  1.00  0.00     0.013 C 
HETATM   14  C26 UNL     1     -12.990   9.300  18.167  1.00  0.00     0.089 C 
HETATM   15  O6  UNL     1     -13.204   9.244  16.811  1.00  0.00    -0.341 OA
HETATM   16  C27 UNL     1     -14.229   8.237  16.673  1.00  0.00     0.168 C 
HETATM   17  C37 UNL     1     -15.061   8.227  17.970  1.00  0.00     0.080 C 
HETATM   18  C38 UNL     1     -11.897   9.900  18.766  1.00  0.00     0.034 C 
HETATM   19  C40 UNL     1     -11.873   9.877  20.170  1.00  0.00     0.101 C 
HETATM   20  O9  UNL     1     -10.867  10.598  20.800  1.00  0.00    -0.302 OA
ENDROOT
BRANCH   2  21
HETATM   21  C6  UNL     1     -12.456  11.117  24.144  1.00  0.00     0.273 C 
HETATM   22  O3  UNL     1     -11.887  10.954  25.218  1.00  0.00    -0.301 OA
ENDBRANCH   2  21
BRANCH   1  23
HETATM   23  C3  UNL     1     -10.533  12.379  22.468  1.00  0.00     0.318 C 
HETATM   24  O2  UNL     1     -11.144  13.399  22.750  1.00  0.00    -0.257 OA
BRANCH  23  25
HETATM   25  O1  UNL     1      -9.184  12.242  22.432  1.00  0.00    -0.316 OA
BRANCH  25  26
HETATM   26  C2  UNL     1      -8.474  12.951  23.455  1.00  0.00     0.175 C 
HETATM   27  C1  UNL     1      -7.033  13.100  23.008  1.00  0.00     0.034 C 
ENDBRANCH  25  26
ENDBRANCH  23  25
ENDBRANCH   1  23
BRANCH  12  28
HETATM   28  O5  UNL     1     -15.075   8.212  20.954  1.00  0.00    -0.354 OA
HETATM   29  C24 UNL     1     -15.962   9.265  21.348  1.00  0.00     0.210 C 
ENDBRANCH  12  28
BRANCH   9  30
HETATM   30  C13 UNL     1     -14.156   4.658  23.835  1.00  0.00    -0.046 A 
HETATM   31  C14 UNL     1     -15.248   3.811  24.077  1.00  0.00     0.010 A 
HETATM   32  C15 UNL     1     -15.079   2.469  24.443  1.00  0.00     0.031 A 
HETATM   33  C16 UNL     1     -13.773   1.990  24.567  1.00  0.00     0.042 A 
HETATM   34  N1  UNL     1     -13.309   0.735  24.891  1.00  0.00    -0.365 N 
HETATM   35  C19 UNL     1     -12.656   2.796  24.343  1.00  0.00    -0.008 A 
HETATM   36  C17 UNL     1     -11.939   0.719  24.878  1.00  0.00     0.089 A 
HETATM   37  H14 UNL     1     -13.900  -0.063  25.091  1.00  0.00     0.165 HD
HETATM   38  C18 UNL     1     -11.505   1.984  24.563  1.00  0.00     0.030 A 
HETATM   39  C20 UNL     1     -12.851   4.145  23.970  1.00  0.00     0.021 A 
ENDBRANCH   9  30
BRANCH  18  40
HETATM   40  C39 UNL     1     -10.809  10.543  17.961  1.00  0.00     0.208 C 
BRANCH  40  41
HETATM   41  O8  UNL     1     -11.394  11.312  16.914  1.00  0.00    -0.396 OA
HETATM   42  H42 UNL     1     -10.662  11.735  16.441  1.00  0.00     0.209 HD
ENDBRANCH  40  41
ENDBRANCH  18  40
BRANCH  16  43
HETATM   43  C28 UNL     1     -15.059   8.375  15.364  1.00  0.00     0.092 C 
HETATM   44  C29 UNL     1     -16.224   9.407  15.479  1.00  0.00     0.067 C 
HETATM   45  C30 UNL     1     -15.932  10.809  15.023  1.00  0.00    -0.027 C 
HETATM   46  C31 UNL     1     -14.804  11.171  14.395  1.00  0.00    -0.024 C 
HETATM   47  C32 UNL     1     -13.708  10.194  14.078  1.00  0.00     0.043 C 
HETATM   48  C33 UNL     1     -13.064  10.483  12.708  1.00  0.00     0.278 C 
HETATM   49  C36 UNL     1     -14.206   8.727  14.101  1.00  0.00     0.034 C 
HETATM   50  N2  UNL     1     -11.920   9.595  12.463  1.00  0.00     0.084 N 
HETATM   51  C34 UNL     1     -12.306   8.183  12.513  1.00  0.00     0.270 C 
HETATM   52  H32 UNL     1     -11.530   9.804  11.545  1.00  0.00     0.315 HD
HETATM   53  C35 UNL     1     -12.993   7.814  13.834  1.00  0.00     0.038 C 
BRANCH  43  54
HETATM   54  O7  UNL     1     -15.682   7.091  15.124  1.00  0.00    -0.386 OA
HETATM   55  H24 UNL     1     -14.986   6.435  14.963  1.00  0.00     0.210 HD
ENDBRANCH  43  54
ENDBRANCH  16  43
TORSDOF 10
ENDMDL
MODEL 4
REMARK minimizedAffinity -9.8001833
REMARK CNNscore 0.472424328
REMARK CNNaffinity 8.1994524
REMARK  10 active torsions:
REMARK  status: ('A' for Active; 'I' for Inactive)
REMARK    1  A    between atoms: C2_2  and  O1_3 
REMARK    2  A    between atoms: O1_3  and  C3_4 
REMARK    3  A    between atoms: C3_4  and  C4_6 
REMARK    4  A    between atoms: C5_7  and  C6_8 
REMARK    5  A    between atoms: C12_16  and  C13_17 
REMARK    6  A    between atoms: C23_28  and  O5_29 
REMARK    7  A    between atoms: C27_34  and  C28_35 
REMARK    8  A    between atoms: C28_35  and  O7_36 
REMARK    9  A    between atoms: C38_47  and  C39_48 
REMARK   10  A    between atoms: C39_48  and  O8_49 
ROOT
HETATM    1  C4  UNL     1      -1.957   5.082  11.953  1.00  0.00     0.165 C 
HETATM    2  C5  UNL     1      -3.050   4.648  12.612  1.00  0.00     0.053 C 
HETATM    3  C7  UNL     1      -3.994   5.659  13.092  1.00  0.00    -0.002 C 
HETATM    4  C8  UNL     1      -5.343   5.525  12.982  1.00  0.00    -0.066 C 
HETATM    5  C9  UNL     1      -6.080   4.278  12.544  1.00  0.00     0.042 C 
HETATM    6  C10 UNL     1      -6.797   3.678  13.746  1.00  0.00     0.083 C 
HETATM    7  C11 UNL     1      -7.369   4.717  14.699  1.00  0.00     0.136 C 
HETATM    8  O4  UNL     1      -7.806   4.353  15.796  1.00  0.00    -0.297 OA
HETATM    9  C12 UNL     1      -7.450   6.188  14.267  1.00  0.00     0.092 C 
HETATM   10  C21 UNL     1      -6.387   6.603  13.227  1.00  0.00     0.052 C 
HETATM   11  C22 UNL     1      -3.328   6.932  13.500  1.00  0.00     0.044 C 
HETATM   12  C23 UNL     1      -3.638   7.710  14.621  1.00  0.00     0.091 C 
HETATM   13  C25 UNL     1      -2.982   8.918  14.797  1.00  0.00     0.013 C 
HETATM   14  C26 UNL     1      -1.959   9.310  13.943  1.00  0.00     0.089 C 
HETATM   15  O6  UNL     1      -1.401  10.515  14.296  1.00  0.00    -0.341 OA
HETATM   16  C27 UNL     1      -2.382  11.094  15.183  1.00  0.00     0.168 C 
HETATM   17  C37 UNL     1      -3.151   9.941  15.856  1.00  0.00     0.080 C 
HETATM   18  C38 UNL     1      -1.536   8.529  12.883  1.00  0.00     0.034 C 
HETATM   19  C40 UNL     1      -2.218   7.315  12.700  1.00  0.00     0.101 C 
HETATM   20  O9  UNL     1      -1.720   6.445  11.740  1.00  0.00    -0.302 OA
ENDROOT
BRANCH   2  21
HETATM   21  C6  UNL     1      -3.135   3.224  13.004  1.00  0.00     0.273 C 
HETATM   22  O3  UNL     1      -3.689   2.382  12.303  1.00  0.00    -0.301 OA
ENDBRANCH   2  21
BRANCH   1  23
HETATM   23  C3  UNL     1      -0.917   4.132  11.469  1.00  0.00     0.318 C 
HETATM   24  O2  UNL     1      -0.893   2.935  11.714  1.00  0.00    -0.257 OA
BRANCH  23  25
HETATM   25  O1  UNL     1       0.001   4.817  10.743  1.00  0.00    -0.316 OA
BRANCH  25  26
HETATM   26  C2  UNL     1       1.260   5.021  11.394  1.00  0.00     0.175 C 
HETATM   27  C1  UNL     1       2.048   6.032  10.584  1.00  0.00     0.034 C 
ENDBRANCH  25  26
ENDBRANCH  23  25
ENDBRANCH   1  23
BRANCH  12  28
HETATM   28  O5  UNL     1      -4.583   7.342  15.538  1.00  0.00    -0.354 OA
HETATM   29  C24 UNL     1      -5.541   8.391  15.715  1.00  0.00     0.210 C 
ENDBRANCH  12  28
BRANCH   9  30
HETATM   30  C13 UNL     1      -8.857   6.583  13.827  1.00  0.00    -0.046 A 
HETATM   31  C14 UNL     1      -9.299   6.363  12.514  1.00  0.00     0.010 A 
HETATM   32  C15 UNL     1     -10.579   6.743  12.088  1.00  0.00     0.031 A 
HETATM   33  C16 UNL     1     -11.415   7.362  13.020  1.00  0.00     0.042 A 
HETATM   34  N1  UNL     1     -12.707   7.820  12.893  1.00  0.00    -0.365 N 
HETATM   35  C19 UNL     1     -11.018   7.608  14.335  1.00  0.00    -0.008 A 
HETATM   36  C17 UNL     1     -13.140   8.346  14.083  1.00  0.00     0.089 A 
HETATM   37  H14 UNL     1     -13.259   7.759  12.047  1.00  0.00     0.165 HD
HETATM   38  C18 UNL     1     -12.112   8.249  14.988  1.00  0.00     0.030 A 
HETATM   39  C20 UNL     1      -9.724   7.212  14.743  1.00  0.00     0.021 A 
ENDBRANCH   9  30
BRANCH  18  40
HETATM   40  C39 UNL     1      -0.410   8.952  11.989  1.00  0.00     0.208 C 
BRANCH  40  41
HETATM   41  O8  UNL     1       0.716   9.302  12.789  1.00  0.00    -0.396 OA
HETATM   42  H42 UNL     1       1.427   9.536  12.175  1.00  0.00     0.209 HD
ENDBRANCH  40  41
ENDBRANCH  18  40
BRANCH  16  43
HETATM   43  C28 UNL     1      -1.786  12.145  16.163  1.00  0.00     0.092 C 
HETATM   44  C29 UNL     1      -2.682  12.395  17.417  1.00  0.00     0.067 C 
HETATM   45  C30 UNL     1      -2.364  11.591  18.646  1.00  0.00    -0.027 C 
HETATM   46  C31 UNL     1      -1.285  10.804  18.766  1.00  0.00    -0.024 C 
HETATM   47  C32 UNL     1      -0.270  10.654  17.669  1.00  0.00     0.043 C 
HETATM   48  C33 UNL     1       1.163  10.557  18.226  1.00  0.00     0.278 C 
HETATM   49  C36 UNL     1      -0.336  11.817  16.647  1.00  0.00     0.034 C 
HETATM   50  N2  UNL     1       2.132  10.294  17.153  1.00  0.00     0.084 N 
HETATM   51  C34 UNL     1       2.097  11.334  16.122  1.00  0.00     0.270 C 
HETATM   52  H32 UNL     1       3.067  10.251  17.555  1.00  0.00     0.315 HD
HETATM   53  C35 UNL     1       0.692  11.525  15.535  1.00  0.00     0.038 C 
BRANCH  43  54
HETATM   54  O7  UNL     1      -1.734  13.403  15.450  1.00  0.00    -0.386 OA
HETATM   55  H24 UNL     1      -1.117  13.311  14.707  1.00  0.00     0.210 HD
ENDBRANCH  43  54
ENDBRANCH  16  43
TORSDOF 10
ENDMDL
MODEL 5
REMARK minimizedAffinity -9.73233414
REMARK CNNscore 0.425552815
REMARK CNNaffinity 8.21800327
REMARK  10 active torsions:
REMARK  status: ('A' for Active; 'I' for Inactive)
REMARK    1  A    between atoms: C2_2  and  O1_3 
REMARK    2  A    between atoms: O1_3  and  C3_4 
REMARK    3  A    between atoms: C3_4  and  C4_6 
REMARK    4  A    between atoms: C5_7  and  C6_8 
REMARK    5  A    between atoms: C12_16  and  C13_17 
REMARK    6  A    between atoms: C23_28  and  O5_29 
REMARK    7  A    between atoms: C27_34  and  C28_35 
REMARK    8  A    between atoms: C28_35  and  O7_36 
REMARK    9  A    between atoms: C38_47  and  C39_48 
REMARK   10  A    between atoms: C39_48  and  O8_49 
ROOT
HETATM    1  C4  UNL     1      -1.883   4.920  11.831  1.00  0.00     0.165 C 
HETATM    2  C5  UNL     1      -3.001   4.456  12.425  1.00  0.00     0.053 C 
HETATM    3  C7  UNL     1      -3.891   5.436  13.048  1.00  0.00    -0.002 C 
HETATM    4  C8  UNL     1      -5.245   5.392  12.925  1.00  0.00    -0.066 C 
HETATM    5  C9  UNL     1      -6.046   4.263  12.315  1.00  0.00     0.042 C 
HETATM    6  C10 UNL     1      -6.799   3.535  13.420  1.00  0.00     0.083 C 
HETATM    7  C11 UNL     1      -7.318   4.455  14.514  1.00  0.00     0.136 C 
HETATM    8  O4  UNL     1      -7.779   3.961  15.549  1.00  0.00    -0.297 OA
HETATM    9  C12 UNL     1      -7.319   5.975  14.299  1.00  0.00     0.092 C 
HETATM   10  C21 UNL     1      -6.231   6.478  13.326  1.00  0.00     0.052 C 
HETATM   11  C22 UNL     1      -3.160   6.599  13.633  1.00  0.00     0.044 C 
HETATM   12  C23 UNL     1      -3.433   7.224  14.856  1.00  0.00     0.091 C 
HETATM   13  C25 UNL     1      -2.713   8.357  15.201  1.00  0.00     0.013 C 
HETATM   14  C26 UNL     1      -1.667   8.812  14.409  1.00  0.00     0.089 C 
HETATM   15  O6  UNL     1      -1.047   9.922  14.930  1.00  0.00    -0.341 OA
HETATM   16  C27 UNL     1      -2.000  10.419  15.894  1.00  0.00     0.168 C 
HETATM   17  C37 UNL     1      -2.831   9.224  16.397  1.00  0.00     0.080 C 
HETATM   18  C38 UNL     1      -1.282   8.170  13.246  1.00  0.00     0.034 C 
HETATM   19  C40 UNL     1      -2.028   7.033  12.893  1.00  0.00     0.101 C 
HETATM   20  O9  UNL     1      -1.573   6.285  11.815  1.00  0.00    -0.302 OA
ENDROOT
BRANCH   2  21
HETATM   21  C6  UNL     1      -3.164   2.996  12.608  1.00  0.00     0.273 C 
HETATM   22  O3  UNL     1      -3.816   2.306  11.831  1.00  0.00    -0.301 OA
ENDBRANCH   2  21
BRANCH   1  23
HETATM   23  C3  UNL     1      -0.894   3.996  11.212  1.00  0.00     0.318 C 
HETATM   24  O2  UNL     1      -0.967   2.776  11.230  1.00  0.00    -0.257 OA
BRANCH  23  25
HETATM   25  O1  UNL     1       0.104   4.726  10.656  1.00  0.00    -0.316 OA
BRANCH  25  26
HETATM   26  C2  UNL     1       1.322   4.763  11.409  1.00  0.00     0.175 C 
HETATM   27  C1  UNL     1       2.281   5.700  10.702  1.00  0.00     0.034 C 
ENDBRANCH  25  26
ENDBRANCH  23  25
ENDBRANCH   1  23
BRANCH  12  28
HETATM   28  O5  UNL     1      -4.400   6.779  15.713  1.00  0.00    -0.354 OA
HETATM   29  C24 UNL     1      -5.362   7.810  15.957  1.00  0.00     0.210 C 
ENDBRANCH  12  28
BRANCH   9  30
HETATM   30  C13 UNL     1      -8.701   6.505  13.926  1.00  0.00    -0.046 A 
HETATM   31  C14 UNL     1      -9.275   6.226  12.676  1.00  0.00     0.010 A 
HETATM   32  C15 UNL     1     -10.531   6.727  12.308  1.00  0.00     0.031 A 
HETATM   33  C16 UNL     1     -11.207   7.526  13.233  1.00  0.00     0.042 A 
HETATM   34  N1  UNL     1     -12.441   8.131  13.156  1.00  0.00    -0.365 N 
HETATM   35  C19 UNL     1     -10.674   7.835  14.486  1.00  0.00    -0.008 A 
HETATM   36  C17 UNL     1     -12.707   8.810  14.317  1.00  0.00     0.089 A 
HETATM   37  H14 UNL     1     -13.066   8.066  12.362  1.00  0.00     0.165 HD
HETATM   38  C18 UNL     1     -11.625   8.664  15.150  1.00  0.00     0.030 A 
HETATM   39  C20 UNL     1      -9.407   7.316  14.836  1.00  0.00     0.021 A 
ENDBRANCH   9  30
BRANCH  18  40
HETATM   40  C39 UNL     1      -0.131   8.657  12.419  1.00  0.00     0.208 C 
BRANCH  40  41
HETATM   41  O8  UNL     1      -0.563   8.829  11.072  1.00  0.00    -0.396 OA
HETATM   42  H42 UNL     1       0.197   9.174  10.581  1.00  0.00     0.209 HD
ENDBRANCH  40  41
ENDBRANCH  18  40
BRANCH  16  43
HETATM   43  C28 UNL     1      -1.352  11.285  17.014  1.00  0.00     0.092 C 
HETATM   44  C29 UNL     1      -0.084  12.059  16.537  1.00  0.00     0.067 C 
HETATM   45  C30 UNL     1      -0.293  13.469  16.059  1.00  0.00    -0.027 C 
HETATM   46  C31 UNL     1      -1.456  14.129  16.164  1.00  0.00    -0.024 C 
HETATM   47  C32 UNL     1      -2.678  13.515  16.784  1.00  0.00     0.043 C 
HETATM   48  C33 UNL     1      -3.475  14.541  17.612  1.00  0.00     0.278 C 
HETATM   49  C36 UNL     1      -2.332  12.301  17.683  1.00  0.00     0.034 C 
HETATM   50  N2  UNL     1      -4.726  13.959  18.115  1.00  0.00     0.084 N 
HETATM   51  C34 UNL     1      -4.482  12.775  18.943  1.00  0.00     0.270 C 
HETATM   52  H32 UNL     1      -5.218  14.659  18.669  1.00  0.00     0.315 HD
HETATM   53  C35 UNL     1      -3.658  11.711  18.206  1.00  0.00     0.038 C 
BRANCH  43  54
HETATM   54  O7  UNL     1      -0.901  10.372  18.042  1.00  0.00    -0.386 OA
HETATM   55  H24 UNL     1      -1.676   9.929  18.423  1.00  0.00     0.210 HD
ENDBRANCH  43  54
ENDBRANCH  16  43
TORSDOF 10
ENDMDL
MODEL 6
REMARK minimizedAffinity -7.15214205
REMARK CNNscore 0.340909541
REMARK CNNaffinity 6.70459795
REMARK  10 active torsions:
REMARK  status: ('A' for Active; 'I' for Inactive)
REMARK    1  A    between atoms: C2_2  and  O1_3 
REMARK    2  A    between atoms: O1_3  and  C3_4 
REMARK    3  A    between atoms: C3_4  and  C4_6 
REMARK    4  A    between atoms: C5_7  and  C6_8 
REMARK    5  A    between atoms: C12_16  and  C13_17 
REMARK    6  A    between atoms: C23_28  and  O5_29 
REMARK    7  A    between atoms: C27_34  and  C28_35 
REMARK    8  A    between atoms: C28_35  and  O7_36 
REMARK    9  A    between atoms: C38_47  and  C39_48 
REMARK   10  A    between atoms: C39_48  and  O8_49 
ROOT
HETATM    1  C4  UNL     1     -11.864  11.743  23.509  1.00  0.00     0.165 C 
HETATM    2  C5  UNL     1     -12.803  10.915  24.012  1.00  0.00     0.053 C 
HETATM    3  C7  UNL     1     -13.104   9.699  23.256  1.00  0.00    -0.002 C 
HETATM    4  C8  UNL     1     -13.276   8.484  23.843  1.00  0.00    -0.066 C 
HETATM    5  C9  UNL     1     -13.376   8.221  25.330  1.00  0.00     0.042 C 
HETATM    6  C10 UNL     1     -14.809   7.834  25.669  1.00  0.00     0.083 C 
HETATM    7  C11 UNL     1     -15.480   6.979  24.605  1.00  0.00     0.136 C 
HETATM    8  O4  UNL     1     -16.694   6.762  24.683  1.00  0.00    -0.297 OA
HETATM    9  C12 UNL     1     -14.638   6.352  23.485  1.00  0.00     0.092 C 
HETATM   10  C21 UNL     1     -13.354   7.137  23.141  1.00  0.00     0.052 C 
HETATM   11  C22 UNL     1     -12.981   9.884  21.779  1.00  0.00     0.044 C 
HETATM   12  C23 UNL     1     -13.844   9.376  20.802  1.00  0.00     0.091 C 
HETATM   13  C25 UNL     1     -13.524   9.563  19.466  1.00  0.00     0.013 C 
HETATM   14  C26 UNL     1     -12.428  10.329  19.091  1.00  0.00     0.089 C 
HETATM   15  O6  UNL     1     -12.292  10.436  17.728  1.00  0.00    -0.341 OA
HETATM   16  C27 UNL     1     -13.113   9.361  17.223  1.00  0.00     0.168 C 
HETATM   17  C37 UNL     1     -14.230   9.096  18.250  1.00  0.00     0.080 C 
HETATM   18  C38 UNL     1     -11.603  10.947  20.014  1.00  0.00     0.034 C 
HETATM   19  C40 UNL     1     -11.923  10.737  21.365  1.00  0.00     0.101 C 
HETATM   20  O9  UNL     1     -11.205  11.462  22.307  1.00  0.00    -0.302 OA
ENDROOT
BRANCH   2  21
HETATM   21  C6  UNL     1     -13.622  11.369  25.158  1.00  0.00     0.273 C 
HETATM   22  O3  UNL     1     -13.193  11.382  26.307  1.00  0.00    -0.301 OA
ENDBRANCH   2  21
BRANCH   1  23
HETATM   23  C3  UNL     1     -11.524  13.026  24.183  1.00  0.00     0.318 C 
HETATM   24  O2  UNL     1     -10.589  13.189  24.952  1.00  0.00    -0.257 OA
BRANCH  23  25
HETATM   25  O1  UNL     1     -12.434  13.966  23.824  1.00  0.00    -0.316 OA
BRANCH  25  26
HETATM   26  C2  UNL     1     -12.031  14.821  22.748  1.00  0.00     0.175 C 
HETATM   27  C1  UNL     1     -11.308  16.013  23.342  1.00  0.00     0.034 C 
ENDBRANCH  25  26
ENDBRANCH  23  25
ENDBRANCH   1  23
BRANCH  12  28
HETATM   28  O5  UNL     1     -14.978   8.677  21.109  1.00  0.00    -0.354 OA
HETATM   29  C24 UNL     1     -15.093   7.520  20.273  1.00  0.00     0.210 C 
ENDBRANCH  12  28
BRANCH   9  30
HETATM   30  C13 UNL     1     -14.348   4.876  23.739  1.00  0.00    -0.046 A 
HETATM   31  C14 UNL     1     -15.380   3.926  23.780  1.00  0.00     0.010 A 
HETATM   32  C15 UNL     1     -15.131   2.571  24.038  1.00  0.00     0.031 A 
HETATM   33  C16 UNL     1     -13.807   2.185  24.260  1.00  0.00     0.042 A 
HETATM   34  N1  UNL     1     -13.271   0.943  24.516  1.00  0.00    -0.365 N 
HETATM   35  C19 UNL     1     -12.749   3.094  24.235  1.00  0.00    -0.008 A 
HETATM   36  C17 UNL     1     -11.910   1.035  24.652  1.00  0.00     0.089 A 
HETATM   37  H14 UNL     1     -13.806   0.086  24.575  1.00  0.00     0.165 HD
HETATM   38  C18 UNL     1     -11.559   2.355  24.505  1.00  0.00     0.030 A 
HETATM   39  C20 UNL     1     -13.023   4.454  23.969  1.00  0.00     0.021 A 
ENDBRANCH   9  30
BRANCH  18  40
HETATM   40  C39 UNL     1     -10.442  11.795  19.592  1.00  0.00     0.208 C 
BRANCH  40  41
HETATM   41  O8  UNL     1     -10.663  13.137  20.019  1.00  0.00    -0.396 OA
HETATM   42  H42 UNL     1      -9.879  13.641  19.757  1.00  0.00     0.209 HD
ENDBRANCH  40  41
ENDBRANCH  18  40
BRANCH  16  43
HETATM   43  C28 UNL     1     -13.605   9.592  15.765  1.00  0.00     0.092 C 
HETATM   44  C29 UNL     1     -13.205  10.989  15.194  1.00  0.00     0.067 C 
HETATM   45  C30 UNL     1     -11.932  11.054  14.398  1.00  0.00    -0.027 C 
HETATM   46  C31 UNL     1     -11.223   9.976  14.033  1.00  0.00    -0.024 C 
HETATM   47  C32 UNL     1     -11.643   8.577  14.384  1.00  0.00     0.043 C 
HETATM   48  C33 UNL     1     -11.352   7.589  13.238  1.00  0.00     0.278 C 
HETATM   49  C36 UNL     1     -13.145   8.492  14.753  1.00  0.00     0.034 C 
HETATM   50  N2  UNL     1     -11.659   6.209  13.638  1.00  0.00     0.084 N 
HETATM   51  C34 UNL     1     -13.058   6.059  14.044  1.00  0.00     0.270 C 
HETATM   52  H32 UNL     1     -11.469   5.587  12.853  1.00  0.00     0.315 HD
HETATM   53  C35 UNL     1     -13.448   7.036  15.162  1.00  0.00     0.038 C 
BRANCH  43  54
HETATM   54  O7  UNL     1     -15.052   9.573  15.801  1.00  0.00    -0.386 OA
HETATM   55  H24 UNL     1     -15.342   8.688  16.073  1.00  0.00     0.210 HD
ENDBRANCH  43  54
ENDBRANCH  16  43
TORSDOF 10
ENDMDL
MODEL 7
REMARK minimizedAffinity -8.07081985
REMARK CNNscore 0.323156714
REMARK CNNaffinity 6.96468496
REMARK  10 active torsions:
REMARK  status: ('A' for Active; 'I' for Inactive)
REMARK    1  A    between atoms: C2_2  and  O1_3 
REMARK    2  A    between atoms: O1_3  and  C3_4 
REMARK    3  A    between atoms: C3_4  and  C4_6 
REMARK    4  A    between atoms: C5_7  and  C6_8 
REMARK    5  A    between atoms: C12_16  and  C13_17 
REMARK    6  A    between atoms: C23_28  and  O5_29 
REMARK    7  A    between atoms: C27_34  and  C28_35 
REMARK    8  A    between atoms: C28_35  and  O7_36 
REMARK    9  A    between atoms: C38_47  and  C39_48 
REMARK   10  A    between atoms: C39_48  and  O8_49 
ROOT
HETATM    1  C4  UNL     1       0.367  12.543  17.747  1.00  0.00     0.165 C 
HETATM    2  C5  UNL     1      -0.622  13.422  18.005  1.00  0.00     0.053 C 
HETATM    3  C7  UNL     1      -1.983  12.894  18.113  1.00  0.00    -0.002 C 
HETATM    4  C8  UNL     1      -2.857  13.288  19.078  1.00  0.00    -0.066 C 
HETATM    5  C9  UNL     1      -2.657  14.434  20.045  1.00  0.00     0.042 C 
HETATM    6  C10 UNL     1      -3.601  15.568  19.674  1.00  0.00     0.083 C 
HETATM    7  C11 UNL     1      -4.960  15.096  19.181  1.00  0.00     0.136 C 
HETATM    8  O4  UNL     1      -5.738  15.914  18.679  1.00  0.00    -0.297 OA
HETATM    9  C12 UNL     1      -5.373  13.629  19.366  1.00  0.00     0.092 C 
HETATM   10  C21 UNL     1      -4.189  12.638  19.418  1.00  0.00     0.052 C 
HETATM   11  C22 UNL     1      -2.230  11.730  17.210  1.00  0.00     0.044 C 
HETATM   12  C23 UNL     1      -3.386  11.493  16.457  1.00  0.00     0.091 C 
HETATM   13  C25 UNL     1      -3.487  10.308  15.744  1.00  0.00     0.013 C 
HETATM   14  C26 UNL     1      -2.425   9.415  15.684  1.00  0.00     0.089 C 
HETATM   15  O6  UNL     1      -2.693   8.319  14.901  1.00  0.00    -0.341 OA
HETATM   16  C27 UNL     1      -4.132   8.334  14.781  1.00  0.00     0.168 C 
HETATM   17  C37 UNL     1      -4.602   9.795  14.916  1.00  0.00     0.080 C 
HETATM   18  C38 UNL     1      -1.218   9.650  16.319  1.00  0.00     0.034 C 
HETATM   19  C40 UNL     1      -1.131  10.844  17.054  1.00  0.00     0.101 C 
HETATM   20  O9  UNL     1       0.111  11.177  17.577  1.00  0.00    -0.302 OA
ENDROOT
BRANCH   2  21
HETATM   21  C6  UNL     1      -0.328  14.871  17.952  1.00  0.00     0.273 C 
HETATM   22  O3  UNL     1       0.176  15.474  18.893  1.00  0.00    -0.301 OA
ENDBRANCH   2  21
BRANCH   1  23
HETATM   23  C3  UNL     1       1.776  12.993  17.573  1.00  0.00     0.318 C 
HETATM   24  O2  UNL     1       2.261  13.392  16.525  1.00  0.00    -0.257 OA
BRANCH  23  25
HETATM   25  O1  UNL     1       2.429  12.860  18.754  1.00  0.00    -0.316 OA
BRANCH  25  26
HETATM   26  C2  UNL     1       3.360  13.906  19.055  1.00  0.00     0.175 C 
HETATM   27  C1  UNL     1       4.081  13.539  20.337  1.00  0.00     0.034 C 
ENDBRANCH  25  26
ENDBRANCH  23  25
ENDBRANCH   1  23
BRANCH  12  28
HETATM   28  O5  UNL     1      -4.434  12.369  16.417  1.00  0.00    -0.354 OA
HETATM   29  C24 UNL     1      -4.175  13.413  15.471  1.00  0.00     0.210 C 
ENDBRANCH  12  28
BRANCH   9  30
HETATM   30  C13 UNL     1      -6.321  13.440  20.547  1.00  0.00    -0.046 A 
HETATM   31  C14 UNL     1      -5.837  13.333  21.860  1.00  0.00     0.010 A 
HETATM   32  C15 UNL     1      -6.693  13.134  22.952  1.00  0.00     0.031 A 
HETATM   33  C16 UNL     1      -8.062  13.039  22.694  1.00  0.00     0.042 A 
HETATM   34  N1  UNL     1      -9.122  12.864  23.555  1.00  0.00    -0.365 N 
HETATM   35  C19 UNL     1      -8.589  13.133  21.406  1.00  0.00    -0.008 A 
HETATM   36  C17 UNL     1     -10.301  12.846  22.856  1.00  0.00     0.089 A 
HETATM   37  H14 UNL     1      -9.039  12.780  24.561  1.00  0.00     0.165 HD
HETATM   38  C18 UNL     1     -10.003  12.989  21.523  1.00  0.00     0.030 A 
HETATM   39  C20 UNL     1      -7.708  13.338  20.320  1.00  0.00     0.021 A 
ENDBRANCH   9  30
BRANCH  18  40
HETATM   40  C39 UNL     1      -0.073   8.690  16.219  1.00  0.00     0.208 C 
BRANCH  40  41
HETATM   41  O8  UNL     1      -0.570   7.358  16.312  1.00  0.00    -0.396 OA
HETATM   42  H42 UNL     1       0.195   6.771  16.210  1.00  0.00     0.209 HD
ENDBRANCH  40  41
ENDBRANCH  18  40
BRANCH  16  43
HETATM   43  C28 UNL     1      -4.656   7.590  13.519  1.00  0.00     0.092 C 
HETATM   44  C29 UNL     1      -3.600   6.630  12.887  1.00  0.00     0.067 C 
HETATM   45  C30 UNL     1      -3.650   5.192  13.320  1.00  0.00    -0.027 C 
HETATM   46  C31 UNL     1      -4.625   4.674  14.081  1.00  0.00    -0.024 C 
HETATM   47  C32 UNL     1      -5.783   5.493  14.576  1.00  0.00     0.043 C 
HETATM   48  C33 UNL     1      -7.097   4.689  14.566  1.00  0.00     0.278 C 
HETATM   49  C36 UNL     1      -5.978   6.790  13.751  1.00  0.00     0.034 C 
HETATM   50  N2  UNL     1      -8.195   5.462  15.161  1.00  0.00     0.084 N 
HETATM   51  C34 UNL     1      -8.413   6.729  14.457  1.00  0.00     0.270 C 
HETATM   52  H32 UNL     1      -9.049   4.907  15.124  1.00  0.00     0.315 HD
HETATM   53  C35 UNL     1      -7.139   7.582  14.387  1.00  0.00     0.038 C 
BRANCH  43  54
HETATM   54  O7  UNL     1      -4.927   8.601  12.519  1.00  0.00    -0.386 OA
HETATM   55  H24 UNL     1      -5.643   9.171  12.843  1.00  0.00     0.210 HD
ENDBRANCH  43  54
ENDBRANCH  16  43
TORSDOF 10
ENDMDL
MODEL 8
REMARK minimizedAffinity -9.08909988
REMARK CNNscore 0.282406747
REMARK CNNaffinity 7.83272696
REMARK  10 active torsions:
REMARK  status: ('A' for Active; 'I' for Inactive)
REMARK    1  A    between atoms: C2_2  and  O1_3 
REMARK    2  A    between atoms: O1_3  and  C3_4 
REMARK    3  A    between atoms: C3_4  and  C4_6 
REMARK    4  A    between atoms: C5_7  and  C6_8 
REMARK    5  A    between atoms: C12_16  and  C13_17 
REMARK    6  A    between atoms: C23_28  and  O5_29 
REMARK    7  A    between atoms: C27_34  and  C28_35 
REMARK    8  A    between atoms: C28_35  and  O7_36 
REMARK    9  A    between atoms: C38_47  and  C39_48 
REMARK   10  A    between atoms: C39_48  and  O8_49 
ROOT
HETATM    1  C4  UNL     1      -2.060   5.236  11.848  1.00  0.00     0.165 C 
HETATM    2  C5  UNL     1      -3.122   4.944  12.626  1.00  0.00     0.053 C 
HETATM    3  C7  UNL     1      -3.812   6.061  13.272  1.00  0.00    -0.002 C 
HETATM    4  C8  UNL     1      -5.168   6.159  13.337  1.00  0.00    -0.066 C 
HETATM    5  C9  UNL     1      -6.156   5.082  12.944  1.00  0.00     0.042 C 
HETATM    6  C10 UNL     1      -6.811   4.529  14.201  1.00  0.00     0.083 C 
HETATM    7  C11 UNL     1      -7.074   5.580  15.268  1.00  0.00     0.136 C 
HETATM    8  O4  UNL     1      -7.429   5.220  16.396  1.00  0.00    -0.297 OA
HETATM    9  C12 UNL     1      -6.955   7.070  14.919  1.00  0.00     0.092 C 
HETATM   10  C21 UNL     1      -5.972   7.375  13.767  1.00  0.00     0.052 C 
HETATM   11  C22 UNL     1      -2.892   7.177  13.646  1.00  0.00     0.044 C 
HETATM   12  C23 UNL     1      -2.924   7.918  14.833  1.00  0.00     0.091 C 
HETATM   13  C25 UNL     1      -2.054   8.988  14.976  1.00  0.00     0.013 C 
HETATM   14  C26 UNL     1      -1.092   9.263  14.012  1.00  0.00     0.089 C 
HETATM   15  O6  UNL     1      -0.296  10.333  14.343  1.00  0.00    -0.341 OA
HETATM   16  C27 UNL     1      -1.047  11.004  15.377  1.00  0.00     0.168 C 
HETATM   17  C37 UNL     1      -1.913   9.950  16.093  1.00  0.00     0.080 C 
HETATM   18  C38 UNL     1      -0.943   8.496  12.870  1.00  0.00     0.034 C 
HETATM   19  C40 UNL     1      -1.841   7.426  12.725  1.00  0.00     0.101 C 
HETATM   20  O9  UNL     1      -1.621   6.553  11.668  1.00  0.00    -0.302 OA
ENDROOT
BRANCH   2  21
HETATM   21  C6  UNL     1      -3.402   3.530  12.960  1.00  0.00     0.273 C 
HETATM   22  O3  UNL     1      -4.224   2.860  12.343  1.00  0.00    -0.301 OA
ENDBRANCH   2  21
BRANCH   1  23
HETATM   23  C3  UNL     1      -1.267   4.163  11.187  1.00  0.00     0.318 C 
HETATM   24  O2  UNL     1      -1.577   2.982  11.152  1.00  0.00    -0.257 OA
BRANCH  23  25
HETATM   25  O1  UNL     1      -0.142   4.708  10.661  1.00  0.00    -0.316 OA
BRANCH  25  26
HETATM   26  C2  UNL     1       1.062   4.436  11.388  1.00  0.00     0.175 C 
HETATM   27  C1  UNL     1       1.896   5.702  11.405  1.00  0.00     0.034 C 
ENDBRANCH  25  26
ENDBRANCH  23  25
ENDBRANCH   1  23
BRANCH  12  28
HETATM   28  O5  UNL     1      -3.798   7.649  15.849  1.00  0.00    -0.354 OA
HETATM   29  C24 UNL     1      -4.497   8.838  16.233  1.00  0.00     0.210 C 
ENDBRANCH  12  28
BRANCH   9  30
HETATM   30  C13 UNL     1      -8.316   7.720  14.688  1.00  0.00    -0.046 A 
HETATM   31  C14 UNL     1      -8.601   9.007  15.169  1.00  0.00     0.010 A 
HETATM   32  C15 UNL     1      -9.854   9.607  14.987  1.00  0.00     0.031 A 
HETATM   33  C16 UNL     1     -10.830   8.876  14.306  1.00  0.00     0.042 A 
HETATM   34  N1  UNL     1     -12.123   9.210  13.972  1.00  0.00    -0.365 N 
HETATM   35  C19 UNL     1     -10.597   7.591  13.816  1.00  0.00    -0.008 A 
HETATM   36  C17 UNL     1     -12.714   8.181  13.286  1.00  0.00     0.089 A 
HETATM   37  H14 UNL     1     -12.563  10.096  14.187  1.00  0.00     0.165 HD
HETATM   38  C18 UNL     1     -11.803   7.157  13.191  1.00  0.00     0.030 A 
HETATM   39  C20 UNL     1      -9.324   7.007  14.007  1.00  0.00     0.021 A 
ENDBRANCH   9  30
BRANCH  18  40
HETATM   40  C39 UNL     1       0.120   8.789  11.856  1.00  0.00     0.208 C 
BRANCH  40  41
HETATM   41  O8  UNL     1       1.300   9.224  12.526  1.00  0.00    -0.396 OA
HETATM   42  H42 UNL     1       1.968   9.369  11.840  1.00  0.00     0.209 HD
ENDBRANCH  40  41
ENDBRANCH  18  40
BRANCH  16  43
HETATM   43  C28 UNL     1      -0.163  11.874  16.317  1.00  0.00     0.092 C 
HETATM   44  C29 UNL     1       0.706  11.029  17.301  1.00  0.00     0.067 C 
HETATM   45  C30 UNL     1       2.108  10.711  16.862  1.00  0.00    -0.027 C 
HETATM   46  C31 UNL     1       2.685  11.231  15.768  1.00  0.00    -0.024 C 
HETATM   47  C32 UNL     1       1.976  12.202  14.867  1.00  0.00     0.043 C 
HETATM   48  C33 UNL     1       2.929  13.294  14.343  1.00  0.00     0.278 C 
HETATM   49  C36 UNL     1       0.771  12.879  15.567  1.00  0.00     0.034 C 
HETATM   50  N2  UNL     1       2.253  14.166  13.373  1.00  0.00     0.084 N 
HETATM   51  C34 UNL     1       1.072  14.810  13.952  1.00  0.00     0.270 C 
HETATM   52  H32 UNL     1       2.906  14.882  13.060  1.00  0.00     0.315 HD
HETATM   53  C35 UNL     1       0.081  13.794  14.535  1.00  0.00     0.038 C 
BRANCH  43  54
HETATM   54  O7  UNL     1      -1.064  12.649  17.143  1.00  0.00    -0.386 OA
HETATM   55  H24 UNL     1      -1.566  13.251  16.570  1.00  0.00     0.210 HD
ENDBRANCH  43  54
ENDBRANCH  16  43
TORSDOF 10
ENDMDL
MODEL 9
REMARK minimizedAffinity -9.80942535
REMARK CNNscore 0.245324522
REMARK CNNaffinity 7.62991476
REMARK  10 active torsions:
REMARK  status: ('A' for Active; 'I' for Inactive)
REMARK    1  A    between atoms: C2_2  and  O1_3 
REMARK    2  A    between atoms: O1_3  and  C3_4 
REMARK    3  A    between atoms: C3_4  and  C4_6 
REMARK    4  A    between atoms: C5_7  and  C6_8 
REMARK    5  A    between atoms: C12_16  and  C13_17 
REMARK    6  A    between atoms: C23_28  and  O5_29 
REMARK    7  A    between atoms: C27_34  and  C28_35 
REMARK    8  A    between atoms: C28_35  and  O7_36 
REMARK    9  A    between atoms: C38_47  and  C39_48 
REMARK   10  A    between atoms: C39_48  and  O8_49 
ROOT
HETATM    1  C4  UNL     1       2.263   7.337   9.687  1.00  0.00     0.165 C 
HETATM    2  C5  UNL     1       1.272   7.098  10.568  1.00  0.00     0.053 C 
HETATM    3  C7  UNL     1       1.342   7.776  11.863  1.00  0.00    -0.002 C 
HETATM    4  C8  UNL     1       0.262   8.347  12.461  1.00  0.00    -0.066 C 
HETATM    5  C9  UNL     1      -1.176   8.219  12.009  1.00  0.00     0.042 C 
HETATM    6  C10 UNL     1      -1.933   7.351  13.003  1.00  0.00     0.083 C 
HETATM    7  C11 UNL     1      -1.510   7.563  14.448  1.00  0.00     0.136 C 
HETATM    8  O4  UNL     1      -1.920   6.787  15.318  1.00  0.00    -0.297 OA
HETATM    9  C12 UNL     1      -0.631   8.766  14.818  1.00  0.00     0.092 C 
HETATM   10  C21 UNL     1       0.273   9.268  13.671  1.00  0.00     0.052 C 
HETATM   11  C22 UNL     1       2.742   7.969  12.345  1.00  0.00     0.044 C 
HETATM   12  C23 UNL     1       3.202   7.801  13.656  1.00  0.00     0.091 C 
HETATM   13  C25 UNL     1       4.519   8.120  13.948  1.00  0.00     0.013 C 
HETATM   14  C26 UNL     1       5.404   8.497  12.946  1.00  0.00     0.089 C 
HETATM   15  O6  UNL     1       6.673   8.734  13.417  1.00  0.00    -0.341 OA
HETATM   16  C27 UNL     1       6.480   8.894  14.839  1.00  0.00     0.168 C 
HETATM   17  C37 UNL     1       5.237   8.078  15.243  1.00  0.00     0.080 C 
HETATM   18  C38 UNL     1       5.033   8.573  11.616  1.00  0.00     0.034 C 
HETATM   19  C40 UNL     1       3.692   8.268  11.332  1.00  0.00     0.101 C 
HETATM   20  O9  UNL     1       3.328   8.192   9.994  1.00  0.00    -0.302 OA
ENDROOT
BRANCH   2  21
HETATM   21  C6  UNL     1       0.298   6.021  10.280  1.00  0.00     0.273 C 
HETATM   22  O3  UNL     1       0.271   4.973  10.918  1.00  0.00    -0.301 OA
ENDBRANCH   2  21
BRANCH   1  23
HETATM   23  C3  UNL     1       2.302   6.658   8.362  1.00  0.00     0.318 C 
HETATM   24  O2  UNL     1       2.082   7.199   7.289  1.00  0.00    -0.257 OA
BRANCH  23  25
HETATM   25  O1  UNL     1       2.594   5.347   8.550  1.00  0.00    -0.316 OA
BRANCH  25  26
HETATM   26  C2  UNL     1       3.790   5.091   9.295  1.00  0.00     0.175 C 
HETATM   27  C1  UNL     1       4.211   3.659   9.031  1.00  0.00     0.034 C 
ENDBRANCH  25  26
ENDBRANCH  23  25
ENDBRANCH   1  23
BRANCH  12  28
HETATM   28  O5  UNL     1       2.397   7.362  14.670  1.00  0.00    -0.354 OA
HETATM   29  C24 UNL     1       2.624   8.132  15.856  1.00  0.00     0.210 C 
ENDBRANCH  12  28
BRANCH   9  30
HETATM   30  C13 UNL     1      -1.440   9.903  15.438  1.00  0.00    -0.046 A 
HETATM   31  C14 UNL     1      -1.728  11.071  14.717  1.00  0.00     0.010 A 
HETATM   32  C15 UNL     1      -2.447  12.133  15.281  1.00  0.00     0.031 A 
HETATM   33  C16 UNL     1      -2.874  11.997  16.604  1.00  0.00     0.042 A 
HETATM   34  N1  UNL     1      -3.600  12.855  17.400  1.00  0.00    -0.365 N 
HETATM   35  C19 UNL     1      -2.606  10.858  17.363  1.00  0.00    -0.008 A 
HETATM   36  C17 UNL     1      -3.802  12.295  18.635  1.00  0.00     0.089 A 
HETATM   37  H14 UNL     1      -3.948  13.758  17.105  1.00  0.00     0.165 HD
HETATM   38  C18 UNL     1      -3.182  11.070  18.651  1.00  0.00     0.030 A 
HETATM   39  C20 UNL     1      -1.883   9.797  16.772  1.00  0.00     0.021 A 
ENDBRANCH   9  30
BRANCH  18  40
HETATM   40  C39 UNL     1       6.009   8.953  10.544  1.00  0.00     0.208 C 
BRANCH  40  41
HETATM   41  O8  UNL     1       7.120   8.061  10.586  1.00  0.00    -0.396 OA
HETATM   42  H42 UNL     1       7.707   8.320   9.860  1.00  0.00     0.209 HD
ENDBRANCH  40  41
ENDBRANCH  18  40
BRANCH  16  43
HETATM   43  C28 UNL     1       7.759   8.596  15.674  1.00  0.00     0.092 C 
HETATM   44  C29 UNL     1       8.708   7.557  14.998  1.00  0.00     0.067 C 
HETATM   45  C30 UNL     1       9.819   8.109  14.149  1.00  0.00    -0.027 C 
HETATM   46  C31 UNL     1      10.123   9.413  14.071  1.00  0.00    -0.024 C 
HETATM   47  C32 UNL     1       9.374  10.463  14.842  1.00  0.00     0.043 C 
HETATM   48  C33 UNL     1      10.312  11.572  15.357  1.00  0.00     0.278 C 
HETATM   49  C36 UNL     1       8.594   9.866  16.040  1.00  0.00     0.034 C 
HETATM   50  N2  UNL     1       9.553  12.649  16.005  1.00  0.00     0.084 N 
HETATM   51  C34 UNL     1       8.752  12.152  17.127  1.00  0.00     0.270 C 
HETATM   52  H32 UNL     1      10.204  13.355  16.345  1.00  0.00     0.315 HD
HETATM   53  C35 UNL     1       7.811  11.014  16.710  1.00  0.00     0.038 C 
BRANCH  43  54
HETATM   54  O7  UNL     1       7.321   7.991  16.913  1.00  0.00    -0.386 OA
HETATM   55  H24 UNL     1       6.794   8.641  17.405  1.00  0.00     0.210 HD
ENDBRANCH  43  54
ENDBRANCH  16  43
TORSDOF 10
ENDMDL
