MODEL 1
REMARK minimizedAffinity -9.64344406
REMARK  7 active torsions:
REMARK  status: ('A' for Active; 'I' for Inactive)
REMARK    1  A    between atoms: C2_2  and  C4_4 
REMARK    2  A    between atoms: C7_7  and  O1_9 
REMARK    3  A    between atoms: C9_10  and  C10_11 
REMARK    4  A    between atoms: C11_12  and  C12_13 
REMARK    5  A    between atoms: C14_15  and  C15_16 
REMARK    6  A    between atoms: C24_26  and  C26_28 
REMARK    7  A    between atoms: C29_32  and  O4_34 
ROOT
HETATM    1  C15 UNL     1      -0.243   7.674  13.240  1.00  0.00     0.149 C 
HETATM    2  C16 UNL     1       1.077   6.897  13.295  1.00  0.00     0.054 C 
HETATM    3  C17 UNL     1       2.046   7.623  12.327  1.00  0.00     0.050 C 
HETATM    4  C18 UNL     1       1.398   9.031  12.360  1.00  0.00     0.272 C 
HETATM    5  O2  UNL     1       1.709   9.798  13.521  1.00  0.00    -0.360 OA
HETATM    6  C19 UNL     1       2.888  10.570  13.397  1.00  0.00     0.171 C 
HETATM    7  C20 UNL     1       4.091   9.818  13.937  1.00  0.00     0.027 C 
HETATM    8  C21 UNL     1       3.886   8.315  14.112  1.00  0.00     0.012 C 
HETATM    9  C22 UNL     1       3.536   7.512  12.839  1.00  0.00     0.032 C 
HETATM   10  C23 UNL     1       4.600   7.707  11.735  1.00  0.00    -0.066 C 
HETATM   11  C24 UNL     1       5.861   7.207  11.778  1.00  0.00    -0.021 C 
HETATM   12  C25 UNL     1       6.902   7.425  10.715  1.00  0.00     0.052 C 
HETATM   13  C27 UNL     1       4.101   8.478  10.537  1.00  0.00     0.038 C 
HETATM   14  C28 UNL     1       2.883   7.823   9.892  1.00  0.00     0.042 C 
HETATM   15  C29 UNL     1       1.989   7.011  10.861  1.00  0.00     0.067 C 
HETATM   16  C30 UNL     1       2.383   5.517  10.795  1.00  0.00     0.047 C 
HETATM   17  O5  UNL     1      -0.019   8.813  12.407  1.00  0.00    -0.351 OA
ENDROOT
BRANCH   1  18
HETATM   18  C14 UNL     1      -1.396   6.887  12.684  1.00  0.00     0.011 C 
HETATM   19  C12 UNL     1      -2.156   5.963  13.311  1.00  0.00    -0.064 C 
HETATM   20  C13 UNL     1      -1.985   5.593  14.763  1.00  0.00     0.048 C 
BRANCH  19  21
HETATM   21  C11 UNL     1      -3.224   5.313  12.554  1.00  0.00     0.003 C 
HETATM   22  C10 UNL     1      -4.161   4.483  13.045  1.00  0.00    -0.018 C 
BRANCH  22  23
HETATM   23  C9  UNL     1      -5.288   3.826  12.273  1.00  0.00     0.050 C 
HETATM   24  C4  UNL     1      -6.552   3.357  13.063  1.00  0.00     0.024 C 
HETATM   25  C5  UNL     1      -7.124   2.260  12.150  1.00  0.00     0.013 C 
HETATM   26  C6  UNL     1      -5.888   1.489  11.714  1.00  0.00     0.039 C 
HETATM   27  C7  UNL     1      -4.848   2.582  11.423  1.00  0.00     0.062 C 
HETATM   28  C8  UNL     1      -3.437   2.045  11.662  1.00  0.00     0.046 C 
BRANCH  24  29
HETATM   29  C2  UNL     1      -7.532   4.469  13.439  1.00  0.00    -0.088 C 
HETATM   30  C1  UNL     1      -8.451   4.994  12.608  1.00  0.00     0.014 C 
HETATM   31  C3  UNL     1      -7.472   4.958  14.866  1.00  0.00     0.043 C 
ENDBRANCH  24  29
BRANCH  27  32
HETATM   32  O1  UNL     1      -4.912   2.922  10.029  1.00  0.00    -0.390 OA
HETATM   33  H14 UNL     1      -5.825   3.182   9.818  1.00  0.00     0.210 HD
ENDBRANCH  27  32
ENDBRANCH  22  23
ENDBRANCH  19  21
ENDBRANCH   1  18
BRANCH  15  34
HETATM   34  O4  UNL     1       0.663   7.061  10.325  1.00  0.00    -0.389 OA
HETATM   35  H44 UNL     1       0.681   6.750   9.404  1.00  0.00     0.210 HD
ENDBRANCH  15  34
BRANCH  11  36
HETATM   36  C26 UNL     1       6.361   6.375  12.917  1.00  0.00     0.265 C 
HETATM   37  O3  UNL     1       6.824   6.836  13.951  1.00  0.00    -0.302 OA
ENDBRANCH  11  36
TORSDOF 7
ENDMDL
MODEL 2
REMARK minimizedAffinity -9.27616405
REMARK  7 active torsions:
REMARK  status: ('A' for Active; 'I' for Inactive)
REMARK    1  A    between atoms: C2_2  and  C4_4 
REMARK    2  A    between atoms: C7_7  and  O1_9 
REMARK    3  A    between atoms: C9_10  and  C10_11 
REMARK    4  A    between atoms: C11_12  and  C12_13 
REMARK    5  A    between atoms: C14_15  and  C15_16 
REMARK    6  A    between atoms: C24_26  and  C26_28 
REMARK    7  A    between atoms: C29_32  and  O4_34 
ROOT
HETATM    1  C15 UNL     1      -1.501   8.547  14.152  1.00  0.00     0.149 C 
HETATM    2  C16 UNL     1      -1.861  10.025  14.347  1.00  0.00     0.054 C 
HETATM    3  C17 UNL     1      -1.817  10.283  15.875  1.00  0.00     0.050 C 
HETATM    4  C18 UNL     1      -0.835   9.151  16.275  1.00  0.00     0.272 C 
HETATM    5  O2  UNL     1       0.536   9.437  16.011  1.00  0.00    -0.360 OA
HETATM    6  C19 UNL     1       1.195  10.101  17.073  1.00  0.00     0.171 C 
HETATM    7  C20 UNL     1       1.153  11.607  16.884  1.00  0.00     0.027 C 
HETATM    8  C21 UNL     1       0.119  12.101  15.876  1.00  0.00     0.012 C 
HETATM    9  C22 UNL     1      -1.358  11.763  16.179  1.00  0.00     0.032 C 
HETATM   10  C23 UNL     1      -1.784  12.284  17.570  1.00  0.00    -0.066 C 
HETATM   11  C24 UNL     1      -1.954  13.593  17.889  1.00  0.00    -0.021 C 
HETATM   12  C25 UNL     1      -2.341  14.095  19.253  1.00  0.00     0.052 C 
HETATM   13  C27 UNL     1      -2.060  11.189  18.572  1.00  0.00     0.038 C 
HETATM   14  C28 UNL     1      -3.138  10.222  18.092  1.00  0.00     0.042 C 
HETATM   15  C29 UNL     1      -3.236  10.064  16.555  1.00  0.00     0.067 C 
HETATM   16  C30 UNL     1      -4.338  11.003  16.011  1.00  0.00     0.047 C 
HETATM   17  O5  UNL     1      -1.164   8.030  15.441  1.00  0.00    -0.351 OA
ENDROOT
BRANCH   1  18
HETATM   18  C14 UNL     1      -2.610   7.716  13.572  1.00  0.00     0.011 C 
HETATM   19  C12 UNL     1      -2.758   6.374  13.615  1.00  0.00    -0.064 C 
HETATM   20  C13 UNL     1      -1.802   5.455  14.332  1.00  0.00     0.048 C 
BRANCH  19  21
HETATM   21  C11 UNL     1      -3.925   5.783  12.962  1.00  0.00     0.003 C 
HETATM   22  C10 UNL     1      -4.261   4.482  12.952  1.00  0.00    -0.018 C 
BRANCH  22  23
HETATM   23  C9  UNL     1      -5.483   3.864  12.301  1.00  0.00     0.050 C 
HETATM   24  C4  UNL     1      -6.697   3.489  13.210  1.00  0.00     0.024 C 
HETATM   25  C5  UNL     1      -7.401   2.397  12.388  1.00  0.00     0.013 C 
HETATM   26  C6  UNL     1      -6.249   1.548  11.876  1.00  0.00     0.039 C 
HETATM   27  C7  UNL     1      -5.182   2.572  11.461  1.00  0.00     0.062 C 
HETATM   28  C8  UNL     1      -3.786   1.967  11.598  1.00  0.00     0.046 C 
BRANCH  24  29
HETATM   29  C2  UNL     1      -7.582   4.664  13.629  1.00  0.00    -0.088 C 
HETATM   30  C1  UNL     1      -8.516   5.236  12.846  1.00  0.00     0.014 C 
HETATM   31  C3  UNL     1      -7.407   5.163  15.042  1.00  0.00     0.043 C 
ENDBRANCH  24  29
BRANCH  27  32
HETATM   32  O1  UNL     1      -5.349   2.874  10.066  1.00  0.00    -0.390 OA
HETATM   33  H14 UNL     1      -6.262   3.176   9.923  1.00  0.00     0.210 HD
ENDBRANCH  27  32
ENDBRANCH  22  23
ENDBRANCH  19  21
ENDBRANCH   1  18
BRANCH  15  34
HETATM   34  O4  UNL     1      -3.733   8.744  16.315  1.00  0.00    -0.389 OA
HETATM   35  H44 UNL     1      -4.562   8.622  16.808  1.00  0.00     0.210 HD
ENDBRANCH  15  34
BRANCH  11  36
HETATM   36  C26 UNL     1      -1.763  14.696  16.897  1.00  0.00     0.265 C 
HETATM   37  O3  UNL     1      -2.607  15.038  16.081  1.00  0.00    -0.302 OA
ENDBRANCH  11  36
TORSDOF 7
ENDMDL
MODEL 3
REMARK minimizedAffinity -9.21618748
REMARK  7 active torsions:
REMARK  status: ('A' for Active; 'I' for Inactive)
REMARK    1  A    between atoms: C2_2  and  C4_4 
REMARK    2  A    between atoms: C7_7  and  O1_9 
REMARK    3  A    between atoms: C9_10  and  C10_11 
REMARK    4  A    between atoms: C11_12  and  C12_13 
REMARK    5  A    between atoms: C14_15  and  C15_16 
REMARK    6  A    between atoms: C24_26  and  C26_28 
REMARK    7  A    between atoms: C29_32  and  O4_34 
ROOT
HETATM    1  C15 UNL     1      -0.876   6.989  15.051  1.00  0.00     0.149 C 
HETATM    2  C16 UNL     1       0.101   6.269  14.114  1.00  0.00     0.054 C 
HETATM    3  C17 UNL     1       0.523   7.310  13.046  1.00  0.00     0.050 C 
HETATM    4  C18 UNL     1       0.266   8.602  13.865  1.00  0.00     0.272 C 
HETATM    5  O2  UNL     1       1.282   8.910  14.817  1.00  0.00    -0.360 OA
HETATM    6  C19 UNL     1       2.335   9.697  14.294  1.00  0.00     0.171 C 
HETATM    7  C20 UNL     1       3.476   8.825  13.804  1.00  0.00     0.027 C 
HETATM    8  C21 UNL     1       3.121   7.356  13.596  1.00  0.00     0.012 C 
HETATM    9  C22 UNL     1       2.006   7.052  12.569  1.00  0.00     0.032 C 
HETATM   10  C23 UNL     1       2.337   7.648  11.182  1.00  0.00    -0.066 C 
HETATM   11  C24 UNL     1       3.310   7.189  10.354  1.00  0.00    -0.021 C 
HETATM   12  C25 UNL     1       3.646   7.792   9.017  1.00  0.00     0.052 C 
HETATM   13  C27 UNL     1       1.432   8.786  10.776  1.00  0.00     0.038 C 
HETATM   14  C28 UNL     1      -0.040   8.381  10.764  1.00  0.00     0.042 C 
HETATM   15  C29 UNL     1      -0.416   7.260  11.765  1.00  0.00     0.067 C 
HETATM   16  C30 UNL     1      -0.402   5.896  11.037  1.00  0.00     0.047 C 
HETATM   17  O5  UNL     1      -0.921   8.354  14.631  1.00  0.00    -0.351 OA
ENDROOT
BRANCH   1  18
HETATM   18  C14 UNL     1      -2.270   6.430  15.031  1.00  0.00     0.011 C 
HETATM   19  C12 UNL     1      -3.413   7.022  15.443  1.00  0.00    -0.064 C 
HETATM   20  C13 UNL     1      -3.474   8.432  15.973  1.00  0.00     0.048 C 
BRANCH  19  21
HETATM   21  C11 UNL     1      -4.662   6.269  15.338  1.00  0.00     0.003 C 
HETATM   22  C10 UNL     1      -5.603   6.411  14.388  1.00  0.00    -0.018 C 
BRANCH  22  23
HETATM   23  C9  UNL     1      -6.887   5.617  14.256  1.00  0.00     0.050 C 
HETATM   24  C4  UNL     1      -7.224   4.980  12.870  1.00  0.00     0.024 C 
HETATM   25  C5  UNL     1      -8.753   4.836  12.935  1.00  0.00     0.013 C 
HETATM   26  C6  UNL     1      -9.202   6.150  13.554  1.00  0.00     0.039 C 
HETATM   27  C7  UNL     1      -8.179   6.406  14.672  1.00  0.00     0.062 C 
HETATM   28  C8  UNL     1      -8.025   7.908  14.913  1.00  0.00     0.046 C 
BRANCH  24  29
HETATM   29  C2  UNL     1      -6.461   3.695  12.543  1.00  0.00    -0.088 C 
HETATM   30  C1  UNL     1      -7.009   2.467  12.510  1.00  0.00     0.014 C 
HETATM   31  C3  UNL     1      -5.003   3.856  12.188  1.00  0.00     0.043 C 
ENDBRANCH  24  29
BRANCH  27  32
HETATM   32  O1  UNL     1      -8.686   5.857  15.898  1.00  0.00    -0.390 OA
HETATM   33  H14 UNL     1      -8.886   4.916  15.755  1.00  0.00     0.210 HD
ENDBRANCH  27  32
ENDBRANCH  22  23
ENDBRANCH  19  21
ENDBRANCH   1  18
BRANCH  15  34
HETATM   34  O4  UNL     1      -1.787   7.472  12.112  1.00  0.00    -0.389 OA
HETATM   35  H44 UNL     1      -2.319   7.511  11.299  1.00  0.00     0.210 HD
ENDBRANCH  15  34
BRANCH  11  36
HETATM   36  C26 UNL     1       4.173   6.016  10.695  1.00  0.00     0.265 C 
HETATM   37  O3  UNL     1       5.379   5.971  10.497  1.00  0.00    -0.302 OA
ENDBRANCH  11  36
TORSDOF 7
ENDMDL
MODEL 4
REMARK minimizedAffinity -8.88981628
REMARK  7 active torsions:
REMARK  status: ('A' for Active; 'I' for Inactive)
REMARK    1  A    between atoms: C2_2  and  C4_4 
REMARK    2  A    between atoms: C7_7  and  O1_9 
REMARK    3  A    between atoms: C9_10  and  C10_11 
REMARK    4  A    between atoms: C11_12  and  C12_13 
REMARK    5  A    between atoms: C14_15  and  C15_16 
REMARK    6  A    between atoms: C24_26  and  C26_28 
REMARK    7  A    between atoms: C29_32  and  O4_34 
ROOT
HETATM    1  C15 UNL     1      -1.919   8.517  14.942  1.00  0.00     0.149 C 
HETATM    2  C16 UNL     1      -0.573   7.807  15.130  1.00  0.00     0.054 C 
HETATM    3  C17 UNL     1       0.432   8.532  14.198  1.00  0.00     0.050 C 
HETATM    4  C18 UNL     1      -0.278   9.908  14.114  1.00  0.00     0.272 C 
HETATM    5  O2  UNL     1      -0.089  10.742  15.255  1.00  0.00    -0.360 OA
HETATM    6  C19 UNL     1       1.061  11.562  15.178  1.00  0.00     0.171 C 
HETATM    7  C20 UNL     1       2.253  10.895  15.839  1.00  0.00     0.027 C 
HETATM    8  C21 UNL     1       2.102   9.394  16.074  1.00  0.00     0.012 C 
HETATM    9  C22 UNL     1       1.883   8.517  14.821  1.00  0.00     0.032 C 
HETATM   10  C23 UNL     1       3.016   8.710  13.789  1.00  0.00    -0.066 C 
HETATM   11  C24 UNL     1       4.292   8.273  13.947  1.00  0.00    -0.021 C 
HETATM   12  C25 UNL     1       5.397   8.491  12.951  1.00  0.00     0.052 C 
HETATM   13  C27 UNL     1       2.574   9.400  12.521  1.00  0.00     0.038 C 
HETATM   14  C28 UNL     1       1.437   8.658  11.823  1.00  0.00     0.042 C 
HETATM   15  C29 UNL     1       0.510   7.850  12.765  1.00  0.00     0.067 C 
HETATM   16  C30 UNL     1       0.974   6.376  12.802  1.00  0.00     0.047 C 
HETATM   17  O5  UNL     1      -1.684   9.625  14.071  1.00  0.00    -0.351 OA
ENDROOT
BRANCH   1  18
HETATM   18  C14 UNL     1      -2.991   7.650  14.344  1.00  0.00     0.011 C 
HETATM   19  C12 UNL     1      -3.048   6.302  14.303  1.00  0.00    -0.064 C 
HETATM   20  C13 UNL     1      -2.009   5.406  14.929  1.00  0.00     0.048 C 
BRANCH  19  21
HETATM   21  C11 UNL     1      -4.197   5.675  13.650  1.00  0.00     0.003 C 
HETATM   22  C10 UNL     1      -4.174   4.579  12.872  1.00  0.00    -0.018 C 
BRANCH  22  23
HETATM   23  C9  UNL     1      -5.362   3.907  12.214  1.00  0.00     0.050 C 
HETATM   24  C4  UNL     1      -6.595   3.546  13.103  1.00  0.00     0.024 C 
HETATM   25  C5  UNL     1      -7.252   2.403  12.310  1.00  0.00     0.013 C 
HETATM   26  C6  UNL     1      -6.067   1.558  11.871  1.00  0.00     0.039 C 
HETATM   27  C7  UNL     1      -5.010   2.586  11.441  1.00  0.00     0.062 C 
HETATM   28  C8  UNL     1      -3.606   2.018  11.646  1.00  0.00     0.046 C 
BRANCH  24  29
HETATM   29  C2  UNL     1      -7.516   4.718  13.443  1.00  0.00    -0.088 C 
HETATM   30  C1  UNL     1      -7.723   5.194  14.685  1.00  0.00     0.014 C 
HETATM   31  C3  UNL     1      -8.188   5.400  12.277  1.00  0.00     0.043 C 
ENDBRANCH  24  29
BRANCH  27  32
HETATM   32  O1  UNL     1      -5.140   2.822  10.031  1.00  0.00    -0.390 OA
HETATM   33  H14 UNL     1      -6.055   3.098   9.848  1.00  0.00     0.210 HD
ENDBRANCH  27  32
ENDBRANCH  22  23
ENDBRANCH  19  21
ENDBRANCH   1  18
BRANCH  15  34
HETATM   34  O4  UNL     1      -0.773   7.812  12.133  1.00  0.00    -0.389 OA
HETATM   35  H44 UNL     1      -0.673   7.460  11.232  1.00  0.00     0.210 HD
ENDBRANCH  15  34
BRANCH  11  36
HETATM   36  C26 UNL     1       4.742   7.520  15.159  1.00  0.00     0.265 C 
HETATM   37  O3  UNL     1       5.625   7.902  15.914  1.00  0.00    -0.302 OA
ENDBRANCH  11  36
TORSDOF 7
ENDMDL
MODEL 5
REMARK minimizedAffinity -8.86472607
REMARK  7 active torsions:
REMARK  status: ('A' for Active; 'I' for Inactive)
REMARK    1  A    between atoms: C2_2  and  C4_4 
REMARK    2  A    between atoms: C7_7  and  O1_9 
REMARK    3  A    between atoms: C9_10  and  C10_11 
REMARK    4  A    between atoms: C11_12  and  C12_13 
REMARK    5  A    between atoms: C14_15  and  C15_16 
REMARK    6  A    between atoms: C24_26  and  C26_28 
REMARK    7  A    between atoms: C29_32  and  O4_34 
ROOT
HETATM    1  C15 UNL     1      -1.620   8.494  14.534  1.00  0.00     0.149 C 
HETATM    2  C16 UNL     1      -1.794   9.999  14.767  1.00  0.00     0.054 C 
HETATM    3  C17 UNL     1      -1.396  10.257  16.243  1.00  0.00     0.050 C 
HETATM    4  C18 UNL     1      -0.458   9.040  16.448  1.00  0.00     0.272 C 
HETATM    5  O2  UNL     1       0.844   9.197  15.889  1.00  0.00    -0.360 OA
HETATM    6  C19 UNL     1       1.774   9.800  16.768  1.00  0.00     0.171 C 
HETATM    7  C20 UNL     1       1.829  11.302  16.557  1.00  0.00     0.027 C 
HETATM    8  C21 UNL     1       0.649  11.887  15.785  1.00  0.00     0.012 C 
HETATM    9  C22 UNL     1      -0.751  11.689  16.407  1.00  0.00     0.032 C 
HETATM   10  C23 UNL     1      -0.817  12.251  17.845  1.00  0.00    -0.066 C 
HETATM   11  C24 UNL     1      -0.794  13.571  18.162  1.00  0.00    -0.021 C 
HETATM   12  C25 UNL     1      -0.829  14.111  19.565  1.00  0.00     0.052 C 
HETATM   13  C27 UNL     1      -0.966  11.190  18.908  1.00  0.00     0.038 C 
HETATM   14  C28 UNL     1      -2.206  10.326  18.694  1.00  0.00     0.042 C 
HETATM   15  C29 UNL     1      -2.649  10.173  17.218  1.00  0.00     0.067 C 
HETATM   16  C30 UNL     1      -3.753  11.209  16.903  1.00  0.00     0.047 C 
HETATM   17  O5  UNL     1      -1.060   7.952  15.731  1.00  0.00    -0.351 OA
ENDROOT
BRANCH   1  18
HETATM   18  C14 UNL     1      -2.899   7.769  14.227  1.00  0.00     0.011 C 
HETATM   19  C12 UNL     1      -3.078   6.697  13.424  1.00  0.00    -0.064 C 
HETATM   20  C13 UNL     1      -1.951   5.995  12.710  1.00  0.00     0.048 C 
BRANCH  19  21
HETATM   21  C11 UNL     1      -4.432   6.166  13.267  1.00  0.00     0.003 C 
HETATM   22  C10 UNL     1      -5.253   5.766  14.253  1.00  0.00    -0.018 C 
BRANCH  22  23
HETATM   23  C9  UNL     1      -6.667   5.240  14.100  1.00  0.00     0.050 C 
HETATM   24  C4  UNL     1      -7.145   4.801  12.679  1.00  0.00     0.024 C 
HETATM   25  C5  UNL     1      -8.672   4.940  12.786  1.00  0.00     0.013 C 
HETATM   26  C6  UNL     1      -8.852   6.255  13.528  1.00  0.00     0.039 C 
HETATM   27  C7  UNL     1      -7.778   6.217  14.626  1.00  0.00     0.062 C 
HETATM   28  C8  UNL     1      -7.338   7.636  14.985  1.00  0.00     0.046 C 
BRANCH  24  29
HETATM   29  C2  UNL     1      -6.644   3.431  12.220  1.00  0.00    -0.088 C 
HETATM   30  C1  UNL     1      -5.572   3.232  11.431  1.00  0.00     0.014 C 
HETATM   31  C3  UNL     1      -7.397   2.234  12.746  1.00  0.00     0.043 C 
ENDBRANCH  24  29
BRANCH  27  32
HETATM   32  O1  UNL     1      -8.356   5.667  15.819  1.00  0.00    -0.390 OA
HETATM   33  H14 UNL     1      -8.732   4.796  15.606  1.00  0.00     0.210 HD
ENDBRANCH  27  32
ENDBRANCH  22  23
ENDBRANCH  19  21
ENDBRANCH   1  18
BRANCH  15  34
HETATM   34  O4  UNL     1      -3.302   8.905  17.122  1.00  0.00    -0.389 OA
HETATM   35  H44 UNL     1      -4.013   8.862  17.785  1.00  0.00     0.210 HD
ENDBRANCH  15  34
BRANCH  11  36
HETATM   36  C26 UNL     1      -0.724  14.649  17.127  1.00  0.00     0.265 C 
HETATM   37  O3  UNL     1      -1.681  15.027  16.465  1.00  0.00    -0.302 OA
ENDBRANCH  11  36
TORSDOF 7
ENDMDL
MODEL 6
REMARK minimizedAffinity -8.8140173
REMARK  7 active torsions:
REMARK  status: ('A' for Active; 'I' for Inactive)
REMARK    1  A    between atoms: C2_2  and  C4_4 
REMARK    2  A    between atoms: C7_7  and  O1_9 
REMARK    3  A    between atoms: C9_10  and  C10_11 
REMARK    4  A    between atoms: C11_12  and  C12_13 
REMARK    5  A    between atoms: C14_15  and  C15_16 
REMARK    6  A    between atoms: C24_26  and  C26_28 
REMARK    7  A    between atoms: C29_32  and  O4_34 
ROOT
HETATM    1  C15 UNL     1      -0.118   6.730  12.103  1.00  0.00     0.149 C 
HETATM    2  C16 UNL     1       0.276   8.126  12.598  1.00  0.00     0.054 C 
HETATM    3  C17 UNL     1       1.548   7.935  13.463  1.00  0.00     0.050 C 
HETATM    4  C18 UNL     1       2.066   6.618  12.828  1.00  0.00     0.272 C 
HETATM    5  O2  UNL     1       2.731   6.787  11.578  1.00  0.00    -0.360 OA
HETATM    6  C19 UNL     1       4.119   7.033  11.698  1.00  0.00     0.171 C 
HETATM    7  C20 UNL     1       4.409   8.523  11.714  1.00  0.00     0.027 C 
HETATM    8  C21 UNL     1       3.202   9.411  12.001  1.00  0.00     0.012 C 
HETATM    9  C22 UNL     1       2.492   9.197  13.356  1.00  0.00     0.032 C 
HETATM   10  C23 UNL     1       3.472   9.355  14.540  1.00  0.00    -0.066 C 
HETATM   11  C24 UNL     1       4.018  10.531  14.942  1.00  0.00    -0.021 C 
HETATM   12  C25 UNL     1       4.995  10.674  16.077  1.00  0.00     0.052 C 
HETATM   13  C27 UNL     1       3.749   8.067  15.278  1.00  0.00     0.038 C 
HETATM   14  C28 UNL     1       2.475   7.423  15.818  1.00  0.00     0.042 C 
HETATM   15  C29 UNL     1       1.195   7.719  14.997  1.00  0.00     0.067 C 
HETATM   16  C30 UNL     1       0.440   8.908  15.635  1.00  0.00     0.047 C 
HETATM   17  O5  UNL     1       0.901   5.831  12.544  1.00  0.00    -0.351 OA
ENDROOT
BRANCH   1  18
HETATM   18  C14 UNL     1      -1.445   6.248  12.618  1.00  0.00     0.011 C 
HETATM   19  C12 UNL     1      -2.163   5.181  12.205  1.00  0.00    -0.064 C 
HETATM   20  C13 UNL     1      -1.695   4.228  11.135  1.00  0.00     0.048 C 
BRANCH  19  21
HETATM   21  C11 UNL     1      -3.445   4.914  12.854  1.00  0.00     0.003 C 
HETATM   22  C10 UNL     1      -4.309   5.829  13.325  1.00  0.00    -0.018 C 
BRANCH  22  23
HETATM   23  C9  UNL     1      -5.653   5.562  13.975  1.00  0.00     0.050 C 
HETATM   24  C4  UNL     1      -6.840   5.116  13.063  1.00  0.00     0.024 C 
HETATM   25  C5  UNL     1      -8.067   5.540  13.887  1.00  0.00     0.013 C 
HETATM   26  C6  UNL     1      -7.681   6.916  14.405  1.00  0.00     0.039 C 
HETATM   27  C7  UNL     1      -6.210   6.762  14.821  1.00  0.00     0.062 C 
HETATM   28  C8  UNL     1      -5.480   8.098  14.690  1.00  0.00     0.046 C 
BRANCH  24  29
HETATM   29  C2  UNL     1      -6.816   3.647  12.637  1.00  0.00    -0.088 C 
HETATM   30  C1  UNL     1      -7.502   2.662  13.246  1.00  0.00     0.014 C 
HETATM   31  C3  UNL     1      -5.995   3.320  11.414  1.00  0.00     0.043 C 
ENDBRANCH  24  29
BRANCH  27  32
HETATM   32  O1  UNL     1      -6.157   6.415  16.213  1.00  0.00    -0.390 OA
HETATM   33  H14 UNL     1      -6.691   5.614  16.352  1.00  0.00     0.210 HD
ENDBRANCH  27  32
ENDBRANCH  22  23
ENDBRANCH  19  21
ENDBRANCH   1  18
BRANCH  15  34
HETATM   34  O4  UNL     1       0.328   6.597  15.182  1.00  0.00    -0.389 OA
HETATM   35  H44 UNL     1       0.197   6.450  16.134  1.00  0.00     0.210 HD
ENDBRANCH  15  34
BRANCH  11  36
HETATM   36  C26 UNL     1       3.704  11.835  14.279  1.00  0.00     0.265 C 
HETATM   37  O3  UNL     1       4.450  12.401  13.493  1.00  0.00    -0.302 OA
ENDBRANCH  11  36
TORSDOF 7
ENDMDL
MODEL 7
REMARK minimizedAffinity -8.71931171
REMARK  7 active torsions:
REMARK  status: ('A' for Active; 'I' for Inactive)
REMARK    1  A    between atoms: C2_2  and  C4_4 
REMARK    2  A    between atoms: C7_7  and  O1_9 
REMARK    3  A    between atoms: C9_10  and  C10_11 
REMARK    4  A    between atoms: C11_12  and  C12_13 
REMARK    5  A    between atoms: C14_15  and  C15_16 
REMARK    6  A    between atoms: C24_26  and  C26_28 
REMARK    7  A    between atoms: C29_32  and  O4_34 
ROOT
HETATM    1  C15 UNL     1       1.959   7.618  12.049  1.00  0.00     0.149 C 
HETATM    2  C16 UNL     1       2.559   8.916  12.601  1.00  0.00     0.054 C 
HETATM    3  C17 UNL     1       3.981   8.555  13.104  1.00  0.00     0.050 C 
HETATM    4  C18 UNL     1       4.238   7.316  12.208  1.00  0.00     0.272 C 
HETATM    5  O2  UNL     1       4.603   7.624  10.864  1.00  0.00    -0.360 OA
HETATM    6  C19 UNL     1       5.995   7.792  10.675  1.00  0.00     0.171 C 
HETATM    7  C20 UNL     1       6.390   9.252  10.802  1.00  0.00     0.027 C 
HETATM    8  C21 UNL     1       5.352  10.144  11.477  1.00  0.00     0.012 C 
HETATM    9  C22 UNL     1       4.964   9.778  12.928  1.00  0.00     0.032 C 
HETATM   10  C23 UNL     1       6.202   9.732  13.851  1.00  0.00    -0.066 C 
HETATM   11  C24 UNL     1       6.912  10.818  14.249  1.00  0.00    -0.021 C 
HETATM   12  C25 UNL     1       8.135  10.763  15.124  1.00  0.00     0.052 C 
HETATM   13  C27 UNL     1       6.548   8.345  14.338  1.00  0.00     0.038 C 
HETATM   14  C28 UNL     1       5.391   7.689  15.086  1.00  0.00     0.042 C 
HETATM   15  C29 UNL     1       3.981   8.148  14.640  1.00  0.00     0.067 C 
HETATM   16  C30 UNL     1       3.485   9.271  15.581  1.00  0.00     0.047 C 
HETATM   17  O5  UNL     1       2.983   6.625  12.119  1.00  0.00    -0.351 OA
ENDROOT
BRANCH   1  18
HETATM   18  C14 UNL     1       0.757   7.127  12.807  1.00  0.00     0.011 C 
HETATM   19  C12 UNL     1      -0.247   6.342  12.361  1.00  0.00    -0.064 C 
HETATM   20  C13 UNL     1      -0.296   5.764  10.969  1.00  0.00     0.048 C 
BRANCH  19  21
HETATM   21  C11 UNL     1      -1.327   6.003  13.286  1.00  0.00     0.003 C 
HETATM   22  C10 UNL     1      -2.646   6.106  13.048  1.00  0.00    -0.018 C 
BRANCH  22  23
HETATM   23  C9  UNL     1      -3.772   5.731  13.992  1.00  0.00     0.050 C 
HETATM   24  C4  UNL     1      -5.196   5.501  13.391  1.00  0.00     0.024 C 
HETATM   25  C5  UNL     1      -6.110   5.765  14.599  1.00  0.00     0.013 C 
HETATM   26  C6  UNL     1      -5.495   6.998  15.240  1.00  0.00     0.039 C 
HETATM   27  C7  UNL     1      -3.982   6.739  15.177  1.00  0.00     0.062 C 
HETATM   28  C8  UNL     1      -3.221   8.063  15.103  1.00  0.00     0.046 C 
BRANCH  24  29
HETATM   29  C2  UNL     1      -5.399   4.152  12.701  1.00  0.00    -0.088 C 
HETATM   30  C1  UNL     1      -4.412   3.409  12.166  1.00  0.00     0.014 C 
HETATM   31  C3  UNL     1      -6.810   3.619  12.677  1.00  0.00     0.043 C 
ENDBRANCH  24  29
BRANCH  27  32
HETATM   32  O1  UNL     1      -3.569   6.112  16.401  1.00  0.00    -0.390 OA
HETATM   33  H14 UNL     1      -4.101   5.308  16.530  1.00  0.00     0.210 HD
ENDBRANCH  27  32
ENDBRANCH  22  23
ENDBRANCH  19  21
ENDBRANCH   1  18
BRANCH  15  34
HETATM   34  O4  UNL     1       3.100   7.049  14.890  1.00  0.00    -0.389 OA
HETATM   35  H44 UNL     1       3.184   6.780  15.821  1.00  0.00     0.210 HD
ENDBRANCH  15  34
BRANCH  11  36
HETATM   36  C26 UNL     1       6.549  12.212  13.845  1.00  0.00     0.265 C 
HETATM   37  O3  UNL     1       7.307  12.976  13.263  1.00  0.00    -0.302 OA
ENDBRANCH  11  36
TORSDOF 7
ENDMDL
MODEL 8
REMARK minimizedAffinity -8.46781731
REMARK  7 active torsions:
REMARK  status: ('A' for Active; 'I' for Inactive)
REMARK    1  A    between atoms: C2_2  and  C4_4 
REMARK    2  A    between atoms: C7_7  and  O1_9 
REMARK    3  A    between atoms: C9_10  and  C10_11 
REMARK    4  A    between atoms: C11_12  and  C12_13 
REMARK    5  A    between atoms: C14_15  and  C15_16 
REMARK    6  A    between atoms: C24_26  and  C26_28 
REMARK    7  A    between atoms: C29_32  and  O4_34 
ROOT
HETATM    1  C15 UNL     1       0.207   6.828  12.966  1.00  0.00     0.149 C 
HETATM    2  C16 UNL     1       0.278   8.359  12.944  1.00  0.00     0.054 C 
HETATM    3  C17 UNL     1       0.457   8.805  14.418  1.00  0.00     0.050 C 
HETATM    4  C18 UNL     1       1.102   7.510  14.977  1.00  0.00     0.272 C 
HETATM    5  O2  UNL     1       2.487   7.361  14.673  1.00  0.00    -0.360 OA
HETATM    6  C19 UNL     1       3.348   7.955  15.625  1.00  0.00     0.171 C 
HETATM    7  C20 UNL     1       3.717   9.370  15.219  1.00  0.00     0.027 C 
HETATM    8  C21 UNL     1       2.819   9.989  14.151  1.00  0.00     0.012 C 
HETATM    9  C22 UNL     1       1.320  10.124  14.503  1.00  0.00     0.032 C 
HETATM   10  C23 UNL     1       1.114  10.932  15.804  1.00  0.00    -0.066 C 
HETATM   11  C24 UNL     1       1.327  12.267  15.929  1.00  0.00    -0.021 C 
HETATM   12  C25 UNL     1       1.153  13.042  17.206  1.00  0.00     0.052 C 
HETATM   13  C27 UNL     1       0.589  10.109  16.955  1.00  0.00     0.038 C 
HETATM   14  C28 UNL     1      -0.735   9.426  16.623  1.00  0.00     0.042 C 
HETATM   15  C29 UNL     1      -0.938   9.089  15.125  1.00  0.00     0.067 C 
HETATM   16  C30 UNL     1      -1.758  10.214  14.452  1.00  0.00     0.047 C 
HETATM   17  O5  UNL     1       0.441   6.422  14.316  1.00  0.00    -0.351 OA
ENDROOT
BRANCH   1  18
HETATM   18  C14 UNL     1      -1.113   6.269  12.515  1.00  0.00     0.011 C 
HETATM   19  C12 UNL     1      -1.395   5.007  12.123  1.00  0.00    -0.064 C 
HETATM   20  C13 UNL     1      -0.382   3.890  12.124  1.00  0.00     0.048 C 
BRANCH  19  21
HETATM   21  C11 UNL     1      -2.763   4.697  11.711  1.00  0.00     0.003 C 
HETATM   22  C10 UNL     1      -3.682   4.027  12.428  1.00  0.00    -0.018 C 
BRANCH  22  23
HETATM   23  C9  UNL     1      -5.111   3.726  12.020  1.00  0.00     0.050 C 
HETATM   24  C4  UNL     1      -6.241   3.920  13.081  1.00  0.00     0.024 C 
HETATM   25  C5  UNL     1      -7.344   2.982  12.564  1.00  0.00     0.013 C 
HETATM   26  C6  UNL     1      -6.578   1.736  12.152  1.00  0.00     0.039 C 
HETATM   27  C7  UNL     1      -5.326   2.279  11.448  1.00  0.00     0.062 C 
HETATM   28  C8  UNL     1      -4.165   1.296  11.598  1.00  0.00     0.046 C 
BRANCH  24  29
HETATM   29  C2  UNL     1      -6.671   5.369  13.313  1.00  0.00    -0.088 C 
HETATM   30  C1  UNL     1      -5.847   6.359  13.705  1.00  0.00     0.014 C 
HETATM   31  C3  UNL     1      -8.117   5.691  13.026  1.00  0.00     0.043 C 
ENDBRANCH  24  29
BRANCH  27  32
HETATM   32  O1  UNL     1      -5.590   2.370  10.039  1.00  0.00    -0.390 OA
HETATM   33  H14 UNL     1      -6.384   2.916   9.909  1.00  0.00     0.210 HD
ENDBRANCH  27  32
ENDBRANCH  22  23
ENDBRANCH  19  21
ENDBRANCH   1  18
BRANCH  15  34
HETATM   34  O4  UNL     1      -1.790   7.941  15.081  1.00  0.00    -0.389 OA
HETATM   35  H44 UNL     1      -2.599   8.126  15.587  1.00  0.00     0.210 HD
ENDBRANCH  15  34
BRANCH  11  36
HETATM   36  C26 UNL     1       1.774  13.123  14.787  1.00  0.00     0.265 C 
HETATM   37  O3  UNL     1       2.089  14.300  14.894  1.00  0.00    -0.302 OA
ENDBRANCH  11  36
TORSDOF 7
ENDMDL
MODEL 9
REMARK minimizedAffinity -8.3997736
REMARK  7 active torsions:
REMARK  status: ('A' for Active; 'I' for Inactive)
REMARK    1  A    between atoms: C2_2  and  C4_4 
REMARK    2  A    between atoms: C7_7  and  O1_9 
REMARK    3  A    between atoms: C9_10  and  C10_11 
REMARK    4  A    between atoms: C11_12  and  C12_13 
REMARK    5  A    between atoms: C14_15  and  C15_16 
REMARK    6  A    between atoms: C24_26  and  C26_28 
REMARK    7  A    between atoms: C29_32  and  O4_34 
ROOT
HETATM    1  C15 UNL     1      -1.039   9.587  16.557  1.00  0.00     0.149 C 
HETATM    2  C16 UNL     1      -0.691   9.835  15.085  1.00  0.00     0.054 C 
HETATM    3  C17 UNL     1      -0.312   8.453  14.492  1.00  0.00     0.050 C 
HETATM    4  C18 UNL     1      -1.101   7.552  15.476  1.00  0.00     0.272 C 
HETATM    5  O2  UNL     1      -2.500   7.475  15.215  1.00  0.00    -0.360 OA
HETATM    6  C19 UNL     1      -2.856   6.446  14.312  1.00  0.00     0.171 C 
HETATM    7  C20 UNL     1      -2.923   6.968  12.888  1.00  0.00     0.027 C 
HETATM    8  C21 UNL     1      -2.232   8.311  12.662  1.00  0.00     0.012 C 
HETATM    9  C22 UNL     1      -0.718   8.369  12.968  1.00  0.00     0.032 C 
HETATM   10  C23 UNL     1       0.064   7.307  12.163  1.00  0.00    -0.066 C 
HETATM   11  C24 UNL     1       0.271   7.347  10.822  1.00  0.00    -0.021 C 
HETATM   12  C25 UNL     1       1.007   6.295  10.040  1.00  0.00     0.052 C 
HETATM   13  C27 UNL     1       0.648   6.206  13.015  1.00  0.00     0.038 C 
HETATM   14  C28 UNL     1       1.582   6.743  14.097  1.00  0.00     0.042 C 
HETATM   15  C29 UNL     1       1.248   8.171  14.596  1.00  0.00     0.067 C 
HETATM   16  C30 UNL     1       2.119   9.197  13.835  1.00  0.00     0.047 C 
HETATM   17  O5  UNL     1      -0.981   8.174  16.764  1.00  0.00    -0.351 OA
ENDROOT
BRANCH   1  18
HETATM   18  C14 UNL     1      -0.109  10.256  17.529  1.00  0.00     0.011 C 
HETATM   19  C12 UNL     1      -0.410  11.166  18.481  1.00  0.00    -0.064 C 
HETATM   20  C13 UNL     1      -1.813  11.641  18.763  1.00  0.00     0.048 C 
BRANCH  19  21
HETATM   21  C11 UNL     1       0.676  11.692  19.307  1.00  0.00     0.003 C 
HETATM   22  C10 UNL     1       1.326  11.037  20.284  1.00  0.00    -0.018 C 
BRANCH  22  23
HETATM   23  C9  UNL     1       2.470  11.566  21.127  1.00  0.00     0.050 C 
HETATM   24  C4  UNL     1       2.629  11.023  22.584  1.00  0.00     0.024 C 
HETATM   25  C5  UNL     1       3.406  12.156  23.275  1.00  0.00     0.013 C 
HETATM   26  C6  UNL     1       2.727  13.413  22.756  1.00  0.00     0.039 C 
HETATM   27  C7  UNL     1       2.502  13.130  21.263  1.00  0.00     0.062 C 
HETATM   28  C8  UNL     1       1.278  13.893  20.758  1.00  0.00     0.046 C 
BRANCH  24  29
HETATM   29  C2  UNL     1       3.260   9.635  22.695  1.00  0.00    -0.088 C 
HETATM   30  C1  UNL     1       4.575   9.404  22.866  1.00  0.00     0.014 C 
HETATM   31  C3  UNL     1       2.311   8.463  22.655  1.00  0.00     0.043 C 
ENDBRANCH  24  29
BRANCH  27  32
HETATM   32  O1  UNL     1       3.621  13.639  20.522  1.00  0.00    -0.390 OA
HETATM   33  H14 UNL     1       4.434  13.243  20.880  1.00  0.00     0.210 HD
ENDBRANCH  27  32
ENDBRANCH  22  23
ENDBRANCH  19  21
ENDBRANCH   1  18
BRANCH  15  34
HETATM   34  O4  UNL     1       1.703   8.241  15.950  1.00  0.00    -0.389 OA
HETATM   35  H44 UNL     1       2.642   7.988  15.984  1.00  0.00     0.210 HD
ENDBRANCH  15  34
BRANCH  11  36
HETATM   36  C26 UNL     1      -0.231   8.464   9.962  1.00  0.00     0.265 C 
HETATM   37  O3  UNL     1       0.316   8.836   8.933  1.00  0.00    -0.302 OA
ENDBRANCH  11  36
TORSDOF 7
ENDMDL
