MODEL 1
REMARK minimizedAffinity -8.87437344
REMARK  6 active torsions:
REMARK  status: ('A' for Active; 'I' for Inactive)
REMARK    1  A    between atoms: S1_2  and  C2_5 
REMARK    2  A    between atoms: N1_13  and  C9_14 
REMARK    3  A    between atoms: C9_14  and  C10_15 
REMARK    4  A    between atoms: C17_23  and  C18_24 
REMARK    5  A    between atoms: C18_24  and  C19_25 
REMARK    6  A    between atoms: C19_25  and  O4_27 
ROOT
HETATM    1  C2  UNL     1      -3.391  49.135 -23.902  1.00  0.00     0.089 A 
HETATM    2  C3  UNL     1      -3.689  48.461 -25.101  1.00  0.00     0.068 A 
HETATM    3  C4  UNL     1      -3.037  48.780 -26.281  1.00  0.00     0.118 A 
HETATM    4  F1  UNL     1      -3.344  48.104 -27.395  1.00  0.00    -0.206 F 
HETATM    5  C5  UNL     1      -2.052  49.753 -26.328  1.00  0.00     0.056 A 
HETATM    6  C6  UNL     1      -1.745  50.465 -25.156  1.00  0.00     0.003 A 
HETATM    7  C7  UNL     1      -0.794  51.447 -24.856  1.00  0.00    -0.022 C 
HETATM    8  C8  UNL     1      -0.925  51.785 -23.542  1.00  0.00     0.024 C 
HETATM    9  N1  UNL     1      -2.028  51.168 -23.026  1.00  0.00    -0.343 N 
HETATM   10  C16 UNL     1      -2.452  50.202 -23.956  1.00  0.00     0.068 A 
HETATM   11  C17 UNL     1       0.043  52.819 -23.075  1.00  0.00     0.046 C 
HETATM   12  C20 UNL     1       1.021  52.861 -24.317  1.00  0.00     0.016 C 
HETATM   13  C21 UNL     1       0.277  52.208 -25.525  1.00  0.00     0.042 C 
ENDROOT
BRANCH   9  14
HETATM   14  C9  UNL     1      -2.699  51.537 -21.776  1.00  0.00     0.167 C 
BRANCH  14  15
HETATM   15  C10 UNL     1      -1.939  51.134 -20.527  1.00  0.00    -0.040 A 
HETATM   16  C11 UNL     1      -2.137  51.811 -19.312  1.00  0.00     0.010 A 
HETATM   17  C12 UNL     1      -1.445  51.423 -18.162  1.00  0.00     0.024 A 
HETATM   18  C13 UNL     1      -0.564  50.347 -18.216  1.00  0.00     0.034 A 
HETATM   19 CL1  UNL     1       0.289  49.868 -16.800  1.00  0.00    -0.084 Cl
HETATM   20  C14 UNL     1      -0.372  49.651 -19.407  1.00  0.00     0.024 A 
HETATM   21  C15 UNL     1      -1.062  50.038 -20.557  1.00  0.00     0.010 A 
ENDBRANCH  14  15
ENDBRANCH   9  14
BRANCH  11  22
HETATM   22  C18 UNL     1       0.773  52.441 -21.790  1.00  0.00     0.120 C 
BRANCH  22  23
HETATM   23  C19 UNL     1       1.210  53.659 -21.026  1.00  0.00     0.140 C 
HETATM   24  O3  UNL     1       1.742  54.664 -21.464  1.00  0.00    -0.650 OA
BRANCH  23  25
HETATM   25  O4  UNL     1       0.967  53.538 -19.705  1.00  0.00    -0.776 OA
HETATM   26  H15 UNL     1       1.305  54.375 -19.323  1.00  0.00     0.167 HD
ENDBRANCH  23  25
ENDBRANCH  22  23
ENDBRANCH  11  22
BRANCH   1  27
HETATM   27  S1  UNL     1      -4.154  48.523 -22.408  1.00  0.00     0.174 S 
HETATM   28  C1  UNL     1      -5.103  49.849 -21.715  1.00  0.00     0.167 C 
HETATM   29  O1  UNL     1      -3.074  48.207 -21.495  1.00  0.00    -0.223 OA
HETATM   30  O2  UNL     1      -5.113  47.511 -22.814  1.00  0.00    -0.223 OA
ENDBRANCH   1  27
TORSDOF 6
ENDMDL
MODEL 2
REMARK minimizedAffinity -8.63388157
REMARK  6 active torsions:
REMARK  status: ('A' for Active; 'I' for Inactive)
REMARK    1  A    between atoms: S1_2  and  C2_5 
REMARK    2  A    between atoms: N1_13  and  C9_14 
REMARK    3  A    between atoms: C9_14  and  C10_15 
REMARK    4  A    between atoms: C17_23  and  C18_24 
REMARK    5  A    between atoms: C18_24  and  C19_25 
REMARK    6  A    between atoms: C19_25  and  O4_27 
ROOT
HETATM    1  C2  UNL     1      -1.226  51.641 -20.320  1.00  0.00     0.089 A 
HETATM    2  C3  UNL     1      -0.238  52.167 -19.466  1.00  0.00     0.068 A 
HETATM    3  C4  UNL     1       0.940  52.691 -19.972  1.00  0.00     0.118 A 
HETATM    4  F1  UNL     1       1.846  53.191 -19.122  1.00  0.00    -0.206 F 
HETATM    5  C5  UNL     1       1.186  52.743 -21.335  1.00  0.00     0.056 A 
HETATM    6  C6  UNL     1       0.234  52.205 -22.217  1.00  0.00     0.003 A 
HETATM    7  C7  UNL     1       0.152  52.145 -23.613  1.00  0.00    -0.022 C 
HETATM    8  C8  UNL     1      -1.010  51.516 -23.949  1.00  0.00     0.024 C 
HETATM    9  N1  UNL     1      -1.602  51.031 -22.819  1.00  0.00    -0.343 N 
HETATM   10  C16 UNL     1      -0.944  51.600 -21.713  1.00  0.00     0.068 A 
HETATM   11  C17 UNL     1      -1.240  51.394 -25.417  1.00  0.00     0.046 C 
HETATM   12  C20 UNL     1      -0.098  52.348 -25.954  1.00  0.00     0.016 C 
HETATM   13  C21 UNL     1       0.932  52.547 -24.798  1.00  0.00     0.042 C 
ENDROOT
BRANCH   9  14
HETATM   14  C9  UNL     1      -2.660  50.017 -22.783  1.00  0.00     0.167 C 
BRANCH  14  15
HETATM   15  C10 UNL     1      -3.086  49.523 -24.152  1.00  0.00    -0.040 A 
HETATM   16  C11 UNL     1      -2.202  48.792 -24.964  1.00  0.00     0.010 A 
HETATM   17  C12 UNL     1      -2.608  48.327 -26.217  1.00  0.00     0.024 A 
HETATM   18  C13 UNL     1      -3.904  48.575 -26.659  1.00  0.00     0.034 A 
HETATM   19 CL1  UNL     1      -4.405  48.002 -28.203  1.00  0.00    -0.084 Cl
HETATM   20  C14 UNL     1      -4.801  49.279 -25.859  1.00  0.00     0.024 A 
HETATM   21  C15 UNL     1      -4.395  49.746 -24.607  1.00  0.00     0.010 A 
ENDBRANCH  14  15
ENDBRANCH   9  14
BRANCH  11  22
HETATM   22  C18 UNL     1      -2.623  51.857 -25.863  1.00  0.00     0.120 C 
BRANCH  22  23
HETATM   23  C19 UNL     1      -2.597  52.396 -27.266  1.00  0.00     0.140 C 
HETATM   24  O3  UNL     1      -2.287  53.517 -27.630  1.00  0.00    -0.650 OA
BRANCH  23  25
HETATM   25  O4  UNL     1      -2.998  51.474 -28.165  1.00  0.00    -0.776 OA
HETATM   26  H15 UNL     1      -2.953  51.944 -29.024  1.00  0.00     0.167 HD
ENDBRANCH  23  25
ENDBRANCH  22  23
ENDBRANCH  11  22
BRANCH   1  27
HETATM   27  S1  UNL     1      -2.777  51.161 -19.578  1.00  0.00     0.174 S 
HETATM   28  C1  UNL     1      -4.071  51.684 -20.669  1.00  0.00     0.167 C 
HETATM   29  O1  UNL     1      -2.891  51.909 -18.342  1.00  0.00    -0.223 OA
HETATM   30  O2  UNL     1      -2.810  49.709 -19.581  1.00  0.00    -0.223 OA
ENDBRANCH   1  27
TORSDOF 6
ENDMDL
MODEL 3
REMARK minimizedAffinity -8.59081364
REMARK  6 active torsions:
REMARK  status: ('A' for Active; 'I' for Inactive)
REMARK    1  A    between atoms: S1_2  and  C2_5 
REMARK    2  A    between atoms: N1_13  and  C9_14 
REMARK    3  A    between atoms: C9_14  and  C10_15 
REMARK    4  A    between atoms: C17_23  and  C18_24 
REMARK    5  A    between atoms: C18_24  and  C19_25 
REMARK    6  A    between atoms: C19_25  and  O4_27 
ROOT
HETATM    1  C2  UNL     1      -0.942  51.701 -20.528  1.00  0.00     0.089 A 
HETATM    2  C3  UNL     1      -0.127  52.629 -19.854  1.00  0.00     0.068 A 
HETATM    3  C4  UNL     1       0.836  53.360 -20.531  1.00  0.00     0.118 A 
HETATM    4  F1  UNL     1       1.581  54.240 -19.850  1.00  0.00    -0.206 F 
HETATM    5  C5  UNL     1       1.021  53.227 -21.897  1.00  0.00     0.056 A 
HETATM    6  C6  UNL     1       0.244  52.293 -22.601  1.00  0.00     0.003 A 
HETATM    7  C7  UNL     1       0.146  51.957 -23.956  1.00  0.00    -0.022 C 
HETATM    8  C8  UNL     1      -0.792  50.978 -24.090  1.00  0.00     0.024 C 
HETATM    9  N1  UNL     1      -1.190  50.563 -22.852  1.00  0.00    -0.343 N 
HETATM   10  C16 UNL     1      -0.696  51.485 -21.912  1.00  0.00     0.068 A 
HETATM   11  C17 UNL     1      -1.015  50.529 -25.494  1.00  0.00     0.046 C 
HETATM   12  C20 UNL     1      -0.212  51.649 -26.271  1.00  0.00     0.016 C 
HETATM   13  C21 UNL     1       0.746  52.337 -25.248  1.00  0.00     0.042 C 
ENDROOT
BRANCH   9  14
HETATM   14  C9  UNL     1      -1.908  49.317 -22.565  1.00  0.00     0.167 C 
BRANCH  14  15
HETATM   15  C10 UNL     1      -3.351  49.317 -23.029  1.00  0.00    -0.040 A 
HETATM   16  C11 UNL     1      -4.142  50.474 -22.929  1.00  0.00     0.010 A 
HETATM   17  C12 UNL     1      -5.466  50.470 -23.375  1.00  0.00     0.024 A 
HETATM   18  C13 UNL     1      -6.002  49.316 -23.939  1.00  0.00     0.034 A 
HETATM   19 CL1  UNL     1      -7.632  49.311 -24.489  1.00  0.00    -0.084 Cl
HETATM   20  C14 UNL     1      -5.225  48.167 -24.067  1.00  0.00     0.024 A 
HETATM   21  C15 UNL     1      -3.902  48.169 -23.620  1.00  0.00     0.010 A 
ENDBRANCH  14  15
ENDBRANCH   9  14
BRANCH  11  22
HETATM   22  C18 UNL     1      -2.484  50.497 -25.903  1.00  0.00     0.120 C 
BRANCH  22  23
HETATM   23  C19 UNL     1      -2.924  51.815 -26.477  1.00  0.00     0.140 C 
HETATM   24  O3  UNL     1      -3.383  52.773 -25.879  1.00  0.00    -0.650 OA
BRANCH  23  25
HETATM   25  O4  UNL     1      -2.782  51.852 -27.817  1.00  0.00    -0.776 OA
HETATM   26  H15 UNL     1      -3.112  52.741 -28.067  1.00  0.00     0.167 HD
ENDBRANCH  23  25
ENDBRANCH  22  23
ENDBRANCH  11  22
BRANCH   1  27
HETATM   27  S1  UNL     1      -2.269  50.951 -19.598  1.00  0.00     0.174 S 
HETATM   28  C1  UNL     1      -1.964  51.272 -17.883  1.00  0.00     0.167 C 
HETATM   29  O1  UNL     1      -2.170  49.522 -19.821  1.00  0.00    -0.223 OA
HETATM   30  O2  UNL     1      -3.479  51.680 -19.935  1.00  0.00    -0.223 OA
ENDBRANCH   1  27
TORSDOF 6
ENDMDL
MODEL 4
REMARK minimizedAffinity -8.52136898
REMARK  6 active torsions:
REMARK  status: ('A' for Active; 'I' for Inactive)
REMARK    1  A    between atoms: S1_2  and  C2_5 
REMARK    2  A    between atoms: N1_13  and  C9_14 
REMARK    3  A    between atoms: C9_14  and  C10_15 
REMARK    4  A    between atoms: C17_23  and  C18_24 
REMARK    5  A    between atoms: C18_24  and  C19_25 
REMARK    6  A    between atoms: C19_25  and  O4_27 
ROOT
HETATM    1  C2  UNL     1      -1.268  51.179 -26.221  1.00  0.00     0.089 A 
HETATM    2  C3  UNL     1      -0.228  51.364 -27.151  1.00  0.00     0.068 A 
HETATM    3  C4  UNL     1       1.004  51.860 -26.756  1.00  0.00     0.118 A 
HETATM    4  F1  UNL     1       1.968  52.008 -27.674  1.00  0.00    -0.206 F 
HETATM    5  C5  UNL     1       1.272  52.170 -25.433  1.00  0.00     0.056 A 
HETATM    6  C6  UNL     1       0.251  52.023 -24.480  1.00  0.00     0.003 A 
HETATM    7  C7  UNL     1       0.206  52.194 -23.092  1.00  0.00    -0.022 C 
HETATM    8  C8  UNL     1      -1.052  51.896 -22.662  1.00  0.00     0.024 C 
HETATM    9  N1  UNL     1      -1.860  51.689 -23.742  1.00  0.00    -0.343 N 
HETATM   10  C16 UNL     1      -1.037  51.585 -24.878  1.00  0.00     0.068 A 
HETATM   11  C17 UNL     1      -1.242  52.020 -21.188  1.00  0.00     0.046 C 
HETATM   12  C20 UNL     1       0.263  52.186 -20.730  1.00  0.00     0.016 C 
HETATM   13  C21 UNL     1       1.095  52.595 -21.985  1.00  0.00     0.042 C 
ENDROOT
BRANCH   9  14
HETATM   14  C9  UNL     1      -3.326  51.690 -23.718  1.00  0.00     0.167 C 
BRANCH  14  15
HETATM   15  C10 UNL     1      -3.934  50.393 -23.222  1.00  0.00    -0.040 A 
HETATM   16  C11 UNL     1      -5.319  50.277 -23.015  1.00  0.00     0.010 A 
HETATM   17  C12 UNL     1      -5.873  49.073 -22.575  1.00  0.00     0.024 A 
HETATM   18  C13 UNL     1      -5.050  47.973 -22.354  1.00  0.00     0.034 A 
HETATM   19 CL1  UNL     1      -5.732  46.489 -21.812  1.00  0.00    -0.084 Cl
HETATM   20  C14 UNL     1      -3.678  48.063 -22.576  1.00  0.00     0.024 A 
HETATM   21  C15 UNL     1      -3.122  49.266 -23.015  1.00  0.00     0.010 A 
ENDBRANCH  14  15
ENDBRANCH   9  14
BRANCH  11  22
HETATM   22  C18 UNL     1      -1.899  50.801 -20.549  1.00  0.00     0.120 C 
BRANCH  22  23
HETATM   23  C19 UNL     1      -2.865  51.199 -19.468  1.00  0.00     0.140 C 
HETATM   24  O3  UNL     1      -2.615  51.743 -18.407  1.00  0.00    -0.650 OA
BRANCH  23  25
HETATM   25  O4  UNL     1      -4.133  50.860 -19.778  1.00  0.00    -0.776 OA
HETATM   26  H15 UNL     1      -4.654  51.154 -19.001  1.00  0.00     0.167 HD
ENDBRANCH  23  25
ENDBRANCH  22  23
ENDBRANCH  11  22
BRANCH   1  27
HETATM   27  S1  UNL     1      -2.748  50.365 -26.801  1.00  0.00     0.174 S 
HETATM   28  C1  UNL     1      -2.705  48.698 -26.203  1.00  0.00     0.167 C 
HETATM   29  O1  UNL     1      -2.661  50.335 -28.248  1.00  0.00    -0.223 OA
HETATM   30  O2  UNL     1      -3.866  51.004 -26.130  1.00  0.00    -0.223 OA
ENDBRANCH   1  27
TORSDOF 6
ENDMDL
MODEL 5
REMARK minimizedAffinity -8.23164368
REMARK  6 active torsions:
REMARK  status: ('A' for Active; 'I' for Inactive)
REMARK    1  A    between atoms: S1_2  and  C2_5 
REMARK    2  A    between atoms: N1_13  and  C9_14 
REMARK    3  A    between atoms: C9_14  and  C10_15 
REMARK    4  A    between atoms: C17_23  and  C18_24 
REMARK    5  A    between atoms: C18_24  and  C19_25 
REMARK    6  A    between atoms: C19_25  and  O4_27 
ROOT
HETATM    1  C2  UNL     1      -4.334  50.064 -22.577  1.00  0.00     0.089 A 
HETATM    2  C3  UNL     1      -5.516  49.833 -21.850  1.00  0.00     0.068 A 
HETATM    3  C4  UNL     1      -5.588  50.111 -20.494  1.00  0.00     0.118 A 
HETATM    4  F1  UNL     1      -6.737  49.886 -19.846  1.00  0.00    -0.206 F 
HETATM    5  C5  UNL     1      -4.513  50.649 -19.805  1.00  0.00     0.056 A 
HETATM    6  C6  UNL     1      -3.308  50.870 -20.492  1.00  0.00     0.003 A 
HETATM    7  C7  UNL     1      -2.083  51.433 -20.117  1.00  0.00    -0.022 C 
HETATM    8  C8  UNL     1      -1.252  51.415 -21.197  1.00  0.00     0.024 C 
HETATM    9  N1  UNL     1      -1.845  50.719 -22.210  1.00  0.00    -0.343 N 
HETATM   10  C16 UNL     1      -3.194  50.524 -21.862  1.00  0.00     0.068 A 
HETATM   11  C17 UNL     1       0.095  52.003 -20.945  1.00  0.00     0.046 C 
HETATM   12  C20 UNL     1      -0.156  52.671 -19.533  1.00  0.00     0.016 C 
HETATM   13  C21 UNL     1      -1.440  52.022 -18.927  1.00  0.00     0.042 C 
ENDROOT
BRANCH   9  14
HETATM   14  C9  UNL     1      -1.157  50.184 -23.389  1.00  0.00     0.167 C 
BRANCH  14  15
HETATM   15  C10 UNL     1      -0.884  51.217 -24.464  1.00  0.00    -0.040 A 
HETATM   16  C11 UNL     1      -0.208  50.869 -25.645  1.00  0.00     0.010 A 
HETATM   17  C12 UNL     1       0.025  51.823 -26.639  1.00  0.00     0.024 A 
HETATM   18  C13 UNL     1      -0.431  53.127 -26.464  1.00  0.00     0.034 A 
HETATM   19 CL1  UNL     1      -0.144  54.303 -27.687  1.00  0.00    -0.084 Cl
HETATM   20  C14 UNL     1      -1.122  53.484 -25.309  1.00  0.00     0.024 A 
HETATM   21  C15 UNL     1      -1.354  52.532 -24.315  1.00  0.00     0.010 A 
ENDBRANCH  14  15
ENDBRANCH   9  14
BRANCH  11  22
HETATM   22  C18 UNL     1       0.523  53.028 -21.990  1.00  0.00     0.120 C 
BRANCH  22  23
HETATM   23  C19 UNL     1       1.464  54.047 -21.408  1.00  0.00     0.140 C 
HETATM   24  O3  UNL     1       1.929  54.076 -20.283  1.00  0.00    -0.650 OA
BRANCH  23  25
HETATM   25  O4  UNL     1       1.762  55.018 -22.295  1.00  0.00    -0.776 OA
HETATM   26  H15 UNL     1       2.359  55.617 -21.799  1.00  0.00     0.167 HD
ENDBRANCH  23  25
ENDBRANCH  22  23
ENDBRANCH  11  22
BRANCH   1  27
HETATM   27  S1  UNL     1      -4.407  49.844 -24.348  1.00  0.00     0.174 S 
HETATM   28  C1  UNL     1      -3.204  48.618 -24.781  1.00  0.00     0.167 C 
HETATM   29  O1  UNL     1      -4.005  51.107 -24.935  1.00  0.00    -0.223 OA
HETATM   30  O2  UNL     1      -5.703  49.259 -24.643  1.00  0.00    -0.223 OA
ENDBRANCH   1  27
TORSDOF 6
ENDMDL
MODEL 6
REMARK minimizedAffinity -8.17127132
REMARK  6 active torsions:
REMARK  status: ('A' for Active; 'I' for Inactive)
REMARK    1  A    between atoms: S1_2  and  C2_5 
REMARK    2  A    between atoms: N1_13  and  C9_14 
REMARK    3  A    between atoms: C9_14  and  C10_15 
REMARK    4  A    between atoms: C17_23  and  C18_24 
REMARK    5  A    between atoms: C18_24  and  C19_25 
REMARK    6  A    between atoms: C19_25  and  O4_27 
ROOT
HETATM    1  C2  UNL     1      -0.625  50.724 -18.855  1.00  0.00     0.089 A 
HETATM    2  C3  UNL     1       0.053  51.356 -17.797  1.00  0.00     0.068 A 
HETATM    3  C4  UNL     1       0.905  52.424 -18.029  1.00  0.00     0.118 A 
HETATM    4  F1  UNL     1       1.519  53.002 -16.990  1.00  0.00    -0.206 F 
HETATM    5  C5  UNL     1       1.106  52.928 -19.304  1.00  0.00     0.056 A 
HETATM    6  C6  UNL     1       0.466  52.308 -20.389  1.00  0.00     0.003 A 
HETATM    7  C7  UNL     1       0.416  52.590 -21.759  1.00  0.00    -0.022 C 
HETATM    8  C8  UNL     1      -0.377  51.661 -22.362  1.00  0.00     0.024 C 
HETATM    9  N1  UNL     1      -0.713  50.699 -21.454  1.00  0.00    -0.343 N 
HETATM   10  C16 UNL     1      -0.352  51.170 -20.178  1.00  0.00     0.068 A 
HETATM   11  C17 UNL     1      -0.535  51.849 -23.832  1.00  0.00     0.046 C 
HETATM   12  C20 UNL     1       0.104  53.287 -23.995  1.00  0.00     0.016 C 
HETATM   13  C21 UNL     1       0.958  53.570 -22.719  1.00  0.00     0.042 C 
ENDROOT
BRANCH   9  14
HETATM   14  C9  UNL     1      -1.251  49.374 -21.780  1.00  0.00     0.167 C 
BRANCH  14  15
HETATM   15  C10 UNL     1      -2.658  49.403 -22.343  1.00  0.00    -0.040 A 
HETATM   16  C11 UNL     1      -3.065  48.476 -23.318  1.00  0.00     0.010 A 
HETATM   17  C12 UNL     1      -4.369  48.499 -23.819  1.00  0.00     0.024 A 
HETATM   18  C13 UNL     1      -5.278  49.437 -23.339  1.00  0.00     0.034 A 
HETATM   19 CL1  UNL     1      -6.884  49.465 -23.956  1.00  0.00    -0.084 Cl
HETATM   20  C14 UNL     1      -4.898  50.349 -22.357  1.00  0.00     0.024 A 
HETATM   21  C15 UNL     1      -3.595  50.328 -21.856  1.00  0.00     0.010 A 
ENDBRANCH  14  15
ENDBRANCH   9  14
BRANCH  11  22
HETATM   22  C18 UNL     1      -1.986  51.817 -24.303  1.00  0.00     0.120 C 
BRANCH  22  23
HETATM   23  C19 UNL     1      -2.085  51.992 -25.793  1.00  0.00     0.140 C 
HETATM   24  O3  UNL     1      -1.407  51.460 -26.654  1.00  0.00    -0.650 OA
BRANCH  23  25
HETATM   25  O4  UNL     1      -3.047  52.875 -26.132  1.00  0.00    -0.776 OA
HETATM   26  H15 UNL     1      -3.001  52.912 -27.110  1.00  0.00     0.167 HD
ENDBRANCH  23  25
ENDBRANCH  22  23
ENDBRANCH  11  22
BRANCH   1  27
HETATM   27  S1  UNL     1      -1.835  49.483 -18.427  1.00  0.00     0.174 S 
HETATM   28  C1  UNL     1      -3.433  50.142 -18.817  1.00  0.00     0.167 C 
HETATM   29  O1  UNL     1      -1.751  49.306 -16.990  1.00  0.00    -0.223 OA
HETATM   30  O2  UNL     1      -1.628  48.367 -19.333  1.00  0.00    -0.223 OA
ENDBRANCH   1  27
TORSDOF 6
ENDMDL
MODEL 7
REMARK minimizedAffinity -8.16689587
REMARK  6 active torsions:
REMARK  status: ('A' for Active; 'I' for Inactive)
REMARK    1  A    between atoms: S1_2  and  C2_5 
REMARK    2  A    between atoms: N1_13  and  C9_14 
REMARK    3  A    between atoms: C9_14  and  C10_15 
REMARK    4  A    between atoms: C17_23  and  C18_24 
REMARK    5  A    between atoms: C18_24  and  C19_25 
REMARK    6  A    between atoms: C19_25  and  O4_27 
ROOT
HETATM    1  C2  UNL     1      -1.567  51.289 -25.166  1.00  0.00     0.089 A 
HETATM    2  C3  UNL     1      -0.838  51.693 -26.300  1.00  0.00     0.068 A 
HETATM    3  C4  UNL     1       0.297  52.478 -26.178  1.00  0.00     0.118 A 
HETATM    4  F1  UNL     1       0.966  52.829 -27.284  1.00  0.00    -0.206 F 
HETATM    5  C5  UNL     1       0.775  52.878 -24.940  1.00  0.00     0.056 A 
HETATM    6  C6  UNL     1       0.060  52.515 -23.787  1.00  0.00     0.003 A 
HETATM    7  C7  UNL     1       0.291  52.706 -22.420  1.00  0.00    -0.022 C 
HETATM    8  C8  UNL     1      -0.730  52.127 -21.726  1.00  0.00     0.024 C 
HETATM    9  N1  UNL     1      -1.688  51.707 -22.603  1.00  0.00    -0.343 N 
HETATM   10  C16 UNL     1      -1.142  51.773 -23.897  1.00  0.00     0.068 A 
HETATM   11  C17 UNL     1      -0.607  52.240 -20.244  1.00  0.00     0.046 C 
HETATM   12  C20 UNL     1       0.879  52.772 -20.132  1.00  0.00     0.016 C 
HETATM   13  C21 UNL     1       1.285  53.335 -21.530  1.00  0.00     0.042 C 
ENDROOT
BRANCH   9  14
HETATM   14  C9  UNL     1      -3.068  51.359 -22.249  1.00  0.00     0.167 C 
BRANCH  14  15
HETATM   15  C10 UNL     1      -3.252  49.910 -21.841  1.00  0.00    -0.040 A 
HETATM   16  C11 UNL     1      -4.529  49.397 -21.557  1.00  0.00     0.010 A 
HETATM   17  C12 UNL     1      -4.692  48.056 -21.199  1.00  0.00     0.024 A 
HETATM   18  C13 UNL     1      -3.582  47.217 -21.138  1.00  0.00     0.034 A 
HETATM   19 CL1  UNL     1      -3.782  45.566 -20.697  1.00  0.00    -0.084 Cl
HETATM   20  C14 UNL     1      -2.312  47.704 -21.438  1.00  0.00     0.024 A 
HETATM   21  C15 UNL     1      -2.148  49.044 -21.795  1.00  0.00     0.010 A 
ENDBRANCH  14  15
ENDBRANCH   9  14
BRANCH  11  22
HETATM   22  C18 UNL     1      -0.793  50.916 -19.510  1.00  0.00     0.120 C 
BRANCH  22  23
HETATM   23  C19 UNL     1      -1.822  51.031 -18.421  1.00  0.00     0.140 C 
HETATM   24  O3  UNL     1      -2.917  51.562 -18.481  1.00  0.00    -0.650 OA
BRANCH  23  25
HETATM   25  O4  UNL     1      -1.397  50.474 -17.268  1.00  0.00    -0.776 OA
HETATM   26  H15 UNL     1      -2.137  50.626 -16.644  1.00  0.00     0.167 HD
ENDBRANCH  23  25
ENDBRANCH  22  23
ENDBRANCH  11  22
BRANCH   1  27
HETATM   27  S1  UNL     1      -2.902  50.132 -25.421  1.00  0.00     0.174 S 
HETATM   28  C1  UNL     1      -3.034  49.850 -27.165  1.00  0.00     0.167 C 
HETATM   29  O1  UNL     1      -4.111  50.793 -24.971  1.00  0.00    -0.223 OA
HETATM   30  O2  UNL     1      -2.477  48.870 -24.841  1.00  0.00    -0.223 OA
ENDBRANCH   1  27
TORSDOF 6
ENDMDL
MODEL 8
REMARK minimizedAffinity -8.08959866
REMARK  6 active torsions:
REMARK  status: ('A' for Active; 'I' for Inactive)
REMARK    1  A    between atoms: S1_2  and  C2_5 
REMARK    2  A    between atoms: N1_13  and  C9_14 
REMARK    3  A    between atoms: C9_14  and  C10_15 
REMARK    4  A    between atoms: C17_23  and  C18_24 
REMARK    5  A    between atoms: C18_24  and  C19_25 
REMARK    6  A    between atoms: C19_25  and  O4_27 
ROOT
HETATM    1  C2  UNL     1      -5.839  45.735 -31.361  1.00  0.00     0.089 A 
HETATM    2  C3  UNL     1      -5.643  44.483 -31.971  1.00  0.00     0.068 A 
HETATM    3  C4  UNL     1      -6.213  43.334 -31.446  1.00  0.00     0.118 A 
HETATM    4  F1  UNL     1      -6.008  42.166 -32.068  1.00  0.00    -0.206 F 
HETATM    5  C5  UNL     1      -7.014  43.372 -30.317  1.00  0.00     0.056 A 
HETATM    6  C6  UNL     1      -7.213  44.600 -29.665  1.00  0.00     0.003 A 
HETATM    7  C7  UNL     1      -7.985  44.984 -28.563  1.00  0.00    -0.022 C 
HETATM    8  C8  UNL     1      -7.819  46.322 -28.366  1.00  0.00     0.024 C 
HETATM    9  N1  UNL     1      -6.846  46.783 -29.206  1.00  0.00    -0.343 N 
HETATM   10  C16 UNL     1      -6.580  45.773 -30.147  1.00  0.00     0.068 A 
HETATM   11  C17 UNL     1      -8.601  46.877 -27.224  1.00  0.00     0.046 C 
HETATM   12  C20 UNL     1      -9.539  45.642 -26.909  1.00  0.00     0.016 C 
HETATM   13  C21 UNL     1      -8.900  44.383 -27.574  1.00  0.00     0.042 C 
ENDROOT
BRANCH   9  14
HETATM   14  C9  UNL     1      -6.141  48.061 -29.067  1.00  0.00     0.167 C 
BRANCH  14  15
HETATM   15  C10 UNL     1      -5.336  48.184 -27.788  1.00  0.00    -0.040 A 
HETATM   16  C11 UNL     1      -5.952  48.055 -26.531  1.00  0.00     0.010 A 
HETATM   17  C12 UNL     1      -5.200  48.152 -25.358  1.00  0.00     0.024 A 
HETATM   18  C13 UNL     1      -3.826  48.362 -25.434  1.00  0.00     0.034 A 
HETATM   19 CL1  UNL     1      -2.899  48.482 -23.989  1.00  0.00    -0.084 Cl
HETATM   20  C14 UNL     1      -3.195  48.470 -26.671  1.00  0.00     0.024 A 
HETATM   21  C15 UNL     1      -3.946  48.374 -27.844  1.00  0.00     0.010 A 
ENDBRANCH  14  15
ENDBRANCH   9  14
BRANCH  11  22
HETATM   22  C18 UNL     1      -9.405  48.124 -27.580  1.00  0.00     0.120 C 
BRANCH  22  23
HETATM   23  C19 UNL     1      -9.911  48.821 -26.348  1.00  0.00     0.140 C 
HETATM   24  O3  UNL     1     -10.656  48.378 -25.492  1.00  0.00    -0.650 OA
BRANCH  23  25
HETATM   25  O4  UNL     1      -9.458  50.089 -26.266  1.00  0.00    -0.776 OA
HETATM   26  H15 UNL     1      -9.864  50.434 -25.444  1.00  0.00     0.167 HD
ENDBRANCH  23  25
ENDBRANCH  22  23
ENDBRANCH  11  22
BRANCH   1  27
HETATM   27  S1  UNL     1      -5.215  47.170 -32.221  1.00  0.00     0.174 S 
HETATM   28  C1  UNL     1      -6.606  48.014 -32.923  1.00  0.00     0.167 C 
HETATM   29  O1  UNL     1      -4.387  46.674 -33.302  1.00  0.00    -0.223 OA
HETATM   30  O2  UNL     1      -4.673  48.060 -31.209  1.00  0.00    -0.223 OA
ENDBRANCH   1  27
TORSDOF 6
ENDMDL
MODEL 9
REMARK minimizedAffinity -8.03269386
REMARK  6 active torsions:
REMARK  status: ('A' for Active; 'I' for Inactive)
REMARK    1  A    between atoms: S1_2  and  C2_5 
REMARK    2  A    between atoms: N1_13  and  C9_14 
REMARK    3  A    between atoms: C9_14  and  C10_15 
REMARK    4  A    between atoms: C17_23  and  C18_24 
REMARK    5  A    between atoms: C18_24  and  C19_25 
REMARK    6  A    between atoms: C19_25  and  O4_27 
ROOT
HETATM    1  C2  UNL     1      -0.259  52.036 -20.686  1.00  0.00     0.089 A 
HETATM    2  C3  UNL     1       0.688  53.075 -20.698  1.00  0.00     0.068 A 
HETATM    3  C4  UNL     1       1.165  53.594 -21.891  1.00  0.00     0.118 A 
HETATM    4  F1  UNL     1       2.058  54.591 -21.855  1.00  0.00    -0.206 F 
HETATM    5  C5  UNL     1       0.714  53.131 -23.117  1.00  0.00     0.056 A 
HETATM    6  C6  UNL     1      -0.214  52.077 -23.145  1.00  0.00     0.003 A 
HETATM    7  C7  UNL     1      -0.892  51.427 -24.183  1.00  0.00    -0.022 C 
HETATM    8  C8  UNL     1      -1.697  50.472 -23.639  1.00  0.00     0.024 C 
HETATM    9  N1  UNL     1      -1.444  50.378 -22.301  1.00  0.00    -0.343 N 
HETATM   10  C16 UNL     1      -0.658  51.486 -21.936  1.00  0.00     0.068 A 
HETATM   11  C17 UNL     1      -2.498  49.704 -24.636  1.00  0.00     0.046 C 
HETATM   12  C20 UNL     1      -2.243  50.581 -25.927  1.00  0.00     0.016 C 
HETATM   13  C21 UNL     1      -0.987  51.468 -25.654  1.00  0.00     0.042 C 
ENDROOT
BRANCH   9  14
HETATM   14  C9  UNL     1      -1.838  49.259 -21.439  1.00  0.00     0.167 C 
BRANCH  14  15
HETATM   15  C10 UNL     1      -3.336  49.124 -21.252  1.00  0.00    -0.040 A 
HETATM   16  C11 UNL     1      -3.964  47.870 -21.338  1.00  0.00     0.010 A 
HETATM   17  C12 UNL     1      -5.343  47.752 -21.147  1.00  0.00     0.024 A 
HETATM   18  C13 UNL     1      -6.099  48.883 -20.852  1.00  0.00     0.034 A 
HETATM   19 CL1  UNL     1      -7.798  48.738 -20.616  1.00  0.00    -0.084 Cl
HETATM   20  C14 UNL     1      -5.490  50.130 -20.740  1.00  0.00     0.024 A 
HETATM   21  C15 UNL     1      -4.112  50.250 -20.933  1.00  0.00     0.010 A 
ENDBRANCH  14  15
ENDBRANCH   9  14
BRANCH  11  22
HETATM   22  C18 UNL     1      -3.982  49.616 -24.294  1.00  0.00     0.120 C 
BRANCH  22  23
HETATM   23  C19 UNL     1      -4.659  50.951 -24.434  1.00  0.00     0.140 C 
HETATM   24  O3  UNL     1      -4.137  52.036 -24.624  1.00  0.00    -0.650 OA
BRANCH  23  25
HETATM   25  O4  UNL     1      -5.997  50.852 -24.301  1.00  0.00    -0.776 OA
HETATM   26  H15 UNL     1      -6.314  51.775 -24.395  1.00  0.00     0.167 HD
ENDBRANCH  23  25
ENDBRANCH  22  23
ENDBRANCH  11  22
BRANCH   1  27
HETATM   27  S1  UNL     1      -0.941  51.569 -19.103  1.00  0.00     0.174 S 
HETATM   28  C1  UNL     1      -0.622  49.842 -18.876  1.00  0.00     0.167 C 
HETATM   29  O1  UNL     1      -2.375  51.761 -19.200  1.00  0.00    -0.223 OA
HETATM   30  O2  UNL     1      -0.160  52.259 -18.092  1.00  0.00    -0.223 OA
ENDBRANCH   1  27
TORSDOF 6
ENDMDL
