MODEL 1
REMARK minimizedAffinity -7.27148867
REMARK CNNscore 0.549922228
REMARK CNNaffinity 6.46212626
REMARK  7 active torsions:
REMARK  status: ('A' for Active; 'I' for Inactive)
REMARK    1  A    between atoms: C2_2  and  C4_4 
REMARK    2  A    between atoms: C7_7  and  O1_9 
REMARK    3  A    between atoms: C9_10  and  C10_11 
REMARK    4  A    between atoms: C11_12  and  C12_13 
REMARK    5  A    between atoms: C14_15  and  C15_16 
REMARK    6  A    between atoms: C24_26  and  C26_28 
REMARK    7  A    between atoms: C29_32  and  O4_34 
ROOT
HETATM    1  C15 UNL     1     -15.396   7.656  12.472  1.00  0.00     0.149 C 
HETATM    2  C16 UNL     1     -16.190   8.420  13.538  1.00  0.00     0.054 C 
HETATM    3  C17 UNL     1     -16.935   9.556  12.790  1.00  0.00     0.050 C 
HETATM    4  C18 UNL     1     -16.994   8.909  11.382  1.00  0.00     0.272 C 
HETATM    5  O2  UNL     1     -18.003   7.912  11.232  1.00  0.00    -0.360 OA
HETATM    6  C19 UNL     1     -19.256   8.425  10.822  1.00  0.00     0.171 C 
HETATM    7  C20 UNL     1     -20.143   8.717  12.019  1.00  0.00     0.027 C 
HETATM    8  C21 UNL     1     -19.414   8.792  13.358  1.00  0.00     0.012 C 
HETATM    9  C22 UNL     1     -18.316   9.872  13.487  1.00  0.00     0.032 C 
HETATM   10  C23 UNL     1     -18.870  11.282  13.183  1.00  0.00    -0.066 C 
HETATM   11  C24 UNL     1     -19.725  11.968  13.984  1.00  0.00    -0.021 C 
HETATM   12  C25 UNL     1     -20.283  13.328  13.668  1.00  0.00     0.052 C 
HETATM   13  C27 UNL     1     -18.330  11.887  11.910  1.00  0.00     0.038 C 
HETATM   14  C28 UNL     1     -16.807  11.981  11.913  1.00  0.00     0.042 C 
HETATM   15  C29 UNL     1     -16.088  10.900  12.757  1.00  0.00     0.067 C 
HETATM   16  C30 UNL     1     -15.771  11.470  14.159  1.00  0.00     0.047 C 
HETATM   17  O5  UNL     1     -15.745   8.225  11.209  1.00  0.00    -0.351 OA
ENDROOT
BRANCH   1  18
HETATM   18  C14 UNL     1     -13.905   7.734  12.643  1.00  0.00     0.011 C 
HETATM   19  C12 UNL     1     -13.117   6.990  13.449  1.00  0.00    -0.064 C 
HETATM   20  C13 UNL     1     -13.635   5.869  14.314  1.00  0.00     0.048 C 
BRANCH  19  21
HETATM   21  C11 UNL     1     -11.680   7.259  13.456  1.00  0.00     0.003 C 
HETATM   22  C10 UNL     1     -10.811   6.932  14.427  1.00  0.00    -0.018 C 
BRANCH  22  23
HETATM   23  C9  UNL     1      -9.315   7.183  14.431  1.00  0.00     0.050 C 
HETATM   24  C4  UNL     1      -8.358   5.951  14.503  1.00  0.00     0.024 C 
HETATM   25  C5  UNL     1      -7.077   6.562  15.096  1.00  0.00     0.013 C 
HETATM   26  C6  UNL     1      -7.601   7.473  16.194  1.00  0.00     0.039 C 
HETATM   27  C7  UNL     1      -8.827   8.152  15.566  1.00  0.00     0.062 C 
HETATM   28  C8  UNL     1      -9.843   8.517  16.649  1.00  0.00     0.046 C 
BRANCH  24  29
HETATM   29  C2  UNL     1      -8.172   5.195  13.187  1.00  0.00    -0.088 C 
HETATM   30  C1  UNL     1      -8.597   5.632  11.987  1.00  0.00     0.014 C 
HETATM   31  C3  UNL     1      -7.411   3.894  13.264  1.00  0.00     0.043 C 
ENDBRANCH  24  29
BRANCH  27  32
HETATM   32  O1  UNL     1      -8.415   9.394  14.973  1.00  0.00    -0.390 OA
HETATM   33  H14 UNL     1      -7.700   9.212  14.341  1.00  0.00     0.210 HD
ENDBRANCH  27  32
ENDBRANCH  22  23
ENDBRANCH  19  21
ENDBRANCH   1  18
BRANCH  15  34
HETATM   34  O4  UNL     1     -14.809  10.697  12.150  1.00  0.00    -0.389 OA
HETATM   35  H44 UNL     1     -14.352  11.553  12.078  1.00  0.00     0.210 HD
ENDBRANCH  15  34
BRANCH  11  36
HETATM   36  C26 UNL     1     -20.218  11.427  15.289  1.00  0.00     0.265 C 
HETATM   37  O3  UNL     1     -21.020  12.003  16.010  1.00  0.00    -0.302 OA
ENDBRANCH  11  36
TORSDOF 7
ENDMDL
MODEL 2
REMARK minimizedAffinity -7.97292757
REMARK CNNscore 0.450853407
REMARK CNNaffinity 6.14883232
REMARK  7 active torsions:
REMARK  status: ('A' for Active; 'I' for Inactive)
REMARK    1  A    between atoms: C2_2  and  C4_4 
REMARK    2  A    between atoms: C7_7  and  O1_9 
REMARK    3  A    between atoms: C9_10  and  C10_11 
REMARK    4  A    between atoms: C11_12  and  C12_13 
REMARK    5  A    between atoms: C14_15  and  C15_16 
REMARK    6  A    between atoms: C24_26  and  C26_28 
REMARK    7  A    between atoms: C29_32  and  O4_34 
ROOT
HETATM    1  C15 UNL     1       7.581   9.165  12.165  1.00  0.00     0.149 C 
HETATM    2  C16 UNL     1       7.511  10.338  13.150  1.00  0.00     0.054 C 
HETATM    3  C17 UNL     1       8.242   9.868  14.434  1.00  0.00     0.050 C 
HETATM    4  C18 UNL     1       9.164   8.795  13.798  1.00  0.00     0.272 C 
HETATM    5  O2  UNL     1      10.309   9.321  13.130  1.00  0.00    -0.360 OA
HETATM    6  C19 UNL     1      11.433   9.492  13.972  1.00  0.00     0.171 C 
HETATM    7  C20 UNL     1      11.485  10.901  14.533  1.00  0.00     0.027 C 
HETATM    8  C21 UNL     1      10.180  11.685  14.428  1.00  0.00     0.012 C 
HETATM    9  C22 UNL     1       8.952  11.084  15.149  1.00  0.00     0.032 C 
HETATM   10  C23 UNL     1       9.233  10.856  16.652  1.00  0.00    -0.066 C 
HETATM   11  C24 UNL     1       9.369  11.844  17.573  1.00  0.00    -0.021 C 
HETATM   12  C25 UNL     1       9.671  11.617  19.028  1.00  0.00     0.052 C 
HETATM   13  C27 UNL     1       9.297   9.401  17.046  1.00  0.00     0.038 C 
HETATM   14  C28 UNL     1       8.015   8.649  16.699  1.00  0.00     0.042 C 
HETATM   15  C29 UNL     1       7.243   9.205  15.477  1.00  0.00     0.067 C 
HETATM   16  C30 UNL     1       6.129  10.161  15.964  1.00  0.00     0.047 C 
HETATM   17  O5  UNL     1       8.382   8.155  12.781  1.00  0.00    -0.351 OA
ENDROOT
BRANCH   1  18
HETATM   18  C14 UNL     1       6.243   8.576  11.816  1.00  0.00     0.011 C 
HETATM   19  C12 UNL     1       5.977   7.358  11.296  1.00  0.00    -0.064 C 
HETATM   20  C13 UNL     1       7.038   6.325  11.015  1.00  0.00     0.048 C 
BRANCH  19  21
HETATM   21  C11 UNL     1       4.584   7.008  11.026  1.00  0.00     0.003 C 
HETATM   22  C10 UNL     1       3.636   7.822  10.530  1.00  0.00    -0.018 C 
BRANCH  22  23
HETATM   23  C9  UNL     1       2.197   7.459  10.221  1.00  0.00     0.050 C 
HETATM   24  C4  UNL     1       1.604   7.894   8.843  1.00  0.00     0.024 C 
HETATM   25  C5  UNL     1       0.094   7.933   9.130  1.00  0.00     0.013 C 
HETATM   26  C6  UNL     1       0.015   8.598  10.495  1.00  0.00     0.039 C 
HETATM   27  C7  UNL     1       1.163   7.958  11.292  1.00  0.00     0.062 C 
HETATM   28  C8  UNL     1       1.678   8.932  12.351  1.00  0.00     0.046 C 
BRANCH  24  29
HETATM   29  C2  UNL     1       2.020   7.026   7.654  1.00  0.00    -0.088 C 
HETATM   30  C1  UNL     1       1.771   7.323   6.365  1.00  0.00     0.014 C 
HETATM   31  C3  UNL     1       2.806   5.780   7.979  1.00  0.00     0.043 C 
ENDBRANCH  24  29
BRANCH  27  32
HETATM   32  O1  UNL     1       0.651   6.825  12.009  1.00  0.00    -0.390 OA
HETATM   33  H14 UNL     1       0.229   6.222  11.374  1.00  0.00     0.210 HD
ENDBRANCH  27  32
ENDBRANCH  22  23
ENDBRANCH  19  21
ENDBRANCH   1  18
BRANCH  15  34
HETATM   34  O4  UNL     1       6.545   8.097  14.901  1.00  0.00    -0.389 OA
HETATM   35  H44 UNL     1       6.004   7.672  15.587  1.00  0.00     0.210 HD
ENDBRANCH  15  34
BRANCH  11  36
HETATM   36  C26 UNL     1       9.235  13.294  17.227  1.00  0.00     0.265 C 
HETATM   37  O3  UNL     1       8.167  13.885  17.152  1.00  0.00    -0.302 OA
ENDBRANCH  11  36
TORSDOF 7
ENDMDL
MODEL 3
REMARK minimizedAffinity -6.78422356
REMARK CNNscore 0.372974992
REMARK CNNaffinity 5.79188395
REMARK  7 active torsions:
REMARK  status: ('A' for Active; 'I' for Inactive)
REMARK    1  A    between atoms: C2_2  and  C4_4 
REMARK    2  A    between atoms: C7_7  and  O1_9 
REMARK    3  A    between atoms: C9_10  and  C10_11 
REMARK    4  A    between atoms: C11_12  and  C12_13 
REMARK    5  A    between atoms: C14_15  and  C15_16 
REMARK    6  A    between atoms: C24_26  and  C26_28 
REMARK    7  A    between atoms: C29_32  and  O4_34 
ROOT
HETATM    1  C15 UNL     1     -16.164   2.086  15.805  1.00  0.00     0.149 C 
HETATM    2  C16 UNL     1     -17.335   1.330  15.166  1.00  0.00     0.054 C 
HETATM    3  C17 UNL     1     -16.848  -0.128  14.963  1.00  0.00     0.050 C 
HETATM    4  C18 UNL     1     -15.761  -0.167  16.069  1.00  0.00     0.272 C 
HETATM    5  O2  UNL     1     -16.268  -0.337  17.391  1.00  0.00    -0.360 OA
HETATM    6  C19 UNL     1     -16.416  -1.690  17.776  1.00  0.00     0.171 C 
HETATM    7  C20 UNL     1     -17.822  -2.188  17.493  1.00  0.00     0.027 C 
HETATM    8  C21 UNL     1     -18.629  -1.323  16.529  1.00  0.00     0.012 C 
HETATM    9  C22 UNL     1     -18.048  -1.144  15.108  1.00  0.00     0.032 C 
HETATM   10  C23 UNL     1     -17.811  -2.506  14.418  1.00  0.00    -0.066 C 
HETATM   11  C24 UNL     1     -18.793  -3.334  13.979  1.00  0.00    -0.021 C 
HETATM   12  C25 UNL     1     -18.556  -4.671  13.334  1.00  0.00     0.052 C 
HETATM   13  C27 UNL     1     -16.353  -2.838  14.212  1.00  0.00     0.038 C 
HETATM   14  C28 UNL     1     -15.625  -1.775  13.394  1.00  0.00     0.042 C 
HETATM   15  C29 UNL     1     -16.199  -0.342  13.528  1.00  0.00     0.067 C 
HETATM   16  C30 UNL     1     -17.173  -0.068  12.359  1.00  0.00     0.047 C 
HETATM   17  O5  UNL     1     -15.138   1.125  16.056  1.00  0.00    -0.351 OA
ENDROOT
BRANCH   1  18
HETATM   18  C14 UNL     1     -15.601   3.183  14.946  1.00  0.00     0.011 C 
HETATM   19  C12 UNL     1     -15.779   4.516  15.070  1.00  0.00    -0.064 C 
HETATM   20  C13 UNL     1     -16.578   5.148  16.182  1.00  0.00     0.048 C 
BRANCH  19  21
HETATM   21  C11 UNL     1     -15.134   5.397  14.097  1.00  0.00     0.003 C 
HETATM   22  C10 UNL     1     -15.440   6.683  13.858  1.00  0.00    -0.018 C 
BRANCH  22  23
HETATM   23  C9  UNL     1     -14.759   7.611  12.871  1.00  0.00     0.050 C 
HETATM   24  C4  UNL     1     -13.491   8.392  13.343  1.00  0.00     0.024 C 
HETATM   25  C5  UNL     1     -13.475   9.601  12.392  1.00  0.00     0.013 C 
HETATM   26  C6  UNL     1     -14.934  10.023  12.340  1.00  0.00     0.039 C 
HETATM   27  C7  UNL     1     -15.706   8.698  12.249  1.00  0.00     0.062 C 
HETATM   28  C8  UNL     1     -17.092   8.849  12.877  1.00  0.00     0.046 C 
BRANCH  24  29
HETATM   29  C2  UNL     1     -12.200   7.573  13.379  1.00  0.00    -0.088 C 
HETATM   30  C1  UNL     1     -11.302   7.514  12.378  1.00  0.00     0.014 C 
HETATM   31  C3  UNL     1     -11.918   6.827  14.660  1.00  0.00     0.043 C 
ENDBRANCH  24  29
BRANCH  27  32
HETATM   32  O1  UNL     1     -15.929   8.387  10.865  1.00  0.00    -0.390 OA
HETATM   33  H14 UNL     1     -15.070   8.374  10.410  1.00  0.00     0.210 HD
ENDBRANCH  27  32
ENDBRANCH  22  23
ENDBRANCH  19  21
ENDBRANCH   1  18
BRANCH  15  34
HETATM   34  O4  UNL     1     -15.106   0.553  13.309  1.00  0.00    -0.389 OA
HETATM   35  H44 UNL     1     -14.688   0.342  12.457  1.00  0.00     0.210 HD
ENDBRANCH  15  34
BRANCH  11  36
HETATM   36  C26 UNL     1     -20.246  -2.997  14.100  1.00  0.00     0.265 C 
HETATM   37  O3  UNL     1     -20.867  -2.338  13.279  1.00  0.00    -0.302 OA
ENDBRANCH  11  36
TORSDOF 7
ENDMDL
MODEL 4
REMARK minimizedAffinity -7.63819361
REMARK CNNscore 0.331715375
REMARK CNNaffinity 6.18156958
REMARK  7 active torsions:
REMARK  status: ('A' for Active; 'I' for Inactive)
REMARK    1  A    between atoms: C2_2  and  C4_4 
REMARK    2  A    between atoms: C7_7  and  O1_9 
REMARK    3  A    between atoms: C9_10  and  C10_11 
REMARK    4  A    between atoms: C11_12  and  C12_13 
REMARK    5  A    between atoms: C14_15  and  C15_16 
REMARK    6  A    between atoms: C24_26  and  C26_28 
REMARK    7  A    between atoms: C29_32  and  O4_34 
ROOT
HETATM    1  C15 UNL     1      -6.188   6.942  13.902  1.00  0.00     0.149 C 
HETATM    2  C16 UNL     1      -5.059   7.807  13.329  1.00  0.00     0.054 C 
HETATM    3  C17 UNL     1      -3.826   7.566  14.238  1.00  0.00     0.050 C 
HETATM    4  C18 UNL     1      -4.203   6.162  14.776  1.00  0.00     0.272 C 
HETATM    5  O2  UNL     1      -3.957   5.094  13.864  1.00  0.00    -0.360 OA
HETATM    6  C19 UNL     1      -2.653   4.553  13.958  1.00  0.00     0.171 C 
HETATM    7  C20 UNL     1      -1.714   5.218  12.968  1.00  0.00     0.027 C 
HETATM    8  C21 UNL     1      -2.215   6.540  12.393  1.00  0.00     0.012 C 
HETATM    9  C22 UNL     1      -2.489   7.675  13.405  1.00  0.00     0.032 C 
HETATM   10  C23 UNL     1      -1.238   7.987  14.257  1.00  0.00    -0.066 C 
HETATM   11  C24 UNL     1      -0.114   8.590  13.792  1.00  0.00    -0.021 C 
HETATM   12  C25 UNL     1       1.111   8.864  14.619  1.00  0.00     0.052 C 
HETATM   13  C27 UNL     1      -1.381   7.608  15.711  1.00  0.00     0.038 C 
HETATM   14  C28 UNL     1      -2.572   8.292  16.375  1.00  0.00     0.042 C 
HETATM   15  C29 UNL     1      -3.749   8.622  15.423  1.00  0.00     0.067 C 
HETATM   16  C30 UNL     1      -3.628  10.087  14.945  1.00  0.00     0.047 C 
HETATM   17  O5  UNL     1      -5.624   6.183  14.973  1.00  0.00    -0.351 OA
ENDROOT
BRANCH   1  18
HETATM   18  C14 UNL     1      -7.356   7.728  14.429  1.00  0.00     0.011 C 
HETATM   19  C12 UNL     1      -8.034   7.543  15.583  1.00  0.00    -0.064 C 
HETATM   20  C13 UNL     1      -7.673   6.490  16.600  1.00  0.00     0.048 C 
BRANCH  19  21
HETATM   21  C11 UNL     1      -9.155   8.434  15.879  1.00  0.00     0.003 C 
HETATM   22  C10 UNL     1      -9.729   9.306  15.033  1.00  0.00    -0.018 C 
BRANCH  22  23
HETATM   23  C9  UNL     1     -10.908  10.213  15.324  1.00  0.00     0.050 C 
HETATM   24  C4  UNL     1     -11.768   9.924  16.597  1.00  0.00     0.024 C 
HETATM   25  C5  UNL     1     -13.117  10.568  16.236  1.00  0.00     0.013 C 
HETATM   26  C6  UNL     1     -13.325  10.156  14.788  1.00  0.00     0.039 C 
HETATM   27  C7  UNL     1     -11.940  10.327  14.146  1.00  0.00     0.062 C 
HETATM   28  C8  UNL     1     -11.772   9.351  12.982  1.00  0.00     0.046 C 
BRANCH  24  29
HETATM   29  C2  UNL     1     -11.152  10.393  17.916  1.00  0.00    -0.088 C 
HETATM   30  C1  UNL     1     -10.650  11.622  18.133  1.00  0.00     0.014 C 
HETATM   31  C3  UNL     1     -11.169   9.399  19.051  1.00  0.00     0.043 C 
ENDBRANCH  24  29
BRANCH  27  32
HETATM   32  O1  UNL     1     -11.853  11.643  13.577  1.00  0.00    -0.390 OA
HETATM   33  H14 UNL     1     -12.048  12.293  14.273  1.00  0.00     0.210 HD
ENDBRANCH  27  32
ENDBRANCH  22  23
ENDBRANCH  19  21
ENDBRANCH   1  18
BRANCH  15  34
HETATM   34  O4  UNL     1      -4.935   8.598  16.223  1.00  0.00    -0.389 OA
HETATM   35  H44 UNL     1      -4.820   9.198  16.980  1.00  0.00     0.210 HD
ENDBRANCH  15  34
BRANCH  11  36
HETATM   36  C26 UNL     1       0.028   9.046  12.374  1.00  0.00     0.265 C 
HETATM   37  O3  UNL     1       1.000   8.807  11.671  1.00  0.00    -0.302 OA
ENDBRANCH  11  36
TORSDOF 7
ENDMDL
MODEL 5
REMARK minimizedAffinity -6.77336645
REMARK CNNscore 0.327936232
REMARK CNNaffinity 5.86272001
REMARK  7 active torsions:
REMARK  status: ('A' for Active; 'I' for Inactive)
REMARK    1  A    between atoms: C2_2  and  C4_4 
REMARK    2  A    between atoms: C7_7  and  O1_9 
REMARK    3  A    between atoms: C9_10  and  C10_11 
REMARK    4  A    between atoms: C11_12  and  C12_13 
REMARK    5  A    between atoms: C14_15  and  C15_16 
REMARK    6  A    between atoms: C24_26  and  C26_28 
REMARK    7  A    between atoms: C29_32  and  O4_34 
ROOT
HETATM    1  C15 UNL     1       5.678   8.687  15.237  1.00  0.00     0.149 C 
HETATM    2  C16 UNL     1       7.067   8.751  14.592  1.00  0.00     0.054 C 
HETATM    3  C17 UNL     1       7.657  10.134  14.970  1.00  0.00     0.050 C 
HETATM    4  C18 UNL     1       6.846  10.386  16.267  1.00  0.00     0.272 C 
HETATM    5  O2  UNL     1       7.322   9.677  17.409  1.00  0.00    -0.360 OA
HETATM    6  C19 UNL     1       8.314  10.372  18.140  1.00  0.00     0.171 C 
HETATM    7  C20 UNL     1       9.706   9.973  17.684  1.00  0.00     0.027 C 
HETATM    8  C21 UNL     1       9.763   9.264  16.334  1.00  0.00     0.012 C 
HETATM    9  C22 UNL     1       9.227  10.050  15.116  1.00  0.00     0.032 C 
HETATM   10  C23 UNL     1       9.949  11.407  14.956  1.00  0.00    -0.066 C 
HETATM   11  C24 UNL     1      11.240  11.556  14.561  1.00  0.00    -0.021 C 
HETATM   12  C25 UNL     1      11.946  12.878  14.435  1.00  0.00     0.052 C 
HETATM   13  C27 UNL     1       9.069  12.602  15.228  1.00  0.00     0.038 C 
HETATM   14  C28 UNL     1       7.834  12.629  14.332  1.00  0.00     0.042 C 
HETATM   15  C29 UNL     1       7.327  11.238  13.876  1.00  0.00     0.067 C 
HETATM   16  C30 UNL     1       7.899  10.917  12.476  1.00  0.00     0.047 C 
HETATM   17  O5  UNL     1       5.529   9.876  16.015  1.00  0.00    -0.351 OA
ENDROOT
BRANCH   1  18
HETATM   18  C14 UNL     1       4.546   8.608  14.253  1.00  0.00     0.011 C 
HETATM   19  C12 UNL     1       3.327   8.052  14.424  1.00  0.00    -0.064 C 
HETATM   20  C13 UNL     1       2.872   7.432  15.721  1.00  0.00     0.048 C 
BRANCH  19  21
HETATM   21  C11 UNL     1       2.385   8.085  13.307  1.00  0.00     0.003 C 
HETATM   22  C10 UNL     1       2.107   7.074  12.466  1.00  0.00    -0.018 C 
BRANCH  22  23
HETATM   23  C9  UNL     1       1.112   7.091  11.322  1.00  0.00     0.050 C 
HETATM   24  C4  UNL     1       1.377   8.059  10.124  1.00  0.00     0.024 C 
HETATM   25  C5  UNL     1      -0.033   8.260   9.543  1.00  0.00     0.013 C 
HETATM   26  C6  UNL     1      -0.900   8.430  10.780  1.00  0.00     0.039 C 
HETATM   27  C7  UNL     1      -0.369   7.372  11.760  1.00  0.00     0.062 C 
HETATM   28  C8  UNL     1      -0.590   7.828  13.202  1.00  0.00     0.046 C 
BRANCH  24  29
HETATM   29  C2  UNL     1       2.433   7.584   9.126  1.00  0.00    -0.088 C 
HETATM   30  C1  UNL     1       3.256   8.396   8.437  1.00  0.00     0.014 C 
HETATM   31  C3  UNL     1       2.572   6.091   8.960  1.00  0.00     0.043 C 
ENDBRANCH  24  29
BRANCH  27  32
HETATM   32  O1  UNL     1      -1.138   6.169  11.602  1.00  0.00    -0.390 OA
HETATM   33  H14 UNL     1      -1.098   5.898  10.669  1.00  0.00     0.210 HD
ENDBRANCH  27  32
ENDBRANCH  22  23
ENDBRANCH  19  21
ENDBRANCH   1  18
BRANCH  15  34
HETATM   34  O4  UNL     1       5.918  11.368  13.672  1.00  0.00    -0.389 OA
HETATM   35  H44 UNL     1       5.752  12.103  13.056  1.00  0.00     0.210 HD
ENDBRANCH  15  34
BRANCH  11  36
HETATM   36  C26 UNL     1      12.115  10.394  14.211  1.00  0.00     0.265 C 
HETATM   37  O3  UNL     1      12.119   9.844  13.118  1.00  0.00    -0.302 OA
ENDBRANCH  11  36
TORSDOF 7
ENDMDL
MODEL 6
REMARK minimizedAffinity -6.47586632
REMARK CNNscore 0.305639595
REMARK CNNaffinity 5.48648262
REMARK  7 active torsions:
REMARK  status: ('A' for Active; 'I' for Inactive)
REMARK    1  A    between atoms: C2_2  and  C4_4 
REMARK    2  A    between atoms: C7_7  and  O1_9 
REMARK    3  A    between atoms: C9_10  and  C10_11 
REMARK    4  A    between atoms: C11_12  and  C12_13 
REMARK    5  A    between atoms: C14_15  and  C15_16 
REMARK    6  A    between atoms: C24_26  and  C26_28 
REMARK    7  A    between atoms: C29_32  and  O4_34 
ROOT
HETATM    1  C15 UNL     1     -18.532   1.681  12.687  1.00  0.00     0.149 C 
HETATM    2  C16 UNL     1     -18.548   0.384  13.504  1.00  0.00     0.054 C 
HETATM    3  C17 UNL     1     -17.140  -0.245  13.344  1.00  0.00     0.050 C 
HETATM    4  C18 UNL     1     -16.343   1.045  13.024  1.00  0.00     0.272 C 
HETATM    5  O2  UNL     1     -16.043   1.852  14.161  1.00  0.00    -0.360 OA
HETATM    6  C19 UNL     1     -14.829   1.507  14.801  1.00  0.00     0.171 C 
HETATM    7  C20 UNL     1     -15.070   0.526  15.934  1.00  0.00     0.027 C 
HETATM    8  C21 UNL     1     -16.424  -0.178  15.900  1.00  0.00     0.012 C 
HETATM    9  C22 UNL     1     -16.728  -1.032  14.649  1.00  0.00     0.032 C 
HETATM   10  C23 UNL     1     -15.644  -2.109  14.422  1.00  0.00    -0.066 C 
HETATM   11  C24 UNL     1     -15.464  -3.205  15.203  1.00  0.00    -0.021 C 
HETATM   12  C25 UNL     1     -14.388  -4.234  14.994  1.00  0.00     0.052 C 
HETATM   13  C27 UNL     1     -14.800  -1.874  13.192  1.00  0.00     0.038 C 
HETATM   14  C28 UNL     1     -15.639  -1.791  11.920  1.00  0.00     0.042 C 
HETATM   15  C29 UNL     1     -17.081  -1.261  12.123  1.00  0.00     0.067 C 
HETATM   16  C30 UNL     1     -18.052  -2.456  12.261  1.00  0.00     0.047 C 
HETATM   17  O5  UNL     1     -17.200   1.845  12.197  1.00  0.00    -0.351 OA
ENDROOT
BRANCH   1  18
HETATM   18  C14 UNL     1     -19.480   1.684  11.521  1.00  0.00     0.011 C 
HETATM   19  C12 UNL     1     -20.343   2.654  11.149  1.00  0.00    -0.064 C 
HETATM   20  C13 UNL     1     -20.462   3.978  11.860  1.00  0.00     0.048 C 
BRANCH  19  21
HETATM   21  C11 UNL     1     -21.183   2.424   9.975  1.00  0.00     0.003 C 
HETATM   22  C10 UNL     1     -21.500   1.232   9.440  1.00  0.00    -0.018 C 
BRANCH  22  23
HETATM   23  C9  UNL     1     -22.392   0.984   8.239  1.00  0.00     0.050 C 
HETATM   24  C4  UNL     1     -22.789   2.203   7.346  1.00  0.00     0.024 C 
HETATM   25  C5  UNL     1     -24.094   1.721   6.690  1.00  0.00     0.013 C 
HETATM   26  C6  UNL     1     -24.834   1.052   7.837  1.00  0.00     0.039 C 
HETATM   27  C7  UNL     1     -23.744   0.263   8.578  1.00  0.00     0.062 C 
HETATM   28  C8  UNL     1     -24.104   0.127  10.058  1.00  0.00     0.046 C 
BRANCH  24  29
HETATM   29  C2  UNL     1     -21.706   2.677   6.375  1.00  0.00    -0.088 C 
HETATM   30  C1  UNL     1     -21.044   1.878   5.519  1.00  0.00     0.014 C 
HETATM   31  C3  UNL     1     -21.419   4.158   6.367  1.00  0.00     0.043 C 
ENDBRANCH  24  29
BRANCH  27  32
HETATM   32  O1  UNL     1     -23.704  -1.074   8.055  1.00  0.00    -0.390 OA
HETATM   33  H14 UNL     1     -23.569  -1.024   7.093  1.00  0.00     0.210 HD
ENDBRANCH  27  32
ENDBRANCH  22  23
ENDBRANCH  19  21
ENDBRANCH   1  18
BRANCH  15  34
HETATM   34  O4  UNL     1     -17.455  -0.628  10.896  1.00  0.00    -0.389 OA
HETATM   35  H44 UNL     1     -17.332  -1.256  10.164  1.00  0.00     0.210 HD
ENDBRANCH  15  34
BRANCH  11  36
HETATM   36  C26 UNL     1     -16.333  -3.505  16.384  1.00  0.00     0.265 C 
HETATM   37  O3  UNL     1     -15.960  -4.127  17.368  1.00  0.00    -0.302 OA
ENDBRANCH  11  36
TORSDOF 7
ENDMDL
MODEL 7
REMARK minimizedAffinity -7.03371239
REMARK CNNscore 0.295302182
REMARK CNNaffinity 6.08845663
REMARK  7 active torsions:
REMARK  status: ('A' for Active; 'I' for Inactive)
REMARK    1  A    between atoms: C2_2  and  C4_4 
REMARK    2  A    between atoms: C7_7  and  O1_9 
REMARK    3  A    between atoms: C9_10  and  C10_11 
REMARK    4  A    between atoms: C11_12  and  C12_13 
REMARK    5  A    between atoms: C14_15  and  C15_16 
REMARK    6  A    between atoms: C24_26  and  C26_28 
REMARK    7  A    between atoms: C29_32  and  O4_34 
ROOT
HETATM    1  C15 UNL     1     -14.408   8.722  25.552  1.00  0.00     0.149 C 
HETATM    2  C16 UNL     1     -13.098   9.504  25.398  1.00  0.00     0.054 C 
HETATM    3  C17 UNL     1     -12.999   9.891  23.900  1.00  0.00     0.050 C 
HETATM    4  C18 UNL     1     -14.509   9.861  23.551  1.00  0.00     0.272 C 
HETATM    5  O2  UNL     1     -15.238  11.010  23.979  1.00  0.00    -0.360 OA
HETATM    6  C19 UNL     1     -15.251  12.062  23.033  1.00  0.00     0.171 C 
HETATM    7  C20 UNL     1     -14.126  13.046  23.297  1.00  0.00     0.027 C 
HETATM    8  C21 UNL     1     -13.017  12.528  24.209  1.00  0.00     0.012 C 
HETATM    9  C22 UNL     1     -12.255  11.273  23.728  1.00  0.00     0.032 C 
HETATM   10  C23 UNL     1     -11.637  11.488  22.328  1.00  0.00    -0.066 C 
HETATM   11  C24 UNL     1     -10.585  12.305  22.063  1.00  0.00    -0.021 C 
HETATM   12  C25 UNL     1     -10.006  12.532  20.693  1.00  0.00     0.052 C 
HETATM   13  C27 UNL     1     -12.277  10.654  21.245  1.00  0.00     0.038 C 
HETATM   14  C28 UNL     1     -12.215   9.160  21.551  1.00  0.00     0.042 C 
HETATM   15  C29 UNL     1     -12.204   8.802  23.058  1.00  0.00     0.067 C 
HETATM   16  C30 UNL     1     -10.745   8.596  23.526  1.00  0.00     0.047 C 
HETATM   17  O5  UNL     1     -15.062   8.757  24.282  1.00  0.00    -0.351 OA
ENDROOT
BRANCH   1  18
HETATM   18  C14 UNL     1     -14.222   7.288  25.961  1.00  0.00     0.011 C 
HETATM   19  C12 UNL     1     -14.895   6.596  26.906  1.00  0.00    -0.064 C 
HETATM   20  C13 UNL     1     -16.033   7.175  27.708  1.00  0.00     0.048 C 
BRANCH  19  21
HETATM   21  C11 UNL     1     -14.526   5.200  27.139  1.00  0.00     0.003 C 
HETATM   22  C10 UNL     1     -14.123   4.314  26.212  1.00  0.00    -0.018 C 
BRANCH  22  23
HETATM   23  C9  UNL     1     -13.713   2.874  26.449  1.00  0.00     0.050 C 
HETATM   24  C4  UNL     1     -12.697   2.573  27.597  1.00  0.00     0.024 C 
HETATM   25  C5  UNL     1     -12.079   1.238  27.150  1.00  0.00     0.013 C 
HETATM   26  C6  UNL     1     -11.857   1.438  25.659  1.00  0.00     0.039 C 
HETATM   27  C7  UNL     1     -13.130   2.153  25.182  1.00  0.00     0.062 C 
HETATM   28  C8  UNL     1     -12.821   3.029  23.968  1.00  0.00     0.046 C 
BRANCH  24  29
HETATM   29  C2  UNL     1     -13.289   2.579  29.007  1.00  0.00    -0.088 C 
HETATM   30  C1  UNL     1     -14.522   2.141  29.321  1.00  0.00     0.014 C 
HETATM   31  C3  UNL     1     -12.385   3.070  30.110  1.00  0.00     0.043 C 
ENDBRANCH  24  29
BRANCH  27  32
HETATM   32  O1  UNL     1     -14.072   1.168  24.732  1.00  0.00    -0.390 OA
HETATM   33  H14 UNL     1     -14.224   0.534  25.453  1.00  0.00     0.210 HD
ENDBRANCH  27  32
ENDBRANCH  22  23
ENDBRANCH  19  21
ENDBRANCH   1  18
BRANCH  15  34
HETATM   34  O4  UNL     1     -12.808   7.511  23.170  1.00  0.00    -0.389 OA
HETATM   35  H44 UNL     1     -12.343   6.890  22.584  1.00  0.00     0.210 HD
ENDBRANCH  15  34
BRANCH  11  36
HETATM   36  C26 UNL     1      -9.881  13.086  23.127  1.00  0.00     0.265 C 
HETATM   37  O3  UNL     1      -8.937  12.661  23.778  1.00  0.00    -0.302 OA
ENDBRANCH  11  36
TORSDOF 7
ENDMDL
MODEL 8
REMARK minimizedAffinity -6.98832464
REMARK CNNscore 0.287780672
REMARK CNNaffinity 6.39148664
REMARK  7 active torsions:
REMARK  status: ('A' for Active; 'I' for Inactive)
REMARK    1  A    between atoms: C2_2  and  C4_4 
REMARK    2  A    between atoms: C7_7  and  O1_9 
REMARK    3  A    between atoms: C9_10  and  C10_11 
REMARK    4  A    between atoms: C11_12  and  C12_13 
REMARK    5  A    between atoms: C14_15  and  C15_16 
REMARK    6  A    between atoms: C24_26  and  C26_28 
REMARK    7  A    between atoms: C29_32  and  O4_34 
ROOT
HETATM    1  C15 UNL     1      -7.302   5.348  12.937  1.00  0.00     0.149 C 
HETATM    2  C16 UNL     1      -6.135   6.289  12.615  1.00  0.00     0.054 C 
HETATM    3  C17 UNL     1      -4.969   5.866  13.545  1.00  0.00     0.050 C 
HETATM    4  C18 UNL     1      -5.383   4.391  13.782  1.00  0.00     0.272 C 
HETATM    5  O2  UNL     1      -5.074   3.509  12.704  1.00  0.00    -0.360 OA
HETATM    6  C19 UNL     1      -3.780   2.943  12.784  1.00  0.00     0.171 C 
HETATM    7  C20 UNL     1      -2.774   3.769  12.004  1.00  0.00     0.027 C 
HETATM    8  C21 UNL     1      -3.233   5.182  11.655  1.00  0.00     0.012 C 
HETATM    9  C22 UNL     1      -3.576   6.110  12.842  1.00  0.00     0.032 C 
HETATM   10  C23 UNL     1      -2.388   6.240  13.822  1.00  0.00    -0.066 C 
HETATM   11  C24 UNL     1      -1.234   6.904  13.556  1.00  0.00    -0.021 C 
HETATM   12  C25 UNL     1      -0.069   7.002  14.503  1.00  0.00     0.052 C 
HETATM   13  C27 UNL     1      -2.632   5.596  15.165  1.00  0.00     0.038 C 
HETATM   14  C28 UNL     1      -3.868   6.160  15.862  1.00  0.00     0.042 C 
HETATM   15  C29 UNL     1      -4.974   6.679  14.911  1.00  0.00     0.067 C 
HETATM   16  C30 UNL     1      -4.819   8.206  14.726  1.00  0.00     0.047 C 
HETATM   17  O5  UNL     1      -6.815   4.393  13.881  1.00  0.00    -0.351 OA
ENDROOT
BRANCH   1  18
HETATM   18  C14 UNL     1      -8.503   6.037  13.520  1.00  0.00     0.011 C 
HETATM   19  C12 UNL     1      -9.576   6.538  12.870  1.00  0.00    -0.064 C 
HETATM   20  C13 UNL     1      -9.767   6.434  11.378  1.00  0.00     0.048 C 
BRANCH  19  21
HETATM   21  C11 UNL     1     -10.626   7.182  13.657  1.00  0.00     0.003 C 
HETATM   22  C10 UNL     1     -11.899   7.386  13.277  1.00  0.00    -0.018 C 
BRANCH  22  23
HETATM   23  C9  UNL     1     -13.001   8.028  14.097  1.00  0.00     0.050 C 
HETATM   24  C4  UNL     1     -12.606   8.779  15.409  1.00  0.00     0.024 C 
HETATM   25  C5  UNL     1     -13.909   8.727  16.224  1.00  0.00     0.013 C 
HETATM   26  C6  UNL     1     -14.400   7.305  16.007  1.00  0.00     0.039 C 
HETATM   27  C7  UNL     1     -14.151   7.045  14.514  1.00  0.00     0.062 C 
HETATM   28  C8  UNL     1     -13.911   5.555  14.269  1.00  0.00     0.046 C 
BRANCH  24  29
HETATM   29  C2  UNL     1     -12.017  10.175  15.207  1.00  0.00    -0.088 C 
HETATM   30  C1  UNL     1     -10.976  10.675  15.899  1.00  0.00     0.014 C 
HETATM   31  C3  UNL     1     -12.636  11.010  14.112  1.00  0.00     0.043 C 
ENDBRANCH  24  29
BRANCH  27  32
HETATM   32  O1  UNL     1     -15.340   7.381  13.781  1.00  0.00    -0.390 OA
HETATM   33  H14 UNL     1     -15.579   8.301  13.986  1.00  0.00     0.210 HD
ENDBRANCH  27  32
ENDBRANCH  22  23
ENDBRANCH  19  21
ENDBRANCH   1  18
BRANCH  15  34
HETATM   34  O4  UNL     1      -6.213   6.521  15.608  1.00  0.00    -0.389 OA
HETATM   35  H44 UNL     1      -6.151   6.967  16.470  1.00  0.00     0.210 HD
ENDBRANCH  15  34
BRANCH  11  36
HETATM   36  C26 UNL     1      -0.993   7.617  12.263  1.00  0.00     0.265 C 
HETATM   37  O3  UNL     1      -0.395   8.680  12.167  1.00  0.00    -0.302 OA
ENDBRANCH  11  36
TORSDOF 7
ENDMDL
MODEL 9
REMARK minimizedAffinity -7.04154301
REMARK CNNscore 0.284582734
REMARK CNNaffinity 5.77309608
REMARK  7 active torsions:
REMARK  status: ('A' for Active; 'I' for Inactive)
REMARK    1  A    between atoms: C2_2  and  C4_4 
REMARK    2  A    between atoms: C7_7  and  O1_9 
REMARK    3  A    between atoms: C9_10  and  C10_11 
REMARK    4  A    between atoms: C11_12  and  C12_13 
REMARK    5  A    between atoms: C14_15  and  C15_16 
REMARK    6  A    between atoms: C24_26  and  C26_28 
REMARK    7  A    between atoms: C29_32  and  O4_34 
ROOT
HETATM    1  C15 UNL     1     -12.754  -8.482  28.854  1.00  0.00     0.149 C 
HETATM    2  C16 UNL     1     -14.209  -8.315  29.306  1.00  0.00     0.054 C 
HETATM    3  C17 UNL     1     -14.153  -7.709  30.731  1.00  0.00     0.050 C 
HETATM    4  C18 UNL     1     -12.765  -7.024  30.639  1.00  0.00     0.272 C 
HETATM    5  O2  UNL     1     -12.761  -5.789  29.926  1.00  0.00    -0.360 OA
HETATM    6  C19 UNL     1     -13.034  -4.662  30.736  1.00  0.00     0.171 C 
HETATM    7  C20 UNL     1     -14.513  -4.323  30.718  1.00  0.00     0.027 C 
HETATM    8  C21 UNL     1     -15.423  -5.437  30.205  1.00  0.00     0.012 C 
HETATM    9  C22 UNL     1     -15.396  -6.768  30.988  1.00  0.00     0.032 C 
HETATM   10  C23 UNL     1     -15.727  -6.554  32.482  1.00  0.00    -0.066 C 
HETATM   11  C24 UNL     1     -16.953  -6.224  32.964  1.00  0.00    -0.021 C 
HETATM   12  C25 UNL     1     -17.263  -5.988  34.416  1.00  0.00     0.052 C 
HETATM   13  C27 UNL     1     -14.560  -6.797  33.407  1.00  0.00     0.038 C 
HETATM   14  C28 UNL     1     -13.987  -8.204  33.260  1.00  0.00     0.042 C 
HETATM   15  C29 UNL     1     -14.153  -8.833  31.855  1.00  0.00     0.067 C 
HETATM   16  C30 UNL     1     -15.414  -9.728  31.838  1.00  0.00     0.047 C 
HETATM   17  O5  UNL     1     -11.936  -7.914  29.878  1.00  0.00    -0.351 OA
ENDROOT
BRANCH   1  18
HETATM   18  C14 UNL     1     -12.338  -9.910  28.639  1.00  0.00     0.011 C 
HETATM   19  C12 UNL     1     -12.677 -10.734  27.625  1.00  0.00    -0.064 C 
HETATM   20  C13 UNL     1     -13.537 -10.310  26.461  1.00  0.00     0.048 C 
BRANCH  19  21
HETATM   21  C11 UNL     1     -12.155 -12.100  27.635  1.00  0.00     0.003 C 
HETATM   22  C10 UNL     1     -11.046 -12.536  27.015  1.00  0.00    -0.018 C 
BRANCH  22  23
HETATM   23  C9  UNL     1     -10.483 -13.944  27.043  1.00  0.00     0.050 C 
HETATM   24  C4  UNL     1     -10.128 -14.572  28.428  1.00  0.00     0.024 C 
HETATM   25  C5  UNL     1      -9.078 -15.631  28.052  1.00  0.00     0.013 C 
HETATM   26  C6  UNL     1      -8.203 -14.910  27.040  1.00  0.00     0.039 C 
HETATM   27  C7  UNL     1      -9.201 -14.143  26.159  1.00  0.00     0.062 C 
HETATM   28  C8  UNL     1      -8.548 -12.882  25.593  1.00  0.00     0.046 C 
BRANCH  24  29
HETATM   29  C2  UNL     1     -11.322 -15.092  29.230  1.00  0.00    -0.088 C 
HETATM   30  C1  UNL     1     -12.125 -16.100  28.841  1.00  0.00     0.014 C 
HETATM   31  C3  UNL     1     -11.561 -14.443  30.571  1.00  0.00     0.043 C 
ENDBRANCH  24  29
BRANCH  27  32
HETATM   32  O1  UNL     1      -9.538 -14.958  25.025  1.00  0.00    -0.390 OA
HETATM   33  H14 UNL     1      -9.873 -15.812  25.348  1.00  0.00     0.210 HD
ENDBRANCH  27  32
ENDBRANCH  22  23
ENDBRANCH  19  21
ENDBRANCH   1  18
BRANCH  15  34
HETATM   34  O4  UNL     1     -13.061  -9.740  31.686  1.00  0.00    -0.389 OA
HETATM   35  H44 UNL     1     -13.048 -10.365  32.432  1.00  0.00     0.210 HD
ENDBRANCH  15  34
BRANCH  11  36
HETATM   36  C26 UNL     1     -18.148  -6.051  32.080  1.00  0.00     0.265 C 
HETATM   37  O3  UNL     1     -18.576  -4.966  31.711  1.00  0.00    -0.302 OA
ENDBRANCH  11  36
TORSDOF 7
ENDMDL
