MODEL 1
REMARK minimizedAffinity -11.1306925
REMARK  8 active torsions:
REMARK  status: ('A' for Active; 'I' for Inactive)
REMARK    1  A    between atoms: C12_12  and  O1_13 
REMARK    2  A    between atoms: C17_18  and  O2_19 
REMARK    3  A    between atoms: C18_20  and  C19_21 
REMARK    4  A    between atoms: C19_21  and  C21_23 
REMARK    5  A    between atoms: C21_23  and  C22_24 
REMARK    6  A    between atoms: C22_24  and  C23_25 
REMARK    7  A    between atoms: C24_26  and  C26_28 
REMARK    8  A    between atoms: C26_28  and  O3_29 
ROOT
HETATM    1  C1  UNL     1      -4.201   3.207  10.643  1.00  0.00     0.044 C 
HETATM    2  C2  UNL     1      -4.896   3.797  11.844  1.00  0.00    -0.074 C 
HETATM    3  C3  UNL     1      -4.417   4.764  12.670  1.00  0.00    -0.044 C 
HETATM    4  C4  UNL     1      -3.003   5.239  12.751  1.00  0.00    -0.048 C 
HETATM    5  C5  UNL     1      -2.692   6.408  13.380  1.00  0.00    -0.064 C 
HETATM    6  C6  UNL     1      -3.723   7.347  13.951  1.00  0.00     0.036 C 
HETATM    7  C7  UNL     1      -5.150   6.958  13.605  1.00  0.00     0.014 C 
HETATM    8  C8  UNL     1      -5.347   5.436  13.708  1.00  0.00     0.030 C 
HETATM    9  C9  UNL     1      -6.868   5.044  13.640  1.00  0.00    -0.014 C 
HETATM   10  C10 UNL     1      -7.644   5.843  12.565  1.00  0.00     0.018 C 
HETATM   11  C11 UNL     1      -7.546   5.334  14.998  1.00  0.00     0.018 C 
HETATM   12  C12 UNL     1      -6.936   3.526  13.363  1.00  0.00     0.130 C 
HETATM   13  C13 UNL     1      -6.269   3.183  12.031  1.00  0.00     0.067 C 
HETATM   14  C14 UNL     1      -1.234   6.782  13.662  1.00  0.00    -0.010 C 
HETATM   15  C15 UNL     1      -0.955   6.188  15.083  1.00  0.00     0.021 C 
HETATM   16  C16 UNL     1      -0.812   8.264  13.694  1.00  0.00     0.046 C 
HETATM   17  C17 UNL     1       0.726   8.237  13.509  1.00  0.00     0.124 C 
HETATM   18  C18 UNL     1       1.083   6.828  12.945  1.00  0.00     0.027 C 
HETATM   19  C27 UNL     1      -0.300   6.261  12.508  1.00  0.00    -0.026 C 
HETATM   20  C28 UNL     1      -0.716   6.818  11.113  1.00  0.00     0.016 C 
HETATM   21  C29 UNL     1      -0.420   4.736  12.487  1.00  0.00     0.015 C 
HETATM   22  C30 UNL     1      -1.886   4.313  12.242  1.00  0.00     0.040 C 
ENDROOT
BRANCH  18  23
HETATM   23  C19 UNL     1       2.353   6.655  12.053  1.00  0.00    -0.011 C 
HETATM   24  C20 UNL     1       2.825   8.054  11.604  1.00  0.00     0.010 C 
BRANCH  23  25
HETATM   25  C21 UNL     1       2.267   5.712  10.829  1.00  0.00     0.008 C 
BRANCH  25  26
HETATM   26  C22 UNL     1       3.302   5.955   9.718  1.00  0.00     0.028 C 
BRANCH  26  27
HETATM   27  C23 UNL     1       2.709   6.004   8.337  1.00  0.00    -0.022 C 
HETATM   28  C24 UNL     1       2.280   7.093   7.664  1.00  0.00    -0.064 C 
HETATM   29  C25 UNL     1       1.750   6.962   6.258  1.00  0.00     0.045 C 
BRANCH  28  30
HETATM   30  C26 UNL     1       2.282   8.496   8.206  1.00  0.00     0.197 C 
BRANCH  30  31
HETATM   31  O3  UNL     1       3.292   9.246   7.547  1.00  0.00    -0.397 OA
HETATM   32  H41 UNL     1       3.135   9.139   6.591  1.00  0.00     0.209 HD
ENDBRANCH  30  31
ENDBRANCH  28  30
ENDBRANCH  26  27
ENDBRANCH  25  26
ENDBRANCH  23  25
ENDBRANCH  18  23
BRANCH  17  33
HETATM   33  O2  UNL     1       1.119   9.304  12.669  1.00  0.00    -0.395 OA
HETATM   34  H25 UNL     1       0.856  10.135  13.103  1.00  0.00     0.210 HD
ENDBRANCH  17  33
BRANCH  12  35
HETATM   35  O1  UNL     1      -8.278   3.035  13.373  1.00  0.00    -0.394 OA
HETATM   36  H16 UNL     1      -8.726   3.341  12.567  1.00  0.00     0.210 HD
ENDBRANCH  12  35
TORSDOF 8
ENDMDL
MODEL 2
REMARK minimizedAffinity -10.2250719
REMARK  8 active torsions:
REMARK  status: ('A' for Active; 'I' for Inactive)
REMARK    1  A    between atoms: C12_12  and  O1_13 
REMARK    2  A    between atoms: C17_18  and  O2_19 
REMARK    3  A    between atoms: C18_20  and  C19_21 
REMARK    4  A    between atoms: C19_21  and  C21_23 
REMARK    5  A    between atoms: C21_23  and  C22_24 
REMARK    6  A    between atoms: C22_24  and  C23_25 
REMARK    7  A    between atoms: C24_26  and  C26_28 
REMARK    8  A    between atoms: C26_28  and  O3_29 
ROOT
HETATM    1  C1  UNL     1      -4.220   3.209  10.971  1.00  0.00     0.044 C 
HETATM    2  C2  UNL     1      -4.972   3.919  12.069  1.00  0.00    -0.074 C 
HETATM    3  C3  UNL     1      -4.530   4.964  12.816  1.00  0.00    -0.044 C 
HETATM    4  C4  UNL     1      -3.118   5.443  12.921  1.00  0.00    -0.048 C 
HETATM    5  C5  UNL     1      -2.832   6.669  13.444  1.00  0.00    -0.064 C 
HETATM    6  C6  UNL     1      -3.885   7.663  13.863  1.00  0.00     0.036 C 
HETATM    7  C7  UNL     1      -5.295   7.242  13.485  1.00  0.00     0.014 C 
HETATM    8  C8  UNL     1      -5.506   5.739  13.732  1.00  0.00     0.030 C 
HETATM    9  C9  UNL     1      -7.025   5.343  13.626  1.00  0.00    -0.014 C 
HETATM   10  C10 UNL     1      -7.740   6.030  12.437  1.00  0.00     0.018 C 
HETATM   11  C11 UNL     1      -7.770   5.770  14.911  1.00  0.00     0.018 C 
HETATM   12  C12 UNL     1      -7.088   3.805  13.501  1.00  0.00     0.130 C 
HETATM   13  C13 UNL     1      -6.356   3.328  12.247  1.00  0.00     0.067 C 
HETATM   14  C14 UNL     1      -1.388   7.069  13.761  1.00  0.00    -0.010 C 
HETATM   15  C15 UNL     1      -1.185   6.621  15.247  1.00  0.00     0.021 C 
HETATM   16  C16 UNL     1      -0.959   8.546  13.664  1.00  0.00     0.046 C 
HETATM   17  C17 UNL     1       0.586   8.499  13.562  1.00  0.00     0.124 C 
HETATM   18  C18 UNL     1       0.963   7.039  13.162  1.00  0.00     0.027 C 
HETATM   19  C27 UNL     1      -0.400   6.432  12.715  1.00  0.00    -0.026 C 
HETATM   20  C28 UNL     1      -0.741   6.845  11.251  1.00  0.00     0.016 C 
HETATM   21  C29 UNL     1      -0.528   4.913  12.842  1.00  0.00     0.015 C 
HETATM   22  C30 UNL     1      -1.983   4.469  12.566  1.00  0.00     0.040 C 
ENDROOT
BRANCH  18  23
HETATM   23  C19 UNL     1       2.275   6.776  12.359  1.00  0.00    -0.011 C 
HETATM   24  C20 UNL     1       3.298   7.871  12.727  1.00  0.00     0.010 C 
BRANCH  23  25
HETATM   25  C21 UNL     1       2.179   6.642  10.820  1.00  0.00     0.008 C 
BRANCH  25  26
HETATM   26  C22 UNL     1       3.261   5.779  10.150  1.00  0.00     0.028 C 
BRANCH  26  27
HETATM   27  C23 UNL     1       3.072   5.613   8.667  1.00  0.00    -0.022 C 
HETATM   28  C24 UNL     1       3.517   4.604   7.889  1.00  0.00    -0.064 C 
HETATM   29  C25 UNL     1       3.195   4.576   6.416  1.00  0.00     0.045 C 
BRANCH  28  30
HETATM   30  C26 UNL     1       4.342   3.443   8.374  1.00  0.00     0.197 C 
BRANCH  30  31
HETATM   31  O3  UNL     1       5.380   3.189   7.438  1.00  0.00    -0.397 OA
HETATM   32  H41 UNL     1       5.842   4.037   7.303  1.00  0.00     0.209 HD
ENDBRANCH  30  31
ENDBRANCH  28  30
ENDBRANCH  26  27
ENDBRANCH  25  26
ENDBRANCH  23  25
ENDBRANCH  18  23
BRANCH  17  33
HETATM   33  O2  UNL     1       1.028   9.474  12.640  1.00  0.00    -0.395 OA
HETATM   34  H25 UNL     1       0.748  10.345  12.973  1.00  0.00     0.210 HD
ENDBRANCH  17  33
BRANCH  12  35
HETATM   35  O1  UNL     1      -8.431   3.319  13.492  1.00  0.00    -0.394 OA
HETATM   36  H16 UNL     1      -8.836   3.542  12.638  1.00  0.00     0.210 HD
ENDBRANCH  12  35
TORSDOF 8
ENDMDL
MODEL 3
REMARK minimizedAffinity -10.0968227
REMARK  8 active torsions:
REMARK  status: ('A' for Active; 'I' for Inactive)
REMARK    1  A    between atoms: C12_12  and  O1_13 
REMARK    2  A    between atoms: C17_18  and  O2_19 
REMARK    3  A    between atoms: C18_20  and  C19_21 
REMARK    4  A    between atoms: C19_21  and  C21_23 
REMARK    5  A    between atoms: C21_23  and  C22_24 
REMARK    6  A    between atoms: C22_24  and  C23_25 
REMARK    7  A    between atoms: C24_26  and  C26_28 
REMARK    8  A    between atoms: C26_28  and  O3_29 
ROOT
HETATM    1  C1  UNL     1      -4.109   3.114  11.664  1.00  0.00     0.044 C 
HETATM    2  C2  UNL     1      -5.054   3.955  12.485  1.00  0.00    -0.074 C 
HETATM    3  C3  UNL     1      -4.769   5.131  13.106  1.00  0.00    -0.044 C 
HETATM    4  C4  UNL     1      -3.408   5.691  13.360  1.00  0.00    -0.048 C 
HETATM    5  C5  UNL     1      -3.243   6.999  13.706  1.00  0.00    -0.064 C 
HETATM    6  C6  UNL     1      -4.374   7.993  13.769  1.00  0.00     0.036 C 
HETATM    7  C7  UNL     1      -5.689   7.446  13.240  1.00  0.00     0.014 C 
HETATM    8  C8  UNL     1      -5.906   5.994  13.701  1.00  0.00     0.030 C 
HETATM    9  C9  UNL     1      -7.374   5.510  13.414  1.00  0.00    -0.014 C 
HETATM   10  C10 UNL     1      -7.889   5.956  12.023  1.00  0.00     0.018 C 
HETATM   11  C11 UNL     1      -8.338   6.105  14.466  1.00  0.00     0.018 C 
HETATM   12  C12 UNL     1      -7.381   3.972  13.544  1.00  0.00     0.130 C 
HETATM   13  C13 UNL     1      -6.434   3.332  12.529  1.00  0.00     0.067 C 
HETATM   14  C14 UNL     1      -1.884   7.518  14.186  1.00  0.00    -0.010 C 
HETATM   15  C15 UNL     1      -1.930   7.332  15.739  1.00  0.00     0.021 C 
HETATM   16  C16 UNL     1      -1.478   8.979  13.910  1.00  0.00     0.046 C 
HETATM   17  C17 UNL     1       0.063   8.994  14.075  1.00  0.00     0.124 C 
HETATM   18  C18 UNL     1       0.535   7.510  13.999  1.00  0.00     0.027 C 
HETATM   19  C27 UNL     1      -0.717   6.769  13.441  1.00  0.00    -0.026 C 
HETATM   20  C28 UNL     1      -0.810   6.918  11.893  1.00  0.00     0.016 C 
HETATM   21  C29 UNL     1      -0.832   5.287  13.803  1.00  0.00     0.015 C 
HETATM   22  C30 UNL     1      -2.207   4.731  13.370  1.00  0.00     0.040 C 
ENDROOT
BRANCH  18  23
HETATM   23  C19 UNL     1       1.971   7.185  13.481  1.00  0.00    -0.011 C 
HETATM   24  C20 UNL     1       2.881   8.395  13.781  1.00  0.00     0.010 C 
BRANCH  23  25
HETATM   25  C21 UNL     1       2.139   6.756  12.003  1.00  0.00     0.008 C 
BRANCH  25  26
HETATM   26  C22 UNL     1       3.529   6.988  11.388  1.00  0.00     0.028 C 
BRANCH  26  27
HETATM   27  C23 UNL     1       3.517   7.894  10.187  1.00  0.00    -0.022 C 
HETATM   28  C24 UNL     1       3.047   7.616   8.953  1.00  0.00    -0.064 C 
HETATM   29  C25 UNL     1       3.074   8.667   7.871  1.00  0.00     0.045 C 
BRANCH  28  30
HETATM   30  C26 UNL     1       2.465   6.295   8.530  1.00  0.00     0.197 C 
BRANCH  30  31
HETATM   31  O3  UNL     1       3.520   5.363   8.341  1.00  0.00    -0.397 OA
HETATM   32  H41 UNL     1       4.047   5.374   9.161  1.00  0.00     0.209 HD
ENDBRANCH  30  31
ENDBRANCH  28  30
ENDBRANCH  26  27
ENDBRANCH  25  26
ENDBRANCH  23  25
ENDBRANCH  18  23
BRANCH  17  33
HETATM   33  O2  UNL     1       0.635   9.826  13.087  1.00  0.00    -0.395 OA
HETATM   34  H25 UNL     1       0.283  10.724  13.215  1.00  0.00     0.210 HD
ENDBRANCH  17  33
BRANCH  12  35
HETATM   35  O1  UNL     1      -8.692   3.423  13.396  1.00  0.00    -0.394 OA
HETATM   36  H16 UNL     1      -8.948   3.483  12.461  1.00  0.00     0.210 HD
ENDBRANCH  12  35
TORSDOF 8
ENDMDL
MODEL 4
REMARK minimizedAffinity -9.90141869
REMARK  8 active torsions:
REMARK  status: ('A' for Active; 'I' for Inactive)
REMARK    1  A    between atoms: C12_12  and  O1_13 
REMARK    2  A    between atoms: C17_18  and  O2_19 
REMARK    3  A    between atoms: C18_20  and  C19_21 
REMARK    4  A    between atoms: C19_21  and  C21_23 
REMARK    5  A    between atoms: C21_23  and  C22_24 
REMARK    6  A    between atoms: C22_24  and  C23_25 
REMARK    7  A    between atoms: C24_26  and  C26_28 
REMARK    8  A    between atoms: C26_28  and  O3_29 
ROOT
HETATM    1  C1  UNL     1      -4.396   3.281  10.423  1.00  0.00     0.044 C 
HETATM    2  C2  UNL     1      -4.985   3.806  11.708  1.00  0.00    -0.074 C 
HETATM    3  C3  UNL     1      -4.432   4.725  12.542  1.00  0.00    -0.044 C 
HETATM    4  C4  UNL     1      -3.013   5.193  12.529  1.00  0.00    -0.048 C 
HETATM    5  C5  UNL     1      -2.643   6.325  13.193  1.00  0.00    -0.064 C 
HETATM    6  C6  UNL     1      -3.617   7.233  13.899  1.00  0.00     0.036 C 
HETATM    7  C7  UNL     1      -5.071   6.866  13.654  1.00  0.00     0.014 C 
HETATM    8  C8  UNL     1      -5.267   5.341  13.690  1.00  0.00     0.030 C 
HETATM    9  C9  UNL     1      -6.791   4.955  13.729  1.00  0.00    -0.014 C 
HETATM   10  C10 UNL     1      -7.650   5.813  12.768  1.00  0.00     0.018 C 
HETATM   11  C11 UNL     1      -7.351   5.171  15.154  1.00  0.00     0.018 C 
HETATM   12  C12 UNL     1      -6.891   3.455  13.377  1.00  0.00     0.130 C 
HETATM   13  C13 UNL     1      -6.340   3.183  11.977  1.00  0.00     0.067 C 
HETATM   14  C14 UNL     1      -1.165   6.682  13.371  1.00  0.00    -0.010 C 
HETATM   15  C15 UNL     1      -0.770   6.010  14.729  1.00  0.00     0.021 C 
HETATM   16  C16 UNL     1      -0.733   8.159  13.447  1.00  0.00     0.046 C 
HETATM   17  C17 UNL     1       0.785   8.141  13.132  1.00  0.00     0.124 C 
HETATM   18  C18 UNL     1       1.084   6.764  12.464  1.00  0.00     0.027 C 
HETATM   19  C27 UNL     1      -0.334   6.223  12.115  1.00  0.00    -0.026 C 
HETATM   20  C28 UNL     1      -0.863   6.856  10.792  1.00  0.00     0.016 C 
HETATM   21  C29 UNL     1      -0.464   4.702  12.021  1.00  0.00     0.015 C 
HETATM   22  C30 UNL     1      -1.948   4.295  11.879  1.00  0.00     0.040 C 
ENDROOT
BRANCH  18  23
HETATM   23  C19 UNL     1       2.273   6.639  11.461  1.00  0.00    -0.011 C 
HETATM   24  C20 UNL     1       2.233   5.229  10.833  1.00  0.00     0.010 C 
BRANCH  23  25
HETATM   25  C21 UNL     1       3.701   6.945  11.973  1.00  0.00     0.008 C 
BRANCH  25  26
HETATM   26  C22 UNL     1       4.833   6.796  10.943  1.00  0.00     0.028 C 
BRANCH  26  27
HETATM   27  C23 UNL     1       5.449   8.103  10.524  1.00  0.00    -0.022 C 
HETATM   28  C24 UNL     1       6.415   8.798  11.160  1.00  0.00    -0.064 C 
HETATM   29  C25 UNL     1       6.950  10.078  10.570  1.00  0.00     0.045 C 
BRANCH  28  30
HETATM   30  C26 UNL     1       7.046   8.397  12.467  1.00  0.00     0.197 C 
BRANCH  30  31
HETATM   31  O3  UNL     1       7.903   7.286  12.246  1.00  0.00    -0.397 OA
HETATM   32  H41 UNL     1       8.504   7.541  11.522  1.00  0.00     0.209 HD
ENDBRANCH  30  31
ENDBRANCH  28  30
ENDBRANCH  26  27
ENDBRANCH  25  26
ENDBRANCH  23  25
ENDBRANCH  18  23
BRANCH  17  33
HETATM   33  O2  UNL     1       1.112   9.251  12.322  1.00  0.00    -0.395 OA
HETATM   34  H25 UNL     1       0.891  10.057  12.821  1.00  0.00     0.210 HD
ENDBRANCH  17  33
BRANCH  12  35
HETATM   35  O1  UNL     1      -8.230   2.965  13.473  1.00  0.00    -0.394 OA
HETATM   36  H16 UNL     1      -8.742   3.316  12.726  1.00  0.00     0.210 HD
ENDBRANCH  12  35
TORSDOF 8
ENDMDL
MODEL 5
REMARK minimizedAffinity -9.62710571
REMARK  8 active torsions:
REMARK  status: ('A' for Active; 'I' for Inactive)
REMARK    1  A    between atoms: C12_12  and  O1_13 
REMARK    2  A    between atoms: C17_18  and  O2_19 
REMARK    3  A    between atoms: C18_20  and  C19_21 
REMARK    4  A    between atoms: C19_21  and  C21_23 
REMARK    5  A    between atoms: C21_23  and  C22_24 
REMARK    6  A    between atoms: C22_24  and  C23_25 
REMARK    7  A    between atoms: C24_26  and  C26_28 
REMARK    8  A    between atoms: C26_28  and  O3_29 
ROOT
HETATM    1  C1  UNL     1      -4.098   3.065  11.256  1.00  0.00     0.044 C 
HETATM    2  C2  UNL     1      -4.990   3.821  12.209  1.00  0.00    -0.074 C 
HETATM    3  C3  UNL     1      -4.674   4.947  12.901  1.00  0.00    -0.044 C 
HETATM    4  C4  UNL     1      -3.304   5.508  13.102  1.00  0.00    -0.048 C 
HETATM    5  C5  UNL     1      -3.128   6.787  13.541  1.00  0.00    -0.064 C 
HETATM    6  C6  UNL     1      -4.263   7.753  13.766  1.00  0.00     0.036 C 
HETATM    7  C7  UNL     1      -5.606   7.228  13.291  1.00  0.00     0.014 C 
HETATM    8  C8  UNL     1      -5.773   5.741  13.646  1.00  0.00     0.030 C 
HETATM    9  C9  UNL     1      -7.253   5.257  13.426  1.00  0.00    -0.014 C 
HETATM   10  C10 UNL     1      -7.873   5.805  12.117  1.00  0.00     0.018 C 
HETATM   11  C11 UNL     1      -8.144   5.748  14.590  1.00  0.00     0.018 C 
HETATM   12  C12 UNL     1      -7.234   3.713  13.431  1.00  0.00     0.130 C 
HETATM   13  C13 UNL     1      -6.357   3.174  12.301  1.00  0.00     0.067 C 
HETATM   14  C14 UNL     1      -1.744   7.288  13.962  1.00  0.00    -0.010 C 
HETATM   15  C15 UNL     1      -1.674   6.976  15.494  1.00  0.00     0.021 C 
HETATM   16  C16 UNL     1      -1.374   8.773  13.779  1.00  0.00     0.046 C 
HETATM   17  C17 UNL     1       0.174   8.801  13.833  1.00  0.00     0.124 C 
HETATM   18  C18 UNL     1       0.655   7.335  13.602  1.00  0.00     0.027 C 
HETATM   19  C27 UNL     1      -0.626   6.622  13.077  1.00  0.00    -0.026 C 
HETATM   20  C28 UNL     1      -0.834   6.893  11.557  1.00  0.00     0.016 C 
HETATM   21  C29 UNL     1      -0.698   5.113  13.324  1.00  0.00     0.015 C 
HETATM   22  C30 UNL     1      -2.095   4.570  12.947  1.00  0.00     0.040 C 
ENDROOT
BRANCH  18  23
HETATM   23  C19 UNL     1       2.053   7.078  12.957  1.00  0.00    -0.011 C 
HETATM   24  C20 UNL     1       3.123   7.780  13.819  1.00  0.00     0.010 C 
BRANCH  23  25
HETATM   25  C21 UNL     1       2.254   7.447  11.467  1.00  0.00     0.008 C 
BRANCH  25  26
HETATM   26  C22 UNL     1       3.664   7.918  11.074  1.00  0.00     0.028 C 
BRANCH  26  27
HETATM   27  C23 UNL     1       4.639   6.794  10.856  1.00  0.00    -0.022 C 
HETATM   28  C24 UNL     1       5.952   6.771  11.171  1.00  0.00    -0.064 C 
HETATM   29  C25 UNL     1       6.776   5.534  10.920  1.00  0.00     0.045 C 
BRANCH  28  30
HETATM   30  C26 UNL     1       6.710   7.917  11.783  1.00  0.00     0.197 C 
BRANCH  30  31
HETATM   31  O3  UNL     1       7.126   8.801  10.752  1.00  0.00    -0.397 OA
HETATM   32  H41 UNL     1       6.327   9.021  10.239  1.00  0.00     0.209 HD
ENDBRANCH  30  31
ENDBRANCH  28  30
ENDBRANCH  26  27
ENDBRANCH  25  26
ENDBRANCH  23  25
ENDBRANCH  18  23
BRANCH  17  33
HETATM   33  O2  UNL     1       0.663   9.719  12.877  1.00  0.00    -0.395 OA
HETATM   34  H25 UNL     1       0.312  10.598  13.104  1.00  0.00     0.210 HD
ENDBRANCH  17  33
BRANCH  12  35
HETATM   35  O1  UNL     1      -8.546   3.156  13.333  1.00  0.00    -0.394 OA
HETATM   36  H16 UNL     1      -8.871   3.287  12.426  1.00  0.00     0.210 HD
ENDBRANCH  12  35
TORSDOF 8
ENDMDL
MODEL 6
REMARK minimizedAffinity -9.42249966
REMARK  8 active torsions:
REMARK  status: ('A' for Active; 'I' for Inactive)
REMARK    1  A    between atoms: C12_12  and  O1_13 
REMARK    2  A    between atoms: C17_18  and  O2_19 
REMARK    3  A    between atoms: C18_20  and  C19_21 
REMARK    4  A    between atoms: C19_21  and  C21_23 
REMARK    5  A    between atoms: C21_23  and  C22_24 
REMARK    6  A    between atoms: C22_24  and  C23_25 
REMARK    7  A    between atoms: C24_26  and  C26_28 
REMARK    8  A    between atoms: C26_28  and  O3_29 
ROOT
HETATM    1  C1  UNL     1       3.634   5.831  10.272  1.00  0.00     0.044 C 
HETATM    2  C2  UNL     1       4.136   6.913  11.194  1.00  0.00    -0.074 C 
HETATM    3  C3  UNL     1       3.468   7.468  12.239  1.00  0.00    -0.044 C 
HETATM    4  C4  UNL     1       2.006   7.346  12.521  1.00  0.00    -0.048 C 
HETATM    5  C5  UNL     1       1.499   7.676  13.742  1.00  0.00    -0.064 C 
HETATM    6  C6  UNL     1       2.351   8.090  14.914  1.00  0.00     0.036 C 
HETATM    7  C7  UNL     1       3.840   7.936  14.661  1.00  0.00     0.014 C 
HETATM    8  C8  UNL     1       4.207   8.390  13.238  1.00  0.00     0.030 C 
HETATM    9  C9  UNL     1       5.764   8.512  13.053  1.00  0.00    -0.014 C 
HETATM   10  C10 UNL     1       6.538   7.340  13.705  1.00  0.00     0.018 C 
HETATM   11  C11 UNL     1       6.270   9.814  13.717  1.00  0.00     0.018 C 
HETATM   12  C12 UNL     1       6.039   8.587  11.536  1.00  0.00     0.130 C 
HETATM   13  C13 UNL     1       5.548   7.324  10.828  1.00  0.00     0.067 C 
HETATM   14  C14 UNL     1      -0.014   7.770  13.963  1.00  0.00    -0.010 C 
HETATM   15  C15 UNL     1      -0.354   9.265  13.652  1.00  0.00     0.021 C 
HETATM   16  C16 UNL     1      -0.611   7.441  15.346  1.00  0.00     0.046 C 
HETATM   17  C17 UNL     1      -2.111   7.164  15.068  1.00  0.00     0.124 C 
HETATM   18  C18 UNL     1      -2.241   6.907  13.536  1.00  0.00     0.027 C 
HETATM   19  C27 UNL     1      -0.764   6.701  13.085  1.00  0.00    -0.026 C 
HETATM   20  C28 UNL     1      -0.287   5.248  13.384  1.00  0.00     0.016 C 
HETATM   21  C29 UNL     1      -0.462   7.029  11.621  1.00  0.00     0.015 C 
HETATM   22  C30 UNL     1       1.062   6.984  11.362  1.00  0.00     0.040 C 
ENDROOT
BRANCH  18  23
HETATM   23  C19 UNL     1      -3.390   5.994  13.004  1.00  0.00    -0.011 C 
HETATM   24  C20 UNL     1      -4.739   6.627  13.404  1.00  0.00     0.010 C 
BRANCH  23  25
HETATM   25  C21 UNL     1      -3.377   4.496  13.395  1.00  0.00     0.008 C 
BRANCH  25  26
HETATM   26  C22 UNL     1      -4.469   3.624  12.754  1.00  0.00     0.028 C 
BRANCH  26  27
HETATM   27  C23 UNL     1      -5.706   4.388  12.366  1.00  0.00    -0.022 C 
HETATM   28  C24 UNL     1      -6.984   4.109  12.699  1.00  0.00    -0.064 C 
HETATM   29  C25 UNL     1      -8.104   5.015  12.256  1.00  0.00     0.045 C 
BRANCH  28  30
HETATM   30  C26 UNL     1      -7.422   2.922  13.514  1.00  0.00     0.197 C 
BRANCH  30  31
HETATM   31  O3  UNL     1      -8.022   1.965  12.653  1.00  0.00    -0.397 OA
HETATM   32  H41 UNL     1      -7.382   1.800  11.937  1.00  0.00     0.209 HD
ENDBRANCH  30  31
ENDBRANCH  28  30
ENDBRANCH  26  27
ENDBRANCH  25  26
ENDBRANCH  23  25
ENDBRANCH  18  23
BRANCH  17  33
HETATM   33  O2  UNL     1      -2.547   6.083  15.867  1.00  0.00    -0.395 OA
HETATM   34  H25 UNL     1      -2.427   6.337  16.799  1.00  0.00     0.210 HD
ENDBRANCH  17  33
BRANCH  12  35
HETATM   35  O1  UNL     1       7.423   8.796  11.247  1.00  0.00    -0.394 OA
HETATM   36  H16 UNL     1       7.906   7.974  11.434  1.00  0.00     0.210 HD
ENDBRANCH  12  35
TORSDOF 8
ENDMDL
MODEL 7
REMARK minimizedAffinity -9.13750744
REMARK  8 active torsions:
REMARK  status: ('A' for Active; 'I' for Inactive)
REMARK    1  A    between atoms: C12_12  and  O1_13 
REMARK    2  A    between atoms: C17_18  and  O2_19 
REMARK    3  A    between atoms: C18_20  and  C19_21 
REMARK    4  A    between atoms: C19_21  and  C21_23 
REMARK    5  A    between atoms: C21_23  and  C22_24 
REMARK    6  A    between atoms: C22_24  and  C23_25 
REMARK    7  A    between atoms: C24_26  and  C26_28 
REMARK    8  A    between atoms: C26_28  and  O3_29 
ROOT
HETATM    1  C1  UNL     1       3.706   5.642  10.119  1.00  0.00     0.044 C 
HETATM    2  C2  UNL     1       3.756   7.029  10.709  1.00  0.00    -0.074 C 
HETATM    3  C3  UNL     1       2.854   7.586  11.559  1.00  0.00    -0.044 C 
HETATM    4  C4  UNL     1       1.484   7.070  11.859  1.00  0.00    -0.048 C 
HETATM    5  C5  UNL     1       0.787   7.521  12.940  1.00  0.00    -0.064 C 
HETATM    6  C6  UNL     1       1.354   8.479  13.956  1.00  0.00     0.036 C 
HETATM    7  C7  UNL     1       2.834   8.760  13.760  1.00  0.00     0.014 C 
HETATM    8  C8  UNL     1       3.171   8.924  12.268  1.00  0.00     0.030 C 
HETATM    9  C9  UNL     1       4.621   9.496  12.062  1.00  0.00    -0.014 C 
HETATM   10  C10 UNL     1       5.658   8.852  13.014  1.00  0.00     0.018 C 
HETATM   11  C11 UNL     1       4.630  11.016  12.344  1.00  0.00     0.018 C 
HETATM   12  C12 UNL     1       4.999   9.260  10.584  1.00  0.00     0.130 C 
HETATM   13  C13 UNL     1       4.996   7.769  10.250  1.00  0.00     0.067 C 
HETATM   14  C14 UNL     1      -0.692   7.169  13.122  1.00  0.00    -0.010 C 
HETATM   15  C15 UNL     1      -1.453   8.337  12.410  1.00  0.00     0.021 C 
HETATM   16  C16 UNL     1      -1.283   7.033  14.539  1.00  0.00     0.046 C 
HETATM   17  C17 UNL     1      -2.587   6.220  14.344  1.00  0.00     0.124 C 
HETATM   18  C18 UNL     1      -2.487   5.547  12.941  1.00  0.00     0.027 C 
HETATM   19  C27 UNL     1      -0.985   5.725  12.569  1.00  0.00    -0.026 C 
HETATM   20  C28 UNL     1      -0.106   4.637  13.258  1.00  0.00     0.016 C 
HETATM   21  C29 UNL     1      -0.665   5.743  11.073  1.00  0.00     0.015 C 
HETATM   22  C30 UNL     1       0.813   6.132  10.842  1.00  0.00     0.040 C 
ENDROOT
BRANCH  18  23
HETATM   23  C19 UNL     1      -3.237   4.204  12.677  1.00  0.00    -0.011 C 
HETATM   24  C20 UNL     1      -2.334   3.305  11.807  1.00  0.00     0.010 C 
BRANCH  23  25
HETATM   25  C21 UNL     1      -4.659   4.264  12.069  1.00  0.00     0.008 C 
BRANCH  25  26
HETATM   26  C22 UNL     1      -5.808   3.837  12.998  1.00  0.00     0.028 C 
BRANCH  26  27
HETATM   27  C23 UNL     1      -7.072   4.628  12.802  1.00  0.00    -0.022 C 
HETATM   28  C24 UNL     1      -7.752   5.335  13.729  1.00  0.00    -0.064 C 
HETATM   29  C25 UNL     1      -8.987   6.111  13.344  1.00  0.00     0.045 C 
BRANCH  28  30
HETATM   30  C26 UNL     1      -7.377   5.433  15.183  1.00  0.00     0.197 C 
BRANCH  30  31
HETATM   31  O3  UNL     1      -7.890   4.301  15.871  1.00  0.00    -0.397 OA
HETATM   32  H41 UNL     1      -7.576   3.518  15.383  1.00  0.00     0.209 HD
ENDBRANCH  30  31
ENDBRANCH  28  30
ENDBRANCH  26  27
ENDBRANCH  25  26
ENDBRANCH  23  25
ENDBRANCH  18  23
BRANCH  17  33
HETATM   33  O2  UNL     1      -2.735   5.302  15.408  1.00  0.00    -0.395 OA
HETATM   34  H25 UNL     1      -2.788   5.813  16.234  1.00  0.00     0.210 HD
ENDBRANCH  17  33
BRANCH  12  35
HETATM   35  O1  UNL     1       6.268   9.828  10.254  1.00  0.00    -0.394 OA
HETATM   36  H16 UNL     1       6.964   9.287  10.661  1.00  0.00     0.210 HD
ENDBRANCH  12  35
TORSDOF 8
ENDMDL
MODEL 8
REMARK minimizedAffinity -8.65704727
REMARK  8 active torsions:
REMARK  status: ('A' for Active; 'I' for Inactive)
REMARK    1  A    between atoms: C12_12  and  O1_13 
REMARK    2  A    between atoms: C17_18  and  O2_19 
REMARK    3  A    between atoms: C18_20  and  C19_21 
REMARK    4  A    between atoms: C19_21  and  C21_23 
REMARK    5  A    between atoms: C21_23  and  C22_24 
REMARK    6  A    between atoms: C22_24  and  C23_25 
REMARK    7  A    between atoms: C24_26  and  C26_28 
REMARK    8  A    between atoms: C26_28  and  O3_29 
ROOT
HETATM    1  C1  UNL     1      -6.007   8.525  14.978  1.00  0.00     0.044 C 
HETATM    2  C2  UNL     1      -6.101   7.264  14.155  1.00  0.00    -0.074 C 
HETATM    3  C3  UNL     1      -5.067   6.518  13.687  1.00  0.00    -0.044 C 
HETATM    4  C4  UNL     1      -3.632   6.930  13.628  1.00  0.00    -0.048 C 
HETATM    5  C5  UNL     1      -2.646   6.009  13.433  1.00  0.00    -0.064 C 
HETATM    6  C6  UNL     1      -2.896   4.525  13.357  1.00  0.00     0.036 C 
HETATM    7  C7  UNL     1      -4.326   4.136  13.694  1.00  0.00     0.014 C 
HETATM    8  C8  UNL     1      -5.326   5.123  13.070  1.00  0.00     0.030 C 
HETATM    9  C9  UNL     1      -6.801   4.584  13.158  1.00  0.00    -0.014 C 
HETATM   10  C10 UNL     1      -7.120   3.936  14.528  1.00  0.00     0.018 C 
HETATM   11  C11 UNL     1      -7.030   3.501  12.080  1.00  0.00     0.018 C 
HETATM   12  C12 UNL     1      -7.740   5.776  12.874  1.00  0.00     0.130 C 
HETATM   13  C13 UNL     1      -7.548   6.884  13.910  1.00  0.00     0.067 C 
HETATM   14  C14 UNL     1      -1.208   6.449  13.147  1.00  0.00    -0.010 C 
HETATM   15  C15 UNL     1      -1.139   6.541  11.586  1.00  0.00     0.021 C 
HETATM   16  C16 UNL     1      -0.028   5.570  13.607  1.00  0.00     0.046 C 
HETATM   17  C17 UNL     1       1.195   6.521  13.600  1.00  0.00     0.124 C 
HETATM   18  C18 UNL     1       0.630   7.974  13.574  1.00  0.00     0.027 C 
HETATM   19  C27 UNL     1      -0.874   7.775  13.926  1.00  0.00    -0.026 C 
HETATM   20  C28 UNL     1      -1.073   7.625  15.464  1.00  0.00     0.016 C 
HETATM   21  C29 UNL     1      -1.829   8.853  13.407  1.00  0.00     0.015 C 
HETATM   22  C30 UNL     1      -3.297   8.431  13.642  1.00  0.00     0.040 C 
ENDROOT
BRANCH  18  23
HETATM   23  C19 UNL     1       1.466   9.136  14.198  1.00  0.00    -0.011 C 
HETATM   24  C20 UNL     1       0.515  10.315  14.491  1.00  0.00     0.010 C 
BRANCH  23  25
HETATM   25  C21 UNL     1       2.709   9.642  13.427  1.00  0.00     0.008 C 
BRANCH  25  26
HETATM   26  C22 UNL     1       3.518   8.572  12.677  1.00  0.00     0.028 C 
BRANCH  26  27
HETATM   27  C23 UNL     1       3.311   8.589  11.187  1.00  0.00    -0.022 C 
HETATM   28  C24 UNL     1       3.440   7.557  10.327  1.00  0.00    -0.064 C 
HETATM   29  C25 UNL     1       3.148   7.744   8.859  1.00  0.00     0.045 C 
BRANCH  28  30
HETATM   30  C26 UNL     1       3.865   6.165  10.709  1.00  0.00     0.197 C 
BRANCH  30  31
HETATM   31  O3  UNL     1       4.971   6.245  11.597  1.00  0.00    -0.397 OA
HETATM   32  H41 UNL     1       4.701   6.842  12.319  1.00  0.00     0.209 HD
ENDBRANCH  30  31
ENDBRANCH  28  30
ENDBRANCH  26  27
ENDBRANCH  25  26
ENDBRANCH  23  25
ENDBRANCH  18  23
BRANCH  17  33
HETATM   33  O2  UNL     1       2.013   6.247  14.719  1.00  0.00    -0.395 OA
HETATM   34  H25 UNL     1       2.315   5.325  14.647  1.00  0.00     0.210 HD
ENDBRANCH  17  33
BRANCH  12  35
HETATM   35  O1  UNL     1      -9.114   5.385  12.834  1.00  0.00    -0.394 OA
HETATM   36  H16 UNL     1      -9.407   5.192  13.740  1.00  0.00     0.210 HD
ENDBRANCH  12  35
TORSDOF 8
ENDMDL
MODEL 9
REMARK minimizedAffinity -8.62168407
REMARK  8 active torsions:
REMARK  status: ('A' for Active; 'I' for Inactive)
REMARK    1  A    between atoms: C12_12  and  O1_13 
REMARK    2  A    between atoms: C17_18  and  O2_19 
REMARK    3  A    between atoms: C18_20  and  C19_21 
REMARK    4  A    between atoms: C19_21  and  C21_23 
REMARK    5  A    between atoms: C21_23  and  C22_24 
REMARK    6  A    between atoms: C22_24  and  C23_25 
REMARK    7  A    between atoms: C24_26  and  C26_28 
REMARK    8  A    between atoms: C26_28  and  O3_29 
ROOT
HETATM    1  C1  UNL     1      -3.377   3.644  10.165  1.00  0.00     0.044 C 
HETATM    2  C2  UNL     1      -4.314   3.756  11.341  1.00  0.00    -0.074 C 
HETATM    3  C3  UNL     1      -4.239   4.650  12.362  1.00  0.00    -0.044 C 
HETATM    4  C4  UNL     1      -3.066   5.512  12.699  1.00  0.00    -0.048 C 
HETATM    5  C5  UNL     1      -3.200   6.579  13.537  1.00  0.00    -0.064 C 
HETATM    6  C6  UNL     1      -4.521   7.031  14.106  1.00  0.00     0.036 C 
HETATM    7  C7  UNL     1      -5.713   6.296  13.520  1.00  0.00     0.014 C 
HETATM    8  C8  UNL     1      -5.411   4.796  13.361  1.00  0.00     0.030 C 
HETATM    9  C9  UNL     1      -6.713   3.976  13.034  1.00  0.00    -0.014 C 
HETATM   10  C10 UNL     1      -7.624   4.686  12.003  1.00  0.00     0.018 C 
HETATM   11  C11 UNL     1      -7.548   3.783  14.321  1.00  0.00     0.018 C 
HETATM   12  C12 UNL     1      -6.262   2.591  12.520  1.00  0.00     0.130 C 
HETATM   13  C13 UNL     1      -5.422   2.726  11.251  1.00  0.00     0.067 C 
HETATM   14  C14 UNL     1      -1.969   7.323  14.062  1.00  0.00    -0.010 C 
HETATM   15  C15 UNL     1      -1.618   6.587  15.398  1.00  0.00     0.021 C 
HETATM   16  C16 UNL     1      -2.055   8.829  14.376  1.00  0.00     0.046 C 
HETATM   17  C17 UNL     1      -0.583   9.311  14.392  1.00  0.00     0.124 C 
HETATM   18  C18 UNL     1       0.254   8.212  13.669  1.00  0.00     0.027 C 
HETATM   19  C27 UNL     1      -0.833   7.341  12.973  1.00  0.00    -0.026 C 
HETATM   20  C28 UNL     1      -1.302   7.994  11.638  1.00  0.00     0.016 C 
HETATM   21  C29 UNL     1      -0.447   5.885  12.701  1.00  0.00     0.015 C 
HETATM   22  C30 UNL     1      -1.674   5.086  12.204  1.00  0.00     0.040 C 
ENDROOT
BRANCH  18  23
HETATM   23  C19 UNL     1       1.574   8.609  12.935  1.00  0.00    -0.011 C 
HETATM   24  C20 UNL     1       1.299   8.625  11.417  1.00  0.00     0.010 C 
BRANCH  23  25
HETATM   25  C21 UNL     1       2.852   7.787  13.229  1.00  0.00     0.008 C 
BRANCH  25  26
HETATM   26  C22 UNL     1       3.298   7.737  14.700  1.00  0.00     0.028 C 
BRANCH  26  27
HETATM   27  C23 UNL     1       4.632   8.383  14.952  1.00  0.00    -0.022 C 
HETATM   28  C24 UNL     1       4.870   9.591  15.504  1.00  0.00    -0.064 C 
HETATM   29  C25 UNL     1       6.284  10.066  15.724  1.00  0.00     0.045 C 
BRANCH  28  30
HETATM   30  C26 UNL     1       3.807  10.560  15.946  1.00  0.00     0.197 C 
BRANCH  30  31
HETATM   31  O3  UNL     1       3.366  10.202  17.248  1.00  0.00    -0.397 OA
HETATM   32  H41 UNL     1       4.166  10.137  17.801  1.00  0.00     0.209 HD
ENDBRANCH  30  31
ENDBRANCH  28  30
ENDBRANCH  26  27
ENDBRANCH  25  26
ENDBRANCH  23  25
ENDBRANCH  18  23
BRANCH  17  33
HETATM   33  O2  UNL     1      -0.497  10.585  13.786  1.00  0.00    -0.395 OA
HETATM   34  H25 UNL     1      -1.047  11.198  14.304  1.00  0.00     0.210 HD
ENDBRANCH  17  33
BRANCH  12  35
HETATM   35  O1  UNL     1      -7.368   1.719  12.279  1.00  0.00    -0.394 OA
HETATM   36  H16 UNL     1      -7.830   2.019  11.478  1.00  0.00     0.210 HD
ENDBRANCH  12  35
TORSDOF 8
ENDMDL
