MODEL 1
REMARK minimizedAffinity -10.3187494
REMARK  7 active torsions:
REMARK  status: ('A' for Active; 'I' for Inactive)
REMARK    1  A    between atoms: C4_4  and  C5_5 
REMARK    2  A    between atoms: C5_5  and  C6_6 
REMARK    3  A    between atoms: C6_6  and  C7_7 
REMARK    4  A    between atoms: C7_7  and  C9_9 
REMARK    5  A    between atoms: C22_22  and  O1_23 
REMARK    6  A    between atoms: C23_24  and  O2_25 
REMARK    7  A    between atoms: C24_26  and  O3_27 
ROOT
HETATM    1  C9  UNL     1      -0.770  49.987 -19.050  1.00  0.00    -0.002 C 
HETATM    2  C10 UNL     1      -1.760  48.841 -18.700  1.00  0.00     0.007 C 
HETATM    3  C11 UNL     1      -2.513  48.453 -19.985  1.00  0.00     0.015 C 
HETATM    4  C12 UNL     1      -1.711  49.107 -21.119  1.00  0.00    -0.013 C 
HETATM    5  C13 UNL     1      -0.520  48.153 -21.447  1.00  0.00     0.021 C 
HETATM    6  C14 UNL     1      -2.399  49.357 -22.456  1.00  0.00    -0.068 C 
HETATM    7  C15 UNL     1      -1.973  50.368 -23.256  1.00  0.00    -0.065 C 
HETATM    8  C16 UNL     1      -0.876  51.335 -22.802  1.00  0.00     0.036 C 
HETATM    9  C17 UNL     1      -0.308  51.161 -21.375  1.00  0.00     0.015 C 
HETATM   10  C18 UNL     1      -1.309  50.472 -20.438  1.00  0.00    -0.029 C 
HETATM   11  C19 UNL     1      -2.528  51.424 -20.216  1.00  0.00     0.016 C 
HETATM   12  C20 UNL     1      -2.607  50.632 -24.647  1.00  0.00     0.012 C 
HETATM   13  C21 UNL     1      -3.654  51.759 -24.423  1.00  0.00     0.023 C 
HETATM   14  C22 UNL     1      -1.573  51.116 -25.715  1.00  0.00     0.162 C 
HETATM   15  C23 UNL     1      -2.214  51.321 -27.095  1.00  0.00     0.177 C 
HETATM   16  C24 UNL     1      -2.907  50.050 -27.597  1.00  0.00     0.153 C 
HETATM   17  C25 UNL     1      -3.933  49.495 -26.589  1.00  0.00     0.018 C 
HETATM   18  C26 UNL     1      -4.523  48.183 -27.134  1.00  0.00     0.013 C 
HETATM   19  C27 UNL     1      -3.273  49.313 -25.191  1.00  0.00     0.007 C 
HETATM   20  C28 UNL     1      -4.231  48.732 -24.143  1.00  0.00     0.010 C 
HETATM   21  C29 UNL     1      -3.494  48.394 -22.849  1.00  0.00     0.036 C 
ENDROOT
BRANCH   1  22
HETATM   22  C7  UNL     1      -0.590  51.011 -17.885  1.00  0.00    -0.014 C 
HETATM   23  C8  UNL     1       0.204  52.249 -18.331  1.00  0.00     0.010 C 
BRANCH  22  24
HETATM   24  C6  UNL     1       0.159  50.413 -16.656  1.00  0.00     0.008 C 
BRANCH  24  25
HETATM   25  C5  UNL     1       0.634  51.432 -15.614  1.00  0.00     0.028 C 
BRANCH  25  26
HETATM   26  C4  UNL     1       1.953  52.038 -16.015  1.00  0.00    -0.025 C 
HETATM   27  C2  UNL     1       3.157  51.876 -15.432  1.00  0.00    -0.091 C 
HETATM   28  C1  UNL     1       3.440  51.017 -14.231  1.00  0.00     0.042 C 
HETATM   29  C3  UNL     1       4.369  52.590 -15.975  1.00  0.00     0.042 C 
ENDBRANCH  25  26
ENDBRANCH  24  25
ENDBRANCH  22  24
ENDBRANCH   1  22
BRANCH  14  30
HETATM   30  O1  UNL     1      -0.501  50.168 -25.857  1.00  0.00    -0.392 OA
HETATM   31  H35 UNL     1      -0.071  50.361 -26.712  1.00  0.00     0.210 HD
ENDBRANCH  14  30
BRANCH  15  32
HETATM   32  O2  UNL     1      -1.186  51.671 -28.047  1.00  0.00    -0.390 OA
HETATM   33  H37 UNL     1      -0.893  52.575 -27.826  1.00  0.00     0.210 HD
ENDBRANCH  15  32
BRANCH  16  34
HETATM   34  O3  UNL     1      -3.564  50.366 -28.833  1.00  0.00    -0.393 OA
HETATM   35  H39 UNL     1      -2.865  50.741 -29.401  1.00  0.00     0.210 HD
ENDBRANCH  16  34
TORSDOF 7
ENDMDL
MODEL 2
REMARK minimizedAffinity -9.62773895
REMARK  7 active torsions:
REMARK  status: ('A' for Active; 'I' for Inactive)
REMARK    1  A    between atoms: C4_4  and  C5_5 
REMARK    2  A    between atoms: C5_5  and  C6_6 
REMARK    3  A    between atoms: C6_6  and  C7_7 
REMARK    4  A    between atoms: C7_7  and  C9_9 
REMARK    5  A    between atoms: C22_22  and  O1_23 
REMARK    6  A    between atoms: C23_24  and  O2_25 
REMARK    7  A    between atoms: C24_26  and  O3_27 
ROOT
HETATM    1  C9  UNL     1      -0.438  52.758 -21.893  1.00  0.00    -0.002 C 
HETATM    2  C10 UNL     1       0.506  52.542 -23.110  1.00  0.00     0.007 C 
HETATM    3  C11 UNL     1      -0.227  51.652 -24.129  1.00  0.00     0.015 C 
HETATM    4  C12 UNL     1      -1.693  51.663 -23.674  1.00  0.00    -0.013 C 
HETATM    5  C13 UNL     1      -2.340  52.965 -24.241  1.00  0.00     0.021 C 
HETATM    6  C14 UNL     1      -2.611  50.534 -24.126  1.00  0.00    -0.068 C 
HETATM    7  C15 UNL     1      -3.680  50.185 -23.364  1.00  0.00    -0.065 C 
HETATM    8  C16 UNL     1      -3.931  50.836 -22.001  1.00  0.00     0.036 C 
HETATM    9  C17 UNL     1      -2.894  51.861 -21.489  1.00  0.00     0.015 C 
HETATM   10  C18 UNL     1      -1.508  51.634 -22.107  1.00  0.00    -0.029 C 
HETATM   11  C19 UNL     1      -0.942  50.274 -21.585  1.00  0.00     0.016 C 
HETATM   12  C20 UNL     1      -4.671  49.077 -23.805  1.00  0.00     0.012 C 
HETATM   13  C21 UNL     1      -4.209  47.786 -23.073  1.00  0.00     0.023 C 
HETATM   14  C22 UNL     1      -6.152  49.377 -23.402  1.00  0.00     0.162 C 
HETATM   15  C23 UNL     1      -7.120  48.292 -23.894  1.00  0.00     0.177 C 
HETATM   16  C24 UNL     1      -7.035  48.097 -25.411  1.00  0.00     0.153 C 
HETATM   17  C25 UNL     1      -5.600  47.814 -25.895  1.00  0.00     0.018 C 
HETATM   18  C26 UNL     1      -5.590  47.708 -27.429  1.00  0.00     0.013 C 
HETATM   19  C27 UNL     1      -4.626  48.911 -25.370  1.00  0.00     0.007 C 
HETATM   20  C28 UNL     1      -3.181  48.710 -25.841  1.00  0.00     0.010 C 
HETATM   21  C29 UNL     1      -2.307  49.904 -25.465  1.00  0.00     0.036 C 
ENDROOT
BRANCH   1  22
HETATM   22  C7  UNL     1       0.330  52.852 -20.537  1.00  0.00    -0.014 C 
HETATM   23  C8  UNL     1       1.848  52.971 -20.748  1.00  0.00     0.010 C 
BRANCH  22  24
HETATM   24  C6  UNL     1       0.097  51.617 -19.615  1.00  0.00     0.008 C 
BRANCH  24  25
HETATM   25  C5  UNL     1       0.096  51.909 -18.110  1.00  0.00     0.028 C 
BRANCH  25  26
HETATM   26  C4  UNL     1       1.461  52.342 -17.645  1.00  0.00    -0.025 C 
HETATM   27  C2  UNL     1       1.993  52.243 -16.411  1.00  0.00    -0.091 C 
HETATM   28  C1  UNL     1       1.311  51.646 -15.210  1.00  0.00     0.042 C 
HETATM   29  C3  UNL     1       3.383  52.757 -16.135  1.00  0.00     0.042 C 
ENDBRANCH  25  26
ENDBRANCH  24  25
ENDBRANCH  22  24
ENDBRANCH   1  22
BRANCH  14  30
HETATM   30  O1  UNL     1      -6.584  50.639 -23.940  1.00  0.00    -0.392 OA
HETATM   31  H35 UNL     1      -7.560  50.630 -23.918  1.00  0.00     0.210 HD
ENDBRANCH  14  30
BRANCH  15  32
HETATM   32  O2  UNL     1      -8.472  48.685 -23.572  1.00  0.00    -0.390 OA
HETATM   33  H37 UNL     1      -8.564  48.611 -22.603  1.00  0.00     0.210 HD
ENDBRANCH  15  32
BRANCH  16  34
HETATM   34  O3  UNL     1      -7.890  46.999 -25.761  1.00  0.00    -0.393 OA
HETATM   35  H39 UNL     1      -8.764  47.232 -25.394  1.00  0.00     0.210 HD
ENDBRANCH  16  34
TORSDOF 7
ENDMDL
MODEL 3
REMARK minimizedAffinity -9.56801033
REMARK  7 active torsions:
REMARK  status: ('A' for Active; 'I' for Inactive)
REMARK    1  A    between atoms: C4_4  and  C5_5 
REMARK    2  A    between atoms: C5_5  and  C6_6 
REMARK    3  A    between atoms: C6_6  and  C7_7 
REMARK    4  A    between atoms: C7_7  and  C9_9 
REMARK    5  A    between atoms: C22_22  and  O1_23 
REMARK    6  A    between atoms: C23_24  and  O2_25 
REMARK    7  A    between atoms: C24_26  and  O3_27 
ROOT
HETATM    1  C9  UNL     1      -1.712  49.459 -19.273  1.00  0.00    -0.002 C 
HETATM    2  C10 UNL     1      -2.750  48.324 -19.047  1.00  0.00     0.007 C 
HETATM    3  C11 UNL     1      -3.411  48.007 -20.400  1.00  0.00     0.015 C 
HETATM    4  C12 UNL     1      -2.511  48.686 -21.442  1.00  0.00    -0.013 C 
HETATM    5  C13 UNL     1      -1.319  47.718 -21.719  1.00  0.00     0.021 C 
HETATM    6  C14 UNL     1      -3.091  49.007 -22.815  1.00  0.00    -0.068 C 
HETATM    7  C15 UNL     1      -2.584  50.040 -23.538  1.00  0.00    -0.065 C 
HETATM    8  C16 UNL     1      -1.504  50.960 -22.961  1.00  0.00     0.036 C 
HETATM    9  C17 UNL     1      -1.050  50.715 -21.504  1.00  0.00     0.015 C 
HETATM   10  C18 UNL     1      -2.134  50.013 -20.675  1.00  0.00    -0.029 C 
HETATM   11  C19 UNL     1      -3.345  50.985 -20.505  1.00  0.00     0.016 C 
HETATM   12  C20 UNL     1      -3.105  50.375 -24.960  1.00  0.00     0.012 C 
HETATM   13  C21 UNL     1      -4.141  51.517 -24.767  1.00  0.00     0.023 C 
HETATM   14  C22 UNL     1      -1.982  50.877 -25.926  1.00  0.00     0.162 C 
HETATM   15  C23 UNL     1      -2.512  51.153 -27.340  1.00  0.00     0.177 C 
HETATM   16  C24 UNL     1      -3.192  49.920 -27.945  1.00  0.00     0.153 C 
HETATM   17  C25 UNL     1      -4.303  49.349 -27.042  1.00  0.00     0.018 C 
HETATM   18  C26 UNL     1      -4.877  48.076 -27.684  1.00  0.00     0.013 C 
HETATM   19  C27 UNL     1      -3.755  49.095 -25.607  1.00  0.00     0.007 C 
HETATM   20  C28 UNL     1      -4.802  48.496 -24.660  1.00  0.00     0.010 C 
HETATM   21  C29 UNL     1      -4.173  48.087 -23.329  1.00  0.00     0.036 C 
ENDROOT
BRANCH   1  22
HETATM   22  C7  UNL     1      -1.599  50.430 -18.055  1.00  0.00    -0.014 C 
HETATM   23  C8  UNL     1      -2.919  50.519 -17.271  1.00  0.00     0.010 C 
BRANCH  22  24
HETATM   24  C6  UNL     1      -1.219  51.884 -18.467  1.00  0.00     0.008 C 
BRANCH  24  25
HETATM   25  C5  UNL     1       0.282  52.193 -18.484  1.00  0.00     0.028 C 
BRANCH  25  26
HETATM   26  C4  UNL     1       0.588  53.327 -19.427  1.00  0.00    -0.025 C 
HETATM   27  C2  UNL     1       1.231  53.277 -20.610  1.00  0.00    -0.091 C 
HETATM   28  C1  UNL     1       1.780  52.035 -21.257  1.00  0.00     0.042 C 
HETATM   29  C3  UNL     1       1.460  54.536 -21.407  1.00  0.00     0.042 C 
ENDBRANCH  25  26
ENDBRANCH  24  25
ENDBRANCH  22  24
ENDBRANCH   1  22
BRANCH  14  30
HETATM   30  O1  UNL     1      -0.923  49.910 -26.026  1.00  0.00    -0.392 OA
HETATM   31  H35 UNL     1      -0.425  50.127 -26.838  1.00  0.00     0.210 HD
ENDBRANCH  14  30
BRANCH  15  32
HETATM   32  O2  UNL     1      -1.408  51.516 -28.196  1.00  0.00    -0.390 OA
HETATM   33  H37 UNL     1      -1.113  52.403 -27.916  1.00  0.00     0.210 HD
ENDBRANCH  15  32
BRANCH  16  34
HETATM   34  O3  UNL     1      -3.746  50.302 -29.213  1.00  0.00    -0.393 OA
HETATM   35  H39 UNL     1      -2.998  50.683 -29.711  1.00  0.00     0.210 HD
ENDBRANCH  16  34
TORSDOF 7
ENDMDL
MODEL 4
REMARK minimizedAffinity -9.45841122
REMARK  7 active torsions:
REMARK  status: ('A' for Active; 'I' for Inactive)
REMARK    1  A    between atoms: C4_4  and  C5_5 
REMARK    2  A    between atoms: C5_5  and  C6_6 
REMARK    3  A    between atoms: C6_6  and  C7_7 
REMARK    4  A    between atoms: C7_7  and  C9_9 
REMARK    5  A    between atoms: C22_22  and  O1_23 
REMARK    6  A    between atoms: C23_24  and  O2_25 
REMARK    7  A    between atoms: C24_26  and  O3_27 
ROOT
HETATM    1  C9  UNL     1      -3.800  50.548 -24.746  1.00  0.00    -0.002 C 
HETATM    2  C10 UNL     1      -5.242  50.169 -24.304  1.00  0.00     0.007 C 
HETATM    3  C11 UNL     1      -5.265  50.099 -22.767  1.00  0.00     0.015 C 
HETATM    4  C12 UNL     1      -3.963  50.781 -22.325  1.00  0.00    -0.013 C 
HETATM    5  C13 UNL     1      -4.228  52.319 -22.328  1.00  0.00     0.021 C 
HETATM    6  C14 UNL     1      -3.408  50.476 -20.939  1.00  0.00    -0.068 C 
HETATM    7  C15 UNL     1      -2.073  50.579 -20.709  1.00  0.00    -0.065 C 
HETATM    8  C16 UNL     1      -1.093  50.900 -21.840  1.00  0.00     0.036 C 
HETATM    9  C17 UNL     1      -1.662  51.043 -23.269  1.00  0.00     0.015 C 
HETATM   10  C18 UNL     1      -2.976  50.269 -23.445  1.00  0.00    -0.029 C 
HETATM   11  C19 UNL     1      -2.676  48.739 -23.339  1.00  0.00     0.016 C 
HETATM   12  C20 UNL     1      -1.465  50.327 -19.304  1.00  0.00     0.012 C 
HETATM   13  C21 UNL     1      -0.962  48.857 -19.323  1.00  0.00     0.023 C 
HETATM   14  C22 UNL     1      -0.257  51.264 -18.978  1.00  0.00     0.162 C 
HETATM   15  C23 UNL     1       0.295  51.031 -17.564  1.00  0.00     0.177 C 
HETATM   16  C24 UNL     1      -0.788  51.205 -16.493  1.00  0.00     0.153 C 
HETATM   17  C25 UNL     1      -2.027  50.327 -16.753  1.00  0.00     0.018 C 
HETATM   18  C26 UNL     1      -3.091  50.618 -15.681  1.00  0.00     0.013 C 
HETATM   19  C27 UNL     1      -2.561  50.558 -18.197  1.00  0.00     0.007 C 
HETATM   20  C28 UNL     1      -3.817  49.737 -18.514  1.00  0.00     0.010 C 
HETATM   21  C29 UNL     1      -4.412  50.137 -19.863  1.00  0.00     0.036 C 
ENDROOT
BRANCH   1  22
HETATM   22  C7  UNL     1      -3.380  49.875 -26.091  1.00  0.00    -0.014 C 
HETATM   23  C8  UNL     1      -3.827  48.405 -26.158  1.00  0.00     0.010 C 
BRANCH  22  24
HETATM   24  C6  UNL     1      -1.840  49.891 -26.328  1.00  0.00     0.008 C 
BRANCH  24  25
HETATM   25  C5  UNL     1      -1.294  51.141 -27.026  1.00  0.00     0.028 C 
BRANCH  25  26
HETATM   26  C4  UNL     1       0.204  51.068 -27.168  1.00  0.00    -0.025 C 
HETATM   27  C2  UNL     1       1.144  51.671 -26.413  1.00  0.00    -0.091 C 
HETATM   28  C1  UNL     1       0.878  52.556 -25.227  1.00  0.00     0.042 C 
HETATM   29  C3  UNL     1       2.607  51.489 -26.728  1.00  0.00     0.042 C 
ENDBRANCH  25  26
ENDBRANCH  24  25
ENDBRANCH  22  24
ENDBRANCH   1  22
BRANCH  14  30
HETATM   30  O1  UNL     1      -0.636  52.647 -19.088  1.00  0.00    -0.392 OA
HETATM   31  H35 UNL     1       0.037  53.159 -18.597  1.00  0.00     0.210 HD
ENDBRANCH  14  30
BRANCH  15  32
HETATM   32  O2  UNL     1       1.339  51.994 -17.300  1.00  0.00    -0.390 OA
HETATM   33  H37 UNL     1       2.101  51.743 -17.856  1.00  0.00     0.210 HD
ENDBRANCH  15  32
BRANCH  16  34
HETATM   34  O3  UNL     1      -0.209  50.865 -15.225  1.00  0.00    -0.393 OA
HETATM   35  H39 UNL     1       0.582  51.431 -15.148  1.00  0.00     0.210 HD
ENDBRANCH  16  34
TORSDOF 7
ENDMDL
MODEL 5
REMARK minimizedAffinity -9.39151287
REMARK  7 active torsions:
REMARK  status: ('A' for Active; 'I' for Inactive)
REMARK    1  A    between atoms: C4_4  and  C5_5 
REMARK    2  A    between atoms: C5_5  and  C6_6 
REMARK    3  A    between atoms: C6_6  and  C7_7 
REMARK    4  A    between atoms: C7_7  and  C9_9 
REMARK    5  A    between atoms: C22_22  and  O1_23 
REMARK    6  A    between atoms: C23_24  and  O2_25 
REMARK    7  A    between atoms: C24_26  and  O3_27 
ROOT
HETATM    1  C9  UNL     1      -1.354  50.034 -18.572  1.00  0.00    -0.002 C 
HETATM    2  C10 UNL     1      -2.150  48.707 -18.428  1.00  0.00     0.007 C 
HETATM    3  C11 UNL     1      -2.666  48.308 -19.822  1.00  0.00     0.015 C 
HETATM    4  C12 UNL     1      -1.873  49.187 -20.798  1.00  0.00    -0.013 C 
HETATM    5  C13 UNL     1      -0.497  48.488 -21.031  1.00  0.00     0.021 C 
HETATM    6  C14 UNL     1      -2.437  49.429 -22.193  1.00  0.00    -0.068 C 
HETATM    7  C15 UNL     1      -2.115  50.566 -22.864  1.00  0.00    -0.065 C 
HETATM    8  C16 UNL     1      -1.274  51.665 -22.210  1.00  0.00     0.036 C 
HETATM    9  C17 UNL     1      -0.851  51.469 -20.737  1.00  0.00     0.015 C 
HETATM   10  C18 UNL     1      -1.809  50.537 -19.983  1.00  0.00    -0.029 C 
HETATM   11  C19 UNL     1      -3.200  51.240 -19.858  1.00  0.00     0.016 C 
HETATM   12  C20 UNL     1      -2.623  50.835 -24.305  1.00  0.00     0.012 C 
HETATM   13  C21 UNL     1      -3.877  51.738 -24.145  1.00  0.00     0.023 C 
HETATM   14  C22 UNL     1      -1.579  51.583 -25.197  1.00  0.00     0.162 C 
HETATM   15  C23 UNL     1      -2.085  51.793 -26.632  1.00  0.00     0.177 C 
HETATM   16  C24 UNL     1      -2.470  50.468 -27.300  1.00  0.00     0.153 C 
HETATM   17  C25 UNL     1      -3.485  49.657 -26.471  1.00  0.00     0.018 C 
HETATM   18  C26 UNL     1      -3.758  48.316 -27.171  1.00  0.00     0.013 C 
HETATM   19  C27 UNL     1      -2.968  49.472 -25.014  1.00  0.00     0.007 C 
HETATM   20  C28 UNL     1      -3.917  48.644 -24.139  1.00  0.00     0.010 C 
HETATM   21  C29 UNL     1      -3.284  48.328 -22.785  1.00  0.00     0.036 C 
ENDROOT
BRANCH   1  22
HETATM   22  C7  UNL     1      -1.499  50.969 -17.329  1.00  0.00    -0.014 C 
HETATM   23  C8  UNL     1      -0.195  51.051 -16.521  1.00  0.00     0.010 C 
BRANCH  22  24
HETATM   24  C6  UNL     1      -2.614  50.505 -16.343  1.00  0.00     0.008 C 
BRANCH  24  25
HETATM   25  C5  UNL     1      -2.211  50.467 -14.864  1.00  0.00     0.028 C 
BRANCH  25  26
HETATM   26  C4  UNL     1      -3.085  51.380 -14.045  1.00  0.00    -0.025 C 
HETATM   27  C2  UNL     1      -2.759  52.074 -12.937  1.00  0.00    -0.091 C 
HETATM   28  C1  UNL     1      -1.406  52.089 -12.280  1.00  0.00     0.042 C 
HETATM   29  C3  UNL     1      -3.789  52.927 -12.240  1.00  0.00     0.042 C 
ENDBRANCH  25  26
ENDBRANCH  24  25
ENDBRANCH  22  24
ENDBRANCH   1  22
BRANCH  14  30
HETATM   30  O1  UNL     1      -0.342  50.852 -25.261  1.00  0.00    -0.392 OA
HETATM   31  H35 UNL     1       0.140  51.191 -26.040  1.00  0.00     0.210 HD
ENDBRANCH  14  30
BRANCH  15  32
HETATM   32  O2  UNL     1      -1.036  52.398 -27.419  1.00  0.00    -0.390 OA
HETATM   33  H37 UNL     1      -0.941  53.316 -27.103  1.00  0.00     0.210 HD
ENDBRANCH  15  32
BRANCH  16  34
HETATM   34  O3  UNL     1      -3.027  50.772 -28.587  1.00  0.00    -0.393 OA
HETATM   35  H39 UNL     1      -2.349  51.311 -29.035  1.00  0.00     0.210 HD
ENDBRANCH  16  34
TORSDOF 7
ENDMDL
MODEL 6
REMARK minimizedAffinity -9.33743668
REMARK  7 active torsions:
REMARK  status: ('A' for Active; 'I' for Inactive)
REMARK    1  A    between atoms: C4_4  and  C5_5 
REMARK    2  A    between atoms: C5_5  and  C6_6 
REMARK    3  A    between atoms: C6_6  and  C7_7 
REMARK    4  A    between atoms: C7_7  and  C9_9 
REMARK    5  A    between atoms: C22_22  and  O1_23 
REMARK    6  A    between atoms: C23_24  and  O2_25 
REMARK    7  A    between atoms: C24_26  and  O3_27 
ROOT
HETATM    1  C9  UNL     1      -0.705  51.420 -21.095  1.00  0.00    -0.002 C 
HETATM    2  C10 UNL     1      -0.129  50.101 -20.505  1.00  0.00     0.007 C 
HETATM    3  C11 UNL     1      -1.176  48.992 -20.707  1.00  0.00     0.015 C 
HETATM    4  C12 UNL     1      -2.173  49.577 -21.717  1.00  0.00    -0.013 C 
HETATM    5  C13 UNL     1      -1.567  49.358 -23.138  1.00  0.00     0.021 C 
HETATM    6  C14 UNL     1      -3.577  48.987 -21.789  1.00  0.00    -0.068 C 
HETATM    7  C15 UNL     1      -4.613  49.757 -22.212  1.00  0.00    -0.065 C 
HETATM    8  C16 UNL     1      -4.423  51.243 -22.525  1.00  0.00     0.036 C 
HETATM    9  C17 UNL     1      -3.025  51.858 -22.287  1.00  0.00     0.015 C 
HETATM   10  C18 UNL     1      -2.226  51.078 -21.234  1.00  0.00    -0.029 C 
HETATM   11  C19 UNL     1      -2.924  51.247 -19.846  1.00  0.00     0.016 C 
HETATM   12  C20 UNL     1      -6.050  49.190 -22.350  1.00  0.00     0.012 C 
HETATM   13  C21 UNL     1      -6.785  49.588 -21.040  1.00  0.00     0.023 C 
HETATM   14  C22 UNL     1      -6.834  49.785 -23.564  1.00  0.00     0.162 C 
HETATM   15  C23 UNL     1      -8.234  49.171 -23.710  1.00  0.00     0.177 C 
HETATM   16  C24 UNL     1      -8.177  47.645 -23.839  1.00  0.00     0.153 C 
HETATM   17  C25 UNL     1      -7.400  46.979 -22.687  1.00  0.00     0.018 C 
HETATM   18  C26 UNL     1      -7.325  45.463 -22.932  1.00  0.00     0.013 C 
HETATM   19  C27 UNL     1      -5.992  47.627 -22.538  1.00  0.00     0.007 C 
HETATM   20  C28 UNL     1      -5.150  46.990 -21.426  1.00  0.00     0.010 C 
HETATM   21  C29 UNL     1      -3.719  47.523 -21.444  1.00  0.00     0.036 C 
ENDROOT
BRANCH   1  22
HETATM   22  C7  UNL     1      -0.262  52.687 -20.296  1.00  0.00    -0.014 C 
HETATM   23  C8  UNL     1       1.111  53.201 -20.756  1.00  0.00     0.010 C 
BRANCH  22  24
HETATM   24  C6  UNL     1      -0.161  52.437 -18.761  1.00  0.00     0.008 C 
BRANCH  24  25
HETATM   25  C5  UNL     1       1.210  52.719 -18.137  1.00  0.00     0.028 C 
BRANCH  25  26
HETATM   26  C4  UNL     1       1.313  52.107 -16.765  1.00  0.00    -0.025 C 
HETATM   27  C2  UNL     1       2.394  52.033 -15.963  1.00  0.00    -0.091 C 
HETATM   28  C1  UNL     1       3.759  52.579 -16.282  1.00  0.00     0.042 C 
HETATM   29  C3  UNL     1       2.302  51.357 -14.619  1.00  0.00     0.042 C 
ENDBRANCH  25  26
ENDBRANCH  24  25
ENDBRANCH  22  24
ENDBRANCH   1  22
BRANCH  14  30
HETATM   30  O1  UNL     1      -6.120  49.566 -24.793  1.00  0.00    -0.392 OA
HETATM   31  H35 UNL     1      -6.769  49.678 -25.514  1.00  0.00     0.210 HD
ENDBRANCH  14  30
BRANCH  15  32
HETATM   32  O2  UNL     1      -8.858  49.694 -24.903  1.00  0.00    -0.390 OA
HETATM   33  H37 UNL     1      -9.067  50.630 -24.724  1.00  0.00     0.210 HD
ENDBRANCH  15  32
BRANCH  16  34
HETATM   34  O3  UNL     1      -9.526  47.155 -23.862  1.00  0.00    -0.393 OA
HETATM   35  H39 UNL     1      -9.959  47.644 -24.587  1.00  0.00     0.210 HD
ENDBRANCH  16  34
TORSDOF 7
ENDMDL
MODEL 7
REMARK minimizedAffinity -9.31494808
REMARK  7 active torsions:
REMARK  status: ('A' for Active; 'I' for Inactive)
REMARK    1  A    between atoms: C4_4  and  C5_5 
REMARK    2  A    between atoms: C5_5  and  C6_6 
REMARK    3  A    between atoms: C6_6  and  C7_7 
REMARK    4  A    between atoms: C7_7  and  C9_9 
REMARK    5  A    between atoms: C22_22  and  O1_23 
REMARK    6  A    between atoms: C23_24  and  O2_25 
REMARK    7  A    between atoms: C24_26  and  O3_27 
ROOT
HETATM    1  C9  UNL     1      -0.706  52.206 -22.392  1.00  0.00    -0.002 C 
HETATM    2  C10 UNL     1      -0.272  51.994 -23.869  1.00  0.00     0.007 C 
HETATM    3  C11 UNL     1      -1.348  51.139 -24.563  1.00  0.00     0.015 C 
HETATM    4  C12 UNL     1      -2.548  51.173 -23.607  1.00  0.00    -0.013 C 
HETATM    5  C13 UNL     1      -3.322  52.498 -23.889  1.00  0.00     0.021 C 
HETATM    6  C14 UNL     1      -3.598  50.071 -23.708  1.00  0.00    -0.068 C 
HETATM    7  C15 UNL     1      -4.327  49.731 -22.613  1.00  0.00    -0.065 C 
HETATM    8  C16 UNL     1      -4.050  50.361 -21.246  1.00  0.00     0.036 C 
HETATM    9  C17 UNL     1      -2.872  51.355 -21.134  1.00  0.00     0.015 C 
HETATM   10  C18 UNL     1      -1.809  51.110 -22.215  1.00  0.00    -0.029 C 
HETATM   11  C19 UNL     1      -1.129  49.729 -21.947  1.00  0.00     0.016 C 
HETATM   12  C20 UNL     1      -5.440  48.653 -22.676  1.00  0.00     0.012 C 
HETATM   13  C21 UNL     1      -4.779  47.339 -22.174  1.00  0.00     0.023 C 
HETATM   14  C22 UNL     1      -6.666  48.977 -21.761  1.00  0.00     0.162 C 
HETATM   15  C23 UNL     1      -7.775  47.922 -21.879  1.00  0.00     0.177 C 
HETATM   16  C24 UNL     1      -8.250  47.754 -23.327  1.00  0.00     0.153 C 
HETATM   17  C25 UNL     1      -7.095  47.450 -24.300  1.00  0.00     0.018 C 
HETATM   18  C26 UNL     1      -7.645  47.373 -25.734  1.00  0.00     0.013 C 
HETATM   19  C27 UNL     1      -5.969  48.516 -24.153  1.00  0.00     0.007 C 
HETATM   20  C28 UNL     1      -4.798  48.292 -25.117  1.00  0.00     0.010 C 
HETATM   21  C29 UNL     1      -3.815  49.461 -25.072  1.00  0.00     0.036 C 
ENDROOT
BRANCH   1  22
HETATM   22  C7  UNL     1       0.503  52.259 -21.405  1.00  0.00    -0.014 C 
HETATM   23  C8  UNL     1       0.686  50.930 -20.655  1.00  0.00     0.010 C 
BRANCH  22  24
HETATM   24  C6  UNL     1       0.362  53.372 -20.324  1.00  0.00     0.008 C 
BRANCH  24  25
HETATM   25  C5  UNL     1       0.177  52.875 -18.886  1.00  0.00     0.028 C 
BRANCH  25  26
HETATM   26  C4  UNL     1       1.456  53.007 -18.102  1.00  0.00    -0.025 C 
HETATM   27  C2  UNL     1       1.836  52.324 -17.003  1.00  0.00    -0.091 C 
HETATM   28  C1  UNL     1       1.038  51.246 -16.324  1.00  0.00     0.042 C 
HETATM   29  C3  UNL     1       3.160  52.616 -16.344  1.00  0.00     0.042 C 
ENDBRANCH  25  26
ENDBRANCH  24  25
ENDBRANCH  22  24
ENDBRANCH   1  22
BRANCH  14  30
HETATM   30  O1  UNL     1      -7.229  50.258 -22.094  1.00  0.00    -0.392 OA
HETATM   31  H35 UNL     1      -8.131  50.269 -21.720  1.00  0.00     0.210 HD
ENDBRANCH  14  30
BRANCH  15  32
HETATM   32  O2  UNL     1      -8.908  48.337 -21.086  1.00  0.00    -0.390 OA
HETATM   33  H37 UNL     1      -8.645  48.248 -20.151  1.00  0.00     0.210 HD
ENDBRANCH  15  32
BRANCH  16  34
HETATM   34  O3  UNL     1      -9.203  46.681 -23.354  1.00  0.00    -0.393 OA
HETATM   35  H39 UNL     1      -9.878  46.926 -22.693  1.00  0.00     0.210 HD
ENDBRANCH  16  34
TORSDOF 7
ENDMDL
MODEL 8
REMARK minimizedAffinity -9.09609985
REMARK  7 active torsions:
REMARK  status: ('A' for Active; 'I' for Inactive)
REMARK    1  A    between atoms: C4_4  and  C5_5 
REMARK    2  A    between atoms: C5_5  and  C6_6 
REMARK    3  A    between atoms: C6_6  and  C7_7 
REMARK    4  A    between atoms: C7_7  and  C9_9 
REMARK    5  A    between atoms: C22_22  and  O1_23 
REMARK    6  A    between atoms: C23_24  and  O2_25 
REMARK    7  A    between atoms: C24_26  and  O3_27 
ROOT
HETATM    1  C9  UNL     1      -3.744  49.503 -21.970  1.00  0.00    -0.002 C 
HETATM    2  C10 UNL     1      -2.570  49.139 -22.923  1.00  0.00     0.007 C 
HETATM    3  C11 UNL     1      -3.169  48.720 -24.277  1.00  0.00     0.015 C 
HETATM    4  C12 UNL     1      -4.630  49.186 -24.219  1.00  0.00    -0.013 C 
HETATM    5  C13 UNL     1      -4.644  50.699 -24.603  1.00  0.00     0.021 C 
HETATM    6  C14 UNL     1      -5.648  48.531 -25.146  1.00  0.00    -0.068 C 
HETATM    7  C15 UNL     1      -6.956  48.482 -24.785  1.00  0.00    -0.065 C 
HETATM    8  C16 UNL     1      -7.424  48.981 -23.416  1.00  0.00     0.036 C 
HETATM    9  C17 UNL     1      -6.349  49.490 -22.428  1.00  0.00     0.015 C 
HETATM   10  C18 UNL     1      -4.972  48.874 -22.710  1.00  0.00    -0.029 C 
HETATM   11  C19 UNL     1      -5.033  47.343 -22.403  1.00  0.00     0.016 C 
HETATM   12  C20 UNL     1      -8.037  47.871 -25.715  1.00  0.00     0.012 C 
HETATM   13  C21 UNL     1      -8.239  46.411 -25.221  1.00  0.00     0.023 C 
HETATM   14  C22 UNL     1      -9.409  48.618 -25.641  1.00  0.00     0.162 C 
HETATM   15  C23 UNL     1     -10.446  48.027 -26.607  1.00  0.00     0.177 C 
HETATM   16  C24 UNL     1      -9.943  48.029 -28.055  1.00  0.00     0.153 C 
HETATM   17  C25 UNL     1      -8.581  47.326 -28.212  1.00  0.00     0.018 C 
HETATM   18  C26 UNL     1      -8.114  47.440 -29.673  1.00  0.00     0.013 C 
HETATM   19  C27 UNL     1      -7.546  47.921 -27.211  1.00  0.00     0.007 C 
HETATM   20  C28 UNL     1      -6.155  47.288 -27.334  1.00  0.00     0.010 C 
HETATM   21  C29 UNL     1      -5.133  48.029 -26.474  1.00  0.00     0.036 C 
ENDROOT
BRANCH   1  22
HETATM   22  C7  UNL     1      -3.458  49.128 -20.482  1.00  0.00    -0.014 C 
HETATM   23  C8  UNL     1      -4.223  50.037 -19.506  1.00  0.00     0.010 C 
BRANCH  22  24
HETATM   24  C6  UNL     1      -1.949  49.229 -20.105  1.00  0.00     0.008 C 
BRANCH  24  25
HETATM   25  C5  UNL     1      -1.473  50.616 -19.659  1.00  0.00     0.028 C 
BRANCH  25  26
HETATM   26  C4  UNL     1      -0.583  51.241 -20.701  1.00  0.00    -0.025 C 
HETATM   27  C2  UNL     1       0.122  52.387 -20.618  1.00  0.00    -0.091 C 
HETATM   28  C1  UNL     1       0.176  53.296 -19.422  1.00  0.00     0.042 C 
HETATM   29  C3  UNL     1       0.947  52.861 -21.788  1.00  0.00     0.042 C 
ENDBRANCH  25  26
ENDBRANCH  24  25
ENDBRANCH  22  24
ENDBRANCH   1  22
BRANCH  14  30
HETATM   30  O1  UNL     1      -9.250  50.013 -25.953  1.00  0.00    -0.392 OA
HETATM   31  H35 UNL     1     -10.139  50.348 -26.182  1.00  0.00     0.210 HD
ENDBRANCH  14  30
BRANCH  15  32
HETATM   32  O2  UNL     1     -11.649  48.825 -26.554  1.00  0.00    -0.390 OA
HETATM   33  H37 UNL     1     -12.062  48.654 -25.687  1.00  0.00     0.210 HD
ENDBRANCH  15  32
BRANCH  16  34
HETATM   34  O3  UNL     1     -10.927  47.366 -28.862  1.00  0.00    -0.393 OA
HETATM   35  H39 UNL     1     -11.761  47.841 -28.684  1.00  0.00     0.210 HD
ENDBRANCH  16  34
TORSDOF 7
ENDMDL
MODEL 9
REMARK minimizedAffinity -9.07110119
REMARK  7 active torsions:
REMARK  status: ('A' for Active; 'I' for Inactive)
REMARK    1  A    between atoms: C4_4  and  C5_5 
REMARK    2  A    between atoms: C5_5  and  C6_6 
REMARK    3  A    between atoms: C6_6  and  C7_7 
REMARK    4  A    between atoms: C7_7  and  C9_9 
REMARK    5  A    between atoms: C22_22  and  O1_23 
REMARK    6  A    between atoms: C23_24  and  O2_25 
REMARK    7  A    between atoms: C24_26  and  O3_27 
ROOT
HETATM    1  C9  UNL     1      -2.509  48.144 -19.298  1.00  0.00    -0.002 C 
HETATM    2  C10 UNL     1      -3.646  47.223 -19.823  1.00  0.00     0.007 C 
HETATM    3  C11 UNL     1      -3.900  47.575 -21.300  1.00  0.00     0.015 C 
HETATM    4  C12 UNL     1      -2.687  48.420 -21.713  1.00  0.00    -0.013 C 
HETATM    5  C13 UNL     1      -1.539  47.427 -22.076  1.00  0.00     0.021 C 
HETATM    6  C14 UNL     1      -2.812  49.341 -22.922  1.00  0.00    -0.068 C 
HETATM    7  C15 UNL     1      -2.042  50.457 -23.002  1.00  0.00    -0.065 C 
HETATM    8  C16 UNL     1      -1.117  50.871 -21.854  1.00  0.00     0.036 C 
HETATM    9  C17 UNL     1      -1.131  50.009 -20.571  1.00  0.00     0.015 C 
HETATM   10  C18 UNL     1      -2.458  49.259 -20.397  1.00  0.00    -0.029 C 
HETATM   11  C19 UNL     1      -3.593  50.299 -20.132  1.00  0.00     0.016 C 
HETATM   12  C20 UNL     1      -2.096  51.400 -24.233  1.00  0.00     0.012 C 
HETATM   13  C21 UNL     1      -3.059  52.553 -23.836  1.00  0.00     0.023 C 
HETATM   14  C22 UNL     1      -0.706  52.013 -24.601  1.00  0.00     0.162 C 
HETATM   15  C23 UNL     1      -0.775  52.901 -25.852  1.00  0.00     0.177 C 
HETATM   16  C24 UNL     1      -1.333  52.141 -27.061  1.00  0.00     0.153 C 
HETATM   17  C25 UNL     1      -2.698  51.487 -26.773  1.00  0.00     0.018 C 
HETATM   18  C26 UNL     1      -3.148  50.685 -28.006  1.00  0.00     0.013 C 
HETATM   19  C27 UNL     1      -2.617  50.608 -25.491  1.00  0.00     0.007 C 
HETATM   20  C28 UNL     1      -3.936  49.899 -25.162  1.00  0.00     0.010 C 
HETATM   21  C29 UNL     1      -3.758  48.905 -24.015  1.00  0.00     0.036 C 
ENDROOT
BRANCH   1  22
HETATM   22  C7  UNL     1      -2.690  48.539 -17.798  1.00  0.00    -0.014 C 
HETATM   23  C8  UNL     1      -4.126  48.998 -17.498  1.00  0.00     0.010 C 
BRANCH  22  24
HETATM   24  C6  UNL     1      -1.744  49.694 -17.352  1.00  0.00     0.008 C 
BRANCH  24  25
HETATM   25  C5  UNL     1      -0.250  49.351 -17.328  1.00  0.00     0.028 C 
BRANCH  25  26
HETATM   26  C4  UNL     1       0.532  50.399 -16.582  1.00  0.00    -0.025 C 
HETATM   27  C2  UNL     1       0.855  51.644 -16.985  1.00  0.00    -0.091 C 
HETATM   28  C1  UNL     1       0.473  52.264 -18.301  1.00  0.00     0.042 C 
HETATM   29  C3  UNL     1       1.669  52.547 -16.094  1.00  0.00     0.042 C 
ENDBRANCH  25  26
ENDBRANCH  24  25
ENDBRANCH  22  24
ENDBRANCH   1  22
BRANCH  14  30
HETATM   30  O1  UNL     1       0.264  50.979 -24.840  1.00  0.00    -0.392 OA
HETATM   31  H35 UNL     1       0.993  51.393 -25.342  1.00  0.00     0.210 HD
ENDBRANCH  14  30
BRANCH  15  32
HETATM   32  O2  UNL     1       0.556  53.351 -26.187  1.00  0.00    -0.390 OA
HETATM   33  H37 UNL     1       0.817  53.993 -25.500  1.00  0.00     0.210 HD
ENDBRANCH  15  32
BRANCH  16  34
HETATM   34  O3  UNL     1      -1.460  53.073 -28.145  1.00  0.00    -0.393 OA
HETATM   35  H39 UNL     1      -0.574  53.469 -28.243  1.00  0.00     0.210 HD
ENDBRANCH  16  34
TORSDOF 7
ENDMDL
