MODEL 1
REMARK minimizedAffinity -8.03304386
REMARK CNNscore 0.609799087
REMARK CNNaffinity 6.59096909
REMARK  2 active torsions:
REMARK  status: ('A' for Active; 'I' for Inactive)
REMARK    1  A    between atoms: C13_16  and  C14_17 
REMARK    2  A    between atoms: C14_17  and  O4_19 
ROOT
HETATM    1  C1  UNL     1       4.027  50.686  -5.611  1.00  0.00     0.046 C 
HETATM    2  C2  UNL     1       3.502  51.664  -6.621  1.00  0.00    -0.054 C 
HETATM    3  C3  UNL     1       4.327  52.409  -7.377  1.00  0.00     0.011 C 
HETATM    4  C4  UNL     1       3.821  53.374  -8.417  1.00  0.00     0.159 C 
HETATM    5  O1  UNL     1       3.848  54.655  -7.758  1.00  0.00    -0.372 OA
HETATM    6  C5  UNL     1       3.172  55.708  -8.443  1.00  0.00     0.162 C 
HETATM    7  C6  UNL     1       1.708  55.761  -7.918  1.00  0.00     0.068 C 
HETATM    8  C7  UNL     1       0.878  55.271  -9.120  1.00  0.00     0.147 C 
HETATM    9  O2  UNL     1      -0.362  54.621  -8.836  1.00  0.00    -0.312 OA
HETATM   10  C8  UNL     1      -1.366  54.871  -9.722  1.00  0.00     0.283 C 
HETATM   11  O3  UNL     1      -1.470  55.863 -10.427  1.00  0.00    -0.260 OA
HETATM   12  C9  UNL     1      -2.259  53.697  -9.781  1.00  0.00     0.082 C 
HETATM   13  C10 UNL     1      -3.268  53.693 -10.666  1.00  0.00     0.006 C 
HETATM   14  C11 UNL     1      -4.213  52.616 -10.815  1.00  0.00    -0.001 C 
HETATM   15  C12 UNL     1      -4.082  51.463 -11.496  1.00  0.00     0.007 C 
HETATM   16  C13 UNL     1      -2.930  50.905 -12.320  1.00  0.00     0.172 C 
HETATM   17  O5  UNL     1      -1.715  51.248 -11.643  1.00  0.00    -0.379 OA
HETATM   18  C16 UNL     1      -0.470  50.876 -12.247  1.00  0.00     0.173 C 
HETATM   19  C17 UNL     1      -0.172  51.621 -13.555  1.00  0.00     0.060 C 
HETATM   20  C18 UNL     1       1.250  51.738 -14.108  1.00  0.00    -0.076 C 
HETATM   21  C19 UNL     1       1.265  52.301 -15.514  1.00  0.00     0.043 C 
HETATM   22  C20 UNL     1       2.439  51.451 -13.534  1.00  0.00     0.084 C 
HETATM   23  C21 UNL     1       2.644  50.938 -12.172  1.00  0.00     0.283 C 
HETATM   24  O6  UNL     1       2.465  49.774 -11.854  1.00  0.00    -0.260 OA
HETATM   25  O7  UNL     1       2.966  51.977 -11.354  1.00  0.00    -0.317 OA
HETATM   26  C22 UNL     1       2.639  51.726  -9.986  1.00  0.00     0.195 C 
HETATM   27  C23 UNL     1       2.414  53.006  -9.084  1.00  0.00     0.053 C 
HETATM   28  C24 UNL     1       1.479  52.561  -7.906  1.00  0.00     0.170 A 
HETATM   29  O8  UNL     1       1.282  51.145  -7.736  1.00  0.00    -0.370 OA
HETATM   30  C25 UNL     1       2.044  51.789  -6.719  1.00  0.00     0.180 A 
HETATM   31  C26 UNL     1       1.878  54.349  -9.908  1.00  0.00     0.034 C 
HETATM   32  C27 UNL     1       1.287  54.125 -11.299  1.00  0.00     0.022 C 
HETATM   33  C28 UNL     1       3.008  55.356  -9.886  1.00  0.00     0.119 A 
HETATM   34  C29 UNL     1       3.369  56.326 -10.993  1.00  0.00     0.210 A 
HETATM   35  O9  UNL     1       4.153  55.153 -10.706  1.00  0.00    -0.371 OA
ENDROOT
BRANCH  16  36
HETATM   36  C14 UNL     1      -3.020  49.362 -12.597  1.00  0.00     0.146 C 
HETATM   37  C15 UNL     1      -3.990  48.574 -11.720  1.00  0.00     0.042 C 
BRANCH  36  38
HETATM   38  O4  UNL     1      -3.460  49.139 -13.952  1.00  0.00    -0.393 OA
HETATM   39  H19 UNL     1      -4.392  49.410 -14.016  1.00  0.00     0.210 HD
ENDBRANCH  36  38
ENDBRANCH  16  36
TORSDOF 2
ENDMDL
MODEL 2
REMARK minimizedAffinity -6.70349169
REMARK CNNscore 0.510750413
REMARK CNNaffinity 5.63405085
REMARK  2 active torsions:
REMARK  status: ('A' for Active; 'I' for Inactive)
REMARK    1  A    between atoms: C13_16  and  C14_17 
REMARK    2  A    between atoms: C14_17  and  O4_19 
ROOT
HETATM    1  C1  UNL     1     -10.955  48.077 -29.787  1.00  0.00     0.046 C 
HETATM    2  C2  UNL     1     -11.357  46.795 -29.117  1.00  0.00    -0.054 C 
HETATM    3  C3  UNL     1     -10.504  46.108 -28.338  1.00  0.00     0.011 C 
HETATM    4  C4  UNL     1     -10.897  44.836 -27.634  1.00  0.00     0.159 C 
HETATM    5  O1  UNL     1     -10.400  43.787 -28.487  1.00  0.00    -0.372 OA
HETATM    6  C5  UNL     1     -10.866  42.475 -28.177  1.00  0.00     0.162 C 
HETATM    7  C6  UNL     1     -12.141  42.205 -29.028  1.00  0.00     0.068 C 
HETATM    8  C7  UNL     1     -13.273  42.192 -27.982  1.00  0.00     0.147 C 
HETATM    9  O2  UNL     1     -14.574  42.581 -28.424  1.00  0.00    -0.312 OA
HETATM   10  C8  UNL     1     -15.609  41.903 -27.854  1.00  0.00     0.283 C 
HETATM   11  O3  UNL     1     -15.555  40.778 -27.382  1.00  0.00    -0.260 OA
HETATM   12  C9  UNL     1     -16.789  42.788 -27.794  1.00  0.00     0.082 C 
HETATM   13  C10 UNL     1     -17.899  42.349 -27.180  1.00  0.00     0.006 C 
HETATM   14  C11 UNL     1     -19.117  43.109 -27.063  1.00  0.00    -0.001 C 
HETATM   15  C12 UNL     1     -19.434  44.069 -26.175  1.00  0.00     0.007 C 
HETATM   16  C13 UNL     1     -18.646  44.672 -25.020  1.00  0.00     0.172 C 
HETATM   17  O5  UNL     1     -17.284  44.792 -25.448  1.00  0.00    -0.379 OA
HETATM   18  C16 UNL     1     -16.319  45.293 -24.516  1.00  0.00     0.173 C 
HETATM   19  C17 UNL     1     -16.060  44.354 -23.330  1.00  0.00     0.060 C 
HETATM   20  C18 UNL     1     -14.782  44.447 -22.493  1.00  0.00    -0.076 C 
HETATM   21  C19 UNL     1     -14.860  43.591 -21.246  1.00  0.00     0.043 C 
HETATM   22  C20 UNL     1     -13.639  45.130 -22.715  1.00  0.00     0.084 C 
HETATM   23  C21 UNL     1     -13.347  45.981 -23.878  1.00  0.00     0.283 C 
HETATM   24  O6  UNL     1     -13.784  47.112 -24.015  1.00  0.00    -0.260 OA
HETATM   25  O7  UNL     1     -12.610  45.267 -24.772  1.00  0.00    -0.317 OA
HETATM   26  C22 UNL     1     -12.748  45.747 -26.111  1.00  0.00     0.195 C 
HETATM   27  C23 UNL     1     -12.445  44.697 -27.255  1.00  0.00     0.053 C 
HETATM   28  C24 UNL     1     -13.244  45.174 -28.518  1.00  0.00     0.170 A 
HETATM   29  O8  UNL     1     -13.794  46.504 -28.472  1.00  0.00    -0.370 OA
HETATM   30  C25 UNL     1     -12.716  46.312 -29.383  1.00  0.00     0.180 A 
HETATM   31  C26 UNL     1     -12.724  43.112 -26.832  1.00  0.00     0.034 C 
HETATM   32  C27 UNL     1     -13.590  42.860 -25.599  1.00  0.00     0.022 C 
HETATM   33  C28 UNL     1     -11.373  42.432 -26.773  1.00  0.00     0.119 A 
HETATM   34  C29 UNL     1     -10.957  41.342 -25.805  1.00  0.00     0.210 A 
HETATM   35  O9  UNL     1     -10.493  42.700 -25.687  1.00  0.00    -0.371 OA
ENDROOT
BRANCH  16  36
HETATM   36  C14 UNL     1     -19.209  46.043 -24.499  1.00  0.00     0.146 C 
HETATM   37  C15 UNL     1     -18.284  47.250 -24.638  1.00  0.00     0.042 C 
BRANCH  36  38
HETATM   38  O4  UNL     1     -20.401  46.386 -25.233  1.00  0.00    -0.393 OA
HETATM   39  H19 UNL     1     -20.142  46.608 -26.144  1.00  0.00     0.210 HD
ENDBRANCH  36  38
ENDBRANCH  16  36
TORSDOF 2
ENDMDL
MODEL 3
REMARK minimizedAffinity -6.58171511
REMARK CNNscore 0.507788122
REMARK CNNaffinity 5.84749603
REMARK  2 active torsions:
REMARK  status: ('A' for Active; 'I' for Inactive)
REMARK    1  A    between atoms: C13_16  and  C14_17 
REMARK    2  A    between atoms: C14_17  and  O4_19 
ROOT
HETATM    1  C1  UNL     1      -3.979  53.775 -10.348  1.00  0.00     0.046 C 
HETATM    2  C2  UNL     1      -2.500  53.757 -10.096  1.00  0.00    -0.054 C 
HETATM    3  C3  UNL     1      -1.658  54.553 -10.778  1.00  0.00     0.011 C 
HETATM    4  C4  UNL     1      -0.175  54.572 -10.520  1.00  0.00     0.159 C 
HETATM    5  O1  UNL     1       0.376  53.716 -11.540  1.00  0.00    -0.372 OA
HETATM    6  C5  UNL     1       1.746  53.357 -11.361  1.00  0.00     0.162 C 
HETATM    7  C6  UNL     1       1.791  52.014 -10.577  1.00  0.00     0.068 C 
HETATM    8  C7  UNL     1       2.354  52.421  -9.201  1.00  0.00     0.147 C 
HETATM    9  O2  UNL     1       1.969  51.627  -8.078  1.00  0.00    -0.312 OA
HETATM   10  C8  UNL     1       2.932  51.456  -7.130  1.00  0.00     0.283 C 
HETATM   11  O3  UNL     1       4.138  51.513  -7.314  1.00  0.00    -0.260 OA
HETATM   12  C9  UNL     1       2.287  51.299  -5.811  1.00  0.00     0.082 C 
HETATM   13  C10 UNL     1       3.059  51.212  -4.717  1.00  0.00     0.006 C 
HETATM   14  C11 UNL     1       2.554  51.047  -3.378  1.00  0.00    -0.001 C 
HETATM   15  C12 UNL     1       2.078  51.978  -2.533  1.00  0.00     0.007 C 
HETATM   16  C13 UNL     1       1.907  53.484  -2.685  1.00  0.00     0.172 C 
HETATM   17  O5  UNL     1       1.471  53.731  -4.027  1.00  0.00    -0.379 OA
HETATM   18  C16 UNL     1       1.283  55.089  -4.443  1.00  0.00     0.173 C 
HETATM   19  C17 UNL     1       2.585  55.898  -4.517  1.00  0.00     0.060 C 
HETATM   20  C18 UNL     1       2.695  57.174  -5.355  1.00  0.00    -0.076 C 
HETATM   21  C19 UNL     1       3.984  57.919  -5.083  1.00  0.00     0.043 C 
HETATM   22  C20 UNL     1       1.855  57.687  -6.280  1.00  0.00     0.084 C 
HETATM   23  C21 UNL     1       0.580  57.100  -6.717  1.00  0.00     0.283 C 
HETATM   24  O6  UNL     1      -0.453  57.168  -6.071  1.00  0.00    -0.260 OA
HETATM   25  O7  UNL     1       0.783  56.419  -7.878  1.00  0.00    -0.317 OA
HETATM   26  C22 UNL     1      -0.177  55.381  -8.087  1.00  0.00     0.195 C 
HETATM   27  C23 UNL     1       0.279  54.198  -9.032  1.00  0.00     0.053 C 
HETATM   28  C24 UNL     1      -0.573  52.948  -8.620  1.00  0.00     0.170 A 
HETATM   29  O8  UNL     1      -1.699  53.188  -7.756  1.00  0.00    -0.370 OA
HETATM   30  C25 UNL     1      -2.016  52.805  -9.092  1.00  0.00     0.180 A 
HETATM   31  C26 UNL     1       1.921  53.925  -9.056  1.00  0.00     0.034 C 
HETATM   32  C27 UNL     1       2.746  54.526  -7.919  1.00  0.00     0.022 C 
HETATM   33  C28 UNL     1       2.409  54.321 -10.433  1.00  0.00     0.119 A 
HETATM   34  C29 UNL     1       3.742  54.962 -10.764  1.00  0.00     0.210 A 
HETATM   35  O9  UNL     1       2.505  55.697 -10.781  1.00  0.00    -0.371 OA
ENDROOT
BRANCH  16  36
HETATM   36  C14 UNL     1       0.937  54.134  -1.634  1.00  0.00     0.146 C 
HETATM   37  C15 UNL     1       1.309  55.533  -1.148  1.00  0.00     0.042 C 
BRANCH  36  38
HETATM   38  O4  UNL     1      -0.379  54.264  -2.207  1.00  0.00    -0.393 OA
HETATM   39  H19 UNL     1      -0.342  54.948  -2.898  1.00  0.00     0.210 HD
ENDBRANCH  36  38
ENDBRANCH  16  36
TORSDOF 2
ENDMDL
MODEL 4
REMARK minimizedAffinity -5.75570774
REMARK CNNscore 0.507337689
REMARK CNNaffinity 5.36753511
REMARK  2 active torsions:
REMARK  status: ('A' for Active; 'I' for Inactive)
REMARK    1  A    between atoms: C13_16  and  C14_17 
REMARK    2  A    between atoms: C14_17  and  O4_19 
ROOT
HETATM    1  C1  UNL     1     -18.485  46.681 -19.864  1.00  0.00     0.046 C 
HETATM    2  C2  UNL     1     -18.259  45.886 -21.117  1.00  0.00    -0.054 C 
HETATM    3  C3  UNL     1     -18.916  46.162 -22.257  1.00  0.00     0.011 C 
HETATM    4  C4  UNL     1     -18.681  45.396 -23.532  1.00  0.00     0.159 C 
HETATM    5  O1  UNL     1     -19.749  44.430 -23.570  1.00  0.00    -0.372 OA
HETATM    6  C5  UNL     1     -19.611  43.404 -24.552  1.00  0.00     0.162 C 
HETATM    7  C6  UNL     1     -18.892  42.196 -23.885  1.00  0.00     0.068 C 
HETATM    8  C7  UNL     1     -17.508  42.184 -24.563  1.00  0.00     0.147 C 
HETATM    9  O2  UNL     1     -16.417  41.651 -23.811  1.00  0.00    -0.312 OA
HETATM   10  C8  UNL     1     -15.494  40.960 -24.535  1.00  0.00     0.283 C 
HETATM   11  O3  UNL     1     -15.695  40.392 -25.598  1.00  0.00    -0.260 OA
HETATM   12  C9  UNL     1     -14.174  41.096 -23.888  1.00  0.00     0.082 C 
HETATM   13  C10 UNL     1     -13.098  40.567 -24.491  1.00  0.00     0.006 C 
HETATM   14  C11 UNL     1     -11.760  40.622 -23.960  1.00  0.00    -0.001 C 
HETATM   15  C12 UNL     1     -10.864  41.624 -24.027  1.00  0.00     0.007 C 
HETATM   16  C13 UNL     1     -10.942  43.005 -24.664  1.00  0.00     0.172 C 
HETATM   17  O5  UNL     1     -12.263  43.507 -24.434  1.00  0.00    -0.379 OA
HETATM   18  C16 UNL     1     -12.611  44.784 -24.982  1.00  0.00     0.173 C 
HETATM   19  C17 UNL     1     -12.668  44.803 -26.516  1.00  0.00     0.060 C 
HETATM   20  C18 UNL     1     -13.447  45.876 -27.280  1.00  0.00    -0.076 C 
HETATM   21  C19 UNL     1     -13.162  45.830 -28.766  1.00  0.00     0.043 C 
HETATM   22  C20 UNL     1     -14.333  46.795 -26.838  1.00  0.00     0.084 C 
HETATM   23  C21 UNL     1     -14.776  46.977 -25.449  1.00  0.00     0.283 C 
HETATM   24  O6  UNL     1     -14.111  47.538 -24.594  1.00  0.00    -0.260 OA
HETATM   25  O7  UNL     1     -15.971  46.346 -25.281  1.00  0.00    -0.317 OA
HETATM   26  C22 UNL     1     -16.213  45.970 -23.924  1.00  0.00     0.195 C 
HETATM   27  C23 UNL     1     -17.220  44.769 -23.711  1.00  0.00     0.053 C 
HETATM   28  C24 UNL     1     -16.854  44.123 -22.329  1.00  0.00     0.170 A 
HETATM   29  O8  UNL     1     -15.961  44.871 -21.481  1.00  0.00    -0.370 OA
HETATM   30  C25 UNL     1     -17.308  44.774 -21.027  1.00  0.00     0.180 A 
HETATM   31  C26 UNL     1     -17.284  43.685 -24.972  1.00  0.00     0.034 C 
HETATM   32  C27 UNL     1     -16.134  43.715 -25.977  1.00  0.00     0.022 C 
HETATM   33  C28 UNL     1     -18.649  43.837 -25.610  1.00  0.00     0.119 A 
HETATM   34  C29 UNL     1     -18.970  43.709 -27.085  1.00  0.00     0.210 A 
HETATM   35  O9  UNL     1     -18.933  44.980 -26.409  1.00  0.00    -0.371 OA
ENDROOT
BRANCH  16  36
HETATM   36  C14 UNL     1      -9.846  44.012 -24.162  1.00  0.00     0.146 C 
HETATM   37  C15 UNL     1      -8.603  43.394 -23.524  1.00  0.00     0.042 C 
BRANCH  36  38
HETATM   38  O4  UNL     1      -9.360  44.792 -25.272  1.00  0.00    -0.393 OA
HETATM   39  H19 UNL     1      -8.844  44.205 -25.851  1.00  0.00     0.210 HD
ENDBRANCH  36  38
ENDBRANCH  16  36
TORSDOF 2
ENDMDL
MODEL 5
REMARK minimizedAffinity -6.39495277
REMARK CNNscore 0.387896478
REMARK CNNaffinity 5.45048332
REMARK  2 active torsions:
REMARK  status: ('A' for Active; 'I' for Inactive)
REMARK    1  A    between atoms: C13_16  and  C14_17 
REMARK    2  A    between atoms: C14_17  and  O4_19 
ROOT
HETATM    1  C1  UNL     1     -10.927  40.450 -24.409  1.00  0.00     0.046 C 
HETATM    2  C2  UNL     1     -11.754  41.600 -24.904  1.00  0.00    -0.054 C 
HETATM    3  C3  UNL     1     -11.657  42.048 -26.167  1.00  0.00     0.011 C 
HETATM    4  C4  UNL     1     -12.500  43.181 -26.691  1.00  0.00     0.159 C 
HETATM    5  O1  UNL     1     -11.644  44.336 -26.596  1.00  0.00    -0.372 OA
HETATM    6  C5  UNL     1     -12.291  45.593 -26.789  1.00  0.00     0.162 C 
HETATM    7  C6  UNL     1     -12.730  46.127 -25.396  1.00  0.00     0.068 C 
HETATM    8  C7  UNL     1     -14.267  46.022 -25.439  1.00  0.00     0.147 C 
HETATM    9  O2  UNL     1     -14.944  45.832 -24.196  1.00  0.00    -0.312 OA
HETATM   10  C8  UNL     1     -16.146  46.463 -24.087  1.00  0.00     0.283 C 
HETATM   11  O3  UNL     1     -16.489  47.463 -24.698  1.00  0.00    -0.260 OA
HETATM   12  C9  UNL     1     -17.021  45.680 -23.191  1.00  0.00     0.082 C 
HETATM   13  C10 UNL     1     -18.292  46.074 -23.018  1.00  0.00     0.006 C 
HETATM   14  C11 UNL     1     -19.241  45.406 -22.164  1.00  0.00    -0.001 C 
HETATM   15  C12 UNL     1     -19.987  44.316 -22.420  1.00  0.00     0.007 C 
HETATM   16  C13 UNL     1     -20.091  43.434 -23.657  1.00  0.00     0.172 C 
HETATM   17  O5  UNL     1     -18.771  43.294 -24.195  1.00  0.00    -0.379 OA
HETATM   18  C16 UNL     1     -18.603  42.542 -25.402  1.00  0.00     0.173 C 
HETATM   19  C17 UNL     1     -19.238  43.202 -26.634  1.00  0.00     0.060 C 
HETATM   20  C18 UNL     1     -18.801  42.843 -28.056  1.00  0.00    -0.076 C 
HETATM   21  C19 UNL     1     -19.724  43.437 -29.098  1.00  0.00     0.043 C 
HETATM   22  C20 UNL     1     -17.739  42.129 -28.491  1.00  0.00     0.084 C 
HETATM   23  C21 UNL     1     -16.708  41.507 -27.648  1.00  0.00     0.283 C 
HETATM   24  O6  UNL     1     -16.872  40.465 -27.036  1.00  0.00    -0.260 OA
HETATM   25  O7  UNL     1     -15.619  42.325 -27.609  1.00  0.00    -0.317 OA
HETATM   26  C22 UNL     1     -14.826  42.134 -26.435  1.00  0.00     0.195 C 
HETATM   27  C23 UNL     1     -13.931  43.364 -26.001  1.00  0.00     0.053 C 
HETATM   28  C24 UNL     1     -13.690  43.213 -24.458  1.00  0.00     0.170 A 
HETATM   29  O8  UNL     1     -14.045  41.949 -23.868  1.00  0.00    -0.370 OA
HETATM   30  C25 UNL     1     -12.650  42.232 -23.930  1.00  0.00     0.180 A 
HETATM   31  C26 UNL     1     -14.528  44.850 -26.455  1.00  0.00     0.034 C 
HETATM   32  C27 UNL     1     -15.999  44.918 -26.857  1.00  0.00     0.022 C 
HETATM   33  C28 UNL     1     -13.586  45.395 -27.507  1.00  0.00     0.119 A 
HETATM   34  C29 UNL     1     -13.971  46.233 -28.710  1.00  0.00     0.210 A 
HETATM   35  O9  UNL     1     -13.599  44.847 -28.820  1.00  0.00    -0.371 OA
ENDROOT
BRANCH  16  36
HETATM   36  C14 UNL     1     -20.760  42.036 -23.400  1.00  0.00     0.146 C 
HETATM   37  C15 UNL     1     -20.188  41.216 -22.245  1.00  0.00     0.042 C 
BRANCH  36  38
HETATM   38  O4  UNL     1     -22.155  42.217 -23.088  1.00  0.00    -0.393 OA
HETATM   39  H19 UNL     1     -22.218  42.635 -22.211  1.00  0.00     0.210 HD
ENDBRANCH  36  38
ENDBRANCH  16  36
TORSDOF 2
ENDMDL
MODEL 6
REMARK minimizedAffinity -7.06258345
REMARK CNNscore 0.364258885
REMARK CNNaffinity 5.51519728
REMARK  2 active torsions:
REMARK  status: ('A' for Active; 'I' for Inactive)
REMARK    1  A    between atoms: C13_16  and  C14_17 
REMARK    2  A    between atoms: C14_17  and  O4_19 
ROOT
HETATM    1  C1  UNL     1     -20.912  42.857 -30.559  1.00  0.00     0.046 C 
HETATM    2  C2  UNL     1     -19.861  42.855 -29.487  1.00  0.00    -0.054 C 
HETATM    3  C3  UNL     1     -18.867  43.761 -29.472  1.00  0.00     0.011 C 
HETATM    4  C4  UNL     1     -17.820  43.795 -28.390  1.00  0.00     0.159 C 
HETATM    5  O1  UNL     1     -16.695  43.099 -28.960  1.00  0.00    -0.372 OA
HETATM    6  C5  UNL     1     -15.655  42.765 -28.042  1.00  0.00     0.162 C 
HETATM    7  C6  UNL     1     -15.934  41.333 -27.501  1.00  0.00     0.068 C 
HETATM    8  C7  UNL     1     -16.319  41.575 -26.028  1.00  0.00     0.147 C 
HETATM    9  O2  UNL     1     -17.199  40.629 -25.420  1.00  0.00    -0.312 OA
HETATM   10  C8  UNL     1     -16.953  40.368 -24.106  1.00  0.00     0.283 C 
HETATM   11  O3  UNL     1     -15.877  40.488 -23.540  1.00  0.00    -0.260 OA
HETATM   12  C9  UNL     1     -18.223  40.019 -23.439  1.00  0.00     0.082 C 
HETATM   13  C10 UNL     1     -18.225  39.815 -22.113  1.00  0.00     0.006 C 
HETATM   14  C11 UNL     1     -19.392  39.459 -21.346  1.00  0.00    -0.001 C 
HETATM   15  C12 UNL     1     -20.363  40.256 -20.867  1.00  0.00     0.007 C 
HETATM   16  C13 UNL     1     -20.569  41.762 -20.959  1.00  0.00     0.172 C 
HETATM   17  O5  UNL     1     -20.169  42.168 -22.274  1.00  0.00    -0.379 OA
HETATM   18  C16 UNL     1     -20.220  43.561 -22.601  1.00  0.00     0.173 C 
HETATM   19  C17 UNL     1     -19.208  44.416 -21.825  1.00  0.00     0.060 C 
HETATM   20  C18 UNL     1     -18.766  45.793 -22.325  1.00  0.00    -0.076 C 
HETATM   21  C19 UNL     1     -17.959  46.539 -21.284  1.00  0.00     0.043 C 
HETATM   22  C20 UNL     1     -18.961  46.395 -23.518  1.00  0.00     0.084 C 
HETATM   23  C21 UNL     1     -19.678  45.828 -24.670  1.00  0.00     0.283 C 
HETATM   24  O6  UNL     1     -20.893  45.777 -24.752  1.00  0.00    -0.260 OA
HETATM   25  O7  UNL     1     -18.769  45.311 -25.543  1.00  0.00    -0.317 OA
HETATM   26  C22 UNL     1     -19.317  44.279 -26.366  1.00  0.00     0.195 C 
HETATM   27  C23 UNL     1     -18.278  43.245 -26.959  1.00  0.00     0.053 C 
HETATM   28  C24 UNL     1     -19.075  41.924 -27.237  1.00  0.00     0.170 A 
HETATM   29  O8  UNL     1     -20.512  42.012 -27.184  1.00  0.00    -0.370 OA
HETATM   30  C25 UNL     1     -19.953  41.797 -28.477  1.00  0.00     0.180 A 
HETATM   31  C26 UNL     1     -16.908  43.032 -26.036  1.00  0.00     0.034 C 
HETATM   32  C27 UNL     1     -16.964  43.506 -24.585  1.00  0.00     0.022 C 
HETATM   33  C28 UNL     1     -15.757  43.620 -26.822  1.00  0.00     0.119 A 
HETATM   34  C29 UNL     1     -14.554  44.343 -26.249  1.00  0.00     0.210 A 
HETATM   35  O9  UNL     1     -15.620  45.033 -26.927  1.00  0.00    -0.371 OA
ENDROOT
BRANCH  16  36
HETATM   36  C14 UNL     1     -22.029  42.238 -20.629  1.00  0.00     0.146 C 
HETATM   37  C15 UNL     1     -23.019  41.147 -20.225  1.00  0.00     0.042 C 
BRANCH  36  38
HETATM   38  O4  UNL     1     -21.999  43.158 -19.520  1.00  0.00    -0.393 OA
HETATM   39  H19 UNL     1     -21.763  42.659 -18.719  1.00  0.00     0.210 HD
ENDBRANCH  36  38
ENDBRANCH  16  36
TORSDOF 2
ENDMDL
MODEL 7
REMARK minimizedAffinity -6.21115303
REMARK CNNscore 0.361332297
REMARK CNNaffinity 5.43012238
REMARK  2 active torsions:
REMARK  status: ('A' for Active; 'I' for Inactive)
REMARK    1  A    between atoms: C13_16  and  C14_17 
REMARK    2  A    between atoms: C14_17  and  O4_19 
ROOT
HETATM    1  C1  UNL     1     -12.793  48.209 -27.755  1.00  0.00     0.046 C 
HETATM    2  C2  UNL     1     -13.210  46.966 -27.025  1.00  0.00    -0.054 C 
HETATM    3  C3  UNL     1     -13.167  46.886 -25.684  1.00  0.00     0.011 C 
HETATM    4  C4  UNL     1     -13.608  45.659 -24.932  1.00  0.00     0.159 C 
HETATM    5  O1  UNL     1     -12.385  44.950 -24.656  1.00  0.00    -0.372 OA
HETATM    6  C5  UNL     1     -12.546  43.617 -24.174  1.00  0.00     0.162 C 
HETATM    7  C6  UNL     1     -12.520  42.657 -25.399  1.00  0.00     0.068 C 
HETATM    8  C7  UNL     1     -13.972  42.149 -25.488  1.00  0.00     0.147 C 
HETATM    9  O2  UNL     1     -14.454  41.772 -26.778  1.00  0.00    -0.312 OA
HETATM   10  C8  UNL     1     -15.304  40.708 -26.793  1.00  0.00     0.283 C 
HETATM   11  O3  UNL     1     -15.352  39.816 -25.960  1.00  0.00    -0.260 OA
HETATM   12  C9  UNL     1     -16.243  40.858 -27.923  1.00  0.00     0.082 C 
HETATM   13  C10 UNL     1     -17.231  39.962 -28.069  1.00  0.00     0.006 C 
HETATM   14  C11 UNL     1     -18.203  39.990 -29.132  1.00  0.00    -0.001 C 
HETATM   15  C12 UNL     1     -19.330  40.719 -29.229  1.00  0.00     0.007 C 
HETATM   16  C13 UNL     1     -19.955  41.738 -28.285  1.00  0.00     0.172 C 
HETATM   17  O5  UNL     1     -18.888  42.507 -27.718  1.00  0.00    -0.379 OA
HETATM   18  C16 UNL     1     -19.213  43.511 -26.749  1.00  0.00     0.173 C 
HETATM   19  C17 UNL     1     -19.756  42.944 -25.431  1.00  0.00     0.060 C 
HETATM   20  C18 UNL     1     -19.724  43.753 -24.132  1.00  0.00    -0.076 C 
HETATM   21  C19 UNL     1     -20.525  43.088 -23.032  1.00  0.00     0.043 C 
HETATM   22  C20 UNL     1     -19.088  44.908 -23.836  1.00  0.00     0.084 C 
HETATM   23  C21 UNL     1     -18.233  45.685 -24.744  1.00  0.00     0.283 C 
HETATM   24  O6  UNL     1     -18.665  46.412 -25.623  1.00  0.00    -0.260 OA
HETATM   25  O7  UNL     1     -16.930  45.382 -24.489  1.00  0.00    -0.317 OA
HETATM   26  C22 UNL     1     -16.079  45.607 -25.615  1.00  0.00     0.195 C 
HETATM   27  C23 UNL     1     -14.736  44.773 -25.642  1.00  0.00     0.053 C 
HETATM   28  C24 UNL     1     -14.314  44.660 -27.148  1.00  0.00     0.170 A 
HETATM   29  O8  UNL     1     -15.005  45.514 -28.080  1.00  0.00    -0.370 OA
HETATM   30  C25 UNL     1     -13.635  45.831 -27.851  1.00  0.00     0.180 A 
HETATM   31  C26 UNL     1     -14.810  43.313 -24.845  1.00  0.00     0.034 C 
HETATM   32  C27 UNL     1     -16.199  42.756 -24.539  1.00  0.00     0.022 C 
HETATM   33  C28 UNL     1     -13.924  43.436 -23.625  1.00  0.00     0.119 A 
HETATM   34  C29 UNL     1     -14.168  42.804 -22.269  1.00  0.00     0.210 A 
HETATM   35  O9  UNL     1     -14.356  44.210 -22.511  1.00  0.00    -0.371 OA
ENDROOT
BRANCH  16  36
HETATM   36  C14 UNL     1     -21.039  42.659 -28.953  1.00  0.00     0.146 C 
HETATM   37  C15 UNL     1     -20.769  43.080 -30.396  1.00  0.00     0.042 C 
BRANCH  36  38
HETATM   38  O4  UNL     1     -22.305  41.971 -28.985  1.00  0.00    -0.393 OA
HETATM   39  H19 UNL     1     -22.238  41.242 -29.625  1.00  0.00     0.210 HD
ENDBRANCH  36  38
ENDBRANCH  16  36
TORSDOF 2
ENDMDL
MODEL 8
REMARK minimizedAffinity -6.72022438
REMARK CNNscore 0.357342899
REMARK CNNaffinity 5.42990446
REMARK  2 active torsions:
REMARK  status: ('A' for Active; 'I' for Inactive)
REMARK    1  A    between atoms: C13_16  and  C14_17 
REMARK    2  A    between atoms: C14_17  and  O4_19 
ROOT
HETATM    1  C1  UNL     1     -12.152  41.024 -26.043  1.00  0.00     0.046 C 
HETATM    2  C2  UNL     1     -13.490  41.676 -26.239  1.00  0.00    -0.054 C 
HETATM    3  C3  UNL     1     -14.331  41.284 -27.211  1.00  0.00     0.011 C 
HETATM    4  C4  UNL     1     -15.689  41.906 -27.405  1.00  0.00     0.159 C 
HETATM    5  O1  UNL     1     -15.493  42.871 -28.457  1.00  0.00    -0.372 OA
HETATM    6  C5  UNL     1     -16.572  43.783 -28.658  1.00  0.00     0.162 C 
HETATM    7  C6  UNL     1     -16.294  45.051 -27.799  1.00  0.00     0.068 C 
HETATM    8  C7  UNL     1     -17.368  44.978 -26.695  1.00  0.00     0.147 C 
HETATM    9  O2  UNL     1     -17.054  45.580 -25.439  1.00  0.00    -0.312 OA
HETATM   10  C8  UNL     1     -18.099  46.181 -24.806  1.00  0.00     0.283 C 
HETATM   11  O3  UNL     1     -19.100  46.633 -25.342  1.00  0.00    -0.260 OA
HETATM   12  C9  UNL     1     -17.887  46.105 -23.346  1.00  0.00     0.082 C 
HETATM   13  C10 UNL     1     -18.848  46.556 -22.526  1.00  0.00     0.006 C 
HETATM   14  C11 UNL     1     -18.758  46.548 -21.088  1.00  0.00    -0.001 C 
HETATM   15  C12 UNL     1     -18.996  45.538 -20.232  1.00  0.00     0.007 C 
HETATM   16  C13 UNL     1     -19.428  44.097 -20.468  1.00  0.00     0.172 C 
HETATM   17  O5  UNL     1     -18.744  43.633 -21.638  1.00  0.00    -0.379 OA
HETATM   18  C16 UNL     1     -19.019  42.308 -22.107  1.00  0.00     0.173 C 
HETATM   19  C17 UNL     1     -20.447  42.123 -22.638  1.00  0.00     0.060 C 
HETATM   20  C18 UNL     1     -20.812  40.980 -23.588  1.00  0.00    -0.076 C 
HETATM   21  C19 UNL     1     -22.309  40.862 -23.780  1.00  0.00     0.043 C 
HETATM   22  C20 UNL     1     -20.021  40.121 -24.268  1.00  0.00     0.084 C 
HETATM   23  C21 UNL     1     -18.552  40.095 -24.251  1.00  0.00     0.283 C 
HETATM   24  O6  UNL     1     -17.894  39.624 -23.338  1.00  0.00    -0.260 OA
HETATM   25  O7  UNL     1     -18.087  40.750 -25.351  1.00  0.00    -0.317 OA
HETATM   26  C22 UNL     1     -16.770  41.273 -25.168  1.00  0.00     0.195 C 
HETATM   27  C23 UNL     1     -16.380  42.498 -26.089  1.00  0.00     0.053 C 
HETATM   28  C24 UNL     1     -15.258  43.286 -25.328  1.00  0.00     0.170 A 
HETATM   29  O8  UNL     1     -14.658  42.628 -24.197  1.00  0.00    -0.370 OA
HETATM   30  C25 UNL     1     -13.818  42.785 -25.337  1.00  0.00     0.180 A 
HETATM   31  C26 UNL     1     -17.666  43.439 -26.571  1.00  0.00     0.034 C 
HETATM   32  C27 UNL     1     -18.970  43.292 -25.790  1.00  0.00     0.022 C 
HETATM   33  C28 UNL     1     -17.825  43.230 -28.062  1.00  0.00     0.119 A 
HETATM   34  C29 UNL     1     -19.131  43.200 -28.830  1.00  0.00     0.210 A 
HETATM   35  O9  UNL     1     -18.371  42.010 -28.551  1.00  0.00    -0.371 OA
ENDROOT
BRANCH  16  36
HETATM   36  C14 UNL     1     -19.189  43.141 -19.244  1.00  0.00     0.146 C 
HETATM   37  C15 UNL     1     -18.123  43.580 -18.243  1.00  0.00     0.042 C 
BRANCH  36  38
HETATM   38  O4  UNL     1     -20.405  43.020 -18.481  1.00  0.00    -0.393 OA
HETATM   39  H19 UNL     1     -20.573  43.872 -18.042  1.00  0.00     0.210 HD
ENDBRANCH  36  38
ENDBRANCH  16  36
TORSDOF 2
ENDMDL
MODEL 9
REMARK minimizedAffinity -7.47192097
REMARK CNNscore 0.336977214
REMARK CNNaffinity 5.24224997
REMARK  2 active torsions:
REMARK  status: ('A' for Active; 'I' for Inactive)
REMARK    1  A    between atoms: C13_16  and  C14_17 
REMARK    2  A    between atoms: C14_17  and  O4_19 
ROOT
HETATM    1  C1  UNL     1     -15.240  49.863 -18.169  1.00  0.00     0.046 C 
HETATM    2  C2  UNL     1     -14.979  48.539 -18.826  1.00  0.00    -0.054 C 
HETATM    3  C3  UNL     1     -15.927  47.588 -18.898  1.00  0.00     0.011 C 
HETATM    4  C4  UNL     1     -15.696  46.265 -19.579  1.00  0.00     0.159 C 
HETATM    5  O1  UNL     1     -15.375  45.361 -18.503  1.00  0.00    -0.372 OA
HETATM    6  C5  UNL     1     -14.859  44.093 -18.904  1.00  0.00     0.162 C 
HETATM    7  C6  UNL     1     -13.306  44.195 -18.933  1.00  0.00     0.068 C 
HETATM    8  C7  UNL     1     -12.970  44.121 -20.435  1.00  0.00     0.147 C 
HETATM    9  O2  UNL     1     -11.778  44.776 -20.870  1.00  0.00    -0.312 OA
HETATM   10  C8  UNL     1     -11.100  44.147 -21.870  1.00  0.00     0.283 C 
HETATM   11  O3  UNL     1     -11.134  42.952 -22.117  1.00  0.00    -0.260 OA
HETATM   12  C9  UNL     1     -10.398  45.158 -22.686  1.00  0.00     0.082 C 
HETATM   13  C10 UNL     1      -9.742  44.762 -23.787  1.00  0.00     0.006 C 
HETATM   14  C11 UNL     1      -9.011  45.645 -24.659  1.00  0.00    -0.001 C 
HETATM   15  C12 UNL     1      -9.473  46.430 -25.649  1.00  0.00     0.007 C 
HETATM   16  C13 UNL     1     -10.882  46.656 -26.181  1.00  0.00     0.172 C 
HETATM   17  O5  UNL     1     -11.767  46.669 -25.054  1.00  0.00    -0.379 OA
HETATM   18  C16 UNL     1     -13.171  46.818 -25.293  1.00  0.00     0.173 C 
HETATM   19  C17 UNL     1     -13.806  45.622 -26.015  1.00  0.00     0.060 C 
HETATM   20  C18 UNL     1     -15.311  45.352 -25.958  1.00  0.00    -0.076 C 
HETATM   21  C19 UNL     1     -15.728  44.271 -26.933  1.00  0.00     0.043 C 
HETATM   22  C20 UNL     1     -16.269  45.897 -25.176  1.00  0.00     0.084 C 
HETATM   23  C21 UNL     1     -16.067  46.925 -24.145  1.00  0.00     0.283 C 
HETATM   24  O6  UNL     1     -15.911  48.109 -24.392  1.00  0.00    -0.260 OA
HETATM   25  O7  UNL     1     -15.996  46.319 -22.928  1.00  0.00    -0.317 OA
HETATM   26  C22 UNL     1     -15.265  47.087 -21.969  1.00  0.00     0.195 C 
HETATM   27  C23 UNL     1     -14.629  46.271 -20.772  1.00  0.00     0.053 C 
HETATM   28  C24 UNL     1     -13.410  47.113 -20.259  1.00  0.00     0.170 A 
HETATM   29  O8  UNL     1     -13.312  48.468 -20.738  1.00  0.00    -0.370 OA
HETATM   30  C25 UNL     1     -13.630  48.323 -19.357  1.00  0.00     0.180 A 
HETATM   31  C26 UNL     1     -14.260  44.688 -21.131  1.00  0.00     0.034 C 
HETATM   32  C27 UNL     1     -14.184  44.307 -22.608  1.00  0.00     0.022 C 
HETATM   33  C28 UNL     1     -15.213  43.826 -20.331  1.00  0.00     0.119 A 
HETATM   34  C29 UNL     1     -15.818  42.508 -20.772  1.00  0.00     0.210 A 
HETATM   35  O9  UNL     1     -16.578  43.729 -20.722  1.00  0.00    -0.371 OA
ENDROOT
BRANCH  16  36
HETATM   36  C14 UNL     1     -11.044  47.951 -27.055  1.00  0.00     0.146 C 
HETATM   37  C15 UNL     1     -12.310  48.038 -27.905  1.00  0.00     0.042 C 
BRANCH  36  38
HETATM   38  O4  UNL     1     -11.074  49.111 -26.201  1.00  0.00    -0.393 OA
HETATM   39  H19 UNL     1     -11.910  49.098 -25.703  1.00  0.00     0.210 HD
ENDBRANCH  36  38
ENDBRANCH  16  36
TORSDOF 2
ENDMDL
