MODEL 1
REMARK minimizedAffinity -8.67043114
REMARK CNNscore 0.686587632
REMARK CNNaffinity 7.50434542
REMARK  6 active torsions:
REMARK  status: ('A' for Active; 'I' for Inactive)
REMARK    1  A    between atoms: C2_2  and  C30_32 
REMARK    2  A    between atoms: C3_3  and  C4_4 
REMARK    3  A    between atoms: C4_4  and  C5_5 
REMARK    4  A    between atoms: C5_5  and  C6_6 
REMARK    5  A    between atoms: C6_6  and  C8_8 
REMARK    6  A    between atoms: C30_32  and  O3_33 
ROOT
HETATM    1  C8  UNL     1      -4.002   6.918  14.681  1.00  0.00    -0.002 C 
HETATM    2  C9  UNL     1      -4.326   5.509  14.115  1.00  0.00     0.007 C 
HETATM    3  C10 UNL     1      -3.144   5.106  13.214  1.00  0.00     0.015 C 
HETATM    4  C11 UNL     1      -2.016   6.103  13.549  1.00  0.00    -0.005 C 
HETATM    5  C12 UNL     1      -1.300   5.571  14.829  1.00  0.00     0.021 C 
HETATM    6  C13 UNL     1      -0.888   6.351  12.559  1.00  0.00    -0.000 C 
HETATM    7  C14 UNL     1      -0.251   7.550  12.499  1.00  0.00    -0.060 C 
HETATM    8  C15 UNL     1      -0.703   8.718  13.394  1.00  0.00     0.036 C 
HETATM    9  C16 UNL     1      -1.928   8.493  14.307  1.00  0.00     0.015 C 
HETATM   10  C17 UNL     1      -2.868   7.424  13.741  1.00  0.00    -0.028 C 
HETATM   11  C18 UNL     1      -3.471   7.963  12.411  1.00  0.00     0.016 C 
HETATM   12  C19 UNL     1       0.928   7.843  11.528  1.00  0.00    -0.014 C 
HETATM   13  C20 UNL     1       0.355   8.683  10.365  1.00  0.00     0.020 C 
HETATM   14  C21 UNL     1       2.042   8.639  12.256  1.00  0.00     0.021 C 
HETATM   15  C22 UNL     1       3.399   8.699  11.560  1.00  0.00     0.080 C 
HETATM   16  C23 UNL     1       3.450   8.038  10.204  1.00  0.00     0.135 C 
HETATM   17  O1  UNL     1       4.112   8.552   9.301  1.00  0.00    -0.297 OA
HETATM   18  C24 UNL     1       2.771   6.672  10.039  1.00  0.00     0.018 C 
HETATM   19  C25 UNL     1       3.848   5.609  10.334  1.00  0.00     0.023 C 
HETATM   20  C26 UNL     1       2.351   6.510   8.562  1.00  0.00     0.023 C 
HETATM   21  C27 UNL     1       1.583   6.508  11.049  1.00  0.00     0.020 C 
HETATM   22  C28 UNL     1       0.521   5.517  10.572  1.00  0.00     0.090 C 
HETATM   23  C29 UNL     1      -0.462   5.224  11.674  1.00  0.00     0.157 C 
HETATM   24  O2  UNL     1      -0.915   4.090  11.812  1.00  0.00    -0.293 OA
ENDROOT
BRANCH   1  25
HETATM   25  C6  UNL     1      -5.266   7.762  15.033  1.00  0.00    -0.014 C 
HETATM   26  C7  UNL     1      -5.014   9.149  15.636  1.00  0.00     0.010 C 
BRANCH  25  27
HETATM   27  C5  UNL     1      -6.268   6.946  15.886  1.00  0.00     0.008 C 
BRANCH  27  28
HETATM   28  C4  UNL     1      -7.483   6.398  15.117  1.00  0.00     0.028 C 
BRANCH  28  29
HETATM   29  C3  UNL     1      -7.378   4.942  14.758  1.00  0.00    -0.022 C 
HETATM   30  C2  UNL     1      -7.604   4.353  13.563  1.00  0.00    -0.064 C 
HETATM   31  C1  UNL     1      -8.041   5.085  12.320  1.00  0.00     0.045 C 
BRANCH  30  32
HETATM   32  C30 UNL     1      -7.474   2.861  13.338  1.00  0.00     0.197 C 
BRANCH  32  33
HETATM   33  O3  UNL     1      -8.517   2.340  12.526  1.00  0.00    -0.397 OA
HETATM   34  H46 UNL     1      -9.344   2.502  13.012  1.00  0.00     0.209 HD
ENDBRANCH  32  33
ENDBRANCH  30  32
ENDBRANCH  28  29
ENDBRANCH  27  28
ENDBRANCH  25  27
ENDBRANCH   1  25
TORSDOF 6
ENDMDL
MODEL 2
REMARK minimizedAffinity -6.9082551
REMARK CNNscore 0.636304736
REMARK CNNaffinity 6.73455
REMARK  6 active torsions:
REMARK  status: ('A' for Active; 'I' for Inactive)
REMARK    1  A    between atoms: C2_2  and  C30_32 
REMARK    2  A    between atoms: C3_3  and  C4_4 
REMARK    3  A    between atoms: C4_4  and  C5_5 
REMARK    4  A    between atoms: C5_5  and  C6_6 
REMARK    5  A    between atoms: C6_6  and  C8_8 
REMARK    6  A    between atoms: C30_32  and  O3_33 
ROOT
HETATM    1  C8  UNL     1     -14.191 -12.259  28.117  1.00  0.00    -0.002 C 
HETATM    2  C9  UNL     1     -15.673 -12.456  28.538  1.00  0.00     0.007 C 
HETATM    3  C10 UNL     1     -16.111 -11.164  29.253  1.00  0.00     0.015 C 
HETATM    4  C11 UNL     1     -15.020 -10.125  28.923  1.00  0.00    -0.005 C 
HETATM    5  C12 UNL     1     -15.358  -9.535  27.519  1.00  0.00     0.021 C 
HETATM    6  C13 UNL     1     -14.826  -8.905  29.812  1.00  0.00    -0.000 C 
HETATM    7  C14 UNL     1     -13.608  -8.318  29.949  1.00  0.00    -0.060 C 
HETATM    8  C15 UNL     1     -12.371  -8.917  29.256  1.00  0.00     0.036 C 
HETATM    9  C16 UNL     1     -12.556 -10.226  28.458  1.00  0.00     0.015 C 
HETATM   10  C17 UNL     1     -13.736 -11.050  28.986  1.00  0.00    -0.028 C 
HETATM   11  C18 UNL     1     -13.389 -11.522  30.428  1.00  0.00     0.016 C 
HETATM   12  C19 UNL     1     -13.365  -7.051  30.818  1.00  0.00    -0.014 C 
HETATM   13  C20 UNL     1     -12.699  -7.526  32.130  1.00  0.00     0.020 C 
HETATM   14  C21 UNL     1     -12.427  -6.061  30.079  1.00  0.00     0.021 C 
HETATM   15  C22 UNL     1     -12.373  -4.638  30.628  1.00  0.00     0.080 C 
HETATM   16  C23 UNL     1     -13.184  -4.408  31.881  1.00  0.00     0.135 C 
HETATM   17  O1  UNL     1     -12.743  -3.671  32.764  1.00  0.00    -0.297 OA
HETATM   18  C24 UNL     1     -14.595  -5.004  31.949  1.00  0.00     0.018 C 
HETATM   19  C25 UNL     1     -15.555  -3.922  31.414  1.00  0.00     0.023 C 
HETATM   20  C26 UNL     1     -14.952  -5.249  33.431  1.00  0.00     0.023 C 
HETATM   21  C27 UNL     1     -14.708  -6.289  31.058  1.00  0.00     0.020 C 
HETATM   22  C28 UNL     1     -15.805  -7.248  31.520  1.00  0.00     0.090 C 
HETATM   23  C29 UNL     1     -16.023  -8.334  30.502  1.00  0.00     0.157 C 
HETATM   24  O2  UNL     1     -17.156  -8.751  30.276  1.00  0.00    -0.293 OA
ENDROOT
BRANCH   1  25
HETATM   25  C6  UNL     1     -13.385 -13.589  28.007  1.00  0.00    -0.014 C 
HETATM   26  C7  UNL     1     -12.766 -14.122  29.304  1.00  0.00     0.010 C 
BRANCH  25  27
HETATM   27  C5  UNL     1     -12.338 -13.521  26.867  1.00  0.00     0.008 C 
BRANCH  27  28
HETATM   28  C4  UNL     1     -10.934 -13.065  27.300  1.00  0.00     0.028 C 
BRANCH  28  29
HETATM   29  C3  UNL     1      -9.850 -14.073  27.033  1.00  0.00    -0.022 C 
HETATM   30  C2  UNL     1      -8.793 -13.967  26.198  1.00  0.00    -0.064 C 
HETATM   31  C1  UNL     1      -8.508 -12.770  25.328  1.00  0.00     0.045 C 
BRANCH  30  32
HETATM   32  C30 UNL     1      -7.773 -15.072  26.011  1.00  0.00     0.197 C 
BRANCH  32  33
HETATM   33  O3  UNL     1      -7.020 -14.922  24.815  1.00  0.00    -0.397 OA
HETATM   34  H46 UNL     1      -7.661 -14.974  24.085  1.00  0.00     0.209 HD
ENDBRANCH  32  33
ENDBRANCH  30  32
ENDBRANCH  28  29
ENDBRANCH  27  28
ENDBRANCH  25  27
ENDBRANCH   1  25
TORSDOF 6
ENDMDL
MODEL 3
REMARK minimizedAffinity -8.41477013
REMARK CNNscore 0.520255923
REMARK CNNaffinity 7.09719896
REMARK  6 active torsions:
REMARK  status: ('A' for Active; 'I' for Inactive)
REMARK    1  A    between atoms: C2_2  and  C30_32 
REMARK    2  A    between atoms: C3_3  and  C4_4 
REMARK    3  A    between atoms: C4_4  and  C5_5 
REMARK    4  A    between atoms: C5_5  and  C6_6 
REMARK    5  A    between atoms: C6_6  and  C8_8 
REMARK    6  A    between atoms: C30_32  and  O3_33 
ROOT
HETATM    1  C8  UNL     1      -5.833   6.291  14.791  1.00  0.00    -0.002 C 
HETATM    2  C9  UNL     1      -6.094   5.125  13.799  1.00  0.00     0.007 C 
HETATM    3  C10 UNL     1      -4.801   4.934  12.983  1.00  0.00     0.015 C 
HETATM    4  C11 UNL     1      -3.718   5.727  13.743  1.00  0.00    -0.005 C 
HETATM    5  C12 UNL     1      -3.200   4.809  14.893  1.00  0.00     0.021 C 
HETATM    6  C13 UNL     1      -2.457   6.187  13.026  1.00  0.00    -0.000 C 
HETATM    7  C14 UNL     1      -1.800   7.314  13.406  1.00  0.00    -0.060 C 
HETATM    8  C15 UNL     1      -2.357   8.197  14.537  1.00  0.00     0.036 C 
HETATM    9  C16 UNL     1      -3.703   7.788  15.174  1.00  0.00     0.015 C 
HETATM   10  C17 UNL     1      -4.569   6.981  14.199  1.00  0.00    -0.028 C 
HETATM   11  C18 UNL     1      -4.968   7.915  13.019  1.00  0.00     0.016 C 
HETATM   12  C19 UNL     1      -0.490   7.809  12.728  1.00  0.00    -0.014 C 
HETATM   13  C20 UNL     1      -0.879   8.979  11.798  1.00  0.00     0.020 C 
HETATM   14  C21 UNL     1       0.521   8.297  13.798  1.00  0.00     0.021 C 
HETATM   15  C22 UNL     1       1.964   8.479  13.336  1.00  0.00     0.080 C 
HETATM   16  C23 UNL     1       2.197   8.236  11.865  1.00  0.00     0.135 C 
HETATM   17  O1  UNL     1       2.989   8.950  11.248  1.00  0.00    -0.297 OA
HETATM   18  C24 UNL     1       1.529   7.016  11.218  1.00  0.00     0.018 C 
HETATM   19  C25 UNL     1       2.537   5.854  11.327  1.00  0.00     0.023 C 
HETATM   20  C26 UNL     1       1.321   7.311   9.717  1.00  0.00     0.023 C 
HETATM   21  C27 UNL     1       0.206   6.634  11.969  1.00  0.00     0.020 C 
HETATM   22  C28 UNL     1      -0.791   5.884  11.087  1.00  0.00     0.090 C 
HETATM   23  C29 UNL     1      -1.926   5.341  11.914  1.00  0.00     0.157 C 
HETATM   24  O2  UNL     1      -2.411   4.243  11.652  1.00  0.00    -0.293 OA
ENDROOT
BRANCH   1  25
HETATM   25  C6  UNL     1      -7.121   7.066  15.205  1.00  0.00    -0.014 C 
HETATM   26  C7  UNL     1      -7.476   7.052  16.697  1.00  0.00     0.010 C 
BRANCH  25  27
HETATM   27  C5  UNL     1      -8.331   6.656  14.331  1.00  0.00     0.008 C 
BRANCH  27  28
HETATM   28  C4  UNL     1      -9.709   6.996  14.927  1.00  0.00     0.028 C 
BRANCH  28  29
HETATM   29  C3  UNL     1     -10.563   7.864  14.045  1.00  0.00    -0.022 C 
HETATM   30  C2  UNL     1     -11.860   7.697  13.705  1.00  0.00    -0.064 C 
HETATM   31  C1  UNL     1     -12.719   6.544  14.155  1.00  0.00     0.045 C 
BRANCH  30  32
HETATM   32  C30 UNL     1     -12.605   8.648  12.790  1.00  0.00     0.197 C 
BRANCH  32  33
HETATM   33  O3  UNL     1     -11.731   9.510  12.074  1.00  0.00    -0.397 OA
HETATM   34  H46 UNL     1     -11.264  10.038  12.744  1.00  0.00     0.209 HD
ENDBRANCH  32  33
ENDBRANCH  30  32
ENDBRANCH  28  29
ENDBRANCH  27  28
ENDBRANCH  25  27
ENDBRANCH   1  25
TORSDOF 6
ENDMDL
MODEL 4
REMARK minimizedAffinity -7.86070442
REMARK CNNscore 0.429574221
REMARK CNNaffinity 6.96850967
REMARK  6 active torsions:
REMARK  status: ('A' for Active; 'I' for Inactive)
REMARK    1  A    between atoms: C2_2  and  C30_32 
REMARK    2  A    between atoms: C3_3  and  C4_4 
REMARK    3  A    between atoms: C4_4  and  C5_5 
REMARK    4  A    between atoms: C5_5  and  C6_6 
REMARK    5  A    between atoms: C6_6  and  C8_8 
REMARK    6  A    between atoms: C30_32  and  O3_33 
ROOT
HETATM    1  C8  UNL     1      -8.546   6.237  14.339  1.00  0.00    -0.002 C 
HETATM    2  C9  UNL     1      -8.960   5.487  13.044  1.00  0.00     0.007 C 
HETATM    3  C10 UNL     1      -7.665   4.953  12.403  1.00  0.00     0.015 C 
HETATM    4  C11 UNL     1      -6.585   5.083  13.496  1.00  0.00    -0.005 C 
HETATM    5  C12 UNL     1      -6.715   3.833  14.420  1.00  0.00     0.021 C 
HETATM    6  C13 UNL     1      -5.111   5.126  13.119  1.00  0.00    -0.000 C 
HETATM    7  C14 UNL     1      -4.207   5.799  13.878  1.00  0.00    -0.060 C 
HETATM    8  C15 UNL     1      -4.666   6.598  15.111  1.00  0.00     0.036 C 
HETATM    9  C16 UNL     1      -6.180   6.650  15.413  1.00  0.00     0.015 C 
HETATM   10  C17 UNL     1      -7.017   6.461  14.144  1.00  0.00    -0.028 C 
HETATM   11  C18 UNL     1      -6.767   7.683  13.212  1.00  0.00     0.016 C 
HETATM   12  C19 UNL     1      -2.687   5.845  13.554  1.00  0.00    -0.014 C 
HETATM   13  C20 UNL     1      -2.402   7.228  12.926  1.00  0.00     0.020 C 
HETATM   14  C21 UNL     1      -1.853   5.672  14.851  1.00  0.00     0.021 C 
HETATM   15  C22 UNL     1      -0.374   5.344  14.668  1.00  0.00     0.080 C 
HETATM   16  C23 UNL     1       0.100   5.313  13.236  1.00  0.00     0.135 C 
HETATM   17  O1  UNL     1       1.216   5.753  12.954  1.00  0.00    -0.297 OA
HETATM   18  C24 UNL     1      -0.784   4.613  12.196  1.00  0.00     0.018 C 
HETATM   19  C25 UNL     1      -0.311   3.146  12.134  1.00  0.00     0.023 C 
HETATM   20  C26 UNL     1      -0.511   5.247  10.815  1.00  0.00     0.023 C 
HETATM   21  C27 UNL     1      -2.294   4.658  12.617  1.00  0.00     0.020 C 
HETATM   22  C28 UNL     1      -3.253   4.556  11.432  1.00  0.00     0.090 C 
HETATM   23  C29 UNL     1      -4.667   4.367  11.909  1.00  0.00     0.157 C 
HETATM   24  O2  UNL     1      -5.433   3.628  11.296  1.00  0.00    -0.293 OA
ENDROOT
BRANCH   1  25
HETATM   25  C6  UNL     1      -9.534   7.370  14.755  1.00  0.00    -0.014 C 
HETATM   26  C7  UNL     1      -9.525   7.774  16.234  1.00  0.00     0.010 C 
BRANCH  25  27
HETATM   27  C5  UNL     1     -10.970   7.076  14.257  1.00  0.00     0.008 C 
BRANCH  27  28
HETATM   28  C4  UNL     1     -11.348   7.751  12.927  1.00  0.00     0.028 C 
BRANCH  28  29
HETATM   29  C3  UNL     1     -12.513   8.697  13.026  1.00  0.00    -0.022 C 
HETATM   30  C2  UNL     1     -13.833   8.413  12.963  1.00  0.00    -0.064 C 
HETATM   31  C1  UNL     1     -14.400   7.033  12.752  1.00  0.00     0.045 C 
BRANCH  30  32
HETATM   32  C30 UNL     1     -14.912   9.471  13.065  1.00  0.00     0.197 C 
BRANCH  32  33
HETATM   33  O3  UNL     1     -16.198   8.972  12.722  1.00  0.00    -0.397 OA
HETATM   34  H46 UNL     1     -16.139   8.689  11.794  1.00  0.00     0.209 HD
ENDBRANCH  32  33
ENDBRANCH  30  32
ENDBRANCH  28  29
ENDBRANCH  27  28
ENDBRANCH  25  27
ENDBRANCH   1  25
TORSDOF 6
ENDMDL
MODEL 5
REMARK minimizedAffinity -7.21395922
REMARK CNNscore 0.427619278
REMARK CNNaffinity 6.8178978
REMARK  6 active torsions:
REMARK  status: ('A' for Active; 'I' for Inactive)
REMARK    1  A    between atoms: C2_2  and  C30_32 
REMARK    2  A    between atoms: C3_3  and  C4_4 
REMARK    3  A    between atoms: C4_4  and  C5_5 
REMARK    4  A    between atoms: C5_5  and  C6_6 
REMARK    5  A    between atoms: C6_6  and  C8_8 
REMARK    6  A    between atoms: C30_32  and  O3_33 
ROOT
HETATM    1  C8  UNL     1      -8.634   6.256  14.363  1.00  0.00    -0.002 C 
HETATM    2  C9  UNL     1      -9.044   5.510  13.064  1.00  0.00     0.007 C 
HETATM    3  C10 UNL     1      -7.748   4.972  12.429  1.00  0.00     0.015 C 
HETATM    4  C11 UNL     1      -6.673   5.096  13.528  1.00  0.00    -0.005 C 
HETATM    5  C12 UNL     1      -6.813   3.845  14.449  1.00  0.00     0.021 C 
HETATM    6  C13 UNL     1      -5.197   5.133  13.160  1.00  0.00    -0.000 C 
HETATM    7  C14 UNL     1      -4.295   5.802  13.925  1.00  0.00    -0.060 C 
HETATM    8  C15 UNL     1      -4.757   6.600  15.157  1.00  0.00     0.036 C 
HETATM    9  C16 UNL     1      -6.273   6.657  15.451  1.00  0.00     0.015 C 
HETATM   10  C17 UNL     1      -7.104   6.474  14.177  1.00  0.00    -0.028 C 
HETATM   11  C18 UNL     1      -6.843   7.697  13.248  1.00  0.00     0.016 C 
HETATM   12  C19 UNL     1      -2.772   5.843  13.609  1.00  0.00    -0.014 C 
HETATM   13  C20 UNL     1      -2.479   7.225  12.985  1.00  0.00     0.020 C 
HETATM   14  C21 UNL     1      -1.946   5.664  14.910  1.00  0.00     0.021 C 
HETATM   15  C22 UNL     1      -0.468   5.331  14.735  1.00  0.00     0.080 C 
HETATM   16  C23 UNL     1       0.014   5.301  13.305  1.00  0.00     0.135 C 
HETATM   17  O1  UNL     1       1.133   5.737  13.030  1.00  0.00    -0.297 OA
HETATM   18  C24 UNL     1      -0.867   4.606  12.259  1.00  0.00     0.018 C 
HETATM   19  C25 UNL     1      -0.399   3.137  12.197  1.00  0.00     0.023 C 
HETATM   20  C26 UNL     1      -0.584   5.242  10.881  1.00  0.00     0.023 C 
HETATM   21  C27 UNL     1      -2.379   4.656  12.672  1.00  0.00     0.020 C 
HETATM   22  C28 UNL     1      -3.332   4.559  11.481  1.00  0.00     0.090 C 
HETATM   23  C29 UNL     1      -4.749   4.375  11.951  1.00  0.00     0.157 C 
HETATM   24  O2  UNL     1      -5.515   3.641  11.332  1.00  0.00    -0.293 OA
ENDROOT
BRANCH   1  25
HETATM   25  C6  UNL     1      -9.620   7.391  14.776  1.00  0.00    -0.014 C 
HETATM   26  C7  UNL     1     -10.756   7.699  13.794  1.00  0.00     0.010 C 
BRANCH  25  27
HETATM   27  C5  UNL     1      -8.860   8.677  15.183  1.00  0.00     0.008 C 
BRANCH  27  28
HETATM   28  C4  UNL     1      -9.669   9.670  16.036  1.00  0.00     0.028 C 
BRANCH  28  29
HETATM   29  C3  UNL     1     -11.100   9.265  16.259  1.00  0.00    -0.022 C 
HETATM   30  C2  UNL     1     -11.934   9.642  17.254  1.00  0.00    -0.064 C 
HETATM   31  C1  UNL     1     -11.554  10.566  18.382  1.00  0.00     0.045 C 
BRANCH  30  32
HETATM   32  C30 UNL     1     -13.361   9.147  17.369  1.00  0.00     0.197 C 
BRANCH  32  33
HETATM   33  O3  UNL     1     -14.148   9.950  18.238  1.00  0.00    -0.397 OA
HETATM   34  H46 UNL     1     -13.733   9.886  19.115  1.00  0.00     0.209 HD
ENDBRANCH  32  33
ENDBRANCH  30  32
ENDBRANCH  28  29
ENDBRANCH  27  28
ENDBRANCH  25  27
ENDBRANCH   1  25
TORSDOF 6
ENDMDL
MODEL 6
REMARK minimizedAffinity -6.68584538
REMARK CNNscore 0.419835955
REMARK CNNaffinity 5.99150085
REMARK  6 active torsions:
REMARK  status: ('A' for Active; 'I' for Inactive)
REMARK    1  A    between atoms: C2_2  and  C30_32 
REMARK    2  A    between atoms: C3_3  and  C4_4 
REMARK    3  A    between atoms: C4_4  and  C5_5 
REMARK    4  A    between atoms: C5_5  and  C6_6 
REMARK    5  A    between atoms: C6_6  and  C8_8 
REMARK    6  A    between atoms: C30_32  and  O3_33 
ROOT
HETATM    1  C8  UNL     1     -17.886   3.296  14.256  1.00  0.00    -0.002 C 
HETATM    2  C9  UNL     1     -17.850   3.211  15.806  1.00  0.00     0.007 C 
HETATM    3  C10 UNL     1     -17.099   1.915  16.165  1.00  0.00     0.015 C 
HETATM    4  C11 UNL     1     -16.412   1.466  14.859  1.00  0.00    -0.005 C 
HETATM    5  C12 UNL     1     -15.083   2.274  14.740  1.00  0.00     0.021 C 
HETATM    6  C13 UNL     1     -15.993   0.015  14.670  1.00  0.00    -0.000 C 
HETATM    7  C14 UNL     1     -15.952  -0.552  13.436  1.00  0.00    -0.060 C 
HETATM    8  C15 UNL     1     -16.397   0.244  12.196  1.00  0.00     0.036 C 
HETATM    9  C16 UNL     1     -16.938   1.674  12.415  1.00  0.00     0.015 C 
HETATM   10  C17 UNL     1     -17.539   1.844  13.814  1.00  0.00    -0.028 C 
HETATM   11  C18 UNL     1     -18.799   0.935  13.914  1.00  0.00     0.016 C 
HETATM   12  C19 UNL     1     -15.500  -2.020  13.186  1.00  0.00    -0.014 C 
HETATM   13  C20 UNL     1     -16.780  -2.852  12.951  1.00  0.00     0.020 C 
HETATM   14  C21 UNL     1     -14.582  -2.097  11.938  1.00  0.00     0.021 C 
HETATM   15  C22 UNL     1     -13.779  -3.382  11.764  1.00  0.00     0.080 C 
HETATM   16  C23 UNL     1     -14.052  -4.449  12.797  1.00  0.00     0.135 C 
HETATM   17  O1  UNL     1     -14.081  -5.633  12.457  1.00  0.00    -0.297 OA
HETATM   18  C24 UNL     1     -14.156  -4.023  14.267  1.00  0.00     0.018 C 
HETATM   19  C25 UNL     1     -12.738  -4.145  14.862  1.00  0.00     0.023 C 
HETATM   20  C26 UNL     1     -15.059  -5.034  15.006  1.00  0.00     0.023 C 
HETATM   21  C27 UNL     1     -14.649  -2.539  14.390  1.00  0.00     0.020 C 
HETATM   22  C28 UNL     1     -15.344  -2.244  15.719  1.00  0.00     0.090 C 
HETATM   23  C29 UNL     1     -15.580  -0.766  15.876  1.00  0.00     0.157 C 
HETATM   24  O2  UNL     1     -15.462  -0.235  16.977  1.00  0.00    -0.293 OA
ENDROOT
BRANCH   1  25
HETATM   25  C6  UNL     1     -19.102   4.097  13.697  1.00  0.00    -0.014 C 
HETATM   26  C7  UNL     1     -20.189   3.280  12.988  1.00  0.00     0.010 C 
BRANCH  25  27
HETATM   27  C5  UNL     1     -18.639   5.295  12.832  1.00  0.00     0.008 C 
BRANCH  27  28
HETATM   28  C4  UNL     1     -17.117   5.412  12.644  1.00  0.00     0.028 C 
BRANCH  28  29
HETATM   29  C3  UNL     1     -16.623   6.824  12.485  1.00  0.00    -0.022 C 
HETATM   30  C2  UNL     1     -15.429   7.342  12.851  1.00  0.00    -0.064 C 
HETATM   31  C1  UNL     1     -14.334   6.564  13.533  1.00  0.00     0.045 C 
BRANCH  30  32
HETATM   32  C30 UNL     1     -15.061   8.796  12.642  1.00  0.00     0.197 C 
BRANCH  32  33
HETATM   33  O3  UNL     1     -13.708   8.963  12.242  1.00  0.00    -0.397 OA
HETATM   34  H46 UNL     1     -13.165   8.614  12.970  1.00  0.00     0.209 HD
ENDBRANCH  32  33
ENDBRANCH  30  32
ENDBRANCH  28  29
ENDBRANCH  27  28
ENDBRANCH  25  27
ENDBRANCH   1  25
TORSDOF 6
ENDMDL
MODEL 7
REMARK minimizedAffinity -6.61809969
REMARK CNNscore 0.399679154
REMARK CNNaffinity 5.70031738
REMARK  6 active torsions:
REMARK  status: ('A' for Active; 'I' for Inactive)
REMARK    1  A    between atoms: C2_2  and  C30_32 
REMARK    2  A    between atoms: C3_3  and  C4_4 
REMARK    3  A    between atoms: C4_4  and  C5_5 
REMARK    4  A    between atoms: C5_5  and  C6_6 
REMARK    5  A    between atoms: C6_6  and  C8_8 
REMARK    6  A    between atoms: C30_32  and  O3_33 
ROOT
HETATM    1  C8  UNL     1      -4.345 -10.432   5.942  1.00  0.00    -0.002 C 
HETATM    2  C9  UNL     1      -3.317 -11.534   6.317  1.00  0.00     0.007 C 
HETATM    3  C10 UNL     1      -2.896 -12.220   5.003  1.00  0.00     0.015 C 
HETATM    4  C11 UNL     1      -3.397 -11.290   3.879  1.00  0.00    -0.005 C 
HETATM    5  C12 UNL     1      -2.329 -10.167   3.704  1.00  0.00     0.021 C 
HETATM    6  C13 UNL     1      -3.613 -11.831   2.473  1.00  0.00    -0.000 C 
HETATM    7  C14 UNL     1      -4.551 -11.297   1.648  1.00  0.00    -0.060 C 
HETATM    8  C15 UNL     1      -5.472 -10.167   2.142  1.00  0.00     0.036 C 
HETATM    9  C16 UNL     1      -5.327  -9.711   3.610  1.00  0.00     0.015 C 
HETATM   10  C17 UNL     1      -4.779 -10.831   4.500  1.00  0.00    -0.028 C 
HETATM   11  C18 UNL     1      -5.838 -11.971   4.552  1.00  0.00     0.016 C 
HETATM   12  C19 UNL     1      -4.789 -11.792   0.192  1.00  0.00    -0.014 C 
HETATM   13  C20 UNL     1      -6.063 -12.665   0.216  1.00  0.00     0.020 C 
HETATM   14  C21 UNL     1      -4.991 -10.586  -0.762  1.00  0.00     0.021 C 
HETATM   15  C22 UNL     1      -4.884 -10.877  -2.256  1.00  0.00     0.080 C 
HETATM   16  C23 UNL     1      -4.675 -12.329  -2.609  1.00  0.00     0.135 C 
HETATM   17  O1  UNL     1      -5.235 -12.801  -3.600  1.00  0.00    -0.297 OA
HETATM   18  C24 UNL     1      -3.663 -13.136  -1.785  1.00  0.00     0.018 C 
HETATM   19  C25 UNL     1      -2.307 -13.010  -2.511  1.00  0.00     0.023 C 
HETATM   20  C26 UNL     1      -4.075 -14.623  -1.825  1.00  0.00     0.023 C 
HETATM   21  C27 UNL     1      -3.534 -12.561  -0.332  1.00  0.00     0.020 C 
HETATM   22  C28 UNL     1      -3.063 -13.600   0.686  1.00  0.00     0.090 C 
HETATM   23  C29 UNL     1      -2.733 -12.943   1.999  1.00  0.00     0.157 C 
HETATM   24  O2  UNL     1      -1.781 -13.339   2.665  1.00  0.00    -0.293 OA
ENDROOT
BRANCH   1  25
HETATM   25  C6  UNL     1      -5.355 -10.098   7.081  1.00  0.00    -0.014 C 
HETATM   26  C7  UNL     1      -6.342  -8.958   6.806  1.00  0.00     0.010 C 
BRANCH  25  27
HETATM   27  C5  UNL     1      -4.632  -9.906   8.437  1.00  0.00     0.008 C 
BRANCH  27  28
HETATM   28  C4  UNL     1      -5.367 -10.492   9.656  1.00  0.00     0.028 C 
BRANCH  28  29
HETATM   29  C3  UNL     1      -5.593  -9.508  10.770  1.00  0.00    -0.022 C 
HETATM   30  C2  UNL     1      -6.664  -8.711  10.983  1.00  0.00    -0.064 C 
HETATM   31  C1  UNL     1      -7.873  -8.649  10.087  1.00  0.00     0.045 C 
BRANCH  30  32
HETATM   32  C30 UNL     1      -6.759  -7.747  12.148  1.00  0.00     0.197 C 
BRANCH  32  33
HETATM   33  O3  UNL     1      -6.219  -8.287  13.346  1.00  0.00    -0.397 OA
HETATM   34  H46 UNL     1      -6.756  -9.070  13.556  1.00  0.00     0.209 HD
ENDBRANCH  32  33
ENDBRANCH  30  32
ENDBRANCH  28  29
ENDBRANCH  27  28
ENDBRANCH  25  27
ENDBRANCH   1  25
TORSDOF 6
ENDMDL
MODEL 8
REMARK minimizedAffinity -7.56831408
REMARK CNNscore 0.385073513
REMARK CNNaffinity 6.41967916
REMARK  6 active torsions:
REMARK  status: ('A' for Active; 'I' for Inactive)
REMARK    1  A    between atoms: C2_2  and  C30_32 
REMARK    2  A    between atoms: C3_3  and  C4_4 
REMARK    3  A    between atoms: C4_4  and  C5_5 
REMARK    4  A    between atoms: C5_5  and  C6_6 
REMARK    5  A    between atoms: C6_6  and  C8_8 
REMARK    6  A    between atoms: C30_32  and  O3_33 
ROOT
HETATM    1  C8  UNL     1      -3.658   7.247  14.985  1.00  0.00    -0.002 C 
HETATM    2  C9  UNL     1      -4.426   6.298  14.026  1.00  0.00     0.007 C 
HETATM    3  C10 UNL     1      -3.416   5.817  12.968  1.00  0.00     0.015 C 
HETATM    4  C11 UNL     1      -2.029   6.196  13.526  1.00  0.00    -0.005 C 
HETATM    5  C12 UNL     1      -1.613   5.070  14.523  1.00  0.00     0.021 C 
HETATM    6  C13 UNL     1      -0.836   6.336  12.592  1.00  0.00    -0.000 C 
HETATM    7  C14 UNL     1       0.184   7.189  12.873  1.00  0.00    -0.060 C 
HETATM    8  C15 UNL     1       0.125   8.091  14.118  1.00  0.00     0.036 C 
HETATM    9  C16 UNL     1      -1.147   8.031  14.992  1.00  0.00     0.015 C 
HETATM   10  C17 UNL     1      -2.371   7.596  14.180  1.00  0.00    -0.028 C 
HETATM   11  C18 UNL     1      -2.676   8.706  13.131  1.00  0.00     0.016 C 
HETATM   12  C19 UNL     1       1.440   7.345  11.968  1.00  0.00    -0.014 C 
HETATM   13  C20 UNL     1       1.260   8.656  11.170  1.00  0.00     0.020 C 
HETATM   14  C21 UNL     1       2.724   7.426  12.835  1.00  0.00     0.021 C 
HETATM   15  C22 UNL     1       4.049   7.227  12.107  1.00  0.00     0.080 C 
HETATM   16  C23 UNL     1       3.935   7.058  10.611  1.00  0.00     0.135 C 
HETATM   17  O1  UNL     1       4.781   7.567   9.875  1.00  0.00    -0.297 OA
HETATM   18  C24 UNL     1       2.829   6.143  10.068  1.00  0.00     0.018 C 
HETATM   19  C25 UNL     1       3.447   4.736   9.941  1.00  0.00     0.023 C 
HETATM   20  C26 UNL     1       2.457   6.617   8.647  1.00  0.00     0.023 C 
HETATM   21  C27 UNL     1       1.608   6.092  11.050  1.00  0.00     0.020 C 
HETATM   22  C28 UNL     1       0.292   5.741  10.356  1.00  0.00     0.090 C 
HETATM   23  C29 UNL     1      -0.787   5.475  11.371  1.00  0.00     0.157 C 
HETATM   24  O2  UNL     1      -1.616   4.590  11.174  1.00  0.00    -0.293 OA
ENDROOT
BRANCH   1  25
HETATM   25  C6  UNL     1      -4.561   8.320  15.668  1.00  0.00    -0.014 C 
HETATM   26  C7  UNL     1      -5.778   8.798  14.866  1.00  0.00     0.010 C 
BRANCH  25  27
HETATM   27  C5  UNL     1      -3.723   9.513  16.190  1.00  0.00     0.008 C 
BRANCH  27  28
HETATM   28  C4  UNL     1      -4.343  10.900  15.947  1.00  0.00     0.028 C 
BRANCH  28  29
HETATM   29  C3  UNL     1      -3.769  11.990  16.809  1.00  0.00    -0.022 C 
HETATM   30  C2  UNL     1      -3.424  11.935  18.115  1.00  0.00    -0.064 C 
HETATM   31  C1  UNL     1      -3.579  10.716  18.987  1.00  0.00     0.045 C 
BRANCH  30  32
HETATM   32  C30 UNL     1      -2.864  13.120  18.873  1.00  0.00     0.197 C 
BRANCH  32  33
HETATM   33  O3  UNL     1      -3.059  14.348  18.185  1.00  0.00    -0.397 OA
HETATM   34  H46 UNL     1      -2.573  14.268  17.346  1.00  0.00     0.209 HD
ENDBRANCH  32  33
ENDBRANCH  30  32
ENDBRANCH  28  29
ENDBRANCH  27  28
ENDBRANCH  25  27
ENDBRANCH   1  25
TORSDOF 6
ENDMDL
MODEL 9
REMARK minimizedAffinity -7.0670085
REMARK CNNscore 0.378210604
REMARK CNNaffinity 6.72670603
REMARK  6 active torsions:
REMARK  status: ('A' for Active; 'I' for Inactive)
REMARK    1  A    between atoms: C2_2  and  C30_32 
REMARK    2  A    between atoms: C3_3  and  C4_4 
REMARK    3  A    between atoms: C4_4  and  C5_5 
REMARK    4  A    between atoms: C5_5  and  C6_6 
REMARK    5  A    between atoms: C6_6  and  C8_8 
REMARK    6  A    between atoms: C30_32  and  O3_33 
ROOT
HETATM    1  C8  UNL     1      -6.213   5.476  14.167  1.00  0.00    -0.002 C 
HETATM    2  C9  UNL     1      -5.874   4.523  12.989  1.00  0.00     0.007 C 
HETATM    3  C10 UNL     1      -4.400   4.775  12.618  1.00  0.00     0.015 C 
HETATM    4  C11 UNL     1      -3.818   5.586  13.793  1.00  0.00    -0.005 C 
HETATM    5  C12 UNL     1      -3.426   4.565  14.906  1.00  0.00     0.021 C 
HETATM    6  C13 UNL     1      -2.568   6.433  13.598  1.00  0.00    -0.000 C 
HETATM    7  C14 UNL     1      -2.358   7.560  14.327  1.00  0.00    -0.060 C 
HETATM    8  C15 UNL     1      -3.419   8.049  15.329  1.00  0.00     0.036 C 
HETATM    9  C16 UNL     1      -4.738   7.251  15.429  1.00  0.00     0.015 C 
HETATM   10  C17 UNL     1      -5.055   6.517  14.123  1.00  0.00    -0.028 C 
HETATM   11  C18 UNL     1      -5.332   7.583  13.022  1.00  0.00     0.016 C 
HETATM   12  C19 UNL     1      -1.084   8.442  14.189  1.00  0.00    -0.014 C 
HETATM   13  C20 UNL     1      -1.482   9.683  13.359  1.00  0.00     0.020 C 
HETATM   14  C21 UNL     1      -0.577   8.881  15.587  1.00  0.00     0.021 C 
HETATM   15  C22 UNL     1       0.840   9.443  15.650  1.00  0.00     0.080 C 
HETATM   16  C23 UNL     1       1.533   9.574  14.315  1.00  0.00     0.135 C 
HETATM   17  O1  UNL     1       2.255  10.549  14.097  1.00  0.00    -0.297 OA
HETATM   18  C24 UNL     1       1.412   8.414  13.320  1.00  0.00     0.018 C 
HETATM   19  C25 UNL     1       2.612   7.482  13.584  1.00  0.00     0.023 C 
HETATM   20  C26 UNL     1       1.567   8.977  11.890  1.00  0.00     0.023 C 
HETATM   21  C27 UNL     1       0.076   7.622  13.538  1.00  0.00     0.020 C 
HETATM   22  C28 UNL     1      -0.404   6.895  12.282  1.00  0.00     0.090 C 
HETATM   23  C29 UNL     1      -1.546   5.970  12.610  1.00  0.00     0.157 C 
HETATM   24  O2  UNL     1      -1.638   4.880  12.052  1.00  0.00    -0.293 OA
ENDROOT
BRANCH   1  25
HETATM   25  C6  UNL     1      -7.719   5.869  14.247  1.00  0.00    -0.014 C 
HETATM   26  C7  UNL     1      -8.486   5.908  12.919  1.00  0.00     0.010 C 
BRANCH  25  27
HETATM   27  C5  UNL     1      -7.919   7.175  15.054  1.00  0.00     0.008 C 
BRANCH  27  28
HETATM   28  C4  UNL     1      -9.267   7.881  14.827  1.00  0.00     0.028 C 
BRANCH  28  29
HETATM   29  C3  UNL     1      -9.788   8.615  16.032  1.00  0.00    -0.022 C 
HETATM   30  C2  UNL     1     -10.231   9.890  16.112  1.00  0.00    -0.064 C 
HETATM   31  C1  UNL     1     -10.266  10.855  14.956  1.00  0.00     0.045 C 
BRANCH  30  32
HETATM   32  C30 UNL     1     -10.722  10.515  17.401  1.00  0.00     0.197 C 
BRANCH  32  33
HETATM   33  O3  UNL     1     -11.959   9.967  17.836  1.00  0.00    -0.397 OA
HETATM   34  H46 UNL     1     -12.604  10.169  17.137  1.00  0.00     0.209 HD
ENDBRANCH  32  33
ENDBRANCH  30  32
ENDBRANCH  28  29
ENDBRANCH  27  28
ENDBRANCH  25  27
ENDBRANCH   1  25
TORSDOF 6
ENDMDL
