MODEL 1
REMARK minimizedAffinity -9.41291714
REMARK  8 active torsions:
REMARK  status: ('A' for Active; 'I' for Inactive)
REMARK    1  A    between atoms: C2_2  and  C3_3 
REMARK    2  A    between atoms: C2_2  and  C9_11 
REMARK    3  A    between atoms: C3_3  and  C4_4 
REMARK    4  A    between atoms: C4_4  and  C5_5 
REMARK    5  A    between atoms: C6_6  and  C7_7 
REMARK    6  A    between atoms: C6_6  and  C8_9 
REMARK    7  A    between atoms: C7_7  and  O1_8 
REMARK    8  A    between atoms: C8_9  and  O2_10 
ROOT
HETATM    1  C9  UNL     1      -0.889  51.904 -21.056  1.00  0.00     0.018 C 
HETATM    2  C10 UNL     1      -0.566  51.010 -19.832  1.00  0.00     0.010 C 
HETATM    3  C11 UNL     1      -1.852  50.199 -19.567  1.00  0.00     0.011 C 
HETATM    4  C12 UNL     1      -2.439  49.939 -20.975  1.00  0.00    -0.032 C 
HETATM    5  C13 UNL     1      -1.542  48.845 -21.632  1.00  0.00     0.016 C 
HETATM    6  C14 UNL     1      -2.227  51.345 -21.603  1.00  0.00     0.002 C 
HETATM    7  C15 UNL     1      -2.567  51.387 -23.082  1.00  0.00     0.006 C 
HETATM    8  C16 UNL     1      -4.036  50.968 -23.288  1.00  0.00     0.006 C 
HETATM    9  C17 UNL     1      -4.392  49.605 -22.626  1.00  0.00     0.003 C 
HETATM   10  C18 UNL     1      -5.823  49.035 -23.016  1.00  0.00    -0.035 C 
HETATM   11  C19 UNL     1      -6.967  50.009 -22.656  1.00  0.00     0.016 C 
HETATM   12  C20 UNL     1      -5.867  48.853 -24.574  1.00  0.00     0.017 C 
HETATM   13  C21 UNL     1      -6.699  47.681 -25.085  1.00  0.00     0.080 C 
HETATM   14  C22 UNL     1      -7.790  47.288 -24.124  1.00  0.00     0.135 C 
HETATM   15  O3  UNL     1      -8.961  47.216 -24.499  1.00  0.00    -0.297 OA
HETATM   16  C23 UNL     1      -7.352  46.894 -22.707  1.00  0.00     0.017 C 
HETATM   17  C24 UNL     1      -8.503  47.184 -21.725  1.00  0.00     0.023 C 
HETATM   18  C25 UNL     1      -7.134  45.366 -22.726  1.00  0.00     0.023 C 
HETATM   19  C26 UNL     1      -6.001  47.619 -22.356  1.00  0.00     0.009 C 
HETATM   20  C27 UNL     1      -5.689  47.620 -20.847  1.00  0.00     0.007 C 
HETATM   21  C28 UNL     1      -4.275  48.130 -20.552  1.00  0.00     0.011 C 
HETATM   22  C29 UNL     1      -3.998  49.559 -21.088  1.00  0.00    -0.032 C 
HETATM   23  C30 UNL     1      -4.859  50.537 -20.237  1.00  0.00     0.016 C 
ENDROOT
BRANCH   1  24
HETATM   24  C2  UNL     1       0.241  52.216 -22.036  1.00  0.00    -0.084 C 
HETATM   25  C1  UNL     1       1.428  52.610 -21.537  1.00  0.00     0.014 C 
BRANCH  24  26
HETATM   26  C3  UNL     1      -0.032  52.091 -23.529  1.00  0.00     0.037 C 
BRANCH  26  27
HETATM   27  C4  UNL     1       0.537  53.148 -24.499  1.00  0.00     0.032 C 
BRANCH  27  28
HETATM   28  C5  UNL     1       0.305  52.794 -25.947  1.00  0.00    -0.019 C 
HETATM   29  C6  UNL     1       1.107  52.077 -26.763  1.00  0.00    -0.037 C 
BRANCH  29  30
HETATM   30  C7  UNL     1       0.729  51.861 -28.206  1.00  0.00     0.200 C 
BRANCH  30  31
HETATM   31  O1  UNL     1      -0.684  51.712 -28.282  1.00  0.00    -0.397 OA
HETATM   32  H10 UNL     1      -0.882  51.431 -29.192  1.00  0.00     0.209 HD
ENDBRANCH  30  31
ENDBRANCH  29  30
BRANCH  29  33
HETATM   33  C8  UNL     1       2.404  51.429 -26.355  1.00  0.00     0.200 C 
BRANCH  33  34
HETATM   34  O2  UNL     1       3.327  51.485 -27.432  1.00  0.00    -0.397 OA
HETATM   35  H13 UNL     1       2.798  51.320 -28.241  1.00  0.00     0.209 HD
ENDBRANCH  33  34
ENDBRANCH  29  33
ENDBRANCH  27  28
ENDBRANCH  26  27
ENDBRANCH  24  26
ENDBRANCH   1  24
TORSDOF 8
ENDMDL
MODEL 2
REMARK minimizedAffinity -9.24715137
REMARK  8 active torsions:
REMARK  status: ('A' for Active; 'I' for Inactive)
REMARK    1  A    between atoms: C2_2  and  C3_3 
REMARK    2  A    between atoms: C2_2  and  C9_11 
REMARK    3  A    between atoms: C3_3  and  C4_4 
REMARK    4  A    between atoms: C4_4  and  C5_5 
REMARK    5  A    between atoms: C6_6  and  C7_7 
REMARK    6  A    between atoms: C6_6  and  C8_9 
REMARK    7  A    between atoms: C7_7  and  O1_8 
REMARK    8  A    between atoms: C8_9  and  O2_10 
ROOT
HETATM    1  C9  UNL     1      -0.309  52.503 -20.619  1.00  0.00     0.018 C 
HETATM    2  C10 UNL     1       0.294  51.615 -19.502  1.00  0.00     0.010 C 
HETATM    3  C11 UNL     1      -0.834  50.646 -19.094  1.00  0.00     0.011 C 
HETATM    4  C12 UNL     1      -1.593  50.363 -20.413  1.00  0.00    -0.032 C 
HETATM    5  C13 UNL     1      -0.685  49.408 -21.248  1.00  0.00     0.016 C 
HETATM    6  C14 UNL     1      -1.641  51.804 -20.993  1.00  0.00     0.002 C 
HETATM    7  C15 UNL     1      -2.202  51.852 -22.403  1.00  0.00     0.006 C 
HETATM    8  C16 UNL     1      -3.628  51.265 -22.415  1.00  0.00     0.006 C 
HETATM    9  C17 UNL     1      -3.720  49.849 -21.777  1.00  0.00     0.003 C 
HETATM   10  C18 UNL     1      -5.118  49.122 -21.983  1.00  0.00    -0.035 C 
HETATM   11  C19 UNL     1      -6.300  49.938 -21.412  1.00  0.00     0.016 C 
HETATM   12  C20 UNL     1      -5.375  48.987 -23.525  1.00  0.00     0.017 C 
HETATM   13  C21 UNL     1      -6.134  47.740 -23.968  1.00  0.00     0.080 C 
HETATM   14  C22 UNL     1      -7.015  47.186 -22.880  1.00  0.00     0.135 C 
HETATM   15  O3  UNL     1      -8.213  46.985 -23.083  1.00  0.00    -0.297 OA
HETATM   16  C23 UNL     1      -6.327  46.802 -21.563  1.00  0.00     0.017 C 
HETATM   17  C24 UNL     1      -7.342  46.918 -20.410  1.00  0.00     0.023 C 
HETATM   18  C25 UNL     1      -5.939  45.314 -21.691  1.00  0.00     0.023 C 
HETATM   19  C26 UNL     1      -5.031  47.674 -21.376  1.00  0.00     0.009 C 
HETATM   20  C27 UNL     1      -4.498  47.663 -19.930  1.00  0.00     0.007 C 
HETATM   21  C28 UNL     1      -3.124  48.332 -19.819  1.00  0.00     0.011 C 
HETATM   22  C29 UNL     1      -3.097  49.801 -20.317  1.00  0.00    -0.032 C 
HETATM   23  C30 UNL     1      -3.927  50.638 -19.302  1.00  0.00     0.016 C 
ENDROOT
BRANCH   1  24
HETATM   24  C2  UNL     1       0.616  52.983 -21.737  1.00  0.00    -0.084 C 
HETATM   25  C1  UNL     1       1.372  54.075 -21.514  1.00  0.00     0.014 C 
BRANCH  24  26
HETATM   26  C3  UNL     1       0.627  52.220 -23.054  1.00  0.00     0.037 C 
BRANCH  26  27
HETATM   27  C4  UNL     1       0.529  52.996 -24.385  1.00  0.00     0.032 C 
BRANCH  27  28
HETATM   28  C5  UNL     1       1.253  52.308 -25.515  1.00  0.00    -0.019 C 
HETATM   29  C6  UNL     1       1.030  52.434 -26.841  1.00  0.00    -0.037 C 
BRANCH  29  30
HETATM   30  C7  UNL     1       1.830  51.626 -27.829  1.00  0.00     0.200 C 
BRANCH  30  31
HETATM   31  O1  UNL     1       3.167  51.527 -27.350  1.00  0.00    -0.397 OA
HETATM   32  H10 UNL     1       3.688  51.131 -28.070  1.00  0.00     0.209 HD
ENDBRANCH  30  31
ENDBRANCH  29  30
BRANCH  29  33
HETATM   33  C8  UNL     1       0.017  53.357 -27.467  1.00  0.00     0.200 C 
BRANCH  33  34
HETATM   34  O2  UNL     1      -0.040  53.126 -28.866  1.00  0.00    -0.397 OA
HETATM   35  H13 UNL     1       0.886  52.970 -29.145  1.00  0.00     0.209 HD
ENDBRANCH  33  34
ENDBRANCH  29  33
ENDBRANCH  27  28
ENDBRANCH  26  27
ENDBRANCH  24  26
ENDBRANCH   1  24
TORSDOF 8
ENDMDL
MODEL 3
REMARK minimizedAffinity -9.02156448
REMARK  8 active torsions:
REMARK  status: ('A' for Active; 'I' for Inactive)
REMARK    1  A    between atoms: C2_2  and  C3_3 
REMARK    2  A    between atoms: C2_2  and  C9_11 
REMARK    3  A    between atoms: C3_3  and  C4_4 
REMARK    4  A    between atoms: C4_4  and  C5_5 
REMARK    5  A    between atoms: C6_6  and  C7_7 
REMARK    6  A    between atoms: C6_6  and  C8_9 
REMARK    7  A    between atoms: C7_7  and  O1_8 
REMARK    8  A    between atoms: C8_9  and  O2_10 
ROOT
HETATM    1  C9  UNL     1      -3.716  48.385 -19.255  1.00  0.00     0.018 C 
HETATM    2  C10 UNL     1      -3.972  47.076 -20.044  1.00  0.00     0.010 C 
HETATM    3  C11 UNL     1      -3.967  47.486 -21.531  1.00  0.00     0.011 C 
HETATM    4  C12 UNL     1      -2.911  48.614 -21.614  1.00  0.00    -0.032 C 
HETATM    5  C13 UNL     1      -1.517  47.921 -21.506  1.00  0.00     0.016 C 
HETATM    6  C14 UNL     1      -3.286  49.411 -20.334  1.00  0.00     0.002 C 
HETATM    7  C15 UNL     1      -2.307  50.531 -20.029  1.00  0.00     0.006 C 
HETATM    8  C16 UNL     1      -2.248  51.507 -21.221  1.00  0.00     0.006 C 
HETATM    9  C17 UNL     1      -1.961  50.808 -22.582  1.00  0.00     0.003 C 
HETATM   10  C18 UNL     1      -1.661  51.802 -23.785  1.00  0.00    -0.035 C 
HETATM   11  C19 UNL     1      -2.821  52.792 -24.038  1.00  0.00     0.016 C 
HETATM   12  C20 UNL     1      -0.411  52.669 -23.401  1.00  0.00     0.017 C 
HETATM   13  C21 UNL     1       0.503  53.068 -24.555  1.00  0.00     0.080 C 
HETATM   14  C22 UNL     1      -0.221  53.107 -25.876  1.00  0.00     0.135 C 
HETATM   15  O3  UNL     1      -0.185  54.116 -26.581  1.00  0.00    -0.297 OA
HETATM   16  C23 UNL     1      -0.907  51.811 -26.324  1.00  0.00     0.017 C 
HETATM   17  C24 UNL     1      -2.093  52.160 -27.243  1.00  0.00     0.023 C 
HETATM   18  C25 UNL     1       0.126  51.041 -27.174  1.00  0.00     0.023 C 
HETATM   19  C26 UNL     1      -1.295  50.958 -25.060  1.00  0.00     0.009 C 
HETATM   20  C27 UNL     1      -2.330  49.858 -25.367  1.00  0.00     0.007 C 
HETATM   21  C28 UNL     1      -2.525  48.907 -24.181  1.00  0.00     0.011 C 
HETATM   22  C29 UNL     1      -2.967  49.614 -22.873  1.00  0.00    -0.032 C 
HETATM   23  C30 UNL     1      -4.420  50.120 -23.101  1.00  0.00     0.016 C 
ENDROOT
BRANCH   1  24
HETATM   24  C2  UNL     1      -2.918  48.297 -17.955  1.00  0.00    -0.084 C 
HETATM   25  C1  UNL     1      -3.589  48.084 -16.807  1.00  0.00     0.014 C 
BRANCH  24  26
HETATM   26  C3  UNL     1      -1.406  48.476 -18.012  1.00  0.00     0.037 C 
BRANCH  26  27
HETATM   27  C4  UNL     1      -0.679  49.181 -16.847  1.00  0.00     0.032 C 
BRANCH  27  28
HETATM   28  C5  UNL     1       0.098  50.394 -17.296  1.00  0.00    -0.019 C 
HETATM   29  C6  UNL     1       0.672  51.342 -16.525  1.00  0.00    -0.037 C 
BRANCH  29  30
HETATM   30  C7  UNL     1       1.375  52.516 -17.155  1.00  0.00     0.200 C 
BRANCH  30  31
HETATM   31  O1  UNL     1       2.441  52.912 -16.299  1.00  0.00    -0.397 OA
HETATM   32  H10 UNL     1       2.781  53.752 -16.655  1.00  0.00     0.209 HD
ENDBRANCH  30  31
ENDBRANCH  29  30
BRANCH  29  33
HETATM   33  C8  UNL     1       0.690  51.341 -15.018  1.00  0.00     0.200 C 
BRANCH  33  34
HETATM   34  O2  UNL     1       0.469  52.658 -14.536  1.00  0.00    -0.397 OA
HETATM   35  H13 UNL     1       0.961  53.248 -15.145  1.00  0.00     0.209 HD
ENDBRANCH  33  34
ENDBRANCH  29  33
ENDBRANCH  27  28
ENDBRANCH  26  27
ENDBRANCH  24  26
ENDBRANCH   1  24
TORSDOF 8
ENDMDL
MODEL 4
REMARK minimizedAffinity -9.01431942
REMARK  8 active torsions:
REMARK  status: ('A' for Active; 'I' for Inactive)
REMARK    1  A    between atoms: C2_2  and  C3_3 
REMARK    2  A    between atoms: C2_2  and  C9_11 
REMARK    3  A    between atoms: C3_3  and  C4_4 
REMARK    4  A    between atoms: C4_4  and  C5_5 
REMARK    5  A    between atoms: C6_6  and  C7_7 
REMARK    6  A    between atoms: C6_6  and  C8_9 
REMARK    7  A    between atoms: C7_7  and  O1_8 
REMARK    8  A    between atoms: C8_9  and  O2_10 
ROOT
HETATM    1  C9  UNL     1      -1.897  51.423 -23.654  1.00  0.00     0.018 C 
HETATM    2  C10 UNL     1      -2.873  52.490 -24.208  1.00  0.00     0.010 C 
HETATM    3  C11 UNL     1      -4.263  51.821 -24.195  1.00  0.00     0.011 C 
HETATM    4  C12 UNL     1      -4.242  50.918 -22.938  1.00  0.00    -0.032 C 
HETATM    5  C13 UNL     1      -4.373  51.870 -21.709  1.00  0.00     0.016 C 
HETATM    6  C14 UNL     1      -2.817  50.316 -23.081  1.00  0.00     0.002 C 
HETATM    7  C15 UNL     1      -2.409  49.477 -21.882  1.00  0.00     0.006 C 
HETATM    8  C16 UNL     1      -3.416  48.326 -21.687  1.00  0.00     0.006 C 
HETATM    9  C17 UNL     1      -4.896  48.803 -21.615  1.00  0.00     0.003 C 
HETATM   10  C18 UNL     1      -5.932  47.679 -21.181  1.00  0.00    -0.035 C 
HETATM   11  C19 UNL     1      -5.911  46.458 -22.128  1.00  0.00     0.016 C 
HETATM   12  C20 UNL     1      -5.513  47.150 -19.764  1.00  0.00     0.017 C 
HETATM   13  C21 UNL     1      -6.655  46.725 -18.847  1.00  0.00     0.080 C 
HETATM   14  C22 UNL     1      -7.882  46.306 -19.612  1.00  0.00     0.135 C 
HETATM   15  O3  UNL     1      -8.405  45.210 -19.409  1.00  0.00    -0.297 OA
HETATM   16  C23 UNL     1      -8.487  47.343 -20.568  1.00  0.00     0.017 C 
HETATM   17  C24 UNL     1      -9.228  46.612 -21.703  1.00  0.00     0.023 C 
HETATM   18  C25 UNL     1      -9.541  48.124 -19.754  1.00  0.00     0.023 C 
HETATM   19  C26 UNL     1      -7.359  48.326 -21.056  1.00  0.00     0.009 C 
HETATM   20  C27 UNL     1      -7.761  49.134 -22.305  1.00  0.00     0.007 C 
HETATM   21  C28 UNL     1      -6.744  50.234 -22.629  1.00  0.00     0.011 C 
HETATM   22  C29 UNL     1      -5.301  49.710 -22.854  1.00  0.00    -0.032 C 
HETATM   23  C30 UNL     1      -5.314  48.905 -24.185  1.00  0.00     0.016 C 
ENDROOT
BRANCH   1  24
HETATM   24  C2  UNL     1      -0.704  51.899 -22.827  1.00  0.00    -0.084 C 
HETATM   25  C1  UNL     1      -0.886  52.115 -21.510  1.00  0.00     0.014 C 
BRANCH  24  26
HETATM   26  C3  UNL     1       0.628  52.128 -23.529  1.00  0.00     0.037 C 
BRANCH  26  27
HETATM   27  C4  UNL     1       0.760  53.271 -24.558  1.00  0.00     0.032 C 
BRANCH  27  28
HETATM   28  C5  UNL     1       0.411  52.835 -25.960  1.00  0.00    -0.019 C 
HETATM   29  C6  UNL     1       1.128  52.039 -26.782  1.00  0.00    -0.037 C 
BRANCH  29  30
HETATM   30  C7  UNL     1       0.638  51.746 -28.177  1.00  0.00     0.200 C 
BRANCH  30  31
HETATM   31  O1  UNL     1      -0.007  52.911 -28.679  1.00  0.00    -0.397 OA
HETATM   32  H10 UNL     1      -0.436  52.649 -29.513  1.00  0.00     0.209 HD
ENDBRANCH  30  31
ENDBRANCH  29  30
BRANCH  29  33
HETATM   33  C8  UNL     1       2.431  51.371 -26.426  1.00  0.00     0.200 C 
BRANCH  33  34
HETATM   34  O2  UNL     1       3.363  51.547 -27.482  1.00  0.00    -0.397 OA
HETATM   35  H13 UNL     1       2.844  51.456 -28.309  1.00  0.00     0.209 HD
ENDBRANCH  33  34
ENDBRANCH  29  33
ENDBRANCH  27  28
ENDBRANCH  26  27
ENDBRANCH  24  26
ENDBRANCH   1  24
TORSDOF 8
ENDMDL
MODEL 5
REMARK minimizedAffinity -8.83393669
REMARK  8 active torsions:
REMARK  status: ('A' for Active; 'I' for Inactive)
REMARK    1  A    between atoms: C2_2  and  C3_3 
REMARK    2  A    between atoms: C2_2  and  C9_11 
REMARK    3  A    between atoms: C3_3  and  C4_4 
REMARK    4  A    between atoms: C4_4  and  C5_5 
REMARK    5  A    between atoms: C6_6  and  C7_7 
REMARK    6  A    between atoms: C6_6  and  C8_9 
REMARK    7  A    between atoms: C7_7  and  O1_8 
REMARK    8  A    between atoms: C8_9  and  O2_10 
ROOT
HETATM    1  C9  UNL     1      -1.116  51.175 -17.857  1.00  0.00     0.018 C 
HETATM    2  C10 UNL     1      -2.098  50.007 -17.592  1.00  0.00     0.010 C 
HETATM    3  C11 UNL     1      -2.883  49.824 -18.908  1.00  0.00     0.011 C 
HETATM    4  C12 UNL     1      -1.852  50.144 -20.017  1.00  0.00    -0.032 C 
HETATM    5  C13 UNL     1      -0.887  48.920 -20.089  1.00  0.00     0.016 C 
HETATM    6  C14 UNL     1      -1.184  51.399 -19.389  1.00  0.00     0.002 C 
HETATM    7  C15 UNL     1       0.018  51.885 -20.181  1.00  0.00     0.006 C 
HETATM    8  C16 UNL     1      -0.413  52.221 -21.622  1.00  0.00     0.006 C 
HETATM    9  C17 UNL     1      -1.173  51.062 -22.330  1.00  0.00     0.003 C 
HETATM   10  C18 UNL     1      -1.422  51.285 -23.883  1.00  0.00    -0.035 C 
HETATM   11  C19 UNL     1      -2.221  52.575 -24.175  1.00  0.00     0.016 C 
HETATM   12  C20 UNL     1      -0.027  51.459 -24.580  1.00  0.00     0.017 C 
HETATM   13  C21 UNL     1       0.081  50.915 -26.001  1.00  0.00     0.080 C 
HETATM   14  C22 UNL     1      -1.251  50.870 -26.702  1.00  0.00     0.135 C 
HETATM   15  O3  UNL     1      -1.402  51.408 -27.799  1.00  0.00    -0.297 OA
HETATM   16  C23 UNL     1      -2.357  50.046 -26.029  1.00  0.00     0.017 C 
HETATM   17  C24 UNL     1      -3.729  50.618 -26.433  1.00  0.00     0.023 C 
HETATM   18  C25 UNL     1      -2.259  48.621 -26.615  1.00  0.00     0.023 C 
HETATM   19  C26 UNL     1      -2.106  50.000 -24.477  1.00  0.00     0.009 C 
HETATM   20  C27 UNL     1      -3.345  49.558 -23.676  1.00  0.00     0.007 C 
HETATM   21  C28 UNL     1      -3.017  49.309 -22.200  1.00  0.00     0.011 C 
HETATM   22  C29 UNL     1      -2.405  50.536 -21.476  1.00  0.00    -0.032 C 
HETATM   23  C30 UNL     1      -3.531  51.603 -21.362  1.00  0.00     0.016 C 
ENDROOT
BRANCH   1  24
HETATM   24  C2  UNL     1       0.249  51.137 -17.172  1.00  0.00    -0.084 C 
HETATM   25  C1  UNL     1       1.035  52.228 -17.254  1.00  0.00     0.014 C 
BRANCH  24  26
HETATM   26  C3  UNL     1       0.669  49.865 -16.448  1.00  0.00     0.037 C 
BRANCH  26  27
HETATM   27  C4  UNL     1       0.421  49.736 -14.930  1.00  0.00     0.032 C 
BRANCH  27  28
HETATM   28  C5  UNL     1       1.678  49.406 -14.162  1.00  0.00    -0.019 C 
HETATM   29  C6  UNL     1       2.655  50.252 -13.771  1.00  0.00    -0.037 C 
BRANCH  29  30
HETATM   30  C7  UNL     1       3.868  49.731 -13.044  1.00  0.00     0.200 C 
BRANCH  30  31
HETATM   31  O1  UNL     1       4.911  49.538 -13.995  1.00  0.00    -0.397 OA
HETATM   32  H10 UNL     1       5.624  49.070 -13.527  1.00  0.00     0.209 HD
ENDBRANCH  30  31
ENDBRANCH  29  30
BRANCH  29  33
HETATM   33  C8  UNL     1       2.651  51.743 -13.988  1.00  0.00     0.200 C 
BRANCH  33  34
HETATM   34  O2  UNL     1       1.773  52.360 -13.059  1.00  0.00    -0.397 OA
HETATM   35  H13 UNL     1       1.002  51.759 -12.987  1.00  0.00     0.209 HD
ENDBRANCH  33  34
ENDBRANCH  29  33
ENDBRANCH  27  28
ENDBRANCH  26  27
ENDBRANCH  24  26
ENDBRANCH   1  24
TORSDOF 8
ENDMDL
MODEL 6
REMARK minimizedAffinity -8.81667805
REMARK  8 active torsions:
REMARK  status: ('A' for Active; 'I' for Inactive)
REMARK    1  A    between atoms: C2_2  and  C3_3 
REMARK    2  A    between atoms: C2_2  and  C9_11 
REMARK    3  A    between atoms: C3_3  and  C4_4 
REMARK    4  A    between atoms: C4_4  and  C5_5 
REMARK    5  A    between atoms: C6_6  and  C7_7 
REMARK    6  A    between atoms: C6_6  and  C8_9 
REMARK    7  A    between atoms: C7_7  and  O1_8 
REMARK    8  A    between atoms: C8_9  and  O2_10 
ROOT
HETATM    1  C9  UNL     1       0.015  51.782 -21.671  1.00  0.00     0.018 C 
HETATM    2  C10 UNL     1       0.161  52.040 -23.192  1.00  0.00     0.010 C 
HETATM    3  C11 UNL     1      -0.865  51.106 -23.867  1.00  0.00     0.011 C 
HETATM    4  C12 UNL     1      -2.058  51.072 -22.882  1.00  0.00    -0.032 C 
HETATM    5  C13 UNL     1      -2.786  52.445 -23.024  1.00  0.00     0.016 C 
HETATM    6  C14 UNL     1      -1.281  50.942 -21.543  1.00  0.00     0.002 C 
HETATM    7  C15 UNL     1      -2.183  51.042 -20.326  1.00  0.00     0.006 C 
HETATM    8  C16 UNL     1      -3.259  49.939 -20.385  1.00  0.00     0.006 C 
HETATM    9  C17 UNL     1      -4.052  49.917 -21.724  1.00  0.00     0.003 C 
HETATM   10  C18 UNL     1      -5.316  48.953 -21.727  1.00  0.00    -0.035 C 
HETATM   11  C19 UNL     1      -4.943  47.486 -21.414  1.00  0.00     0.016 C 
HETATM   12  C20 UNL     1      -6.287  49.419 -20.585  1.00  0.00     0.017 C 
HETATM   13  C21 UNL     1      -7.776  49.237 -20.860  1.00  0.00     0.080 C 
HETATM   14  C22 UNL     1      -8.047  48.132 -21.847  1.00  0.00     0.135 C 
HETATM   15  O3  UNL     1      -8.826  47.219 -21.569  1.00  0.00    -0.297 OA
HETATM   16  C23 UNL     1      -7.387  48.260 -23.226  1.00  0.00     0.017 C 
HETATM   17  C24 UNL     1      -7.182  46.854 -23.821  1.00  0.00     0.023 C 
HETATM   18  C25 UNL     1      -8.398  49.002 -24.127  1.00  0.00     0.023 C 
HETATM   19  C26 UNL     1      -6.068  49.109 -23.099  1.00  0.00     0.009 C 
HETATM   20  C27 UNL     1      -5.133  48.960 -24.314  1.00  0.00     0.007 C 
HETATM   21  C28 UNL     1      -3.970  49.956 -24.269  1.00  0.00     0.011 C 
HETATM   22  C29 UNL     1      -3.097  49.849 -22.991  1.00  0.00    -0.032 C 
HETATM   23  C30 UNL     1      -2.336  48.495 -23.075  1.00  0.00     0.016 C 
ENDROOT
BRANCH   1  24
HETATM   24  C2  UNL     1       0.235  52.955 -20.718  1.00  0.00    -0.084 C 
HETATM   25  C1  UNL     1       0.921  54.023 -21.168  1.00  0.00     0.014 C 
BRANCH  24  26
HETATM   26  C3  UNL     1      -0.309  52.856 -19.299  1.00  0.00     0.037 C 
BRANCH  26  27
HETATM   27  C4  UNL     1       0.647  52.508 -18.139  1.00  0.00     0.032 C 
BRANCH  27  28
HETATM   28  C5  UNL     1       0.331  51.176 -17.504  1.00  0.00    -0.019 C 
HETATM   29  C6  UNL     1       0.736  50.714 -16.302  1.00  0.00    -0.037 C 
BRANCH  29  30
HETATM   30  C7  UNL     1       0.355  49.328 -15.849  1.00  0.00     0.200 C 
BRANCH  30  31
HETATM   31  O1  UNL     1      -0.212  48.635 -16.956  1.00  0.00    -0.397 OA
HETATM   32  H10 UNL     1      -0.579  47.806 -16.601  1.00  0.00     0.209 HD
ENDBRANCH  30  31
ENDBRANCH  29  30
BRANCH  29  33
HETATM   33  C8  UNL     1       1.567  51.486 -15.310  1.00  0.00     0.200 C 
BRANCH  33  34
HETATM   34  O2  UNL     1       0.845  52.623 -14.864  1.00  0.00    -0.397 OA
HETATM   35  H13 UNL     1       0.377  52.965 -15.654  1.00  0.00     0.209 HD
ENDBRANCH  33  34
ENDBRANCH  29  33
ENDBRANCH  27  28
ENDBRANCH  26  27
ENDBRANCH  24  26
ENDBRANCH   1  24
TORSDOF 8
ENDMDL
MODEL 7
REMARK minimizedAffinity -8.76660728
REMARK  8 active torsions:
REMARK  status: ('A' for Active; 'I' for Inactive)
REMARK    1  A    between atoms: C2_2  and  C3_3 
REMARK    2  A    between atoms: C2_2  and  C9_11 
REMARK    3  A    between atoms: C3_3  and  C4_4 
REMARK    4  A    between atoms: C4_4  and  C5_5 
REMARK    5  A    between atoms: C6_6  and  C7_7 
REMARK    6  A    between atoms: C6_6  and  C8_9 
REMARK    7  A    between atoms: C7_7  and  O1_8 
REMARK    8  A    between atoms: C8_9  and  O2_10 
ROOT
HETATM    1  C9  UNL     1      -3.093  48.761 -18.433  1.00  0.00     0.018 C 
HETATM    2  C10 UNL     1      -3.267  47.346 -19.039  1.00  0.00     0.010 C 
HETATM    3  C11 UNL     1      -3.395  47.565 -20.561  1.00  0.00     0.011 C 
HETATM    4  C12 UNL     1      -2.462  48.764 -20.856  1.00  0.00    -0.032 C 
HETATM    5  C13 UNL     1      -1.002  48.219 -20.768  1.00  0.00     0.016 C 
HETATM    6  C14 UNL     1      -2.834  49.678 -19.655  1.00  0.00     0.002 C 
HETATM    7  C15 UNL     1      -1.954  50.911 -19.559  1.00  0.00     0.006 C 
HETATM    8  C16 UNL     1      -2.065  51.731 -20.859  1.00  0.00     0.006 C 
HETATM    9  C17 UNL     1      -1.795  50.896 -22.144  1.00  0.00     0.003 C 
HETATM   10  C18 UNL     1      -1.670  51.754 -23.476  1.00  0.00    -0.035 C 
HETATM   11  C19 UNL     1      -2.934  52.596 -23.759  1.00  0.00     0.016 C 
HETATM   12  C20 UNL     1      -0.489  52.772 -23.291  1.00  0.00     0.017 C 
HETATM   13  C21 UNL     1       0.308  53.104 -24.548  1.00  0.00     0.080 C 
HETATM   14  C22 UNL     1      -0.496  52.911 -25.807  1.00  0.00     0.135 C 
HETATM   15  O3  UNL     1      -0.604  53.822 -26.629  1.00  0.00    -0.297 OA
HETATM   16  C23 UNL     1      -1.078  51.512 -26.047  1.00  0.00     0.017 C 
HETATM   17  C24 UNL     1      -2.348  51.634 -26.911  1.00  0.00     0.023 C 
HETATM   18  C25 UNL     1      -0.029  50.738 -26.873  1.00  0.00     0.023 C 
HETATM   19  C26 UNL     1      -1.301  50.794 -24.665  1.00  0.00     0.009 C 
HETATM   20  C27 UNL     1      -2.239  49.574 -24.762  1.00  0.00     0.007 C 
HETATM   21  C28 UNL     1      -2.266  48.766 -23.460  1.00  0.00     0.011 C 
HETATM   22  C29 UNL     1      -2.694  49.589 -22.217  1.00  0.00    -0.032 C 
HETATM   23  C30 UNL     1      -4.202  49.929 -22.396  1.00  0.00     0.016 C 
ENDROOT
BRANCH   1  24
HETATM   24  C2  UNL     1      -2.211  48.910 -17.194  1.00  0.00    -0.084 C 
HETATM   25  C1  UNL     1      -2.809  49.154 -16.011  1.00  0.00     0.014 C 
BRANCH  24  26
HETATM   26  C3  UNL     1      -0.701  48.797 -17.354  1.00  0.00     0.037 C 
BRANCH  26  27
HETATM   27  C4  UNL     1       0.176  50.058 -17.208  1.00  0.00     0.032 C 
BRANCH  27  28
HETATM   28  C5  UNL     1       0.760  50.204 -15.824  1.00  0.00    -0.019 C 
HETATM   29  C6  UNL     1       1.689  51.089 -15.406  1.00  0.00    -0.037 C 
BRANCH  29  30
HETATM   30  C7  UNL     1       2.189  51.057 -13.984  1.00  0.00     0.200 C 
BRANCH  30  31
HETATM   31  O1  UNL     1       2.792  52.313 -13.693  1.00  0.00    -0.397 OA
HETATM   32  H10 UNL     1       3.230  52.213 -12.830  1.00  0.00     0.209 HD
ENDBRANCH  30  31
ENDBRANCH  29  30
BRANCH  29  33
HETATM   33  C8  UNL     1       2.303  52.171 -16.257  1.00  0.00     0.200 C 
BRANCH  33  34
HETATM   34  O2  UNL     1       1.547  53.366 -16.130  1.00  0.00    -0.397 OA
HETATM   35  H13 UNL     1       0.609  53.082 -16.099  1.00  0.00     0.209 HD
ENDBRANCH  33  34
ENDBRANCH  29  33
ENDBRANCH  27  28
ENDBRANCH  26  27
ENDBRANCH  24  26
ENDBRANCH   1  24
TORSDOF 8
ENDMDL
MODEL 8
REMARK minimizedAffinity -8.69385433
REMARK  8 active torsions:
REMARK  status: ('A' for Active; 'I' for Inactive)
REMARK    1  A    between atoms: C2_2  and  C3_3 
REMARK    2  A    between atoms: C2_2  and  C9_11 
REMARK    3  A    between atoms: C3_3  and  C4_4 
REMARK    4  A    between atoms: C4_4  and  C5_5 
REMARK    5  A    between atoms: C6_6  and  C7_7 
REMARK    6  A    between atoms: C6_6  and  C8_9 
REMARK    7  A    between atoms: C7_7  and  O1_8 
REMARK    8  A    between atoms: C8_9  and  O2_10 
ROOT
HETATM    1  C9  UNL     1      -0.157  51.960 -23.960  1.00  0.00     0.018 C 
HETATM    2  C10 UNL     1      -1.019  52.535 -25.112  1.00  0.00     0.010 C 
HETATM    3  C11 UNL     1      -2.244  51.602 -25.212  1.00  0.00     0.011 C 
HETATM    4  C12 UNL     1      -2.527  51.183 -23.750  1.00  0.00    -0.032 C 
HETATM    5  C13 UNL     1      -3.170  52.422 -23.052  1.00  0.00     0.016 C 
HETATM    6  C14 UNL     1      -1.073  50.915 -23.275  1.00  0.00     0.002 C 
HETATM    7  C15 UNL     1      -0.983  50.625 -21.786  1.00  0.00     0.006 C 
HETATM    8  C16 UNL     1      -1.851  49.398 -21.443  1.00  0.00     0.006 C 
HETATM    9  C17 UNL     1      -3.318  49.516 -21.948  1.00  0.00     0.003 C 
HETATM   10  C18 UNL     1      -4.295  48.383 -21.410  1.00  0.00    -0.035 C 
HETATM   11  C19 UNL     1      -3.816  46.962 -21.785  1.00  0.00     0.016 C 
HETATM   12  C20 UNL     1      -4.304  48.451 -19.842  1.00  0.00     0.017 C 
HETATM   13  C21 UNL     1      -5.623  48.091 -19.167  1.00  0.00     0.080 C 
HETATM   14  C22 UNL     1      -6.471  47.175 -20.011  1.00  0.00     0.135 C 
HETATM   15  O3  UNL     1      -6.894  46.113 -19.555  1.00  0.00    -0.297 OA
HETATM   16  C23 UNL     1      -6.848  47.680 -21.410  1.00  0.00     0.017 C 
HETATM   17  C24 UNL     1      -7.080  46.472 -22.337  1.00  0.00     0.023 C 
HETATM   18  C25 UNL     1      -8.198  48.414 -21.260  1.00  0.00     0.023 C 
HETATM   19  C26 UNL     1      -5.751  48.686 -21.919  1.00  0.00     0.009 C 
HETATM   20  C27 UNL     1      -5.815  48.933 -23.438  1.00  0.00     0.007 C 
HETATM   21  C28 UNL     1      -4.889  50.074 -23.874  1.00  0.00     0.011 C 
HETATM   22  C29 UNL     1      -3.401  49.856 -23.497  1.00  0.00    -0.032 C 
HETATM   23  C30 UNL     1      -2.877  48.685 -24.378  1.00  0.00     0.016 C 
ENDROOT
BRANCH   1  24
HETATM   24  C2  UNL     1       0.630  52.940 -23.092  1.00  0.00    -0.084 C 
HETATM   25  C1  UNL     1       1.021  54.107 -23.640  1.00  0.00     0.014 C 
BRANCH  24  26
HETATM   26  C3  UNL     1       0.956  52.546 -21.657  1.00  0.00     0.037 C 
BRANCH  26  27
HETATM   27  C4  UNL     1       0.380  53.377 -20.491  1.00  0.00     0.032 C 
BRANCH  27  28
HETATM   28  C5  UNL     1       1.054  53.075 -19.174  1.00  0.00    -0.019 C 
HETATM   29  C6  UNL     1       0.604  52.286 -18.175  1.00  0.00    -0.037 C 
BRANCH  29  30
HETATM   30  C7  UNL     1       1.398  52.138 -16.903  1.00  0.00     0.200 C 
BRANCH  30  31
HETATM   31  O1  UNL     1       1.552  53.426 -16.318  1.00  0.00    -0.397 OA
HETATM   32  H10 UNL     1       2.185  53.321 -15.587  1.00  0.00     0.209 HD
ENDBRANCH  30  31
ENDBRANCH  29  30
BRANCH  29  33
HETATM   33  C8  UNL     1      -0.674  51.489 -18.207  1.00  0.00     0.200 C 
BRANCH  33  34
HETATM   34  O2  UNL     1      -0.375  50.112 -18.376  1.00  0.00    -0.397 OA
HETATM   35  H13 UNL     1       0.371  50.080 -19.011  1.00  0.00     0.209 HD
ENDBRANCH  33  34
ENDBRANCH  29  33
ENDBRANCH  27  28
ENDBRANCH  26  27
ENDBRANCH  24  26
ENDBRANCH   1  24
TORSDOF 8
ENDMDL
MODEL 9
REMARK minimizedAffinity -8.63630295
REMARK  8 active torsions:
REMARK  status: ('A' for Active; 'I' for Inactive)
REMARK    1  A    between atoms: C2_2  and  C3_3 
REMARK    2  A    between atoms: C2_2  and  C9_11 
REMARK    3  A    between atoms: C3_3  and  C4_4 
REMARK    4  A    between atoms: C4_4  and  C5_5 
REMARK    5  A    between atoms: C6_6  and  C7_7 
REMARK    6  A    between atoms: C6_6  and  C8_9 
REMARK    7  A    between atoms: C7_7  and  O1_8 
REMARK    8  A    between atoms: C8_9  and  O2_10 
ROOT
HETATM    1  C9  UNL     1      -1.507  51.029 -21.724  1.00  0.00     0.018 C 
HETATM    2  C10 UNL     1      -0.775  49.750 -21.249  1.00  0.00     0.010 C 
HETATM    3  C11 UNL     1      -1.891  48.728 -20.945  1.00  0.00     0.011 C 
HETATM    4  C12 UNL     1      -2.980  49.025 -22.003  1.00  0.00    -0.032 C 
HETATM    5  C13 UNL     1      -2.444  48.466 -23.357  1.00  0.00     0.016 C 
HETATM    6  C14 UNL     1      -2.972  50.578 -21.949  1.00  0.00     0.002 C 
HETATM    7  C15 UNL     1      -3.850  51.209 -23.016  1.00  0.00     0.006 C 
HETATM    8  C16 UNL     1      -5.301  50.714 -22.852  1.00  0.00     0.006 C 
HETATM    9  C17 UNL     1      -5.427  49.164 -22.807  1.00  0.00     0.003 C 
HETATM   10  C18 UNL     1      -6.919  48.620 -22.876  1.00  0.00    -0.035 C 
HETATM   11  C19 UNL     1      -7.802  49.165 -21.731  1.00  0.00     0.016 C 
HETATM   12  C20 UNL     1      -7.561  49.129 -24.214  1.00  0.00     0.017 C 
HETATM   13  C21 UNL     1      -8.568  48.189 -24.870  1.00  0.00     0.080 C 
HETATM   14  C22 UNL     1      -9.223  47.265 -23.877  1.00  0.00     0.135 C 
HETATM   15  O3  UNL     1     -10.450  47.196 -23.798  1.00  0.00    -0.297 OA
HETATM   16  C23 UNL     1      -8.293  46.363 -23.057  1.00  0.00     0.017 C 
HETATM   17  C24 UNL     1      -8.968  46.028 -21.713  1.00  0.00     0.023 C 
HETATM   18  C25 UNL     1      -8.155  45.044 -23.847  1.00  0.00     0.023 C 
HETATM   19  C26 UNL     1      -6.884  47.049 -22.920  1.00  0.00     0.009 C 
HETATM   20  C27 UNL     1      -6.019  46.438 -21.800  1.00  0.00     0.007 C 
HETATM   21  C28 UNL     1      -4.582  46.968 -21.830  1.00  0.00     0.011 C 
HETATM   22  C29 UNL     1      -4.477  48.511 -21.714  1.00  0.00    -0.032 C 
HETATM   23  C30 UNL     1      -4.911  48.887 -20.267  1.00  0.00     0.016 C 
ENDROOT
BRANCH   1  24
HETATM   24  C2  UNL     1      -0.827  51.896 -22.783  1.00  0.00    -0.084 C 
HETATM   25  C1  UNL     1       0.164  52.721 -22.392  1.00  0.00     0.014 C 
BRANCH  24  26
HETATM   26  C3  UNL     1      -1.312  51.805 -24.224  1.00  0.00     0.037 C 
BRANCH  26  27
HETATM   27  C4  UNL     1      -0.765  50.692 -25.142  1.00  0.00     0.032 C 
BRANCH  27  28
HETATM   28  C5  UNL     1      -0.453  51.187 -26.533  1.00  0.00    -0.019 C 
HETATM   29  C6  UNL     1       0.756  51.485 -27.055  1.00  0.00    -0.037 C 
BRANCH  29  30
HETATM   30  C7  UNL     1       0.871  52.014 -28.462  1.00  0.00     0.200 C 
BRANCH  30  31
HETATM   31  O1  UNL     1      -0.132  53.006 -28.650  1.00  0.00    -0.397 OA
HETATM   32  H10 UNL     1      -0.129  53.222 -29.600  1.00  0.00     0.209 HD
ENDBRANCH  30  31
ENDBRANCH  29  30
BRANCH  29  33
HETATM   33  C8  UNL     1       2.073  51.326 -26.340  1.00  0.00     0.200 C 
BRANCH  33  34
HETATM   34  O2  UNL     1       3.032  52.209 -26.902  1.00  0.00    -0.397 OA
HETATM   35  H13 UNL     1       2.865  52.199 -27.868  1.00  0.00     0.209 HD
ENDBRANCH  33  34
ENDBRANCH  29  33
ENDBRANCH  27  28
ENDBRANCH  26  27
ENDBRANCH  24  26
ENDBRANCH   1  24
TORSDOF 8
ENDMDL
