MODEL 1
REMARK minimizedAffinity -7.97398472
REMARK CNNscore 0.69010514
REMARK CNNaffinity 7.17012787
REMARK  10 active torsions:
REMARK  status: ('A' for Active; 'I' for Inactive)
REMARK    1  A    between atoms: O1_2  and  C2_3 
REMARK    2  A    between atoms: C4_5  and  O2_6 
REMARK    3  A    between atoms: O2_6  and  C5_7 
REMARK    4  A    between atoms: C8_10  and  C9_11 
REMARK    5  A    between atoms: N1_12  and  C10_14 
REMARK    6  A    between atoms: C10_14  and  C11_15 
REMARK    7  A    between atoms: C21_27  and  C22_28 
REMARK    8  A    between atoms: C28_36  and  O5_37 
REMARK    9  A    between atoms: C32_41  and  O6_42 
REMARK   10  A    between atoms: C36_47  and  O8_48 
ROOT
HETATM    1  C5  UNL     1       1.117  56.794  -6.844  1.00  0.00     0.127 C 
HETATM    2  C6  UNL     1      -0.248  57.032  -7.474  1.00  0.00     0.033 C 
HETATM    3  C7  UNL     1      -0.538  56.220  -8.735  1.00  0.00     0.021 C 
HETATM    4  C8  UNL     1       0.299  54.913  -8.923  1.00  0.00     0.026 C 
HETATM    5  C16 UNL     1      -0.553  53.912  -9.818  1.00  0.00     0.009 C 
HETATM    6  C17 UNL     1       0.106  53.404 -11.113  1.00  0.00     0.007 C 
HETATM    7  C18 UNL     1      -0.898  52.624 -11.971  1.00  0.00     0.013 C 
HETATM    8  C19 UNL     1      -1.529  51.408 -11.241  1.00  0.00    -0.005 C 
HETATM    9  C20 UNL     1      -0.487  50.277 -11.144  1.00  0.00     0.019 C 
HETATM   10  C21 UNL     1      -2.831  50.915 -11.949  1.00  0.00     0.028 C 
HETATM   11  C26 UNL     1      -3.897  51.934 -11.491  1.00  0.00     0.013 C 
HETATM   12  C27 UNL     1      -3.442  52.476 -10.129  1.00  0.00     0.040 C 
HETATM   13  C28 UNL     1      -2.079  51.819  -9.840  1.00  0.00     0.070 C 
HETATM   14  C29 UNL     1      -1.090  52.691  -9.025  1.00  0.00     0.026 C 
HETATM   15  C30 UNL     1      -1.658  53.142  -7.675  1.00  0.00     0.011 C 
HETATM   16  C31 UNL     1      -0.610  53.817  -6.780  1.00  0.00     0.039 C 
HETATM   17  C32 UNL     1       0.652  54.320  -7.527  1.00  0.00     0.073 C 
HETATM   18  C33 UNL     1       1.444  55.309  -6.641  1.00  0.00     0.071 C 
ENDROOT
BRANCH   1  19
HETATM   19  O2  UNL     1       1.095  57.445  -5.569  1.00  0.00    -0.356 OA
BRANCH  19  20
HETATM   20  C4  UNL     1       0.164  56.890  -4.638  1.00  0.00     0.263 C 
HETATM   21  C3  UNL     1       0.939  56.680  -3.341  1.00  0.00     0.095 C 
HETATM   22  C2  UNL     1       0.078  56.024  -2.264  1.00  0.00     0.156 C 
HETATM   23  C36 UNL     1      -1.421  56.172  -2.580  1.00  0.00     0.175 C 
HETATM   24  C34 UNL     1      -1.733  57.515  -3.265  1.00  0.00     0.151 C 
HETATM   25  O7  UNL     1      -0.946  57.762  -4.438  1.00  0.00    -0.354 OA
HETATM   26  C35 UNL     1      -1.598  58.730  -2.345  1.00  0.00     0.042 C 
BRANCH  22  27
HETATM   27  O1  UNL     1       0.328  56.603  -0.964  1.00  0.00    -0.388 OA
HETATM   28  C1  UNL     1       1.552  57.327  -0.897  1.00  0.00     0.202 C 
ENDBRANCH  22  27
BRANCH  23  29
HETATM   29  O8  UNL     1      -2.200  55.956  -1.403  1.00  0.00    -0.390 OA
HETATM   30  H50 UNL     1      -1.723  56.424  -0.689  1.00  0.00     0.210 HD
ENDBRANCH  23  29
ENDBRANCH  19  20
ENDBRANCH   1  19
BRANCH  17  31
HETATM   31  O6  UNL     1       1.510  53.173  -7.709  1.00  0.00    -0.389 OA
HETATM   32  H42 UNL     1       1.712  52.810  -6.826  1.00  0.00     0.210 HD
ENDBRANCH  17  31
BRANCH   4  33
HETATM   33  C9  UNL     1       1.640  55.218  -9.615  1.00  0.00     0.069 C 
HETATM   34  N1  UNL     1       2.509  54.300  -9.855  1.00  0.00    -0.397 N 
ATOM     35  H1  UNL     1       2.358  53.324  -9.598  1.00  0.00     0.159 HD
BRANCH  34  36
HETATM   36  C10 UNL     1       3.729  54.756 -10.522  1.00  0.00     0.158 C 
BRANCH  36  37
HETATM   37  C11 UNL     1       4.818  55.047  -9.531  1.00  0.00    -0.025 A 
HETATM   38  C12 UNL     1       6.061  54.413  -9.600  1.00  0.00     0.011 A 
HETATM   39  C13 UNL     1       7.050  54.735  -8.676  1.00  0.00     0.018 A 
HETATM   40  C14 UNL     1       6.766  55.690  -7.713  1.00  0.00     0.087 A 
HETATM   41  N2  UNL     1       5.581  56.330  -7.619  1.00  0.00    -0.375 N 
HETATM   42  C15 UNL     1       4.641  56.002  -8.536  1.00  0.00     0.096 A 
ATOM     43  H2  UNL     1       5.403  57.025  -6.894  1.00  0.00     0.164 HD
ENDBRANCH  36  37
ENDBRANCH  34  36
ENDBRANCH   4  33
BRANCH  13  44
HETATM   44  O5  UNL     1      -2.323  50.637  -9.056  1.00  0.00    -0.389 OA
HETATM   45  H36 UNL     1      -3.166  50.235  -9.326  1.00  0.00     0.210 HD
ENDBRANCH  13  44
BRANCH  10  46
HETATM   46  C22 UNL     1      -2.763  50.672 -13.432  1.00  0.00    -0.045 A 
HETATM   47  C23 UNL     1      -3.091  51.489 -14.436  1.00  0.00     0.087 A 
HETATM   48  C24 UNL     1      -2.896  50.752 -15.684  1.00  0.00     0.283 A 
HETATM   49  O3  UNL     1      -3.070  51.212 -16.794  1.00  0.00    -0.260 OA
HETATM   50  O4  UNL     1      -2.494  49.488 -15.394  1.00  0.00    -0.314 OA
HETATM   51  C25 UNL     1      -2.363  49.347 -13.979  1.00  0.00     0.213 A 
ENDBRANCH  10  46
TORSDOF 10
ENDMDL
MODEL 2
REMARK minimizedAffinity -8.02117634
REMARK CNNscore 0.607912958
REMARK CNNaffinity 7.18787003
REMARK  10 active torsions:
REMARK  status: ('A' for Active; 'I' for Inactive)
REMARK    1  A    between atoms: O1_2  and  C2_3 
REMARK    2  A    between atoms: C4_5  and  O2_6 
REMARK    3  A    between atoms: O2_6  and  C5_7 
REMARK    4  A    between atoms: C8_10  and  C9_11 
REMARK    5  A    between atoms: N1_12  and  C10_14 
REMARK    6  A    between atoms: C10_14  and  C11_15 
REMARK    7  A    between atoms: C21_27  and  C22_28 
REMARK    8  A    between atoms: C28_36  and  O5_37 
REMARK    9  A    between atoms: C32_41  and  O6_42 
REMARK   10  A    between atoms: C36_47  and  O8_48 
ROOT
HETATM    1  C5  UNL     1       0.834  50.226 -14.175  1.00  0.00     0.127 C 
HETATM    2  C6  UNL     1       1.243  49.035 -15.029  1.00  0.00     0.033 C 
HETATM    3  C7  UNL     1       0.124  48.407 -15.858  1.00  0.00     0.021 C 
HETATM    4  C8  UNL     1      -1.107  49.322 -16.161  1.00  0.00     0.026 C 
HETATM    5  C16 UNL     1      -1.776  48.810 -17.510  1.00  0.00     0.009 C 
HETATM    6  C17 UNL     1      -3.265  48.423 -17.444  1.00  0.00     0.007 C 
HETATM    7  C18 UNL     1      -3.717  47.755 -18.748  1.00  0.00     0.013 C 
HETATM    8  C19 UNL     1      -3.501  48.636 -20.008  1.00  0.00    -0.005 C 
HETATM    9  C20 UNL     1      -4.556  49.759 -20.028  1.00  0.00     0.019 C 
HETATM   10  C21 UNL     1      -3.549  47.796 -21.323  1.00  0.00     0.028 C 
HETATM   11  C26 UNL     1      -2.158  47.125 -21.371  1.00  0.00     0.013 C 
HETATM   12  C27 UNL     1      -1.194  48.039 -20.603  1.00  0.00     0.040 C 
HETATM   13  C28 UNL     1      -2.047  49.199 -20.056  1.00  0.00     0.070 C 
HETATM   14  C29 UNL     1      -1.570  49.782 -18.701  1.00  0.00     0.026 C 
HETATM   15  C30 UNL     1      -0.121  50.278 -18.737  1.00  0.00     0.011 C 
HETATM   16  C31 UNL     1       0.281  51.048 -17.471  1.00  0.00     0.039 C 
HETATM   17  C32 UNL     1      -0.640  50.805 -16.248  1.00  0.00     0.073 C 
HETATM   18  C33 UNL     1       0.048  51.291 -14.951  1.00  0.00     0.071 C 
ENDROOT
BRANCH   1  19
HETATM   19  O2  UNL     1       2.046  50.807 -13.682  1.00  0.00    -0.356 OA
BRANCH  19  20
HETATM   20  C4  UNL     1       1.983  51.235 -12.319  1.00  0.00     0.263 C 
HETATM   21  C3  UNL     1       2.854  52.485 -12.229  1.00  0.00     0.095 C 
HETATM   22  C2  UNL     1       2.934  53.021 -10.802  1.00  0.00     0.156 C 
HETATM   23  C36 UNL     1       1.783  52.477  -9.936  1.00  0.00     0.175 C 
HETATM   24  C34 UNL     1       0.485  52.311 -10.746  1.00  0.00     0.151 C 
HETATM   25  O7  UNL     1       0.640  51.516 -11.930  1.00  0.00    -0.354 OA
HETATM   26  C35 UNL     1      -0.172  53.632 -11.151  1.00  0.00     0.042 C 
BRANCH  22  27
HETATM   27  O1  UNL     1       2.879  54.464 -10.776  1.00  0.00    -0.388 OA
HETATM   28  C1  UNL     1       4.139  55.070 -10.507  1.00  0.00     0.202 C 
ENDBRANCH  22  27
BRANCH  23  29
HETATM   29  O8  UNL     1       1.611  53.289  -8.773  1.00  0.00    -0.390 OA
HETATM   30  H50 UNL     1       1.695  54.210  -9.088  1.00  0.00     0.210 HD
ENDBRANCH  23  29
ENDBRANCH  19  20
ENDBRANCH   1  19
BRANCH  17  31
HETATM   31  O6  UNL     1      -1.797  51.651 -16.426  1.00  0.00    -0.389 OA
HETATM   32  H42 UNL     1      -1.484  52.573 -16.487  1.00  0.00     0.210 HD
ENDBRANCH  17  31
BRANCH   4  33
HETATM   33  C9  UNL     1      -2.131  49.257 -15.014  1.00  0.00     0.069 C 
HETATM   34  N1  UNL     1      -2.146  50.123 -14.061  1.00  0.00    -0.397 N 
ATOM     35  H1  UNL     1      -1.481  50.894 -14.014  1.00  0.00     0.159 HD
BRANCH  34  36
HETATM   36  C10 UNL     1      -3.185  49.920 -13.051  1.00  0.00     0.158 C 
BRANCH  36  37
HETATM   37  C11 UNL     1      -3.429  51.171 -12.259  1.00  0.00    -0.025 A 
HETATM   38  C12 UNL     1      -3.434  51.166 -10.862  1.00  0.00     0.011 A 
HETATM   39  C13 UNL     1      -3.637  52.355 -10.169  1.00  0.00     0.018 A 
HETATM   40  C14 UNL     1      -3.821  53.519 -10.899  1.00  0.00     0.087 A 
HETATM   41  N2  UNL     1      -3.814  53.567 -12.248  1.00  0.00    -0.375 N 
HETATM   42  C15 UNL     1      -3.607  52.396 -12.894  1.00  0.00     0.096 A 
ATOM     43  H2  UNL     1      -3.958  54.440 -12.755  1.00  0.00     0.164 HD
ENDBRANCH  36  37
ENDBRANCH  34  36
ENDBRANCH   4  33
BRANCH  13  44
HETATM   44  O5  UNL     1      -1.982  50.276 -21.009  1.00  0.00    -0.389 OA
HETATM   45  H36 UNL     1      -1.925  49.912 -21.908  1.00  0.00     0.210 HD
ENDBRANCH  13  44
BRANCH  10  46
HETATM   46  C22 UNL     1      -4.720  46.871 -21.512  1.00  0.00    -0.045 A 
HETATM   47  C23 UNL     1      -4.878  45.613 -21.093  1.00  0.00     0.087 A 
HETATM   48  C24 UNL     1      -6.170  45.143 -21.588  1.00  0.00     0.283 A 
HETATM   49  O3  UNL     1      -6.643  44.048 -21.360  1.00  0.00    -0.260 OA
HETATM   50  O4  UNL     1      -6.742  46.123 -22.334  1.00  0.00    -0.314 OA
HETATM   51  C25 UNL     1      -5.897  47.274 -22.328  1.00  0.00     0.213 A 
ENDBRANCH  10  46
TORSDOF 10
ENDMDL
MODEL 3
REMARK minimizedAffinity -10.6534605
REMARK CNNscore 0.336578637
REMARK CNNaffinity 7.94468832
REMARK  10 active torsions:
REMARK  status: ('A' for Active; 'I' for Inactive)
REMARK    1  A    between atoms: O1_2  and  C2_3 
REMARK    2  A    between atoms: C4_5  and  O2_6 
REMARK    3  A    between atoms: O2_6  and  C5_7 
REMARK    4  A    between atoms: C8_10  and  C9_11 
REMARK    5  A    between atoms: N1_12  and  C10_14 
REMARK    6  A    between atoms: C10_14  and  C11_15 
REMARK    7  A    between atoms: C21_27  and  C22_28 
REMARK    8  A    between atoms: C28_36  and  O5_37 
REMARK    9  A    between atoms: C32_41  and  O6_42 
REMARK   10  A    between atoms: C36_47  and  O8_48 
ROOT
HETATM    1  C5  UNL     1      -2.364  50.450 -21.739  1.00  0.00     0.127 C 
HETATM    2  C6  UNL     1      -1.483  49.263 -21.378  1.00  0.00     0.033 C 
HETATM    3  C7  UNL     1      -0.564  49.472 -20.175  1.00  0.00     0.021 C 
HETATM    4  C8  UNL     1      -0.990  50.588 -19.166  1.00  0.00     0.026 C 
HETATM    5  C16 UNL     1      -0.387  50.216 -17.742  1.00  0.00     0.009 C 
HETATM    6  C17 UNL     1       0.521  51.265 -17.075  1.00  0.00     0.007 C 
HETATM    7  C18 UNL     1       1.192  50.693 -15.821  1.00  0.00     0.013 C 
HETATM    8  C19 UNL     1       0.187  50.176 -14.757  1.00  0.00    -0.005 C 
HETATM    9  C20 UNL     1      -0.471  51.379 -14.053  1.00  0.00     0.019 C 
HETATM   10  C21 UNL     1       0.870  49.224 -13.724  1.00  0.00     0.028 C 
HETATM   11  C26 UNL     1       0.981  47.886 -14.487  1.00  0.00     0.013 C 
HETATM   12  C27 UNL     1      -0.152  47.867 -15.523  1.00  0.00     0.040 C 
HETATM   13  C28 UNL     1      -0.869  49.225 -15.399  1.00  0.00     0.070 C 
HETATM   14  C29 UNL     1      -1.466  49.774 -16.720  1.00  0.00     0.026 C 
HETATM   15  C30 UNL     1      -2.459  48.809 -17.378  1.00  0.00     0.011 C 
HETATM   16  C31 UNL     1      -3.209  49.436 -18.561  1.00  0.00     0.039 C 
HETATM   17  C32 UNL     1      -2.542  50.706 -19.150  1.00  0.00     0.073 C 
HETATM   18  C33 UNL     1      -3.132  51.026 -20.543  1.00  0.00     0.071 C 
ENDROOT
BRANCH   1  19
HETATM   19  O2  UNL     1      -3.302  49.977 -22.712  1.00  0.00    -0.356 OA
BRANCH  19  20
HETATM   20  C4  UNL     1      -3.170  50.581 -24.001  1.00  0.00     0.263 C 
HETATM   21  C3  UNL     1      -1.701  50.433 -24.388  1.00  0.00     0.095 C 
HETATM   22  C2  UNL     1      -1.396  51.096 -25.728  1.00  0.00     0.156 C 
HETATM   23  C36 UNL     1      -2.680  51.320 -26.546  1.00  0.00     0.175 C 
HETATM   24  C34 UNL     1      -3.700  50.186 -26.333  1.00  0.00     0.151 C 
HETATM   25  O7  UNL     1      -4.018  49.947 -24.955  1.00  0.00    -0.354 OA
HETATM   26  C35 UNL     1      -3.289  48.851 -26.959  1.00  0.00     0.042 C 
BRANCH  22  27
HETATM   27  O1  UNL     1      -0.487  50.298 -26.518  1.00  0.00    -0.388 OA
HETATM   28  C1  UNL     1       0.751  50.951 -26.781  1.00  0.00     0.202 C 
ENDBRANCH  22  27
BRANCH  23  29
HETATM   29  O8  UNL     1      -2.362  51.528 -27.923  1.00  0.00    -0.390 OA
HETATM   30  H50 UNL     1      -1.667  50.871 -28.128  1.00  0.00     0.210 HD
ENDBRANCH  23  29
ENDBRANCH  19  20
ENDBRANCH   1  19
BRANCH  17  31
HETATM   31  O6  UNL     1      -2.919  51.806 -18.295  1.00  0.00    -0.389 OA
HETATM   32  H42 UNL     1      -3.894  51.858 -18.290  1.00  0.00     0.210 HD
ENDBRANCH  17  31
BRANCH   4  33
HETATM   33  C9  UNL     1      -0.456  51.961 -19.615  1.00  0.00     0.069 C 
HETATM   34  N1  UNL     1       0.803  52.202 -19.722  1.00  0.00    -0.397 N 
ATOM     35  H1  UNL     1       1.514  51.500 -19.515  1.00  0.00     0.159 HD
BRANCH  34  36
HETATM   36  C10 UNL     1       1.143  53.555 -20.163  1.00  0.00     0.158 C 
BRANCH  36  37
HETATM   37  C11 UNL     1       1.102  53.669 -21.660  1.00  0.00    -0.025 A 
HETATM   38  C12 UNL     1       0.609  52.637 -22.461  1.00  0.00     0.011 A 
HETATM   39  C13 UNL     1       0.565  52.798 -23.842  1.00  0.00     0.018 A 
HETATM   40  C14 UNL     1       1.010  53.995 -24.379  1.00  0.00     0.087 A 
HETATM   41  N2  UNL     1       1.485  55.019 -23.639  1.00  0.00    -0.375 N 
HETATM   42  C15 UNL     1       1.509  54.836 -22.298  1.00  0.00     0.096 A 
ATOM     43  H2  UNL     1       1.810  55.885 -24.068  1.00  0.00     0.164 HD
ENDBRANCH  36  37
ENDBRANCH  34  36
ENDBRANCH   4  33
BRANCH  13  44
HETATM   44  O5  UNL     1      -1.973  49.054 -14.492  1.00  0.00    -0.389 OA
HETATM   45  H36 UNL     1      -1.734  48.408 -13.805  1.00  0.00     0.210 HD
ENDBRANCH  13  44
BRANCH  10  46
HETATM   46  C22 UNL     1       2.139  49.704 -13.072  1.00  0.00    -0.045 A 
HETATM   47  C23 UNL     1       3.384  49.246 -13.213  1.00  0.00     0.087 A 
HETATM   48  C24 UNL     1       4.242  50.019 -12.317  1.00  0.00     0.283 A 
HETATM   49  O3  UNL     1       5.444  49.883 -12.220  1.00  0.00    -0.260 OA
HETATM   50  O4  UNL     1       3.476  50.901 -11.624  1.00  0.00    -0.314 OA
HETATM   51  C25 UNL     1       2.120  50.787 -12.052  1.00  0.00     0.213 A 
ENDBRANCH  10  46
TORSDOF 10
ENDMDL
MODEL 4
REMARK minimizedAffinity -7.83352566
REMARK CNNscore 0.276382089
REMARK CNNaffinity 6.11208916
REMARK  10 active torsions:
REMARK  status: ('A' for Active; 'I' for Inactive)
REMARK    1  A    between atoms: O1_2  and  C2_3 
REMARK    2  A    between atoms: C4_5  and  O2_6 
REMARK    3  A    between atoms: O2_6  and  C5_7 
REMARK    4  A    between atoms: C8_10  and  C9_11 
REMARK    5  A    between atoms: N1_12  and  C10_14 
REMARK    6  A    between atoms: C10_14  and  C11_15 
REMARK    7  A    between atoms: C21_27  and  C22_28 
REMARK    8  A    between atoms: C28_36  and  O5_37 
REMARK    9  A    between atoms: C32_41  and  O6_42 
REMARK   10  A    between atoms: C36_47  and  O8_48 
ROOT
HETATM    1  C5  UNL     1     -10.395  45.560 -27.475  1.00  0.00     0.127 C 
HETATM    2  C6  UNL     1      -9.554  44.644 -26.598  1.00  0.00     0.033 C 
HETATM    3  C7  UNL     1      -8.282  45.269 -26.027  1.00  0.00     0.021 C 
HETATM    4  C8  UNL     1      -8.258  46.830 -25.942  1.00  0.00     0.026 C 
HETATM    5  C16 UNL     1      -7.265  47.239 -24.769  1.00  0.00     0.009 C 
HETATM    6  C17 UNL     1      -6.100  48.176 -25.140  1.00  0.00     0.007 C 
HETATM    7  C18 UNL     1      -5.115  48.315 -23.974  1.00  0.00     0.013 C 
HETATM    8  C19 UNL     1      -5.765  48.845 -22.667  1.00  0.00    -0.005 C 
HETATM    9  C20 UNL     1      -6.050  50.352 -22.818  1.00  0.00     0.019 C 
HETATM   10  C21 UNL     1      -4.874  48.564 -21.416  1.00  0.00     0.028 C 
HETATM   11  C26 UNL     1      -5.136  47.071 -21.118  1.00  0.00     0.013 C 
HETATM   12  C27 UNL     1      -6.539  46.748 -21.650  1.00  0.00     0.040 C 
HETATM   13  C28 UNL     1      -7.053  48.039 -22.315  1.00  0.00     0.070 C 
HETATM   14  C29 UNL     1      -7.992  47.822 -23.529  1.00  0.00     0.026 C 
HETATM   15  C30 UNL     1      -9.226  46.977 -23.192  1.00  0.00     0.011 C 
HETATM   16  C31 UNL     1     -10.258  46.944 -24.327  1.00  0.00     0.039 C 
HETATM   17  C32 UNL     1      -9.705  47.357 -25.715  1.00  0.00     0.073 C 
HETATM   18  C33 UNL     1     -10.681  46.924 -26.833  1.00  0.00     0.071 C 
ENDROOT
BRANCH   1  19
HETATM   19  O2  UNL     1     -11.635  44.880 -27.700  1.00  0.00    -0.356 OA
BRANCH  19  20
HETATM   20  C4  UNL     1     -12.732  45.385 -26.935  1.00  0.00     0.263 C 
HETATM   21  C3  UNL     1     -13.948  45.331 -27.856  1.00  0.00     0.095 C 
HETATM   22  C2  UNL     1     -15.193  45.906 -27.187  1.00  0.00     0.156 C 
HETATM   23  C36 UNL     1     -15.035  45.951 -25.656  1.00  0.00     0.175 C 
HETATM   24  C34 UNL     1     -14.220  44.756 -25.129  1.00  0.00     0.151 C 
HETATM   25  O7  UNL     1     -12.942  44.605 -25.761  1.00  0.00    -0.354 OA
HETATM   26  C35 UNL     1     -14.951  43.414 -25.219  1.00  0.00     0.042 C 
BRANCH  22  27
HETATM   27  O1  UNL     1     -16.368  45.126 -27.499  1.00  0.00    -0.388 OA
HETATM   28  C1  UNL     1     -16.200  44.288 -28.638  1.00  0.00     0.202 C 
ENDBRANCH  22  27
BRANCH  23  29
HETATM   29  O8  UNL     1     -16.312  46.071 -25.028  1.00  0.00    -0.390 OA
HETATM   30  H50 UNL     1     -16.898  45.462 -25.519  1.00  0.00     0.210 HD
ENDBRANCH  23  29
ENDBRANCH  19  20
ENDBRANCH   1  19
BRANCH  17  31
HETATM   31  O6  UNL     1      -9.687  48.801 -25.740  1.00  0.00    -0.389 OA
HETATM   32  H42 UNL     1     -10.599  49.112 -25.588  1.00  0.00     0.210 HD
ENDBRANCH  17  31
BRANCH   4  33
HETATM   33  C9  UNL     1      -7.777  47.442 -27.270  1.00  0.00     0.069 C 
HETATM   34  N1  UNL     1      -8.598  47.918 -28.139  1.00  0.00    -0.397 N 
ATOM     35  H1  UNL     1      -9.608  47.914 -27.997  1.00  0.00     0.159 HD
BRANCH  34  36
HETATM   36  C10 UNL     1      -7.978  48.466 -29.347  1.00  0.00     0.158 C 
BRANCH  36  37
HETATM   37  C11 UNL     1      -8.315  47.642 -30.556  1.00  0.00    -0.025 A 
HETATM   38  C12 UNL     1      -8.540  48.229 -31.804  1.00  0.00     0.011 A 
HETATM   39  C13 UNL     1      -8.822  47.424 -32.902  1.00  0.00     0.018 A 
HETATM   40  C14 UNL     1      -8.864  46.051 -32.719  1.00  0.00     0.087 A 
HETATM   41  N2  UNL     1      -8.644  45.446 -31.533  1.00  0.00    -0.375 N 
HETATM   42  C15 UNL     1      -8.364  46.254 -30.483  1.00  0.00     0.096 A 
ATOM     43  H2  UNL     1      -8.687  44.432 -31.431  1.00  0.00     0.164 HD
ENDBRANCH  36  37
ENDBRANCH  34  36
ENDBRANCH   4  33
BRANCH  13  44
HETATM   44  O5  UNL     1      -7.816  48.762 -21.332  1.00  0.00    -0.389 OA
HETATM   45  H36 UNL     1      -7.428  48.624 -20.452  1.00  0.00     0.210 HD
ENDBRANCH  13  44
BRANCH  10  46
HETATM   46  C22 UNL     1      -3.425  48.964 -21.493  1.00  0.00    -0.045 A 
HETATM   47  C23 UNL     1      -2.892  50.184 -21.579  1.00  0.00     0.087 A 
HETATM   48  C24 UNL     1      -1.443  50.024 -21.686  1.00  0.00     0.283 A 
HETATM   49  O3  UNL     1      -0.647  50.939 -21.748  1.00  0.00    -0.260 OA
HETATM   50  O4  UNL     1      -1.144  48.699 -21.704  1.00  0.00    -0.314 OA
HETATM   51  C25 UNL     1      -2.346  47.943 -21.566  1.00  0.00     0.213 A 
ENDBRANCH  10  46
TORSDOF 10
ENDMDL
MODEL 5
REMARK minimizedAffinity -8.09583664
REMARK CNNscore 0.267243236
REMARK CNNaffinity 6.35430861
REMARK  10 active torsions:
REMARK  status: ('A' for Active; 'I' for Inactive)
REMARK    1  A    between atoms: O1_2  and  C2_3 
REMARK    2  A    between atoms: C4_5  and  O2_6 
REMARK    3  A    between atoms: O2_6  and  C5_7 
REMARK    4  A    between atoms: C8_10  and  C9_11 
REMARK    5  A    between atoms: N1_12  and  C10_14 
REMARK    6  A    between atoms: C10_14  and  C11_15 
REMARK    7  A    between atoms: C21_27  and  C22_28 
REMARK    8  A    between atoms: C28_36  and  O5_37 
REMARK    9  A    between atoms: C32_41  and  O6_42 
REMARK   10  A    between atoms: C36_47  and  O8_48 
ROOT
HETATM    1  C5  UNL     1      -8.979  47.542 -23.015  1.00  0.00     0.127 C 
HETATM    2  C6  UNL     1      -8.752  48.962 -23.511  1.00  0.00     0.033 C 
HETATM    3  C7  UNL     1      -7.543  49.680 -22.913  1.00  0.00     0.021 C 
HETATM    4  C8  UNL     1      -6.420  48.766 -22.323  1.00  0.00     0.026 C 
HETATM    5  C16 UNL     1      -5.048  49.568 -22.398  1.00  0.00     0.009 C 
HETATM    6  C17 UNL     1      -4.284  49.765 -21.075  1.00  0.00     0.007 C 
HETATM    7  C18 UNL     1      -3.104  50.725 -21.261  1.00  0.00     0.013 C 
HETATM    8  C19 UNL     1      -2.089  50.264 -22.342  1.00  0.00    -0.005 C 
HETATM    9  C20 UNL     1      -1.257  49.090 -21.789  1.00  0.00     0.019 C 
HETATM   10  C21 UNL     1      -1.167  51.434 -22.813  1.00  0.00     0.028 C 
HETATM   11  C26 UNL     1      -2.067  52.231 -23.783  1.00  0.00     0.013 C 
HETATM   12  C27 UNL     1      -3.087  51.241 -24.362  1.00  0.00     0.040 C 
HETATM   13  C28 UNL     1      -2.816  49.891 -23.670  1.00  0.00     0.070 C 
HETATM   14  C29 UNL     1      -4.066  49.001 -23.456  1.00  0.00     0.026 C 
HETATM   15  C30 UNL     1      -4.812  48.688 -24.758  1.00  0.00     0.011 C 
HETATM   16  C31 UNL     1      -5.915  47.636 -24.579  1.00  0.00     0.039 C 
HETATM   17  C32 UNL     1      -6.376  47.426 -23.114  1.00  0.00     0.073 C 
HETATM   18  C33 UNL     1      -7.722  46.666 -23.077  1.00  0.00     0.071 C 
ENDROOT
BRANCH   1  19
HETATM   19  O2  UNL     1      -9.987  46.973 -23.858  1.00  0.00    -0.356 OA
BRANCH  19  20
HETATM   20  C4  UNL     1      -9.978  47.464 -25.201  1.00  0.00     0.263 C 
HETATM   21  C3  UNL     1      -9.602  46.277 -26.082  1.00  0.00     0.095 C 
HETATM   22  C2  UNL     1      -9.489  46.672 -27.552  1.00  0.00     0.156 C 
HETATM   23  C36 UNL     1     -10.219  47.998 -27.831  1.00  0.00     0.175 C 
HETATM   24  C34 UNL     1     -11.487  48.147 -26.971  1.00  0.00     0.151 C 
HETATM   25  O7  UNL     1     -11.252  47.990 -25.564  1.00  0.00    -0.354 OA
HETATM   26  C35 UNL     1     -12.623  47.201 -27.365  1.00  0.00     0.042 C 
BRANCH  22  27
HETATM   27  O1  UNL     1     -10.046  45.656 -28.415  1.00  0.00    -0.388 OA
HETATM   28  C1  UNL     1     -10.198  44.394 -27.773  1.00  0.00     0.202 C 
ENDBRANCH  22  27
BRANCH  23  29
HETATM   29  O8  UNL     1     -10.479  48.137 -29.229  1.00  0.00    -0.390 OA
HETATM   30  H50 UNL     1     -10.777  47.253 -29.524  1.00  0.00     0.210 HD
ENDBRANCH  23  29
ENDBRANCH  19  20
ENDBRANCH   1  19
BRANCH  17  31
HETATM   31  O6  UNL     1      -5.407  46.550 -22.498  1.00  0.00    -0.389 OA
HETATM   32  H42 UNL     1      -5.387  45.721 -23.011  1.00  0.00     0.210 HD
ENDBRANCH  17  31
BRANCH   4  33
HETATM   33  C9  UNL     1      -6.728  48.397 -20.861  1.00  0.00     0.069 C 
HETATM   34  N1  UNL     1      -6.902  49.292 -19.953  1.00  0.00    -0.397 N 
ATOM     35  H1  UNL     1      -6.843  50.291 -20.152  1.00  0.00     0.159 HD
BRANCH  34  36
HETATM   36  C10 UNL     1      -7.190  48.774 -18.615  1.00  0.00     0.158 C 
BRANCH  36  37
HETATM   37  C11 UNL     1      -8.274  47.737 -18.652  1.00  0.00    -0.025 A 
HETATM   38  C12 UNL     1      -8.089  46.504 -19.284  1.00  0.00     0.011 A 
HETATM   39  C13 UNL     1      -9.112  45.562 -19.269  1.00  0.00     0.018 A 
HETATM   40  C14 UNL     1     -10.291  45.881 -18.614  1.00  0.00     0.087 A 
HETATM   41  N2  UNL     1     -10.506  47.056 -17.986  1.00  0.00    -0.375 N 
HETATM   42  C15 UNL     1      -9.489  47.950 -18.010  1.00  0.00     0.096 A 
ATOM     43  H2  UNL     1     -11.388  47.261 -17.517  1.00  0.00     0.164 HD
ENDBRANCH  36  37
ENDBRANCH  34  36
ENDBRANCH   4  33
BRANCH  13  44
HETATM   44  O5  UNL     1      -1.920  49.142 -24.512  1.00  0.00    -0.389 OA
HETATM   45  H36 UNL     1      -1.307  49.750 -24.958  1.00  0.00     0.210 HD
ENDBRANCH  13  44
BRANCH  10  46
HETATM   46  C22 UNL     1      -0.482  52.248 -21.749  1.00  0.00    -0.045 A 
HETATM   47  C23 UNL     1       0.549  53.087 -21.863  1.00  0.00     0.087 A 
HETATM   48  C24 UNL     1       0.869  53.577 -20.524  1.00  0.00     0.283 A 
HETATM   49  O3  UNL     1       1.737  54.386 -20.270  1.00  0.00    -0.260 OA
HETATM   50  O4  UNL     1       0.041  52.982 -19.626  1.00  0.00    -0.314 OA
HETATM   51  C25 UNL     1      -0.870  52.129 -20.318  1.00  0.00     0.213 A 
ENDBRANCH  10  46
TORSDOF 10
ENDMDL
MODEL 6
REMARK minimizedAffinity -7.70732307
REMARK CNNscore 0.264021814
REMARK CNNaffinity 6.52717352
REMARK  10 active torsions:
REMARK  status: ('A' for Active; 'I' for Inactive)
REMARK    1  A    between atoms: O1_2  and  C2_3 
REMARK    2  A    between atoms: C4_5  and  O2_6 
REMARK    3  A    between atoms: O2_6  and  C5_7 
REMARK    4  A    between atoms: C8_10  and  C9_11 
REMARK    5  A    between atoms: N1_12  and  C10_14 
REMARK    6  A    between atoms: C10_14  and  C11_15 
REMARK    7  A    between atoms: C21_27  and  C22_28 
REMARK    8  A    between atoms: C28_36  and  O5_37 
REMARK    9  A    between atoms: C32_41  and  O6_42 
REMARK   10  A    between atoms: C36_47  and  O8_48 
ROOT
HETATM    1  C5  UNL     1      -4.319  50.181 -11.006  1.00  0.00     0.127 C 
HETATM    2  C6  UNL     1      -3.783  50.050  -9.587  1.00  0.00     0.033 C 
HETATM    3  C7  UNL     1      -2.317  50.437  -9.403  1.00  0.00     0.021 C 
HETATM    4  C8  UNL     1      -1.713  51.390 -10.485  1.00  0.00     0.026 C 
HETATM    5  C16 UNL     1      -0.517  52.196  -9.813  1.00  0.00     0.009 C 
HETATM    6  C17 UNL     1       0.862  52.086 -10.488  1.00  0.00     0.007 C 
HETATM    7  C18 UNL     1       1.950  52.734  -9.624  1.00  0.00     0.013 C 
HETATM    8  C19 UNL     1       1.685  54.230  -9.306  1.00  0.00    -0.005 C 
HETATM    9  C20 UNL     1       1.958  55.073 -10.567  1.00  0.00     0.019 C 
HETATM   10  C21 UNL     1       2.541  54.730  -8.099  1.00  0.00     0.028 C 
HETATM   11  C26 UNL     1       1.784  54.180  -6.870  1.00  0.00     0.013 C 
HETATM   12  C27 UNL     1       0.311  54.038  -7.279  1.00  0.00     0.040 C 
HETATM   13  C28 UNL     1       0.238  54.441  -8.764  1.00  0.00     0.070 C 
HETATM   14  C29 UNL     1      -0.841  53.697  -9.592  1.00  0.00     0.026 C 
HETATM   15  C30 UNL     1      -2.254  53.857  -9.021  1.00  0.00     0.011 C 
HETATM   16  C31 UNL     1      -3.343  53.308  -9.952  1.00  0.00     0.039 C 
HETATM   17  C32 UNL     1      -2.831  52.323 -11.034  1.00  0.00     0.073 C 
HETATM   18  C33 UNL     1      -4.014  51.539 -11.650  1.00  0.00     0.071 C 
ENDROOT
BRANCH   1  19
HETATM   19  O2  UNL     1      -5.738  50.013 -10.921  1.00  0.00    -0.356 OA
BRANCH  19  20
HETATM   20  C4  UNL     1      -6.161  49.039  -9.964  1.00  0.00     0.263 C 
HETATM   21  C3  UNL     1      -7.505  49.525  -9.432  1.00  0.00     0.095 C 
HETATM   22  C2  UNL     1      -8.052  48.607  -8.342  1.00  0.00     0.156 C 
HETATM   23  C36 UNL     1      -7.378  47.224  -8.387  1.00  0.00     0.175 C 
HETATM   24  C34 UNL     1      -7.055  46.790  -9.828  1.00  0.00     0.151 C 
HETATM   25  O7  UNL     1      -6.280  47.749 -10.560  1.00  0.00    -0.354 OA
HETATM   26  C35 UNL     1      -8.288  46.444 -10.667  1.00  0.00     0.042 C 
BRANCH  22  27
HETATM   27  O1  UNL     1      -9.479  48.422  -8.474  1.00  0.00    -0.388 OA
HETATM   28  C1  UNL     1     -10.233  49.180  -7.534  1.00  0.00     0.202 C 
ENDBRANCH  22  27
BRANCH  23  29
HETATM   29  O8  UNL     1      -8.167  46.264  -7.683  1.00  0.00    -0.390 OA
HETATM   30  H50 UNL     1      -9.092  46.452  -7.941  1.00  0.00     0.210 HD
ENDBRANCH  23  29
ENDBRANCH  19  20
ENDBRANCH   1  19
BRANCH  17  31
HETATM   31  O6  UNL     1      -2.288  53.127 -12.103  1.00  0.00    -0.389 OA
HETATM   32  H42 UNL     1      -2.999  53.710 -12.428  1.00  0.00     0.210 HD
ENDBRANCH  17  31
BRANCH   4  33
HETATM   33  C9  UNL     1      -1.188  50.587 -11.688  1.00  0.00     0.069 C 
HETATM   34  N1  UNL     1      -1.264  51.034 -12.893  1.00  0.00    -0.397 N 
ATOM     35  H1  UNL     1      -1.677  51.940 -13.115  1.00  0.00     0.159 HD
BRANCH  34  36
HETATM   36  C10 UNL     1      -0.716  50.149 -13.922  1.00  0.00     0.158 C 
BRANCH  36  37
HETATM   37  C11 UNL     1       0.029  50.924 -14.969  1.00  0.00    -0.025 A 
HETATM   38  C12 UNL     1      -0.150  50.675 -16.332  1.00  0.00     0.011 A 
HETATM   39  C13 UNL     1       0.541  51.437 -17.268  1.00  0.00     0.018 A 
HETATM   40  C14 UNL     1       1.387  52.434 -16.810  1.00  0.00     0.087 A 
HETATM   41  N2  UNL     1       1.580  52.711 -15.503  1.00  0.00    -0.375 N 
HETATM   42  C15 UNL     1       0.889  51.958 -14.616  1.00  0.00     0.096 A 
ATOM     43  H2  UNL     1       2.215  53.450 -15.199  1.00  0.00     0.164 HD
ENDBRANCH  36  37
ENDBRANCH  34  36
ENDBRANCH   4  33
BRANCH  13  44
HETATM   44  O5  UNL     1      -0.096  55.839  -8.821  1.00  0.00    -0.389 OA
HETATM   45  H36 UNL     1       0.308  56.302  -8.067  1.00  0.00     0.210 HD
ENDBRANCH  13  44
BRANCH  10  46
HETATM   46  C22 UNL     1       4.018  54.444  -8.131  1.00  0.00    -0.045 A 
HETATM   47  C23 UNL     1       4.872  54.535  -9.152  1.00  0.00     0.087 A 
HETATM   48  C24 UNL     1       6.179  54.088  -8.673  1.00  0.00     0.283 A 
HETATM   49  O3  UNL     1       7.194  54.075  -9.339  1.00  0.00    -0.260 OA
HETATM   50  O4  UNL     1       6.066  53.697  -7.378  1.00  0.00    -0.314 OA
HETATM   51  C25 UNL     1       4.724  53.905  -6.937  1.00  0.00     0.213 A 
ENDBRANCH  10  46
TORSDOF 10
ENDMDL
MODEL 7
REMARK minimizedAffinity -7.81883097
REMARK CNNscore 0.225202888
REMARK CNNaffinity 6.03623438
REMARK  10 active torsions:
REMARK  status: ('A' for Active; 'I' for Inactive)
REMARK    1  A    between atoms: O1_2  and  C2_3 
REMARK    2  A    between atoms: C4_5  and  O2_6 
REMARK    3  A    between atoms: O2_6  and  C5_7 
REMARK    4  A    between atoms: C8_10  and  C9_11 
REMARK    5  A    between atoms: N1_12  and  C10_14 
REMARK    6  A    between atoms: C10_14  and  C11_15 
REMARK    7  A    between atoms: C21_27  and  C22_28 
REMARK    8  A    between atoms: C28_36  and  O5_37 
REMARK    9  A    between atoms: C32_41  and  O6_42 
REMARK   10  A    between atoms: C36_47  and  O8_48 
ROOT
HETATM    1  C5  UNL     1      -8.843  47.121 -18.585  1.00  0.00     0.127 C 
HETATM    2  C6  UNL     1      -8.725  48.636 -18.680  1.00  0.00     0.033 C 
HETATM    3  C7  UNL     1      -7.387  49.156 -19.203  1.00  0.00     0.021 C 
HETATM    4  C8  UNL     1      -6.542  48.155 -20.055  1.00  0.00     0.026 C 
HETATM    5  C16 UNL     1      -5.618  49.004 -21.033  1.00  0.00     0.009 C 
HETATM    6  C17 UNL     1      -4.101  48.756 -20.947  1.00  0.00     0.007 C 
HETATM    7  C18 UNL     1      -3.328  49.781 -21.784  1.00  0.00     0.013 C 
HETATM    8  C19 UNL     1      -3.732  49.793 -23.283  1.00  0.00    -0.005 C 
HETATM    9  C20 UNL     1      -3.148  48.546 -23.976  1.00  0.00     0.019 C 
HETATM   10  C21 UNL     1      -3.273  51.102 -24.001  1.00  0.00     0.028 C 
HETATM   11  C26 UNL     1      -4.323  52.143 -23.555  1.00  0.00     0.013 C 
HETATM   12  C27 UNL     1      -5.614  51.372 -23.245  1.00  0.00     0.040 C 
HETATM   13  C28 UNL     1      -5.281  49.881 -23.446  1.00  0.00     0.070 C 
HETATM   14  C29 UNL     1      -6.051  48.906 -22.519  1.00  0.00     0.026 C 
HETATM   15  C30 UNL     1      -7.573  49.039 -22.638  1.00  0.00     0.011 C 
HETATM   16  C31 UNL     1      -8.332  47.935 -21.890  1.00  0.00     0.039 C 
HETATM   17  C32 UNL     1      -7.496  47.190 -20.817  1.00  0.00     0.073 C 
HETATM   18  C33 UNL     1      -8.424  46.395 -19.869  1.00  0.00     0.071 C 
ENDROOT
BRANCH   1  19
HETATM   19  O2  UNL     1     -10.221  46.838 -18.317  1.00  0.00    -0.356 OA
BRANCH  19  20
HETATM   20  C4  UNL     1     -11.105  47.129 -19.402  1.00  0.00     0.263 C 
HETATM   21  C3  UNL     1     -11.977  45.890 -19.580  1.00  0.00     0.095 C 
HETATM   22  C2  UNL     1     -12.936  46.034 -20.759  1.00  0.00     0.156 C 
HETATM   23  C36 UNL     1     -13.115  47.511 -21.157  1.00  0.00     0.175 C 
HETATM   24  C34 UNL     1     -13.072  48.444 -19.933  1.00  0.00     0.151 C 
HETATM   25  O7  UNL     1     -11.899  48.281 -19.123  1.00  0.00    -0.354 OA
HETATM   26  C35 UNL     1     -14.293  48.330 -19.019  1.00  0.00     0.042 C 
BRANCH  22  27
HETATM   27  O1  UNL     1     -14.237  45.487 -20.451  1.00  0.00    -0.388 OA
HETATM   28  C1  UNL     1     -14.466  44.213 -21.045  1.00  0.00     0.202 C 
ENDBRANCH  22  27
BRANCH  23  29
HETATM   29  O8  UNL     1     -14.299  47.675 -21.938  1.00  0.00    -0.390 OA
HETATM   30  H50 UNL     1     -14.975  47.122 -21.498  1.00  0.00     0.210 HD
ENDBRANCH  23  29
ENDBRANCH  19  20
ENDBRANCH   1  19
BRANCH  17  31
HETATM   31  O6  UNL     1      -6.706  46.206 -21.519  1.00  0.00    -0.389 OA
HETATM   32  H42 UNL     1      -7.320  45.618 -21.997  1.00  0.00     0.210 HD
ENDBRANCH  17  31
BRANCH   4  33
HETATM   33  C9  UNL     1      -5.666  47.271 -19.148  1.00  0.00     0.069 C 
HETATM   34  N1  UNL     1      -4.910  46.343 -19.623  1.00  0.00    -0.397 N 
ATOM     35  H1  UNL     1      -4.853  46.143 -20.621  1.00  0.00     0.159 HD
BRANCH  34  36
HETATM   36  C10 UNL     1      -4.140  45.597 -18.627  1.00  0.00     0.158 C 
BRANCH  36  37
HETATM   37  C11 UNL     1      -4.279  44.116 -18.827  1.00  0.00    -0.025 A 
HETATM   38  C12 UNL     1      -3.404  43.209 -18.224  1.00  0.00     0.011 A 
HETATM   39  C13 UNL     1      -3.588  41.843 -18.415  1.00  0.00     0.018 A 
HETATM   40  C14 UNL     1      -4.650  41.426 -19.201  1.00  0.00     0.087 A 
HETATM   41  N2  UNL     1      -5.521  42.269 -19.794  1.00  0.00    -0.375 N 
HETATM   42  C15 UNL     1      -5.322  43.592 -19.583  1.00  0.00     0.096 A 
ATOM     43  H2  UNL     1      -6.290  41.928 -20.370  1.00  0.00     0.164 HD
ENDBRANCH  36  37
ENDBRANCH  34  36
ENDBRANCH   4  33
BRANCH  13  44
HETATM   44  O5  UNL     1      -5.641  49.532 -24.795  1.00  0.00    -0.389 OA
HETATM   45  H36 UNL     1      -5.485  50.292 -25.381  1.00  0.00     0.210 HD
ENDBRANCH  13  44
BRANCH  10  46
HETATM   46  C22 UNL     1      -1.837  51.518 -23.831  1.00  0.00    -0.045 A 
HETATM   47  C23 UNL     1      -1.272  52.212 -22.840  1.00  0.00     0.087 A 
HETATM   48  C24 UNL     1       0.137  52.399 -23.181  1.00  0.00     0.283 A 
HETATM   49  O3  UNL     1       0.952  52.962 -22.479  1.00  0.00    -0.260 OA
HETATM   50  O4  UNL     1       0.375  51.846 -24.399  1.00  0.00    -0.314 OA
HETATM   51  C25 UNL     1      -0.824  51.242 -24.884  1.00  0.00     0.213 A 
ENDBRANCH  10  46
TORSDOF 10
ENDMDL
MODEL 8
REMARK minimizedAffinity -8.04377556
REMARK CNNscore 0.218952045
REMARK CNNaffinity 5.86533403
REMARK  10 active torsions:
REMARK  status: ('A' for Active; 'I' for Inactive)
REMARK    1  A    between atoms: O1_2  and  C2_3 
REMARK    2  A    between atoms: C4_5  and  O2_6 
REMARK    3  A    between atoms: O2_6  and  C5_7 
REMARK    4  A    between atoms: C8_10  and  C9_11 
REMARK    5  A    between atoms: N1_12  and  C10_14 
REMARK    6  A    between atoms: C10_14  and  C11_15 
REMARK    7  A    between atoms: C21_27  and  C22_28 
REMARK    8  A    between atoms: C28_36  and  O5_37 
REMARK    9  A    between atoms: C32_41  and  O6_42 
REMARK   10  A    between atoms: C36_47  and  O8_48 
ROOT
HETATM    1  C5  UNL     1      -9.560  46.694 -29.156  1.00  0.00     0.127 C 
HETATM    2  C6  UNL     1      -9.994  45.272 -28.830  1.00  0.00     0.033 C 
HETATM    3  C7  UNL     1     -10.699  45.093 -27.486  1.00  0.00     0.021 C 
HETATM    4  C8  UNL     1     -11.357  46.374 -26.877  1.00  0.00     0.026 C 
HETATM    5  C16 UNL     1     -12.552  45.907 -25.936  1.00  0.00     0.009 C 
HETATM    6  C17 UNL     1     -12.505  46.373 -24.469  1.00  0.00     0.007 C 
HETATM    7  C18 UNL     1     -13.593  45.683 -23.639  1.00  0.00     0.013 C 
HETATM    8  C19 UNL     1     -15.031  45.920 -24.175  1.00  0.00    -0.005 C 
HETATM    9  C20 UNL     1     -15.465  47.361 -23.844  1.00  0.00     0.019 C 
HETATM   10  C21 UNL     1     -16.046  44.881 -23.601  1.00  0.00     0.028 C 
HETATM   11  C26 UNL     1     -15.779  43.615 -24.445  1.00  0.00     0.013 C 
HETATM   12  C27 UNL     1     -15.229  44.086 -25.798  1.00  0.00     0.040 C 
HETATM   13  C28 UNL     1     -15.116  45.620 -25.704  1.00  0.00     0.070 C 
HETATM   14  C29 UNL     1     -13.952  46.243 -26.516  1.00  0.00     0.026 C 
HETATM   15  C30 UNL     1     -14.005  45.895 -28.008  1.00  0.00     0.011 C 
HETATM   16  C31 UNL     1     -12.987  46.681 -28.844  1.00  0.00     0.039 C 
HETATM   17  C32 UNL     1     -11.829  47.310 -28.027  1.00  0.00     0.073 C 
HETATM   18  C33 UNL     1     -10.675  47.730 -28.967  1.00  0.00     0.071 C 
ENDROOT
BRANCH   1  19
HETATM   19  O2  UNL     1      -9.154  46.689 -30.529  1.00  0.00    -0.356 OA
BRANCH  19  20
HETATM   20  C4  UNL     1      -7.742  46.798 -30.727  1.00  0.00     0.263 C 
HETATM   21  C3  UNL     1      -7.287  45.448 -31.273  1.00  0.00     0.095 C 
HETATM   22  C2  UNL     1      -5.775  45.396 -31.473  1.00  0.00     0.156 C 
HETATM   23  C36 UNL     1      -5.170  46.810 -31.530  1.00  0.00     0.175 C 
HETATM   24  C34 UNL     1      -6.118  47.813 -32.213  1.00  0.00     0.151 C 
HETATM   25  O7  UNL     1      -7.430  47.852 -31.636  1.00  0.00    -0.354 OA
HETATM   26  C35 UNL     1      -6.274  47.597 -33.719  1.00  0.00     0.042 C 
BRANCH  22  27
HETATM   27  O1  UNL     1      -5.428  44.704 -32.693  1.00  0.00    -0.388 OA
HETATM   28  C1  UNL     1      -4.990  43.367 -32.476  1.00  0.00     0.202 C 
ENDBRANCH  22  27
BRANCH  23  29
HETATM   29  O8  UNL     1      -3.875  46.773 -32.132  1.00  0.00    -0.390 OA
HETATM   30  H50 UNL     1      -3.964  46.164 -32.893  1.00  0.00     0.210 HD
ENDBRANCH  23  29
ENDBRANCH  19  20
ENDBRANCH   1  19
BRANCH  17  31
HETATM   31  O6  UNL     1     -12.342  48.533 -27.456  1.00  0.00    -0.389 OA
HETATM   32  H42 UNL     1     -12.640  49.102 -28.190  1.00  0.00     0.210 HD
ENDBRANCH  17  31
BRANCH   4  33
HETATM   33  C9  UNL     1     -10.332  47.177 -26.057  1.00  0.00     0.069 C 
HETATM   34  N1  UNL     1      -9.187  46.689 -25.728  1.00  0.00    -0.397 N 
ATOM     35  H1  UNL     1      -8.899  45.747 -25.991  1.00  0.00     0.159 HD
BRANCH  34  36
HETATM   36  C10 UNL     1      -8.329  47.584 -24.951  1.00  0.00     0.158 C 
BRANCH  36  37
HETATM   37  C11 UNL     1      -7.031  47.847 -25.658  1.00  0.00    -0.025 A 
HETATM   38  C12 UNL     1      -5.875  48.209 -24.961  1.00  0.00     0.011 A 
HETATM   39  C13 UNL     1      -4.688  48.415 -25.656  1.00  0.00     0.018 A 
HETATM   40  C14 UNL     1      -4.692  48.245 -27.031  1.00  0.00     0.087 A 
HETATM   41  N2  UNL     1      -5.785  47.888 -27.739  1.00  0.00    -0.375 N 
HETATM   42  C15 UNL     1      -6.923  47.686 -27.036  1.00  0.00     0.096 A 
ATOM     43  H2  UNL     1      -5.754  47.775 -28.753  1.00  0.00     0.164 HD
ENDBRANCH  36  37
ENDBRANCH  34  36
ENDBRANCH   4  33
BRANCH  13  44
HETATM   44  O5  UNL     1     -16.330  46.180 -26.235  1.00  0.00    -0.389 OA
HETATM   45  H36 UNL     1     -17.077  45.595 -26.027  1.00  0.00     0.210 HD
ENDBRANCH  13  44
BRANCH  10  46
HETATM   46  C22 UNL     1     -16.059  44.675 -22.111  1.00  0.00    -0.045 A 
HETATM   47  C23 UNL     1     -16.447  45.513 -21.147  1.00  0.00     0.087 A 
HETATM   48  C24 UNL     1     -16.204  44.853 -19.866  1.00  0.00     0.283 A 
HETATM   49  O3  UNL     1     -16.476  45.325 -18.781  1.00  0.00    -0.260 OA
HETATM   50  O4  UNL     1     -15.632  43.642 -20.093  1.00  0.00    -0.314 OA
HETATM   51  C25 UNL     1     -15.516  43.432 -21.500  1.00  0.00     0.213 A 
ENDBRANCH  10  46
TORSDOF 10
ENDMDL
MODEL 9
REMARK minimizedAffinity -9.97501183
REMARK CNNscore 0.202715248
REMARK CNNaffinity 7.46996641
REMARK  10 active torsions:
REMARK  status: ('A' for Active; 'I' for Inactive)
REMARK    1  A    between atoms: O1_2  and  C2_3 
REMARK    2  A    between atoms: C4_5  and  O2_6 
REMARK    3  A    between atoms: O2_6  and  C5_7 
REMARK    4  A    between atoms: C8_10  and  C9_11 
REMARK    5  A    between atoms: N1_12  and  C10_14 
REMARK    6  A    between atoms: C10_14  and  C11_15 
REMARK    7  A    between atoms: C21_27  and  C22_28 
REMARK    8  A    between atoms: C28_36  and  O5_37 
REMARK    9  A    between atoms: C32_41  and  O6_42 
REMARK   10  A    between atoms: C36_47  and  O8_48 
ROOT
HETATM    1  C5  UNL     1      -1.142  51.552 -22.459  1.00  0.00     0.127 C 
HETATM    2  C6  UNL     1      -1.237  50.520 -23.574  1.00  0.00     0.033 C 
HETATM    3  C7  UNL     1      -2.264  49.410 -23.354  1.00  0.00     0.021 C 
HETATM    4  C8  UNL     1      -3.422  49.730 -22.353  1.00  0.00     0.026 C 
HETATM    5  C16 UNL     1      -4.675  48.837 -22.755  1.00  0.00     0.009 C 
HETATM    6  C17 UNL     1      -5.249  47.912 -21.666  1.00  0.00     0.007 C 
HETATM    7  C18 UNL     1      -6.307  46.968 -22.249  1.00  0.00     0.013 C 
HETATM    8  C19 UNL     1      -7.492  47.704 -22.931  1.00  0.00    -0.005 C 
HETATM    9  C20 UNL     1      -8.401  48.316 -21.848  1.00  0.00     0.019 C 
HETATM   10  C21 UNL     1      -8.300  46.758 -23.876  1.00  0.00     0.028 C 
HETATM   11  C26 UNL     1      -7.421  46.682 -25.144  1.00  0.00     0.013 C 
HETATM   12  C27 UNL     1      -6.614  47.985 -25.208  1.00  0.00     0.040 C 
HETATM   13  C28 UNL     1      -6.978  48.779 -23.939  1.00  0.00     0.070 C 
HETATM   14  C29 UNL     1      -5.839  49.661 -23.367  1.00  0.00     0.026 C 
HETATM   15  C30 UNL     1      -5.296  50.674 -24.381  1.00  0.00     0.011 C 
HETATM   16  C31 UNL     1      -4.327  51.687 -23.756  1.00  0.00     0.039 C 
HETATM   17  C32 UNL     1      -3.732  51.255 -22.391  1.00  0.00     0.073 C 
HETATM   18  C33 UNL     1      -2.503  52.124 -22.041  1.00  0.00     0.071 C 
ENDROOT
BRANCH   1  19
HETATM   19  O2  UNL     1      -0.322  52.614 -22.958  1.00  0.00    -0.356 OA
BRANCH  19  20
HETATM   20  C4  UNL     1      -0.551  52.941 -24.331  1.00  0.00     0.263 C 
HETATM   21  C3  UNL     1       0.763  52.669 -25.055  1.00  0.00     0.095 C 
HETATM   22  C2  UNL     1       0.686  53.039 -26.534  1.00  0.00     0.156 C 
HETATM   23  C36 UNL     1      -0.775  53.137 -27.009  1.00  0.00     0.175 C 
HETATM   24  C34 UNL     1      -1.677  52.105 -26.308  1.00  0.00     0.151 C 
HETATM   25  O7  UNL     1      -1.611  52.159 -24.877  1.00  0.00    -0.354 OA
HETATM   26  C35 UNL     1      -1.419  50.659 -26.737  1.00  0.00     0.042 C 
BRANCH  22  27
HETATM   27  O1  UNL     1       1.368  52.068 -27.358  1.00  0.00    -0.388 OA
HETATM   28  C1  UNL     1       2.546  51.545 -26.752  1.00  0.00     0.202 C 
ENDBRANCH  22  27
BRANCH  23  29
HETATM   29  O8  UNL     1      -0.840  53.054 -28.434  1.00  0.00    -0.390 OA
HETATM   30  H50 UNL     1      -0.211  52.346 -28.678  1.00  0.00     0.210 HD
ENDBRANCH  23  29
ENDBRANCH  19  20
ENDBRANCH   1  19
BRANCH  17  31
HETATM   31  O6  UNL     1      -4.730  51.555 -21.391  1.00  0.00    -0.389 OA
HETATM   32  H42 UNL     1      -4.918  52.511 -21.437  1.00  0.00     0.210 HD
ENDBRANCH  17  31
BRANCH   4  33
HETATM   33  C9  UNL     1      -2.998  49.410 -20.908  1.00  0.00     0.069 C 
HETATM   34  N1  UNL     1      -1.856  48.883 -20.632  1.00  0.00    -0.397 N 
ATOM     35  H1  UNL     1      -1.175  48.648 -21.353  1.00  0.00     0.159 HD
BRANCH  34  36
HETATM   36  C10 UNL     1      -1.607  48.646 -19.209  1.00  0.00     0.158 C 
BRANCH  36  37
HETATM   37  C11 UNL     1      -0.817  49.767 -18.599  1.00  0.00    -0.025 A 
HETATM   38  C12 UNL     1      -0.362  49.710 -17.279  1.00  0.00     0.011 A 
HETATM   39  C13 UNL     1       0.391  50.760 -16.765  1.00  0.00     0.018 A 
HETATM   40  C14 UNL     1       0.672  51.836 -17.592  1.00  0.00     0.087 A 
HETATM   41  N2  UNL     1       0.258  51.924 -18.874  1.00  0.00    -0.375 N 
HETATM   42  C15 UNL     1      -0.465  50.884 -19.349  1.00  0.00     0.096 A 
ATOM     43  H2  UNL     1       0.479  52.733 -19.454  1.00  0.00     0.164 HD
ENDBRANCH  36  37
ENDBRANCH  34  36
ENDBRANCH   4  33
BRANCH  13  44
HETATM   44  O5  UNL     1      -8.055  49.671 -24.277  1.00  0.00    -0.389 OA
HETATM   45  H36 UNL     1      -8.630  49.252 -24.939  1.00  0.00     0.210 HD
ENDBRANCH  13  44
BRANCH  10  46
HETATM   46  C22 UNL     1      -8.744  45.435 -23.316  1.00  0.00    -0.045 A 
HETATM   47  C23 UNL     1      -9.644  45.182 -22.362  1.00  0.00     0.087 A 
HETATM   48  C24 UNL     1      -9.664  43.737 -22.147  1.00  0.00     0.283 A 
HETATM   49  O3  UNL     1     -10.396  43.161 -21.369  1.00  0.00    -0.260 OA
HETATM   50  O4  UNL     1      -8.738  43.157 -22.954  1.00  0.00    -0.314 OA
HETATM   51  C25 UNL     1      -8.112  44.161 -23.752  1.00  0.00     0.213 A 
ENDBRANCH  10  46
TORSDOF 10
ENDMDL
