MODEL 1
REMARK minimizedAffinity -6.63846016
REMARK CNNscore 0.596567512
REMARK CNNaffinity 6.28434515
REMARK  7 active torsions:
REMARK  status: ('A' for Active; 'I' for Inactive)
REMARK    1  A    between atoms: C2_2  and  C4_4 
REMARK    2  A    between atoms: C4_4  and  O2_6 
REMARK    3  A    between atoms: O2_6  and  C5_7 
REMARK    4  A    between atoms: C5_7  and  C6_8 
REMARK    5  A    between atoms: C6_8  and  C7_10 
REMARK    6  A    between atoms: C8_12  and  C9_13 
REMARK    7  A    between atoms: C29_35  and  O7_36 
ROOT
HETATM    1  C7  UNL     1       4.624  15.976   1.554  1.00  0.00     0.160 C 
HETATM    2  O4  UNL     1       4.346  15.844   0.160  1.00  0.00    -0.339 OA
HETATM    3  C8  UNL     1       5.257  14.859  -0.337  1.00  0.00     0.266 C 
HETATM    4  O5  UNL     1       5.659  14.003   0.729  1.00  0.00    -0.352 OA
HETATM    5  C15 UNL     1       5.223  14.613   1.941  1.00  0.00     0.168 C 
HETATM    6  C16 UNL     1       4.083  13.779   2.559  1.00  0.00     0.041 C 
HETATM    7  C17 UNL     1       2.828  14.601   2.265  1.00  0.00     0.004 C 
HETATM    8  C18 UNL     1       1.548  14.256   3.059  1.00  0.00    -0.001 C 
HETATM    9  C19 UNL     1       0.935  13.002   2.389  1.00  0.00     0.010 C 
HETATM   10  C20 UNL     1      -0.445  12.629   2.894  1.00  0.00     0.036 C 
HETATM   11  C21 UNL     1      -1.356  13.820   2.790  1.00  0.00    -0.064 A 
HETATM   12  C22 UNL     1      -2.483  13.762   2.057  1.00  0.00     0.058 A 
HETATM   13  C23 UNL     1      -3.400  14.916   1.947  1.00  0.00     0.172 A 
HETATM   14  O6  UNL     1      -4.416  14.860   1.266  1.00  0.00    -0.289 OA
HETATM   15  C24 UNL     1      -3.042  16.135   2.695  1.00  0.00     0.052 A 
HETATM   16  C25 UNL     1      -1.916  16.190   3.418  1.00  0.00    -0.009 A 
HETATM   17  C26 UNL     1      -0.907  15.062   3.553  1.00  0.00     0.004 A 
HETATM   18  C27 UNL     1      -0.907  14.730   5.071  1.00  0.00     0.025 C 
HETATM   19  C28 UNL     1       0.556  15.483   3.125  1.00  0.00     0.035 C 
HETATM   20  C29 UNL     1       0.753  16.358   1.854  1.00  0.00     0.124 C 
HETATM   21  C30 UNL     1       2.190  16.948   1.766  1.00  0.00     0.045 C 
HETATM   22  C31 UNL     1       3.299  16.060   2.375  1.00  0.00     0.004 C 
HETATM   23  C32 UNL     1       3.610  16.490   3.833  1.00  0.00     0.019 C 
ENDROOT
BRANCH   1  24
HETATM   24  C6  UNL     1       5.589  17.147   1.798  1.00  0.00     0.188 C 
HETATM   25  O3  UNL     1       5.289  18.311   1.515  1.00  0.00    -0.292 OA
BRANCH  24  26
HETATM   26  C5  UNL     1       6.979  16.787   2.322  1.00  0.00     0.260 C 
BRANCH  26  27
HETATM   27  O2  UNL     1       7.021  16.723   3.749  1.00  0.00    -0.314 OA
BRANCH  27  28
HETATM   28  C4  UNL     1       8.268  16.890   4.270  1.00  0.00     0.262 C 
HETATM   29  O1  UNL     1       9.186  17.466   3.697  1.00  0.00    -0.265 OA
BRANCH  28  30
HETATM   30  C2  UNL     1       8.372  16.340   5.680  1.00  0.00     0.077 C 
HETATM   31  C1  UNL     1       9.072  17.306   6.635  1.00  0.00     0.020 C 
HETATM   32  C3  UNL     1       9.063  14.983   5.652  1.00  0.00     0.020 C 
ENDBRANCH  28  30
ENDBRANCH  27  28
ENDBRANCH  26  27
ENDBRANCH  24  26
ENDBRANCH   1  24
BRANCH   3  33
HETATM   33  C9  UNL     1       4.575  14.040  -1.443  1.00  0.00     0.041 C 
HETATM   34  C10 UNL     1       4.395  14.868  -2.731  1.00  0.00     0.009 C 
HETATM   35  C11 UNL     1       4.283  14.018  -3.999  1.00  0.00     0.001 C 
HETATM   36  C12 UNL     1       3.692  12.645  -3.717  1.00  0.00     0.000 C 
HETATM   37  C13 UNL     1       4.542  11.853  -2.724  1.00  0.00     0.001 C 
HETATM   38  C14 UNL     1       5.317  12.730  -1.735  1.00  0.00     0.009 C 
ENDBRANCH   3  33
BRANCH  20  39
HETATM   39  O7  UNL     1      -0.118  17.484   1.825  1.00  0.00    -0.395 OA
HETATM   40  H39 UNL     1      -0.135  17.821   0.912  1.00  0.00     0.210 HD
ENDBRANCH  20  39
TORSDOF 7
ENDMDL
MODEL 2
REMARK minimizedAffinity -8.88918304
REMARK CNNscore 0.555814981
REMARK CNNaffinity 7.49190331
REMARK  7 active torsions:
REMARK  status: ('A' for Active; 'I' for Inactive)
REMARK    1  A    between atoms: C2_2  and  C4_4 
REMARK    2  A    between atoms: C4_4  and  O2_6 
REMARK    3  A    between atoms: O2_6  and  C5_7 
REMARK    4  A    between atoms: C5_7  and  C6_8 
REMARK    5  A    between atoms: C6_8  and  C7_10 
REMARK    6  A    between atoms: C8_12  and  C9_13 
REMARK    7  A    between atoms: C29_35  and  O7_36 
ROOT
HETATM    1  C7  UNL     1      -1.416   7.098  13.127  1.00  0.00     0.160 C 
HETATM    2  O4  UNL     1      -2.785   7.286  12.764  1.00  0.00    -0.339 OA
HETATM    3  C8  UNL     1      -3.444   6.046  13.036  1.00  0.00     0.266 C 
HETATM    4  O5  UNL     1      -2.722   5.334  14.038  1.00  0.00    -0.352 OA
HETATM    5  C15 UNL     1      -1.467   5.993  14.195  1.00  0.00     0.168 C 
HETATM    6  C16 UNL     1      -1.418   6.691  15.569  1.00  0.00     0.041 C 
HETATM    7  C17 UNL     1      -1.601   8.171  15.234  1.00  0.00     0.004 C 
HETATM    8  C18 UNL     1      -1.233   9.200  16.325  1.00  0.00    -0.001 C 
HETATM    9  C19 UNL     1      -2.420   9.235  17.319  1.00  0.00     0.010 C 
HETATM   10  C20 UNL     1      -2.344  10.341  18.353  1.00  0.00     0.036 C 
HETATM   11  C21 UNL     1      -2.156  11.662  17.662  1.00  0.00    -0.064 A 
HETATM   12  C22 UNL     1      -3.044  12.659  17.828  1.00  0.00     0.058 A 
HETATM   13  C23 UNL     1      -2.875  13.970  17.166  1.00  0.00     0.172 A 
HETATM   14  O6  UNL     1      -3.697  14.867  17.310  1.00  0.00    -0.289 OA
HETATM   15  C24 UNL     1      -1.676  14.154  16.329  1.00  0.00     0.052 A 
HETATM   16  C25 UNL     1      -0.797  13.156  16.162  1.00  0.00    -0.009 A 
HETATM   17  C26 UNL     1      -0.917  11.773  16.778  1.00  0.00     0.004 A 
HETATM   18  C27 UNL     1       0.341  11.646  17.681  1.00  0.00     0.025 C 
HETATM   19  C28 UNL     1      -0.891  10.611  15.705  1.00  0.00     0.035 C 
HETATM   20  C29 UNL     1      -1.686  10.784  14.379  1.00  0.00     0.124 C 
HETATM   21  C30 UNL     1      -1.292   9.718  13.316  1.00  0.00     0.045 C 
HETATM   22  C31 UNL     1      -0.873   8.346  13.891  1.00  0.00     0.004 C 
HETATM   23  C32 UNL     1       0.671   8.251  14.020  1.00  0.00     0.019 C 
ENDROOT
BRANCH   1  24
HETATM   24  C6  UNL     1      -0.586   6.705  11.895  1.00  0.00     0.188 C 
HETATM   25  O3  UNL     1      -0.406   7.484  10.953  1.00  0.00    -0.292 OA
BRANCH  24  26
HETATM   26  C5  UNL     1      -0.073   5.266  11.849  1.00  0.00     0.260 C 
BRANCH  26  27
HETATM   27  O2  UNL     1      -0.784   4.467  10.902  1.00  0.00    -0.314 OA
BRANCH  27  28
HETATM   28  C4  UNL     1      -1.103   3.225  11.362  1.00  0.00     0.262 C 
HETATM   29  O1  UNL     1      -0.284   2.387  11.720  1.00  0.00    -0.265 OA
BRANCH  28  30
HETATM   30  C2  UNL     1      -2.605   3.023  11.450  1.00  0.00     0.077 C 
HETATM   31  C1  UNL     1      -2.988   1.554  11.623  1.00  0.00     0.020 C 
HETATM   32  C3  UNL     1      -3.276   3.636  10.228  1.00  0.00     0.020 C 
ENDBRANCH  28  30
ENDBRANCH  27  28
ENDBRANCH  26  27
ENDBRANCH  24  26
ENDBRANCH   1  24
BRANCH   3  33
HETATM   33  C9  UNL     1      -4.878   6.321  13.514  1.00  0.00     0.041 C 
HETATM   34  C10 UNL     1      -5.804   5.118  13.244  1.00  0.00     0.009 C 
HETATM   35  C11 UNL     1      -7.024   5.062  14.166  1.00  0.00     0.001 C 
HETATM   36  C12 UNL     1      -7.451   6.444  14.636  1.00  0.00     0.000 C 
HETATM   37  C13 UNL     1      -6.339   7.149  15.413  1.00  0.00     0.001 C 
HETATM   38  C14 UNL     1      -4.928   6.727  14.992  1.00  0.00     0.009 C 
ENDBRANCH   3  33
BRANCH  20  39
HETATM   39  O7  UNL     1      -1.446  12.042  13.757  1.00  0.00    -0.395 OA
HETATM   40  H39 UNL     1      -2.155  12.190  13.106  1.00  0.00     0.210 HD
ENDBRANCH  20  39
TORSDOF 7
ENDMDL
MODEL 3
REMARK minimizedAffinity -8.2943325
REMARK CNNscore 0.537919521
REMARK CNNaffinity 7.10733223
REMARK  7 active torsions:
REMARK  status: ('A' for Active; 'I' for Inactive)
REMARK    1  A    between atoms: C2_2  and  C4_4 
REMARK    2  A    between atoms: C4_4  and  O2_6 
REMARK    3  A    between atoms: O2_6  and  C5_7 
REMARK    4  A    between atoms: C5_7  and  C6_8 
REMARK    5  A    between atoms: C6_8  and  C7_10 
REMARK    6  A    between atoms: C8_12  and  C9_13 
REMARK    7  A    between atoms: C29_35  and  O7_36 
ROOT
HETATM    1  C7  UNL     1      -0.701   9.009  14.774  1.00  0.00     0.160 C 
HETATM    2  O4  UNL     1      -0.658   9.278  13.373  1.00  0.00    -0.339 OA
HETATM    3  C8  UNL     1       0.599   8.778  12.908  1.00  0.00     0.266 C 
HETATM    4  O5  UNL     1       1.053   7.749  13.783  1.00  0.00    -0.352 OA
HETATM    5  C15 UNL     1       0.226   7.793  14.943  1.00  0.00     0.168 C 
HETATM    6  C16 UNL     1      -0.674   6.542  14.985  1.00  0.00     0.041 C 
HETATM    7  C17 UNL     1      -2.051   7.068  14.580  1.00  0.00     0.004 C 
HETATM    8  C18 UNL     1      -3.272   6.169  14.872  1.00  0.00    -0.001 C 
HETATM    9  C19 UNL     1      -3.309   5.095  13.758  1.00  0.00     0.010 C 
HETATM   10  C20 UNL     1      -4.560   4.239  13.748  1.00  0.00     0.036 C 
HETATM   11  C21 UNL     1      -5.773   5.125  13.710  1.00  0.00    -0.064 A 
HETATM   12  C22 UNL     1      -6.664   5.030  12.706  1.00  0.00     0.058 A 
HETATM   13  C23 UNL     1      -7.870   5.884  12.652  1.00  0.00     0.172 A 
HETATM   14  O6  UNL     1      -8.668   5.800  11.726  1.00  0.00    -0.289 OA
HETATM   15  C24 UNL     1      -8.073   6.835  13.759  1.00  0.00     0.052 A 
HETATM   16  C25 UNL     1      -7.180   6.931  14.753  1.00  0.00    -0.009 A 
HETATM   17  C26 UNL     1      -5.903   6.116  14.863  1.00  0.00     0.004 A 
HETATM   18  C27 UNL     1      -6.075   5.313  16.182  1.00  0.00     0.025 C 
HETATM   19  C28 UNL     1      -4.604   7.011  14.978  1.00  0.00     0.035 C 
HETATM   20  C29 UNL     1      -4.471   8.276  14.084  1.00  0.00     0.124 C 
HETATM   21  C30 UNL     1      -3.314   9.206  14.551  1.00  0.00     0.045 C 
HETATM   22  C31 UNL     1      -2.109   8.478  15.190  1.00  0.00     0.004 C 
HETATM   23  C32 UNL     1      -2.230   8.466  16.737  1.00  0.00     0.019 C 
ENDROOT
BRANCH   1  24
HETATM   24  C6  UNL     1      -0.232  10.236  15.570  1.00  0.00     0.188 C 
HETATM   25  O3  UNL     1      -0.803  11.329  15.482  1.00  0.00    -0.292 OA
BRANCH  24  26
HETATM   26  C5  UNL     1       1.036  10.064  16.406  1.00  0.00     0.260 C 
BRANCH  26  27
HETATM   27  O2  UNL     1       0.748   9.815  17.783  1.00  0.00    -0.314 OA
BRANCH  27  28
HETATM   28  C4  UNL     1       1.595  10.446  18.643  1.00  0.00     0.262 C 
HETATM   29  O1  UNL     1       2.799  10.576  18.458  1.00  0.00    -0.265 OA
BRANCH  28  30
HETATM   30  C2  UNL     1       0.859  11.036  19.832  1.00  0.00     0.077 C 
HETATM   31  C1  UNL     1      -0.297  11.944  19.412  1.00  0.00     0.020 C 
HETATM   32  C3  UNL     1       1.845  11.767  20.733  1.00  0.00     0.020 C 
ENDBRANCH  28  30
ENDBRANCH  27  28
ENDBRANCH  26  27
ENDBRANCH  24  26
ENDBRANCH   1  24
BRANCH   3  33
HETATM   33  C9  UNL     1       0.437   8.226  11.484  1.00  0.00     0.041 C 
HETATM   34  C10 UNL     1      -0.751   8.884  10.754  1.00  0.00     0.009 C 
HETATM   35  C11 UNL     1      -0.634   8.846   9.228  1.00  0.00     0.001 C 
HETATM   36  C12 UNL     1       0.174   7.651   8.746  1.00  0.00     0.000 C 
HETATM   37  C13 UNL     1       1.598   7.665   9.301  1.00  0.00     0.001 C 
HETATM   38  C14 UNL     1       1.724   8.359  10.661  1.00  0.00     0.009 C 
ENDBRANCH   3  33
BRANCH  20  39
HETATM   39  O7  UNL     1      -5.640   9.089  14.110  1.00  0.00    -0.395 OA
HETATM   40  H39 UNL     1      -5.597   9.693  13.347  1.00  0.00     0.210 HD
ENDBRANCH  20  39
TORSDOF 7
ENDMDL
MODEL 4
REMARK minimizedAffinity -6.83547449
REMARK CNNscore 0.520947158
REMARK CNNaffinity 6.97651625
REMARK  7 active torsions:
REMARK  status: ('A' for Active; 'I' for Inactive)
REMARK    1  A    between atoms: C2_2  and  C4_4 
REMARK    2  A    between atoms: C4_4  and  O2_6 
REMARK    3  A    between atoms: O2_6  and  C5_7 
REMARK    4  A    between atoms: C5_7  and  C6_8 
REMARK    5  A    between atoms: C6_8  and  C7_10 
REMARK    6  A    between atoms: C8_12  and  C9_13 
REMARK    7  A    between atoms: C29_35  and  O7_36 
ROOT
HETATM    1  C7  UNL     1     -12.647   7.734  13.882  1.00  0.00     0.160 C 
HETATM    2  O4  UNL     1     -11.593   6.945  14.433  1.00  0.00    -0.339 OA
HETATM    3  C8  UNL     1     -10.711   6.642  13.349  1.00  0.00     0.266 C 
HETATM    4  O5  UNL     1     -10.845   7.635  12.336  1.00  0.00    -0.352 OA
HETATM    5  C15 UNL     1     -12.002   8.403  12.656  1.00  0.00     0.168 C 
HETATM    6  C16 UNL     1     -11.579   9.822  13.088  1.00  0.00     0.041 C 
HETATM    7  C17 UNL     1     -11.763   9.812  14.605  1.00  0.00     0.004 C 
HETATM    8  C18 UNL     1     -11.789  11.177  15.329  1.00  0.00    -0.001 C 
HETATM    9  C19 UNL     1     -10.316  11.633  15.469  1.00  0.00     0.010 C 
HETATM   10  C20 UNL     1     -10.114  12.856  16.342  1.00  0.00     0.036 C 
HETATM   11  C21 UNL     1     -10.758  12.627  17.680  1.00  0.00    -0.064 A 
HETATM   12  C22 UNL     1     -10.032  12.686  18.811  1.00  0.00     0.058 A 
HETATM   13  C23 UNL     1     -10.644  12.475  20.141  1.00  0.00     0.172 A 
HETATM   14  O6  UNL     1      -9.973  12.516  21.165  1.00  0.00    -0.289 OA
HETATM   15  C24 UNL     1     -12.094  12.217  20.182  1.00  0.00     0.052 A 
HETATM   16  C25 UNL     1     -12.812  12.153  19.053  1.00  0.00    -0.009 A 
HETATM   17  C26 UNL     1     -12.252  12.324  17.651  1.00  0.00     0.004 A 
HETATM   18  C27 UNL     1     -12.993  13.572  17.094  1.00  0.00     0.025 C 
HETATM   19  C28 UNL     1     -12.554  11.091  16.707  1.00  0.00     0.035 C 
HETATM   20  C29 UNL     1     -12.411   9.650  17.273  1.00  0.00     0.124 C 
HETATM   21  C30 UNL     1     -13.053   8.586  16.337  1.00  0.00     0.045 C 
HETATM   22  C31 UNL     1     -12.997   8.924  14.830  1.00  0.00     0.004 C 
HETATM   23  C32 UNL     1     -14.319   9.592  14.365  1.00  0.00     0.019 C 
ENDROOT
BRANCH   1  24
HETATM   24  C6  UNL     1     -13.847   6.845  13.519  1.00  0.00     0.188 C 
HETATM   25  O3  UNL     1     -14.514   7.034  12.496  1.00  0.00    -0.292 OA
BRANCH  24  26
HETATM   26  C5  UNL     1     -14.233   5.771  14.535  1.00  0.00     0.260 C 
BRANCH  26  27
HETATM   27  O2  UNL     1     -15.394   5.040  14.137  1.00  0.00    -0.314 OA
BRANCH  27  28
HETATM   28  C4  UNL     1     -16.046   4.440  15.171  1.00  0.00     0.262 C 
HETATM   29  O1  UNL     1     -16.432   5.024  16.177  1.00  0.00    -0.265 OA
BRANCH  28  30
HETATM   30  C2  UNL     1     -16.306   2.970  14.900  1.00  0.00     0.077 C 
HETATM   31  C1  UNL     1     -15.016   2.158  14.796  1.00  0.00     0.020 C 
HETATM   32  C3  UNL     1     -17.162   2.822  13.650  1.00  0.00     0.020 C 
ENDBRANCH  28  30
ENDBRANCH  27  28
ENDBRANCH  26  27
ENDBRANCH  24  26
ENDBRANCH   1  24
BRANCH   3  33
HETATM   33  C9  UNL     1      -9.263   6.601  13.860  1.00  0.00     0.041 C 
HETATM   34  C10 UNL     1      -9.199   6.769  15.391  1.00  0.00     0.009 C 
HETATM   35  C11 UNL     1      -7.936   6.178  16.022  1.00  0.00     0.001 C 
HETATM   36  C12 UNL     1      -6.757   6.188  15.061  1.00  0.00     0.000 C 
HETATM   37  C13 UNL     1      -7.045   5.376  13.799  1.00  0.00     0.001 C 
HETATM   38  C14 UNL     1      -8.528   5.330  13.418  1.00  0.00     0.009 C 
ENDBRANCH   3  33
BRANCH  20  39
HETATM   39  O7  UNL     1     -13.063   9.487  18.529  1.00  0.00    -0.395 OA
HETATM   40  H39 UNL     1     -12.715   8.676  18.939  1.00  0.00     0.210 HD
ENDBRANCH  20  39
TORSDOF 7
ENDMDL
MODEL 5
REMARK minimizedAffinity -7.92820263
REMARK CNNscore 0.510284781
REMARK CNNaffinity 6.33584452
REMARK  7 active torsions:
REMARK  status: ('A' for Active; 'I' for Inactive)
REMARK    1  A    between atoms: C2_2  and  C4_4 
REMARK    2  A    between atoms: C4_4  and  O2_6 
REMARK    3  A    between atoms: O2_6  and  C5_7 
REMARK    4  A    between atoms: C5_7  and  C6_8 
REMARK    5  A    between atoms: C6_8  and  C7_10 
REMARK    6  A    between atoms: C8_12  and  C9_13 
REMARK    7  A    between atoms: C29_35  and  O7_36 
ROOT
HETATM    1  C7  UNL     1       7.622  13.270  21.892  1.00  0.00     0.160 C 
HETATM    2  O4  UNL     1       6.969  12.037  22.199  1.00  0.00    -0.339 OA
HETATM    3  C8  UNL     1       5.685  12.384  22.723  1.00  0.00     0.266 C 
HETATM    4  O5  UNL     1       5.304  13.669  22.237  1.00  0.00    -0.352 OA
HETATM    5  C15 UNL     1       6.461  14.246  21.635  1.00  0.00     0.168 C 
HETATM    6  C16 UNL     1       6.266  14.321  20.107  1.00  0.00     0.041 C 
HETATM    7  C17 UNL     1       7.147  13.194  19.570  1.00  0.00     0.004 C 
HETATM    8  C18 UNL     1       7.487  13.212  18.063  1.00  0.00    -0.001 C 
HETATM    9  C19 UNL     1       6.247  12.652  17.322  1.00  0.00     0.010 C 
HETATM   10  C20 UNL     1       6.460  12.392  15.844  1.00  0.00     0.036 C 
HETATM   11  C21 UNL     1       7.665  11.513  15.659  1.00  0.00    -0.064 A 
HETATM   12  C22 UNL     1       7.561  10.325  15.037  1.00  0.00     0.058 A 
HETATM   13  C23 UNL     1       8.733   9.447  14.834  1.00  0.00     0.172 A 
HETATM   14  O6  UNL     1       8.626   8.359  14.280  1.00  0.00    -0.289 OA
HETATM   15  C24 UNL     1      10.035   9.937  15.322  1.00  0.00     0.052 A 
HETATM   16  C25 UNL     1      10.133  11.118  15.946  1.00  0.00    -0.009 A 
HETATM   17  C26 UNL     1       8.973  12.059  16.223  1.00  0.00     0.004 A 
HETATM   18  C27 UNL     1       9.338  13.355  15.445  1.00  0.00     0.025 C 
HETATM   19  C28 UNL     1       8.815  12.415  17.756  1.00  0.00     0.035 C 
HETATM   20  C29 UNL     1       8.984  11.291  18.817  1.00  0.00     0.124 C 
HETATM   21  C30 UNL     1       9.126  11.862  20.258  1.00  0.00     0.045 C 
HETATM   22  C31 UNL     1       8.357  13.177  20.518  1.00  0.00     0.004 C 
HETATM   23  C32 UNL     1       9.288  14.405  20.337  1.00  0.00     0.019 C 
ENDROOT
BRANCH   1  24
HETATM   24  C6  UNL     1       8.522  13.702  23.059  1.00  0.00     0.188 C 
HETATM   25  O3  UNL     1       9.259  12.903  23.647  1.00  0.00    -0.292 OA
BRANCH  24  26
HETATM   26  C5  UNL     1       8.392  15.154  23.519  1.00  0.00     0.260 C 
BRANCH  26  27
HETATM   27  O2  UNL     1       8.705  15.313  24.905  1.00  0.00    -0.314 OA
BRANCH  27  28
HETATM   28  C4  UNL     1       9.247  16.525  25.209  1.00  0.00     0.262 C 
HETATM   29  O1  UNL     1      10.170  17.045  24.593  1.00  0.00    -0.265 OA
BRANCH  28  30
HETATM   30  C2  UNL     1       8.523  17.196  26.362  1.00  0.00     0.077 C 
HETATM   31  C1  UNL     1       8.532  16.346  27.632  1.00  0.00     0.020 C 
HETATM   32  C3  UNL     1       7.105  17.554  25.938  1.00  0.00     0.020 C 
ENDBRANCH  28  30
ENDBRANCH  27  28
ENDBRANCH  26  27
ENDBRANCH  24  26
ENDBRANCH   1  24
BRANCH   3  33
HETATM   33  C9  UNL     1       4.652  11.331  22.294  1.00  0.00     0.041 C 
HETATM   34  C10 UNL     1       4.554  10.185  23.321  1.00  0.00     0.009 C 
HETATM   35  C11 UNL     1       3.214   9.445  23.290  1.00  0.00     0.001 C 
HETATM   36  C12 UNL     1       2.570   9.483  21.913  1.00  0.00     0.000 C 
HETATM   37  C13 UNL     1       2.298  10.915  21.451  1.00  0.00     0.001 C 
HETATM   38  C14 UNL     1       3.273  11.946  22.028  1.00  0.00     0.009 C 
ENDBRANCH   3  33
BRANCH  20  39
HETATM   39  O7  UNL     1      10.156  10.510  18.605  1.00  0.00    -0.395 OA
HETATM   40  H39 UNL     1      10.060   9.688  19.118  1.00  0.00     0.210 HD
ENDBRANCH  20  39
TORSDOF 7
ENDMDL
MODEL 6
REMARK minimizedAffinity -8.98252583
REMARK CNNscore 0.475231111
REMARK CNNaffinity 6.39950418
REMARK  7 active torsions:
REMARK  status: ('A' for Active; 'I' for Inactive)
REMARK    1  A    between atoms: C2_2  and  C4_4 
REMARK    2  A    between atoms: C4_4  and  O2_6 
REMARK    3  A    between atoms: O2_6  and  C5_7 
REMARK    4  A    between atoms: C5_7  and  C6_8 
REMARK    5  A    between atoms: C6_8  and  C7_10 
REMARK    6  A    between atoms: C8_12  and  C9_13 
REMARK    7  A    between atoms: C29_35  and  O7_36 
ROOT
HETATM    1  C7  UNL     1       1.487  10.680  17.002  1.00  0.00     0.160 C 
HETATM    2  O4  UNL     1       0.488  10.566  18.016  1.00  0.00    -0.339 OA
HETATM    3  C8  UNL     1       0.114  11.902  18.363  1.00  0.00     0.266 C 
HETATM    4  O5  UNL     1       0.388  12.771  17.267  1.00  0.00    -0.352 OA
HETATM    5  C15 UNL     1       1.184  12.036  16.341  1.00  0.00     0.168 C 
HETATM    6  C16 UNL     1       0.363  11.743  15.069  1.00  0.00     0.041 C 
HETATM    7  C17 UNL     1       0.010  10.261  15.194  1.00  0.00     0.004 C 
HETATM    8  C18 UNL     1      -0.489   9.537  13.925  1.00  0.00    -0.001 C 
HETATM    9  C19 UNL     1      -1.980   9.920  13.753  1.00  0.00     0.010 C 
HETATM   10  C20 UNL     1      -2.711   9.142  12.677  1.00  0.00     0.036 C 
HETATM   11  C21 UNL     1      -2.537   7.669  12.918  1.00  0.00    -0.064 A 
HETATM   12  C22 UNL     1      -3.605   6.871  13.100  1.00  0.00     0.058 A 
HETATM   13  C23 UNL     1      -3.460   5.417  13.329  1.00  0.00     0.172 A 
HETATM   14  O6  UNL     1      -4.437   4.700  13.509  1.00  0.00    -0.289 OA
HETATM   15  C24 UNL     1      -2.093   4.867  13.329  1.00  0.00     0.052 A 
HETATM   16  C25 UNL     1      -1.032   5.667  13.153  1.00  0.00    -0.009 A 
HETATM   17  C26 UNL     1      -1.096   7.171  12.947  1.00  0.00     0.004 A 
HETATM   18  C27 UNL     1      -0.474   7.390  11.540  1.00  0.00     0.025 C 
HETATM   19  C28 UNL     1      -0.246   7.979  14.009  1.00  0.00     0.035 C 
HETATM   20  C29 UNL     1      -0.284   7.544  15.501  1.00  0.00     0.124 C 
HETATM   21  C30 UNL     1       0.841   8.219  16.337  1.00  0.00     0.045 C 
HETATM   22  C31 UNL     1       1.243   9.636  15.868  1.00  0.00     0.004 C 
HETATM   23  C32 UNL     1       2.481   9.577  14.934  1.00  0.00     0.019 C 
ENDROOT
BRANCH   1  24
HETATM   24  C6  UNL     1       2.890  10.616  17.625  1.00  0.00     0.188 C 
HETATM   25  O3  UNL     1       3.837  10.073  17.046  1.00  0.00    -0.292 OA
BRANCH  24  26
HETATM   26  C5  UNL     1       3.035  11.176  19.039  1.00  0.00     0.260 C 
BRANCH  26  27
HETATM   27  O2  UNL     1       3.592  10.221  19.946  1.00  0.00    -0.314 OA
BRANCH  27  28
HETATM   28  C4  UNL     1       2.762   9.894  20.975  1.00  0.00     0.262 C 
HETATM   29  O1  UNL     1       1.542  10.011  20.945  1.00  0.00    -0.265 OA
BRANCH  28  30
HETATM   30  C2  UNL     1       3.520   9.297  22.146  1.00  0.00     0.077 C 
HETATM   31  C1  UNL     1       2.648   8.377  23.000  1.00  0.00     0.020 C 
HETATM   32  C3  UNL     1       4.138  10.413  22.979  1.00  0.00     0.020 C 
ENDBRANCH  28  30
ENDBRANCH  27  28
ENDBRANCH  26  27
ENDBRANCH  24  26
ENDBRANCH   1  24
BRANCH   3  33
HETATM   33  C9  UNL     1      -1.382  11.944  18.709  1.00  0.00     0.041 C 
HETATM   34  C10 UNL     1      -2.106  13.074  17.950  1.00  0.00     0.009 C 
HETATM   35  C11 UNL     1      -3.607  12.833  17.774  1.00  0.00     0.001 C 
HETATM   36  C12 UNL     1      -4.185  11.980  18.893  1.00  0.00     0.000 C 
HETATM   37  C13 UNL     1      -3.520  10.606  18.962  1.00  0.00     0.001 C 
HETATM   38  C14 UNL     1      -2.070  10.595  18.467  1.00  0.00     0.009 C 
ENDBRANCH   3  33
BRANCH  20  39
HETATM   39  O7  UNL     1      -0.087   6.143  15.668  1.00  0.00    -0.395 OA
HETATM   40  H39 UNL     1      -0.384   5.908  16.565  1.00  0.00     0.210 HD
ENDBRANCH  20  39
TORSDOF 7
ENDMDL
MODEL 7
REMARK minimizedAffinity -7.38096857
REMARK CNNscore 0.464501977
REMARK CNNaffinity 6.41354179
REMARK  7 active torsions:
REMARK  status: ('A' for Active; 'I' for Inactive)
REMARK    1  A    between atoms: C2_2  and  C4_4 
REMARK    2  A    between atoms: C4_4  and  O2_6 
REMARK    3  A    between atoms: O2_6  and  C5_7 
REMARK    4  A    between atoms: C5_7  and  C6_8 
REMARK    5  A    between atoms: C6_8  and  C7_10 
REMARK    6  A    between atoms: C8_12  and  C9_13 
REMARK    7  A    between atoms: C29_35  and  O7_36 
ROOT
HETATM    1  C7  UNL     1       1.380  10.560  17.695  1.00  0.00     0.160 C 
HETATM    2  O4  UNL     1       1.467   9.989  19.001  1.00  0.00    -0.339 OA
HETATM    3  C8  UNL     1       2.805  10.220  19.451  1.00  0.00     0.266 C 
HETATM    4  O5  UNL     1       3.345  11.352  18.773  1.00  0.00    -0.352 OA
HETATM    5  C15 UNL     1       2.454  11.662  17.704  1.00  0.00     0.168 C 
HETATM    6  C16 UNL     1       1.732  12.992  18.001  1.00  0.00     0.041 C 
HETATM    7  C17 UNL     1       0.322  12.561  18.404  1.00  0.00     0.004 C 
HETATM    8  C18 UNL     1      -0.779  13.644  18.411  1.00  0.00    -0.001 C 
HETATM    9  C19 UNL     1      -0.604  14.446  19.724  1.00  0.00     0.010 C 
HETATM   10  C20 UNL     1      -1.724  15.425  20.019  1.00  0.00     0.036 C 
HETATM   11  C21 UNL     1      -3.043  14.705  19.975  1.00  0.00    -0.064 A 
HETATM   12  C22 UNL     1      -3.853  14.688  21.049  1.00  0.00     0.058 A 
HETATM   13  C23 UNL     1      -5.159  13.995  21.028  1.00  0.00     0.172 A 
HETATM   14  O6  UNL     1      -5.883  13.971  22.016  1.00  0.00    -0.289 OA
HETATM   15  C24 UNL     1      -5.554  13.339  19.770  1.00  0.00     0.052 A 
HETATM   16  C25 UNL     1      -4.741  13.354  18.704  1.00  0.00    -0.009 A 
HETATM   17  C26 UNL     1      -3.373  14.012  18.657  1.00  0.00     0.004 A 
HETATM   18  C27 UNL     1      -3.509  15.098  17.554  1.00  0.00     0.025 C 
HETATM   19  C28 UNL     1      -2.218  13.013  18.247  1.00  0.00     0.035 C 
HETATM   20  C29 UNL     1      -2.208  11.577  18.844  1.00  0.00     0.124 C 
HETATM   21  C30 UNL     1      -1.218  10.638  18.096  1.00  0.00     0.045 C 
HETATM   22  C31 UNL     1       0.036  11.335  17.522  1.00  0.00     0.004 C 
HETATM   23  C32 UNL     1      -0.170  11.698  16.027  1.00  0.00     0.019 C 
ENDROOT
BRANCH   1  24
HETATM   24  C6  UNL     1       1.630   9.487  16.625  1.00  0.00     0.188 C 
HETATM   25  O3  UNL     1       2.116   8.386  16.904  1.00  0.00    -0.292 OA
BRANCH  24  26
HETATM   26  C5  UNL     1       1.335   9.884  15.179  1.00  0.00     0.260 C 
BRANCH  26  27
HETATM   27  O2  UNL     1       0.740   8.818  14.435  1.00  0.00    -0.314 OA
BRANCH  27  28
HETATM   28  C4  UNL     1       0.985   8.881  13.097  1.00  0.00     0.262 C 
HETATM   29  O1  UNL     1       2.053   9.223  12.603  1.00  0.00    -0.265 OA
BRANCH  28  30
HETATM   30  C2  UNL     1      -0.203   8.405  12.281  1.00  0.00     0.077 C 
HETATM   31  C1  UNL     1       0.059   8.463  10.777  1.00  0.00     0.020 C 
HETATM   32  C3  UNL     1      -1.441   9.205  12.664  1.00  0.00     0.020 C 
ENDBRANCH  28  30
ENDBRANCH  27  28
ENDBRANCH  26  27
ENDBRANCH  24  26
ENDBRANCH   1  24
BRANCH   3  33
HETATM   33  C9  UNL     1       2.803  10.465  20.967  1.00  0.00     0.041 C 
HETATM   34  C10 UNL     1       2.311   9.224  21.739  1.00  0.00     0.009 C 
HETATM   35  C11 UNL     1       2.811   9.160  23.184  1.00  0.00     0.001 C 
HETATM   36  C12 UNL     1       3.066  10.544  23.763  1.00  0.00     0.000 C 
HETATM   37  C13 UNL     1       4.117  11.312  22.962  1.00  0.00     0.001 C 
HETATM   38  C14 UNL     1       4.173  10.921  21.482  1.00  0.00     0.009 C 
ENDBRANCH   3  33
BRANCH  20  39
HETATM   39  O7  UNL     1      -3.477  10.937  18.750  1.00  0.00    -0.395 OA
HETATM   40  H39 UNL     1      -3.472  10.181  19.363  1.00  0.00     0.210 HD
ENDBRANCH  20  39
TORSDOF 7
ENDMDL
MODEL 8
REMARK minimizedAffinity -7.05794001
REMARK CNNscore 0.447479486
REMARK CNNaffinity 6.2487464
REMARK  7 active torsions:
REMARK  status: ('A' for Active; 'I' for Inactive)
REMARK    1  A    between atoms: C2_2  and  C4_4 
REMARK    2  A    between atoms: C4_4  and  O2_6 
REMARK    3  A    between atoms: O2_6  and  C5_7 
REMARK    4  A    between atoms: C5_7  and  C6_8 
REMARK    5  A    between atoms: C6_8  and  C7_10 
REMARK    6  A    between atoms: C8_12  and  C9_13 
REMARK    7  A    between atoms: C29_35  and  O7_36 
ROOT
HETATM    1  C7  UNL     1       3.876   8.659  13.229  1.00  0.00     0.160 C 
HETATM    2  O4  UNL     1       3.442   9.911  13.762  1.00  0.00    -0.339 OA
HETATM    3  C8  UNL     1       2.449   9.605  14.744  1.00  0.00     0.266 C 
HETATM    4  O5  UNL     1       2.657   8.283  15.235  1.00  0.00    -0.352 OA
HETATM    5  C15 UNL     1       3.603   7.661  14.368  1.00  0.00     0.168 C 
HETATM    6  C16 UNL     1       4.935   7.457  15.117  1.00  0.00     0.041 C 
HETATM    7  C17 UNL     1       5.849   8.537  14.540  1.00  0.00     0.004 C 
HETATM    8  C18 UNL     1       7.367   8.395  14.787  1.00  0.00    -0.001 C 
HETATM    9  C19 UNL     1       7.629   8.886  16.232  1.00  0.00     0.010 C 
HETATM   10  C20 UNL     1       9.094   9.022  16.596  1.00  0.00     0.036 C 
HETATM   11  C21 UNL     1       9.785   9.886  15.578  1.00  0.00    -0.064 A 
HETATM   12  C22 UNL     1      10.411  11.018  15.948  1.00  0.00     0.058 A 
HETATM   13  C23 UNL     1      11.106  11.879  14.967  1.00  0.00     0.172 A 
HETATM   14  O6  UNL     1      11.661  12.915  15.310  1.00  0.00    -0.289 OA
HETATM   15  C24 UNL     1      11.107  11.435  13.561  1.00  0.00     0.052 A 
HETATM   16  C25 UNL     1      10.476  10.310  13.197  1.00  0.00    -0.009 A 
HETATM   17  C26 UNL     1       9.713   9.393  14.137  1.00  0.00     0.004 A 
HETATM   18  C27 UNL     1      10.469   8.038  14.044  1.00  0.00     0.025 C 
HETATM   19  C28 UNL     1       8.210   9.167  13.698  1.00  0.00     0.035 C 
HETATM   20  C29 UNL     1       7.379  10.376  13.183  1.00  0.00     0.124 C 
HETATM   21  C30 UNL     1       6.058   9.929  12.494  1.00  0.00     0.045 C 
HETATM   22  C31 UNL     1       5.428   8.638  13.065  1.00  0.00     0.004 C 
HETATM   23  C32 UNL     1       5.850   7.402  12.227  1.00  0.00     0.019 C 
ENDROOT
BRANCH   1  24
HETATM   24  C6  UNL     1       3.103   8.328  11.944  1.00  0.00     0.188 C 
HETATM   25  O3  UNL     1       2.185   9.044  11.531  1.00  0.00    -0.292 OA
BRANCH  24  26
HETATM   26  C5  UNL     1       3.463   7.015  11.249  1.00  0.00     0.260 C 
BRANCH  26  27
HETATM   27  O2  UNL     1       3.686   7.186   9.848  1.00  0.00    -0.314 OA
BRANCH  27  28
HETATM   28  C4  UNL     1       2.735   6.604   9.066  1.00  0.00     0.262 C 
HETATM   29  O1  UNL     1       2.299   5.471   9.235  1.00  0.00    -0.265 OA
BRANCH  28  30
HETATM   30  C2  UNL     1       2.222   7.551   7.997  1.00  0.00     0.077 C 
HETATM   31  C1  UNL     1       0.930   8.254   8.411  1.00  0.00     0.020 C 
HETATM   32  C3  UNL     1       2.054   6.800   6.684  1.00  0.00     0.020 C 
ENDBRANCH  28  30
ENDBRANCH  27  28
ENDBRANCH  26  27
ENDBRANCH  24  26
ENDBRANCH   1  24
BRANCH   3  33
HETATM   33  C9  UNL     1       2.539  10.616  15.897  1.00  0.00     0.041 C 
HETATM   34  C10 UNL     1       3.114  11.965  15.423  1.00  0.00     0.009 C 
HETATM   35  C11 UNL     1       2.708  13.151  16.302  1.00  0.00     0.001 C 
HETATM   36  C12 UNL     1       2.449  12.734  17.742  1.00  0.00     0.000 C 
HETATM   37  C13 UNL     1       1.328  11.700  17.843  1.00  0.00     0.001 C 
HETATM   38  C14 UNL     1       1.191  10.814  16.601  1.00  0.00     0.009 C 
ENDBRANCH   3  33
BRANCH  20  39
HETATM   39  O7  UNL     1       8.075  11.140  12.203  1.00  0.00    -0.395 OA
HETATM   40  H39 UNL     1       7.628  12.002  12.128  1.00  0.00     0.210 HD
ENDBRANCH  20  39
TORSDOF 7
ENDMDL
MODEL 9
REMARK minimizedAffinity -8.23148918
REMARK CNNscore 0.395942867
REMARK CNNaffinity 6.45119858
REMARK  7 active torsions:
REMARK  status: ('A' for Active; 'I' for Inactive)
REMARK    1  A    between atoms: C2_2  and  C4_4 
REMARK    2  A    between atoms: C4_4  and  O2_6 
REMARK    3  A    between atoms: O2_6  and  C5_7 
REMARK    4  A    between atoms: C5_7  and  C6_8 
REMARK    5  A    between atoms: C6_8  and  C7_10 
REMARK    6  A    between atoms: C8_12  and  C9_13 
REMARK    7  A    between atoms: C29_35  and  O7_36 
ROOT
HETATM    1  C7  UNL     1      11.087  12.432  19.310  1.00  0.00     0.160 C 
HETATM    2  O4  UNL     1      10.128  12.102  20.315  1.00  0.00    -0.339 OA
HETATM    3  C8  UNL     1       9.804  13.328  20.976  1.00  0.00     0.266 C 
HETATM    4  O5  UNL     1      10.054  14.422  20.098  1.00  0.00    -0.352 OA
HETATM    5  C15 UNL     1      10.793  13.908  18.992  1.00  0.00     0.168 C 
HETATM    6  C16 UNL     1       9.912  13.929  17.727  1.00  0.00     0.041 C 
HETATM    7  C17 UNL     1       9.527  12.464  17.524  1.00  0.00     0.004 C 
HETATM    8  C18 UNL     1       8.956  12.061  16.147  1.00  0.00    -0.001 C 
HETATM    9  C19 UNL     1       7.470  12.496  16.137  1.00  0.00     0.010 C 
HETATM   10  C20 UNL     1       6.676  11.999  14.945  1.00  0.00     0.036 C 
HETATM   11  C21 UNL     1       6.821  10.508  14.833  1.00  0.00    -0.064 A 
HETATM   12  C22 UNL     1       5.742   9.706  14.876  1.00  0.00     0.058 A 
HETATM   13  C23 UNL     1       5.858   8.237  14.758  1.00  0.00     0.172 A 
HETATM   14  O6  UNL     1       4.871   7.513  14.812  1.00  0.00    -0.289 OA
HETATM   15  C24 UNL     1       7.210   7.680  14.567  1.00  0.00     0.052 A 
HETATM   16  C25 UNL     1       8.283   8.482  14.532  1.00  0.00    -0.009 A 
HETATM   17  C26 UNL     1       8.249   9.994  14.680  1.00  0.00     0.004 A 
HETATM   18  C27 UNL     1       8.818  10.522  13.334  1.00  0.00     0.025 C 
HETATM   19  C28 UNL     1       9.162  10.522  15.859  1.00  0.00     0.035 C 
HETATM   20  C29 UNL     1       9.175   9.755  17.211  1.00  0.00     0.124 C 
HETATM   21  C30 UNL     1      10.351  10.201  18.127  1.00  0.00     0.045 C 
HETATM   22  C31 UNL     1      10.769  11.681  17.978  1.00  0.00     0.004 C 
HETATM   23  C32 UNL     1      11.966  11.821  17.000  1.00  0.00     0.019 C 
ENDROOT
BRANCH   1  24
HETATM   24  C6  UNL     1      12.513  12.204  19.835  1.00  0.00     0.188 C 
HETATM   25  O3  UNL     1      12.746  11.448  20.785  1.00  0.00    -0.292 OA
BRANCH  24  26
HETATM   26  C5  UNL     1      13.620  13.032  19.186  1.00  0.00     0.260 C 
BRANCH  26  27
HETATM   27  O2  UNL     1      14.466  13.660  20.152  1.00  0.00    -0.314 OA
BRANCH  27  28
HETATM   28  C4  UNL     1      15.559  12.920  20.486  1.00  0.00     0.262 C 
HETATM   29  O1  UNL     1      15.737  12.404  21.583  1.00  0.00    -0.265 OA
BRANCH  28  30
HETATM   30  C2  UNL     1      16.506  12.748  19.313  1.00  0.00     0.077 C 
HETATM   31  C1  UNL     1      17.535  11.643  19.550  1.00  0.00     0.020 C 
HETATM   32  C3  UNL     1      17.177  14.077  18.996  1.00  0.00     0.020 C 
ENDBRANCH  28  30
ENDBRANCH  27  28
ENDBRANCH  26  27
ENDBRANCH  24  26
ENDBRANCH   1  24
BRANCH   3  33
HETATM   33  C9  UNL     1       8.325  13.312  21.392  1.00  0.00     0.041 C 
HETATM   34  C10 UNL     1       7.423  12.798  20.251  1.00  0.00     0.009 C 
HETATM   35  C11 UNL     1       6.094  12.212  20.735  1.00  0.00     0.001 C 
HETATM   36  C12 UNL     1       5.632  12.842  22.040  1.00  0.00     0.000 C 
HETATM   37  C13 UNL     1       6.646  12.631  23.164  1.00  0.00     0.001 C 
HETATM   38  C14 UNL     1       8.093  12.508  22.676  1.00  0.00     0.009 C 
ENDBRANCH   3  33
BRANCH  20  39
HETATM   39  O7  UNL     1       9.343   8.350  17.042  1.00  0.00    -0.395 OA
HETATM   40  H39 UNL     1       9.077   7.919  17.873  1.00  0.00     0.210 HD
ENDBRANCH  20  39
TORSDOF 7
ENDMDL
