MODEL 1
REMARK minimizedAffinity -7.11608553
REMARK CNNscore 0.60665375
REMARK CNNaffinity 5.58655024
REMARK  8 active torsions:
REMARK  status: ('A' for Active; 'I' for Inactive)
REMARK    1  A    between atoms: C2_2  and  C3_3 
REMARK    2  A    between atoms: C2_2  and  C27_30 
REMARK    3  A    between atoms: C3_3  and  C4_4 
REMARK    4  A    between atoms: C4_4  and  C5_5 
REMARK    5  A    between atoms: C5_5  and  C7_7 
REMARK    6  A    between atoms: C26_28  and  O3_29 
REMARK    7  A    between atoms: C27_30  and  C29_32 
REMARK    8  A    between atoms: C29_32  and  O5_34 
ROOT
HETATM    1  C7  UNL     1      12.047  11.834  16.815  1.00  0.00    -0.002 C 
HETATM    2  C8  UNL     1      11.244  12.404  18.019  1.00  0.00     0.006 C 
HETATM    3  C9  UNL     1       9.791  11.946  17.833  1.00  0.00     0.010 C 
HETATM    4  C10 UNL     1       9.867  10.903  16.718  1.00  0.00     0.027 C 
HETATM    5  C11 UNL     1       8.621  10.438  15.998  1.00  0.00    -0.036 C 
HETATM    6  C12 UNL     1       8.691   9.908  14.751  1.00  0.00     0.002 C 
HETATM    7  C13 UNL     1      10.042   9.867  14.059  1.00  0.00     0.157 C 
HETATM    8  O1  UNL     1      10.156   9.399  12.927  1.00  0.00    -0.293 OA
HETATM    9  C14 UNL     1      11.282  10.380  14.780  1.00  0.00     0.093 C 
HETATM   10  C15 UNL     1      10.942  11.493  15.769  1.00  0.00    -0.026 C 
HETATM   11  C16 UNL     1      10.447  12.738  14.997  1.00  0.00     0.016 C 
HETATM   12  C17 UNL     1       7.460   9.364  13.992  1.00  0.00    -0.008 C 
HETATM   13  C18 UNL     1       7.098  10.432  12.926  1.00  0.00     0.021 C 
HETATM   14  C19 UNL     1       7.750   8.004  13.277  1.00  0.00     0.022 C 
HETATM   15  C20 UNL     1       6.567   7.042  13.160  1.00  0.00     0.080 C 
HETATM   16  C21 UNL     1       5.248   7.766  13.111  1.00  0.00     0.131 C 
HETATM   17  O2  UNL     1       4.415   7.530  12.236  1.00  0.00    -0.298 OA
HETATM   18  C22 UNL     1       4.957   8.739  14.244  1.00  0.00     0.056 C 
HETATM   19  C23 UNL     1       3.915   8.109  15.166  1.00  0.00     0.018 C 
HETATM   20  C24 UNL     1       6.268   9.109  14.984  1.00  0.00     0.012 C 
HETATM   21  C25 UNL     1       6.068  10.294  15.937  1.00  0.00     0.042 C 
HETATM   22  C26 UNL     1       7.327  10.557  16.762  1.00  0.00     0.148 C 
ENDROOT
BRANCH   1  23
HETATM   23  C5  UNL     1      13.313  12.671  16.479  1.00  0.00    -0.014 C 
HETATM   24  C6  UNL     1      14.375  11.980  15.612  1.00  0.00     0.010 C 
BRANCH  23  25
HETATM   25  C4  UNL     1      14.023  13.291  17.707  1.00  0.00     0.009 C 
BRANCH  25  26
HETATM   26  C3  UNL     1      15.207  12.494  18.282  1.00  0.00     0.034 C 
BRANCH  26  27
HETATM   27  C2  UNL     1      16.410  13.271  18.799  1.00  0.00    -0.075 C 
HETATM   28  C1  UNL     1      16.981  14.279  18.114  1.00  0.00     0.015 C 
BRANCH  27  29
HETATM   29  C27 UNL     1      16.995  12.843  20.149  1.00  0.00     0.107 C 
HETATM   30  C28 UNL     1      18.400  13.411  20.358  1.00  0.00     0.026 C 
BRANCH  29  31
HETATM   31  C29 UNL     1      16.075  13.186  21.323  1.00  0.00     0.147 C 
HETATM   32  O4  UNL     1      16.140  14.145  22.076  1.00  0.00    -0.650 OA
BRANCH  31  33
HETATM   33  O5  UNL     1      15.058  12.308  21.459  1.00  0.00    -0.776 OA
HETATM   34  H42 UNL     1      14.542  12.669  22.211  1.00  0.00     0.167 HD
ENDBRANCH  31  33
ENDBRANCH  29  31
ENDBRANCH  27  29
ENDBRANCH  26  27
ENDBRANCH  25  26
ENDBRANCH  23  25
ENDBRANCH   1  23
BRANCH  22  35
HETATM   35  O3  UNL     1       7.374   9.639  17.850  1.00  0.00    -0.391 OA
HETATM   36  H37 UNL     1       7.686   8.784  17.510  1.00  0.00     0.210 HD
ENDBRANCH  22  35
TORSDOF 8
ENDMDL
MODEL 2
REMARK minimizedAffinity -8.75596523
REMARK CNNscore 0.508436918
REMARK CNNaffinity 6.41831446
REMARK  8 active torsions:
REMARK  status: ('A' for Active; 'I' for Inactive)
REMARK    1  A    between atoms: C2_2  and  C3_3 
REMARK    2  A    between atoms: C2_2  and  C27_30 
REMARK    3  A    between atoms: C3_3  and  C4_4 
REMARK    4  A    between atoms: C4_4  and  C5_5 
REMARK    5  A    between atoms: C5_5  and  C7_7 
REMARK    6  A    between atoms: C26_28  and  O3_29 
REMARK    7  A    between atoms: C27_30  and  C29_32 
REMARK    8  A    between atoms: C29_32  and  O5_34 
ROOT
HETATM    1  C7  UNL     1       0.224  10.362  17.659  1.00  0.00    -0.002 C 
HETATM    2  C8  UNL     1      -1.256  10.574  18.091  1.00  0.00     0.006 C 
HETATM    3  C9  UNL     1      -2.103   9.628  17.227  1.00  0.00     0.010 C 
HETATM    4  C10 UNL     1      -1.077   8.712  16.559  1.00  0.00     0.027 C 
HETATM    5  C11 UNL     1      -1.457   7.849  15.376  1.00  0.00    -0.036 C 
HETATM    6  C12 UNL     1      -0.517   7.413  14.500  1.00  0.00     0.002 C 
HETATM    7  C13 UNL     1       0.916   7.879  14.687  1.00  0.00     0.157 C 
HETATM    8  O1  UNL     1       1.803   7.513  13.917  1.00  0.00    -0.293 OA
HETATM    9  C14 UNL     1       1.275   8.785  15.857  1.00  0.00     0.093 C 
HETATM   10  C15 UNL     1       0.102   9.674  16.266  1.00  0.00    -0.026 C 
HETATM   11  C16 UNL     1      -0.206  10.678  15.129  1.00  0.00     0.016 C 
HETATM   12  C17 UNL     1      -0.838   6.483  13.309  1.00  0.00    -0.008 C 
HETATM   13  C18 UNL     1      -0.820   7.376  12.040  1.00  0.00     0.021 C 
HETATM   14  C19 UNL     1       0.214   5.338  13.143  1.00  0.00     0.022 C 
HETATM   15  C20 UNL     1      -0.314   4.017  12.580  1.00  0.00     0.080 C 
HETATM   16  C21 UNL     1      -1.503   4.219  11.679  1.00  0.00     0.131 C 
HETATM   17  O2  UNL     1      -1.551   3.722  10.554  1.00  0.00    -0.298 OA
HETATM   18  C22 UNL     1      -2.679   4.992  12.257  1.00  0.00     0.056 C 
HETATM   19  C23 UNL     1      -3.807   4.005  12.554  1.00  0.00     0.018 C 
HETATM   20  C24 UNL     1      -2.234   5.789  13.510  1.00  0.00     0.012 C 
HETATM   21  C25 UNL     1      -3.302   6.798  13.951  1.00  0.00     0.042 C 
HETATM   22  C26 UNL     1      -2.912   7.474  15.265  1.00  0.00     0.148 C 
ENDROOT
BRANCH   1  23
HETATM   23  C5  UNL     1       1.116  11.608  17.923  1.00  0.00    -0.014 C 
HETATM   24  C6  UNL     1       1.569  12.394  16.685  1.00  0.00     0.010 C 
BRANCH  23  25
HETATM   25  C4  UNL     1       2.361  11.337  18.802  1.00  0.00     0.009 C 
BRANCH  25  26
HETATM   26  C3  UNL     1       2.191  10.290  19.918  1.00  0.00     0.034 C 
BRANCH  26  27
HETATM   27  C2  UNL     1       2.689  10.642  21.313  1.00  0.00    -0.075 C 
HETATM   28  C1  UNL     1       2.512  11.856  21.869  1.00  0.00     0.015 C 
BRANCH  27  29
HETATM   29  C27 UNL     1       3.448   9.558  22.082  1.00  0.00     0.107 C 
HETATM   30  C28 UNL     1       4.583  10.152  22.920  1.00  0.00     0.026 C 
BRANCH  29  31
HETATM   31  C29 UNL     1       2.525   8.686  22.935  1.00  0.00     0.147 C 
HETATM   32  O4  UNL     1       2.290   8.779  24.130  1.00  0.00    -0.650 OA
BRANCH  31  33
HETATM   33  O5  UNL     1       1.882   7.745  22.209  1.00  0.00    -0.776 OA
HETATM   34  H42 UNL     1       1.310   7.297  22.867  1.00  0.00     0.167 HD
ENDBRANCH  31  33
ENDBRANCH  29  31
ENDBRANCH  27  29
ENDBRANCH  26  27
ENDBRANCH  25  26
ENDBRANCH  23  25
ENDBRANCH   1  23
BRANCH  22  35
HETATM   35  O3  UNL     1      -3.226   6.607  16.350  1.00  0.00    -0.391 OA
HETATM   36  H37 UNL     1      -2.531   5.930  16.406  1.00  0.00     0.210 HD
ENDBRANCH  22  35
TORSDOF 8
ENDMDL
MODEL 3
REMARK minimizedAffinity -9.29550934
REMARK CNNscore 0.401340485
REMARK CNNaffinity 6.98075485
REMARK  8 active torsions:
REMARK  status: ('A' for Active; 'I' for Inactive)
REMARK    1  A    between atoms: C2_2  and  C3_3 
REMARK    2  A    between atoms: C2_2  and  C27_30 
REMARK    3  A    between atoms: C3_3  and  C4_4 
REMARK    4  A    between atoms: C4_4  and  C5_5 
REMARK    5  A    between atoms: C5_5  and  C7_7 
REMARK    6  A    between atoms: C26_28  and  O3_29 
REMARK    7  A    between atoms: C27_30  and  C29_32 
REMARK    8  A    between atoms: C29_32  and  O5_34 
ROOT
HETATM    1  C7  UNL     1      -2.188   5.420  12.699  1.00  0.00    -0.002 C 
HETATM    2  C8  UNL     1      -2.781   4.122  12.078  1.00  0.00     0.006 C 
HETATM    3  C9  UNL     1      -4.286   4.140  12.379  1.00  0.00     0.010 C 
HETATM    4  C10 UNL     1      -4.549   5.557  12.888  1.00  0.00     0.027 C 
HETATM    5  C11 UNL     1      -5.836   5.902  13.605  1.00  0.00    -0.036 C 
HETATM    6  C12 UNL     1      -5.902   6.961  14.450  1.00  0.00     0.002 C 
HETATM    7  C13 UNL     1      -4.631   7.746  14.725  1.00  0.00     0.157 C 
HETATM    8  O1  UNL     1      -4.641   8.713  15.486  1.00  0.00    -0.293 OA
HETATM    9  C14 UNL     1      -3.333   7.360  14.029  1.00  0.00     0.093 C 
HETATM   10  C15 UNL     1      -3.279   5.864  13.721  1.00  0.00    -0.026 C 
HETATM   11  C16 UNL     1      -3.217   5.065  15.045  1.00  0.00     0.016 C 
HETATM   12  C17 UNL     1      -7.202   7.394  15.164  1.00  0.00    -0.008 C 
HETATM   13  C18 UNL     1      -7.069   6.924  16.636  1.00  0.00     0.021 C 
HETATM   14  C19 UNL     1      -7.412   8.944  15.138  1.00  0.00     0.022 C 
HETATM   15  C20 UNL     1      -8.864   9.424  15.100  1.00  0.00     0.080 C 
HETATM   16  C21 UNL     1      -9.803   8.447  15.758  1.00  0.00     0.131 C 
HETATM   17  O2  UNL     1     -10.611   8.807  16.613  1.00  0.00    -0.298 OA
HETATM   18  C22 UNL     1      -9.764   7.012  15.254  1.00  0.00     0.056 C 
HETATM   19  C23 UNL     1     -11.019   6.761  14.419  1.00  0.00     0.018 C 
HETATM   20  C24 UNL     1      -8.456   6.756  14.463  1.00  0.00     0.012 C 
HETATM   21  C25 UNL     1      -8.242   5.262  14.186  1.00  0.00     0.042 C 
HETATM   22  C26 UNL     1      -7.027   5.036  13.287  1.00  0.00     0.148 C 
ENDROOT
BRANCH   1  23
HETATM   23  C5  UNL     1      -0.682   5.287  13.060  1.00  0.00    -0.014 C 
HETATM   24  C6  UNL     1      -0.034   6.506  13.732  1.00  0.00     0.010 C 
BRANCH  23  25
HETATM   25  C4  UNL     1       0.227   4.844  11.888  1.00  0.00     0.009 C 
BRANCH  25  26
HETATM   26  C3  UNL     1       1.355   5.816  11.498  1.00  0.00     0.034 C 
BRANCH  26  27
HETATM   27  C2  UNL     1       1.214   6.595  10.198  1.00  0.00    -0.075 C 
HETATM   28  C1  UNL     1       0.274   7.541  10.009  1.00  0.00     0.015 C 
BRANCH  27  29
HETATM   29  C27 UNL     1       2.176   6.243   9.059  1.00  0.00     0.107 C 
HETATM   30  C28 UNL     1       2.734   7.499   8.386  1.00  0.00     0.026 C 
BRANCH  29  31
HETATM   31  C29 UNL     1       3.299   5.305   9.508  1.00  0.00     0.147 C 
HETATM   32  O4  UNL     1       3.304   4.084   9.512  1.00  0.00    -0.650 OA
BRANCH  31  33
HETATM   33  O5  UNL     1       4.410   5.972   9.889  1.00  0.00    -0.776 OA
HETATM   34  H42 UNL     1       5.043   5.256  10.109  1.00  0.00     0.167 HD
ENDBRANCH  31  33
ENDBRANCH  29  31
ENDBRANCH  27  29
ENDBRANCH  26  27
ENDBRANCH  25  26
ENDBRANCH  23  25
ENDBRANCH   1  23
BRANCH  22  35
HETATM   35  O3  UNL     1      -7.396   5.275  11.933  1.00  0.00    -0.391 OA
HETATM   36  H37 UNL     1      -7.415   6.236  11.790  1.00  0.00     0.210 HD
ENDBRANCH  22  35
TORSDOF 8
ENDMDL
MODEL 4
REMARK minimizedAffinity -6.89621496
REMARK CNNscore 0.394517422
REMARK CNNaffinity 5.91240692
REMARK  8 active torsions:
REMARK  status: ('A' for Active; 'I' for Inactive)
REMARK    1  A    between atoms: C2_2  and  C3_3 
REMARK    2  A    between atoms: C2_2  and  C27_30 
REMARK    3  A    between atoms: C3_3  and  C4_4 
REMARK    4  A    between atoms: C4_4  and  C5_5 
REMARK    5  A    between atoms: C5_5  and  C7_7 
REMARK    6  A    between atoms: C26_28  and  O3_29 
REMARK    7  A    between atoms: C27_30  and  C29_32 
REMARK    8  A    between atoms: C29_32  and  O5_34 
ROOT
HETATM    1  C7  UNL     1      -5.758 -10.039   8.769  1.00  0.00    -0.002 C 
HETATM    2  C8  UNL     1      -6.771  -8.958   8.296  1.00  0.00     0.006 C 
HETATM    3  C9  UNL     1      -6.738  -8.968   6.761  1.00  0.00     0.010 C 
HETATM    4  C10 UNL     1      -5.950 -10.231   6.413  1.00  0.00     0.027 C 
HETATM    5  C11 UNL     1      -5.402 -10.448   5.019  1.00  0.00    -0.036 C 
HETATM    6  C12 UNL     1      -4.347 -11.274   4.805  1.00  0.00     0.002 C 
HETATM    7  C13 UNL     1      -3.674 -11.912   6.007  1.00  0.00     0.157 C 
HETATM    8  O1  UNL     1      -2.712 -12.666   5.864  1.00  0.00    -0.293 OA
HETATM    9  C14 UNL     1      -4.209 -11.649   7.408  1.00  0.00     0.093 C 
HETATM   10  C15 UNL     1      -4.861 -10.271   7.515  1.00  0.00    -0.026 C 
HETATM   11  C16 UNL     1      -3.784  -9.174   7.341  1.00  0.00     0.016 C 
HETATM   12  C17 UNL     1      -3.783 -11.579   3.400  1.00  0.00    -0.008 C 
HETATM   13  C18 UNL     1      -2.470 -10.761   3.269  1.00  0.00     0.021 C 
HETATM   14  C19 UNL     1      -3.463 -13.096   3.199  1.00  0.00     0.022 C 
HETATM   15  C20 UNL     1      -3.631 -13.635   1.777  1.00  0.00     0.080 C 
HETATM   16  C21 UNL     1      -3.404 -12.571   0.735  1.00  0.00     0.131 C 
HETATM   17  O2  UNL     1      -2.639 -12.749  -0.211  1.00  0.00    -0.298 OA
HETATM   18  C22 UNL     1      -4.231 -11.300   0.862  1.00  0.00     0.056 C 
HETATM   19  C23 UNL     1      -5.305 -11.313  -0.225  1.00  0.00     0.018 C 
HETATM   20  C24 UNL     1      -4.823 -11.184   2.289  1.00  0.00     0.012 C 
HETATM   21  C25 UNL     1      -5.418  -9.794   2.548  1.00  0.00     0.042 C 
HETATM   22  C26 UNL     1      -6.123  -9.738   3.903  1.00  0.00     0.148 C 
ENDROOT
BRANCH   1  23
HETATM   23  C5  UNL     1      -5.188  -9.757  10.188  1.00  0.00    -0.014 C 
HETATM   24  C6  UNL     1      -3.664  -9.606  10.290  1.00  0.00     0.010 C 
BRANCH  23  25
HETATM   25  C4  UNL     1      -5.647 -10.753  11.279  1.00  0.00     0.009 C 
BRANCH  25  26
HETATM   26  C3  UNL     1      -6.648 -10.212  12.316  1.00  0.00     0.034 C 
BRANCH  26  27
HETATM   27  C2  UNL     1      -7.656 -11.183  12.914  1.00  0.00    -0.075 C 
HETATM   28  C1  UNL     1      -7.352 -12.459  13.221  1.00  0.00     0.015 C 
BRANCH  27  29
HETATM   29  C27 UNL     1      -9.081 -10.668  13.137  1.00  0.00     0.107 C 
HETATM   30  C28 UNL     1      -9.347 -10.370  14.615  1.00  0.00     0.026 C 
BRANCH  29  31
HETATM   31  C29 UNL     1      -9.414  -9.462  12.257  1.00  0.00     0.147 C 
HETATM   32  O4  UNL     1      -9.627  -9.442  11.055  1.00  0.00    -0.650 OA
BRANCH  31  33
HETATM   33  O5  UNL     1      -9.519  -8.316  12.965  1.00  0.00    -0.776 OA
HETATM   34  H42 UNL     1      -9.767  -7.651  12.289  1.00  0.00     0.167 HD
ENDBRANCH  31  33
ENDBRANCH  29  31
ENDBRANCH  27  29
ENDBRANCH  26  27
ENDBRANCH  25  26
ENDBRANCH  23  25
ENDBRANCH   1  23
BRANCH  22  35
HETATM   35  O3  UNL     1      -7.419 -10.314   3.781  1.00  0.00    -0.391 OA
HETATM   36  H37 UNL     1      -7.322 -11.281   3.788  1.00  0.00     0.210 HD
ENDBRANCH  22  35
TORSDOF 8
ENDMDL
MODEL 5
REMARK minimizedAffinity -7.85562229
REMARK CNNscore 0.356672198
REMARK CNNaffinity 6.30145884
REMARK  8 active torsions:
REMARK  status: ('A' for Active; 'I' for Inactive)
REMARK    1  A    between atoms: C2_2  and  C3_3 
REMARK    2  A    between atoms: C2_2  and  C27_30 
REMARK    3  A    between atoms: C3_3  and  C4_4 
REMARK    4  A    between atoms: C4_4  and  C5_5 
REMARK    5  A    between atoms: C5_5  and  C7_7 
REMARK    6  A    between atoms: C26_28  and  O3_29 
REMARK    7  A    between atoms: C27_30  and  C29_32 
REMARK    8  A    between atoms: C29_32  and  O5_34 
ROOT
HETATM    1  C7  UNL     1      -1.929   6.432  12.797  1.00  0.00    -0.002 C 
HETATM    2  C8  UNL     1      -3.342   5.996  13.279  1.00  0.00     0.006 C 
HETATM    3  C9  UNL     1      -3.799   7.044  14.303  1.00  0.00     0.010 C 
HETATM    4  C10 UNL     1      -2.786   8.179  14.153  1.00  0.00     0.027 C 
HETATM    5  C11 UNL     1      -2.672   9.266  15.199  1.00  0.00    -0.036 C 
HETATM    6  C12 UNL     1      -1.528   9.980  15.343  1.00  0.00     0.002 C 
HETATM    7  C13 UNL     1      -0.332   9.608  14.482  1.00  0.00     0.157 C 
HETATM    8  O1  UNL     1       0.728  10.224  14.578  1.00  0.00    -0.293 OA
HETATM    9  C14 UNL     1      -0.449   8.482  13.464  1.00  0.00     0.093 C 
HETATM   10  C15 UNL     1      -1.457   7.422  13.904  1.00  0.00    -0.026 C 
HETATM   11  C16 UNL     1      -0.929   6.699  15.166  1.00  0.00     0.016 C 
HETATM   12  C17 UNL     1      -1.373  11.138  16.353  1.00  0.00    -0.008 C 
HETATM   13  C18 UNL     1      -0.529  10.581  17.530  1.00  0.00     0.021 C 
HETATM   14  C19 UNL     1      -0.642  12.376  15.739  1.00  0.00     0.022 C 
HETATM   15  C20 UNL     1      -1.062  13.742  16.283  1.00  0.00     0.080 C 
HETATM   16  C21 UNL     1      -1.553  13.661  17.705  1.00  0.00     0.131 C 
HETATM   17  O2  UNL     1      -1.117  14.408  18.580  1.00  0.00    -0.298 OA
HETATM   18  C22 UNL     1      -2.674  12.672  17.988  1.00  0.00     0.056 C 
HETATM   19  C23 UNL     1      -3.967  13.457  18.202  1.00  0.00     0.018 C 
HETATM   20  C24 UNL     1      -2.782  11.639  16.838  1.00  0.00     0.012 C 
HETATM   21  C25 UNL     1      -3.695  10.465  17.212  1.00  0.00     0.042 C 
HETATM   22  C26 UNL     1      -3.906   9.528  16.023  1.00  0.00     0.148 C 
ENDROOT
BRANCH   1  23
HETATM   23  C5  UNL     1      -1.067   5.242  12.289  1.00  0.00    -0.014 C 
HETATM   24  C6  UNL     1       0.072   4.786  13.212  1.00  0.00     0.010 C 
BRANCH  23  25
HETATM   25  C4  UNL     1      -0.489   5.423  10.865  1.00  0.00     0.009 C 
BRANCH  25  26
HETATM   26  C3  UNL     1       0.877   6.125  10.769  1.00  0.00     0.034 C 
BRANCH  26  27
HETATM   27  C2  UNL     1       1.075   7.163   9.673  1.00  0.00    -0.075 C 
HETATM   28  C1  UNL     1       0.444   8.353   9.669  1.00  0.00     0.015 C 
BRANCH  27  29
HETATM   29  C27 UNL     1       2.014   6.797   8.520  1.00  0.00     0.107 C 
HETATM   30  C28 UNL     1       2.329   8.012   7.644  1.00  0.00     0.026 C 
BRANCH  29  31
HETATM   31  C29 UNL     1       3.293   6.109   9.000  1.00  0.00     0.147 C 
HETATM   32  O4  UNL     1       4.154   6.553   9.744  1.00  0.00    -0.650 OA
BRANCH  31  33
HETATM   33  O5  UNL     1       3.402   4.841   8.548  1.00  0.00    -0.776 OA
HETATM   34  H42 UNL     1       4.233   4.521   8.958  1.00  0.00     0.167 HD
ENDBRANCH  31  33
ENDBRANCH  29  31
ENDBRANCH  27  29
ENDBRANCH  26  27
ENDBRANCH  25  26
ENDBRANCH  23  25
ENDBRANCH   1  23
BRANCH  22  35
HETATM   35  O3  UNL     1      -4.899  10.079  15.164  1.00  0.00    -0.391 OA
HETATM   36  H37 UNL     1      -4.485  10.779  14.633  1.00  0.00     0.210 HD
ENDBRANCH  22  35
TORSDOF 8
ENDMDL
MODEL 6
REMARK minimizedAffinity -9.55649948
REMARK CNNscore 0.286652833
REMARK CNNaffinity 6.63650131
REMARK  8 active torsions:
REMARK  status: ('A' for Active; 'I' for Inactive)
REMARK    1  A    between atoms: C2_2  and  C3_3 
REMARK    2  A    between atoms: C2_2  and  C27_30 
REMARK    3  A    between atoms: C3_3  and  C4_4 
REMARK    4  A    between atoms: C4_4  and  C5_5 
REMARK    5  A    between atoms: C5_5  and  C7_7 
REMARK    6  A    between atoms: C26_28  and  O3_29 
REMARK    7  A    between atoms: C27_30  and  C29_32 
REMARK    8  A    between atoms: C29_32  and  O5_34 
ROOT
HETATM    1  C7  UNL     1      -5.699   6.710  13.520  1.00  0.00    -0.002 C 
HETATM    2  C8  UNL     1      -5.663   8.159  14.085  1.00  0.00     0.006 C 
HETATM    3  C9  UNL     1      -4.217   8.653  13.934  1.00  0.00     0.010 C 
HETATM    4  C10 UNL     1      -3.557   7.607  13.035  1.00  0.00     0.027 C 
HETATM    5  C11 UNL     1      -2.052   7.531  12.902  1.00  0.00    -0.036 C 
HETATM    6  C12 UNL     1      -1.441   6.382  12.520  1.00  0.00     0.002 C 
HETATM    7  C13 UNL     1      -2.298   5.145  12.308  1.00  0.00     0.157 C 
HETATM    8  O1  UNL     1      -1.790   4.079  11.964  1.00  0.00    -0.293 OA
HETATM    9  C14 UNL     1      -3.808   5.226  12.489  1.00  0.00     0.093 C 
HETATM   10  C15 UNL     1      -4.199   6.282  13.520  1.00  0.00    -0.026 C 
HETATM   11  C16 UNL     1      -3.702   5.848  14.920  1.00  0.00     0.016 C 
HETATM   12  C17 UNL     1       0.084   6.262  12.312  1.00  0.00    -0.008 C 
HETATM   13  C18 UNL     1       0.636   5.502  13.548  1.00  0.00     0.021 C 
HETATM   14  C19 UNL     1       0.452   5.467  11.016  1.00  0.00     0.022 C 
HETATM   15  C20 UNL     1       1.744   5.888  10.314  1.00  0.00     0.080 C 
HETATM   16  C21 UNL     1       2.751   6.465  11.275  1.00  0.00     0.131 C 
HETATM   17  O2  UNL     1       3.914   6.066  11.306  1.00  0.00    -0.298 OA
HETATM   18  C22 UNL     1       2.284   7.623  12.144  1.00  0.00     0.056 C 
HETATM   19  C23 UNL     1       2.919   8.908  11.617  1.00  0.00     0.018 C 
HETATM   20  C24 UNL     1       0.736   7.686  12.170  1.00  0.00     0.012 C 
HETATM   21  C25 UNL     1       0.223   8.646  13.250  1.00  0.00     0.042 C 
HETATM   22  C26 UNL     1      -1.295   8.806  13.171  1.00  0.00     0.148 C 
ENDROOT
BRANCH   1  23
HETATM   23  C5  UNL     1      -6.834   5.846  14.138  1.00  0.00    -0.014 C 
HETATM   24  C6  UNL     1      -7.359   4.693  13.272  1.00  0.00     0.010 C 
BRANCH  23  25
HETATM   25  C4  UNL     1      -8.050   6.651  14.657  1.00  0.00     0.009 C 
BRANCH  25  26
HETATM   26  C3  UNL     1      -9.337   6.554  13.818  1.00  0.00     0.034 C 
BRANCH  26  27
HETATM   27  C2  UNL     1     -10.393   7.636  13.998  1.00  0.00    -0.075 C 
HETATM   28  C1  UNL     1     -10.396   8.492  15.038  1.00  0.00     0.015 C 
BRANCH  27  29
HETATM   29  C27 UNL     1     -11.508   7.710  12.951  1.00  0.00     0.107 C 
HETATM   30  C28 UNL     1     -12.732   6.893  13.373  1.00  0.00     0.026 C 
BRANCH  29  31
HETATM   31  C29 UNL     1     -11.893   9.149  12.603  1.00  0.00     0.147 C 
HETATM   32  O4  UNL     1     -12.365  10.002  13.338  1.00  0.00    -0.650 OA
BRANCH  31  33
HETATM   33  O5  UNL     1     -11.605   9.468  11.322  1.00  0.00    -0.776 OA
HETATM   34  H42 UNL     1     -11.866  10.411  11.256  1.00  0.00     0.167 HD
ENDBRANCH  31  33
ENDBRANCH  29  31
ENDBRANCH  27  29
ENDBRANCH  26  27
ENDBRANCH  25  26
ENDBRANCH  23  25
ENDBRANCH   1  23
BRANCH  22  35
HETATM   35  O3  UNL     1      -1.615   9.733  12.139  1.00  0.00    -0.391 OA
HETATM   36  H37 UNL     1      -1.545   9.272  11.286  1.00  0.00     0.210 HD
ENDBRANCH  22  35
TORSDOF 8
ENDMDL
MODEL 7
REMARK minimizedAffinity -7.37884951
REMARK CNNscore 0.272066981
REMARK CNNaffinity 6.56958151
REMARK  8 active torsions:
REMARK  status: ('A' for Active; 'I' for Inactive)
REMARK    1  A    between atoms: C2_2  and  C3_3 
REMARK    2  A    between atoms: C2_2  and  C27_30 
REMARK    3  A    between atoms: C3_3  and  C4_4 
REMARK    4  A    between atoms: C4_4  and  C5_5 
REMARK    5  A    between atoms: C5_5  and  C7_7 
REMARK    6  A    between atoms: C26_28  and  O3_29 
REMARK    7  A    between atoms: C27_30  and  C29_32 
REMARK    8  A    between atoms: C29_32  and  O5_34 
ROOT
HETATM    1  C7  UNL     1      -6.027   4.829  12.393  1.00  0.00    -0.002 C 
HETATM    2  C8  UNL     1      -7.187   3.959  11.829  1.00  0.00     0.006 C 
HETATM    3  C9  UNL     1      -8.494   4.605  12.310  1.00  0.00     0.010 C 
HETATM    4  C10 UNL     1      -8.058   5.960  12.868  1.00  0.00     0.027 C 
HETATM    5  C11 UNL     1      -8.984   6.778  13.740  1.00  0.00    -0.036 C 
HETATM    6  C12 UNL     1      -8.495   7.704  14.603  1.00  0.00     0.002 C 
HETATM    7  C13 UNL     1      -6.988   7.843  14.734  1.00  0.00     0.157 C 
HETATM    8  O1  UNL     1      -6.496   8.666  15.504  1.00  0.00    -0.293 OA
HETATM    9  C14 UNL     1      -6.067   6.980  13.881  1.00  0.00     0.093 C 
HETATM   10  C15 UNL     1      -6.703   5.633  13.546  1.00  0.00    -0.026 C 
HETATM   11  C16 UNL     1      -6.862   4.800  14.841  1.00  0.00     0.016 C 
HETATM   12  C17 UNL     1      -9.394   8.608  15.474  1.00  0.00    -0.008 C 
HETATM   13  C18 UNL     1      -9.330   8.030  16.913  1.00  0.00     0.021 C 
HETATM   14  C19 UNL     1      -8.908  10.094  15.497  1.00  0.00     0.022 C 
HETATM   15  C20 UNL     1      -9.999  11.156  15.642  1.00  0.00     0.080 C 
HETATM   16  C21 UNL     1     -11.198  10.639  16.394  1.00  0.00     0.131 C 
HETATM   17  O2  UNL     1     -11.676  11.256  17.345  1.00  0.00    -0.298 OA
HETATM   18  C22 UNL     1     -11.842   9.365  15.867  1.00  0.00     0.056 C 
HETATM   19  C23 UNL     1     -13.158   9.736  15.186  1.00  0.00     0.018 C 
HETATM   20  C24 UNL     1     -10.865   8.621  14.921  1.00  0.00     0.012 C 
HETATM   21  C25 UNL     1     -11.355   7.204  14.598  1.00  0.00     0.042 C 
HETATM   22  C26 UNL     1     -10.460   6.535  13.556  1.00  0.00     0.148 C 
ENDROOT
BRANCH   1  23
HETATM   23  C5  UNL     1      -4.702   4.035  12.568  1.00  0.00    -0.014 C 
HETATM   24  C6  UNL     1      -4.825   2.506  12.604  1.00  0.00     0.010 C 
BRANCH  23  25
HETATM   25  C4  UNL     1      -3.837   4.477  13.773  1.00  0.00     0.009 C 
BRANCH  25  26
HETATM   26  C3  UNL     1      -2.605   5.338  13.446  1.00  0.00     0.034 C 
BRANCH  26  27
HETATM   27  C2  UNL     1      -1.881   5.085  12.131  1.00  0.00    -0.075 C 
HETATM   28  C1  UNL     1      -1.313   6.067  11.405  1.00  0.00     0.015 C 
BRANCH  27  29
HETATM   29  C27 UNL     1      -1.841   3.642  11.618  1.00  0.00     0.107 C 
HETATM   30  C28 UNL     1      -2.375   3.538  10.187  1.00  0.00     0.026 C 
BRANCH  29  31
HETATM   31  C29 UNL     1      -0.451   3.013  11.741  1.00  0.00     0.147 C 
HETATM   32  O4  UNL     1       0.012   2.079  11.106  1.00  0.00    -0.650 OA
BRANCH  31  33
HETATM   33  O5  UNL     1       0.326   3.646  12.646  1.00  0.00    -0.776 OA
HETATM   34  H42 UNL     1       1.180   3.167  12.590  1.00  0.00     0.167 HD
ENDBRANCH  31  33
ENDBRANCH  29  31
ENDBRANCH  27  29
ENDBRANCH  26  27
ENDBRANCH  25  26
ENDBRANCH  23  25
ENDBRANCH   1  23
BRANCH  22  35
HETATM   35  O3  UNL     1     -10.823   6.999  12.259  1.00  0.00    -0.391 OA
HETATM   36  H37 UNL     1     -10.435   7.881  12.134  1.00  0.00     0.210 HD
ENDBRANCH  22  35
TORSDOF 8
ENDMDL
MODEL 8
REMARK minimizedAffinity -7.56148863
REMARK CNNscore 0.270808548
REMARK CNNaffinity 6.76856184
REMARK  8 active torsions:
REMARK  status: ('A' for Active; 'I' for Inactive)
REMARK    1  A    between atoms: C2_2  and  C3_3 
REMARK    2  A    between atoms: C2_2  and  C27_30 
REMARK    3  A    between atoms: C3_3  and  C4_4 
REMARK    4  A    between atoms: C4_4  and  C5_5 
REMARK    5  A    between atoms: C5_5  and  C7_7 
REMARK    6  A    between atoms: C26_28  and  O3_29 
REMARK    7  A    between atoms: C27_30  and  C29_32 
REMARK    8  A    between atoms: C29_32  and  O5_34 
ROOT
HETATM    1  C7  UNL     1      -5.063   7.002  15.235  1.00  0.00    -0.002 C 
HETATM    2  C8  UNL     1      -4.893   8.488  15.660  1.00  0.00     0.006 C 
HETATM    3  C9  UNL     1      -6.277   9.141  15.533  1.00  0.00     0.010 C 
HETATM    4  C10 UNL     1      -7.229   7.962  15.334  1.00  0.00     0.027 C 
HETATM    5  C11 UNL     1      -8.643   8.177  14.839  1.00  0.00    -0.036 C 
HETATM    6  C12 UNL     1      -9.326   7.181  14.222  1.00  0.00     0.002 C 
HETATM    7  C13 UNL     1      -8.609   5.866  13.964  1.00  0.00     0.157 C 
HETATM    8  O1  UNL     1      -9.186   4.934  13.405  1.00  0.00    -0.293 OA
HETATM    9  C14 UNL     1      -7.171   5.680  14.428  1.00  0.00     0.093 C 
HETATM   10  C15 UNL     1      -6.404   7.001  14.440  1.00  0.00    -0.026 C 
HETATM   11  C16 UNL     1      -6.240   7.517  12.991  1.00  0.00     0.016 C 
HETATM   12  C17 UNL     1     -10.789   7.324  13.749  1.00  0.00    -0.008 C 
HETATM   13  C18 UNL     1     -10.735   7.501  12.208  1.00  0.00     0.021 C 
HETATM   14  C19 UNL     1     -11.655   6.068  14.090  1.00  0.00     0.022 C 
HETATM   15  C20 UNL     1     -13.135   6.330  14.376  1.00  0.00     0.080 C 
HETATM   16  C21 UNL     1     -13.647   7.547  13.652  1.00  0.00     0.131 C 
HETATM   17  O2  UNL     1     -14.673   7.509  12.973  1.00  0.00    -0.298 OA
HETATM   18  C22 UNL     1     -12.884   8.846  13.868  1.00  0.00     0.056 C 
HETATM   19  C23 UNL     1     -13.720   9.750  14.772  1.00  0.00     0.018 C 
HETATM   20  C24 UNL     1     -11.478   8.552  14.448  1.00  0.00     0.012 C 
HETATM   21  C25 UNL     1     -10.578   9.794  14.413  1.00  0.00     0.042 C 
HETATM   22  C26 UNL     1      -9.246   9.530  15.115  1.00  0.00     0.148 C 
ENDROOT
BRANCH   1  23
HETATM   23  C5  UNL     1      -3.749   6.371  14.694  1.00  0.00    -0.014 C 
HETATM   24  C6  UNL     1      -2.849   7.290  13.855  1.00  0.00     0.010 C 
BRANCH  23  25
HETATM   25  C4  UNL     1      -3.939   5.045  13.918  1.00  0.00     0.009 C 
BRANCH  25  26
HETATM   26  C3  UNL     1      -3.380   5.010  12.484  1.00  0.00     0.034 C 
BRANCH  26  27
HETATM   27  C2  UNL     1      -3.901   3.937  11.538  1.00  0.00    -0.075 C 
HETATM   28  C1  UNL     1      -3.412   3.755  10.297  1.00  0.00     0.015 C 
BRANCH  27  29
HETATM   29  C27 UNL     1      -5.053   3.059  12.037  1.00  0.00     0.107 C 
HETATM   30  C28 UNL     1      -6.414   3.679  11.711  1.00  0.00     0.026 C 
BRANCH  29  31
HETATM   31  C29 UNL     1      -4.960   1.620  11.525  1.00  0.00     0.147 C 
HETATM   32  O4  UNL     1      -5.840   0.941  11.021  1.00  0.00    -0.650 OA
BRANCH  31  33
HETATM   33  O5  UNL     1      -3.712   1.113  11.627  1.00  0.00    -0.776 OA
HETATM   34  H42 UNL     1      -3.795   0.218  11.235  1.00  0.00     0.167 HD
ENDBRANCH  31  33
ENDBRANCH  29  31
ENDBRANCH  27  29
ENDBRANCH  26  27
ENDBRANCH  25  26
ENDBRANCH  23  25
ENDBRANCH   1  23
BRANCH  22  35
HETATM   35  O3  UNL     1      -9.426   9.652  16.522  1.00  0.00    -0.391 OA
HETATM   36  H37 UNL     1      -9.843   8.835  16.845  1.00  0.00     0.210 HD
ENDBRANCH  22  35
TORSDOF 8
ENDMDL
MODEL 9
REMARK minimizedAffinity -8.55364132
REMARK CNNscore 0.252925128
REMARK CNNaffinity 6.6787858
REMARK  8 active torsions:
REMARK  status: ('A' for Active; 'I' for Inactive)
REMARK    1  A    between atoms: C2_2  and  C3_3 
REMARK    2  A    between atoms: C2_2  and  C27_30 
REMARK    3  A    between atoms: C3_3  and  C4_4 
REMARK    4  A    between atoms: C4_4  and  C5_5 
REMARK    5  A    between atoms: C5_5  and  C7_7 
REMARK    6  A    between atoms: C26_28  and  O3_29 
REMARK    7  A    between atoms: C27_30  and  C29_32 
REMARK    8  A    between atoms: C29_32  and  O5_34 
ROOT
HETATM    1  C7  UNL     1      -5.679   6.578  15.120  1.00  0.00    -0.002 C 
HETATM    2  C8  UNL     1      -6.112   5.440  14.153  1.00  0.00     0.006 C 
HETATM    3  C9  UNL     1      -4.908   5.157  13.243  1.00  0.00     0.010 C 
HETATM    4  C10 UNL     1      -3.756   5.915  13.901  1.00  0.00     0.027 C 
HETATM    5  C11 UNL     1      -2.466   6.175  13.154  1.00  0.00    -0.036 C 
HETATM    6  C12 UNL     1      -1.650   7.201  13.504  1.00  0.00     0.002 C 
HETATM    7  C13 UNL     1      -2.102   8.137  14.612  1.00  0.00     0.157 C 
HETATM    8  O1  UNL     1      -1.399   9.083  14.962  1.00  0.00    -0.293 OA
HETATM    9  C14 UNL     1      -3.425   7.889  15.324  1.00  0.00     0.093 C 
HETATM   10  C15 UNL     1      -4.442   7.208  14.410  1.00  0.00    -0.026 C 
HETATM   11  C16 UNL     1      -4.837   8.173  13.267  1.00  0.00     0.016 C 
HETATM   12  C17 UNL     1      -0.295   7.478  12.816  1.00  0.00    -0.008 C 
HETATM   13  C18 UNL     1      -0.521   8.695  11.880  1.00  0.00     0.021 C 
HETATM   14  C19 UNL     1       0.837   7.821  13.839  1.00  0.00     0.022 C 
HETATM   15  C20 UNL     1       2.251   7.391  13.445  1.00  0.00     0.080 C 
HETATM   16  C21 UNL     1       2.436   7.347  11.951  1.00  0.00     0.131 C 
HETATM   17  O2  UNL     1       3.384   7.909  11.403  1.00  0.00    -0.298 OA
HETATM   18  C22 UNL     1       1.446   6.504  11.161  1.00  0.00     0.056 C 
HETATM   19  C23 UNL     1       2.155   5.232  10.701  1.00  0.00     0.018 C 
HETATM   20  C24 UNL     1       0.186   6.214  12.015  1.00  0.00     0.012 C 
HETATM   21  C25 UNL     1      -0.948   5.619  11.172  1.00  0.00     0.042 C 
HETATM   22  C26 UNL     1      -2.131   5.207  12.049  1.00  0.00     0.148 C 
ENDROOT
BRANCH   1  23
HETATM   23  C5  UNL     1      -6.879   7.414  15.648  1.00  0.00    -0.014 C 
HETATM   24  C6  UNL     1      -7.699   6.785  16.782  1.00  0.00     0.010 C 
BRANCH  23  25
HETATM   25  C4  UNL     1      -7.862   7.898  14.554  1.00  0.00     0.009 C 
BRANCH  25  26
HETATM   26  C3  UNL     1      -9.317   7.413  14.685  1.00  0.00     0.034 C 
BRANCH  26  27
HETATM   27  C2  UNL     1      -9.998   6.846  13.447  1.00  0.00    -0.075 C 
HETATM   28  C1  UNL     1      -9.332   6.176  12.487  1.00  0.00     0.015 C 
BRANCH  27  29
HETATM   29  C27 UNL     1     -11.502   7.090  13.299  1.00  0.00     0.107 C 
HETATM   30  C28 UNL     1     -12.278   6.575  14.513  1.00  0.00     0.026 C 
BRANCH  29  31
HETATM   31  C29 UNL     1     -11.833   8.555  13.006  1.00  0.00     0.147 C 
HETATM   32  O4  UNL     1     -11.140   9.539  13.208  1.00  0.00    -0.650 OA
BRANCH  31  33
HETATM   33  O5  UNL     1     -13.035   8.705  12.407  1.00  0.00    -0.776 OA
HETATM   34  H42 UNL     1     -13.093   9.672  12.250  1.00  0.00     0.167 HD
ENDBRANCH  31  33
ENDBRANCH  29  31
ENDBRANCH  27  29
ENDBRANCH  26  27
ENDBRANCH  25  26
ENDBRANCH  23  25
ENDBRANCH   1  23
BRANCH  22  35
HETATM   35  O3  UNL     1      -1.855   3.942  12.641  1.00  0.00    -0.391 OA
HETATM   36  H37 UNL     1      -1.253   4.084  13.391  1.00  0.00     0.210 HD
ENDBRANCH  22  35
TORSDOF 8
ENDMDL
