MODEL 1
REMARK minimizedAffinity -6.96727133
REMARK CNNscore 0.670548439
REMARK CNNaffinity 6.12189484
REMARK  15 active torsions:
REMARK  status: ('A' for Active; 'I' for Inactive)
REMARK    1  A    between atoms: C19_20  and  O2_21 
REMARK    2  A    between atoms: C19_20  and  C20_22 
REMARK    3  A    between atoms: C20_22  and  C21_24 
REMARK    4  A    between atoms: C21_24  and  O4_25 
REMARK    5  A    between atoms: O4_25  and  C22_26 
REMARK    6  A    between atoms: C22_26  and  C23_28 
REMARK    7  A    between atoms: C23_28  and  C24_29 
REMARK    8  A    between atoms: C24_29  and  C25_30 
REMARK       I    between atoms: C25_30  and  N1_32 
REMARK    9  A    between atoms: N1_32  and  C26_33 
REMARK   10  A    between atoms: C26_33  and  C27_34 
REMARK   11  A    between atoms: C27_34  and  C28_35 
REMARK   12  A    between atoms: C28_35  and  C29_36 
REMARK   13  A    between atoms: C29_36  and  C30_37 
REMARK   14  A    between atoms: C30_37  and  C31_38 
REMARK   15  A    between atoms: C31_38  and  O8_40 
ROOT
HETATM    1  C1  UNL     1      -0.624  50.909 -21.862  1.00  0.00     0.020 C 
HETATM    2  C2  UNL     1      -1.797  50.419 -20.964  1.00  0.00    -0.016 C 
HETATM    3  C3  UNL     1      -2.154  51.579 -19.991  1.00  0.00     0.022 C 
HETATM    4  C4  UNL     1      -1.106  51.846 -18.918  1.00  0.00     0.084 C 
HETATM    5  C5  UNL     1      -0.820  50.586 -18.148  1.00  0.00     0.149 C 
HETATM    6  O1  UNL     1      -0.473  50.597 -16.970  1.00  0.00    -0.293 OA
HETATM    7  C6  UNL     1      -0.869  49.301 -18.880  1.00  0.00     0.053 C 
HETATM    8  C7  UNL     1      -1.259  49.223 -20.167  1.00  0.00    -0.068 C 
HETATM    9  C8  UNL     1      -1.130  47.885 -20.855  1.00  0.00     0.035 C 
HETATM   10  C9  UNL     1      -1.968  47.737 -22.116  1.00  0.00     0.010 C 
HETATM   11  C10 UNL     1      -3.286  48.507 -22.059  1.00  0.00    -0.004 C 
HETATM   12  C11 UNL     1      -3.019  50.038 -21.930  1.00  0.00     0.002 C 
HETATM   13  C12 UNL     1      -4.353  50.816 -21.753  1.00  0.00     0.007 C 
HETATM   14  C13 UNL     1      -5.353  50.226 -20.743  1.00  0.00     0.013 C 
HETATM   15  C14 UNL     1      -5.619  48.728 -20.987  1.00  0.00    -0.002 C 
HETATM   16  C15 UNL     1      -6.372  48.534 -22.329  1.00  0.00     0.019 C 
HETATM   17  C16 UNL     1      -4.235  48.032 -20.949  1.00  0.00     0.002 C 
HETATM   18  C17 UNL     1      -4.579  46.550 -20.891  1.00  0.00     0.009 C 
HETATM   19  C18 UNL     1      -5.851  46.487 -20.028  1.00  0.00     0.047 C 
HETATM   20  C19 UNL     1      -6.347  47.949 -19.845  1.00  0.00     0.128 C 
ENDROOT
BRANCH  20  21
HETATM   21  O2  UNL     1      -5.884  48.409 -18.572  1.00  0.00    -0.381 OA
HETATM   22  H27 UNL     1      -6.233  47.809 -17.884  1.00  0.00     0.211 HD
ENDBRANCH  20  21
BRANCH  20  23
HETATM   23  C20 UNL     1      -7.889  48.053 -19.870  1.00  0.00     0.185 C 
HETATM   24  O3  UNL     1      -8.499  48.531 -20.831  1.00  0.00    -0.292 OA
BRANCH  23  25
HETATM   25  C21 UNL     1      -8.638  47.545 -18.637  1.00  0.00     0.260 C 
BRANCH  25  26
HETATM   26  O4  UNL     1      -9.679  48.436 -18.234  1.00  0.00    -0.314 OA
BRANCH  26  27
HETATM   27  C22 UNL     1     -10.627  47.856 -17.446  1.00  0.00     0.259 C 
HETATM   28  O5  UNL     1     -10.543  47.723 -16.233  1.00  0.00    -0.265 OA
BRANCH  27  29
HETATM   29  C23 UNL     1     -11.771  47.355 -18.276  1.00  0.00     0.120 C 
BRANCH  29  30
HETATM   30  C24 UNL     1     -12.972  47.090 -17.383  1.00  0.00     0.112 C 
BRANCH  30  31
HETATM   31  C25 UNL     1     -14.253  47.573 -18.026  1.00  0.00     0.217 C 
HETATM   32  O6  UNL     1     -14.853  48.578 -17.662  1.00  0.00    -0.274 OA
HETATM   33  N1  UNL     1     -14.679  46.765 -19.060  1.00  0.00    -0.361 N 
HETATM   34  H34 UNL     1     -14.007  46.120 -19.455  1.00  0.00     0.162 HD
BRANCH  33  35
HETATM   35  C26 UNL     1     -15.823  47.143 -19.866  1.00  0.00     0.122 C 
BRANCH  35  36
HETATM   36  C27 UNL     1     -16.394  45.943 -20.616  1.00  0.00     0.020 C 
BRANCH  36  37
HETATM   37  C28 UNL     1     -17.107  46.327 -21.917  1.00  0.00     0.002 C 
BRANCH  37  38
HETATM   38  C29 UNL     1     -18.637  46.335 -21.859  1.00  0.00     0.010 C 
BRANCH  38  39
HETATM   39  C30 UNL     1     -19.295  45.767 -23.115  1.00  0.00     0.110 C 
BRANCH  39  40
HETATM   40  C31 UNL     1     -18.800  46.451 -24.362  1.00  0.00     0.139 C 
HETATM   41  O7  UNL     1     -19.023  47.593 -24.722  1.00  0.00    -0.650 OA
BRANCH  40  42
HETATM   42  O8  UNL     1     -18.023  45.636 -25.103  1.00  0.00    -0.776 OA
HETATM   43  H45 UNL     1     -17.766  46.189 -25.871  1.00  0.00     0.167 HD
ENDBRANCH  40  42
ENDBRANCH  39  40
ENDBRANCH  38  39
ENDBRANCH  37  38
ENDBRANCH  36  37
ENDBRANCH  35  36
ENDBRANCH  33  35
ENDBRANCH  30  31
ENDBRANCH  29  30
ENDBRANCH  27  29
ENDBRANCH  26  27
ENDBRANCH  25  26
ENDBRANCH  23  25
ENDBRANCH  20  23
TORSDOF 15
ENDMDL
MODEL 2
REMARK minimizedAffinity -6.62545395
REMARK CNNscore 0.554445386
REMARK CNNaffinity 6.72322321
REMARK  15 active torsions:
REMARK  status: ('A' for Active; 'I' for Inactive)
REMARK    1  A    between atoms: C19_20  and  O2_21 
REMARK    2  A    between atoms: C19_20  and  C20_22 
REMARK    3  A    between atoms: C20_22  and  C21_24 
REMARK    4  A    between atoms: C21_24  and  O4_25 
REMARK    5  A    between atoms: O4_25  and  C22_26 
REMARK    6  A    between atoms: C22_26  and  C23_28 
REMARK    7  A    between atoms: C23_28  and  C24_29 
REMARK    8  A    between atoms: C24_29  and  C25_30 
REMARK       I    between atoms: C25_30  and  N1_32 
REMARK    9  A    between atoms: N1_32  and  C26_33 
REMARK   10  A    between atoms: C26_33  and  C27_34 
REMARK   11  A    between atoms: C27_34  and  C28_35 
REMARK   12  A    between atoms: C28_35  and  C29_36 
REMARK   13  A    between atoms: C29_36  and  C30_37 
REMARK   14  A    between atoms: C30_37  and  C31_38 
REMARK   15  A    between atoms: C31_38  and  O8_40 
ROOT
HETATM    1  C1  UNL     1       7.018  53.900  -6.459  1.00  0.00     0.020 C 
HETATM    2  C2  UNL     1       5.731  53.473  -7.222  1.00  0.00    -0.016 C 
HETATM    3  C3  UNL     1       5.362  52.038  -6.745  1.00  0.00     0.022 C 
HETATM    4  C4  UNL     1       6.315  50.951  -7.224  1.00  0.00     0.084 C 
HETATM    5  C5  UNL     1       6.433  50.989  -8.723  1.00  0.00     0.149 C 
HETATM    6  O1  UNL     1       6.661  49.986  -9.393  1.00  0.00    -0.293 OA
HETATM    7  C6  UNL     1       6.366  52.309  -9.389  1.00  0.00     0.053 C 
HETATM    8  C7  UNL     1       6.101  53.442  -8.711  1.00  0.00    -0.068 C 
HETATM    9  C8  UNL     1       6.203  54.747  -9.464  1.00  0.00     0.035 C 
HETATM   10  C9  UNL     1       5.486  55.917  -8.808  1.00  0.00     0.010 C 
HETATM   11  C10 UNL     1       4.227  55.504  -8.050  1.00  0.00    -0.004 C 
HETATM   12  C11 UNL     1       4.587  54.541  -6.876  1.00  0.00     0.002 C 
HETATM   13  C12 UNL     1       3.299  54.024  -6.173  1.00  0.00     0.007 C 
HETATM   14  C13 UNL     1       2.165  53.551  -7.099  1.00  0.00     0.013 C 
HETATM   15  C14 UNL     1       1.820  54.591  -8.183  1.00  0.00    -0.002 C 
HETATM   16  C15 UNL     1       1.192  55.850  -7.530  1.00  0.00     0.019 C 
HETATM   17  C16 UNL     1       3.141  54.881  -8.940  1.00  0.00     0.002 C 
HETATM   18  C17 UNL     1       2.690  55.665 -10.165  1.00  0.00     0.009 C 
HETATM   19  C18 UNL     1       1.337  55.036 -10.543  1.00  0.00     0.047 C 
HETATM   20  C19 UNL     1       0.929  54.100  -9.369  1.00  0.00     0.128 C 
ENDROOT
BRANCH  20  21
HETATM   21  O2  UNL     1       1.295  52.765  -9.731  1.00  0.00    -0.381 OA
HETATM   22  H27 UNL     1       0.838  52.537 -10.564  1.00  0.00     0.211 HD
ENDBRANCH  20  21
BRANCH  20  23
HETATM   23  C20 UNL     1      -0.591  54.132  -9.094  1.00  0.00     0.185 C 
HETATM   24  O3  UNL     1      -1.069  53.791  -8.008  1.00  0.00    -0.292 OA
BRANCH  23  25
HETATM   25  C21 UNL     1      -1.493  54.597 -10.240  1.00  0.00     0.260 C 
BRANCH  25  26
HETATM   26  O4  UNL     1      -2.774  53.966 -10.207  1.00  0.00    -0.314 OA
BRANCH  26  27
HETATM   27  C22 UNL     1      -3.090  53.300 -11.352  1.00  0.00     0.259 C 
HETATM   28  O5  UNL     1      -4.161  53.385 -11.938  1.00  0.00    -0.265 OA
BRANCH  27  29
HETATM   29  C23 UNL     1      -1.963  52.404 -11.772  1.00  0.00     0.120 C 
BRANCH  29  30
HETATM   30  C24 UNL     1      -2.177  51.954 -13.208  1.00  0.00     0.112 C 
BRANCH  30  31
HETATM   31  C25 UNL     1      -0.860  51.767 -13.927  1.00  0.00     0.217 C 
HETATM   32  O6  UNL     1       0.055  52.582 -13.884  1.00  0.00    -0.274 OA
HETATM   33  N1  UNL     1      -0.795  50.589 -14.643  1.00  0.00    -0.361 N 
HETATM   34  H34 UNL     1      -1.474  49.871 -14.422  1.00  0.00     0.162 HD
BRANCH  33  35
HETATM   35  C26 UNL     1       0.437  50.191 -15.295  1.00  0.00     0.122 C 
BRANCH  35  36
HETATM   36  C27 UNL     1       0.350  50.378 -16.807  1.00  0.00     0.020 C 
BRANCH  36  37
HETATM   37  C28 UNL     1       1.167  51.570 -17.317  1.00  0.00     0.002 C 
BRANCH  37  38
HETATM   38  C29 UNL     1       0.360  52.703 -17.957  1.00  0.00     0.010 C 
BRANCH  38  39
HETATM   39  C30 UNL     1      -0.028  52.427 -19.409  1.00  0.00     0.110 C 
BRANCH  39  40
HETATM   40  C31 UNL     1       0.967  53.016 -20.373  1.00  0.00     0.139 C 
HETATM   41  O7  UNL     1       1.248  52.617 -21.489  1.00  0.00    -0.650 OA
BRANCH  40  42
HETATM   42  O8  UNL     1       1.564  54.113 -19.866  1.00  0.00    -0.776 OA
HETATM   43  H45 UNL     1       2.176  54.400 -20.577  1.00  0.00     0.167 HD
ENDBRANCH  40  42
ENDBRANCH  39  40
ENDBRANCH  38  39
ENDBRANCH  37  38
ENDBRANCH  36  37
ENDBRANCH  35  36
ENDBRANCH  33  35
ENDBRANCH  30  31
ENDBRANCH  29  30
ENDBRANCH  27  29
ENDBRANCH  26  27
ENDBRANCH  25  26
ENDBRANCH  23  25
ENDBRANCH  20  23
TORSDOF 15
ENDMDL
MODEL 3
REMARK minimizedAffinity -6.63938046
REMARK CNNscore 0.53153646
REMARK CNNaffinity 6.56104803
REMARK  15 active torsions:
REMARK  status: ('A' for Active; 'I' for Inactive)
REMARK    1  A    between atoms: C19_20  and  O2_21 
REMARK    2  A    between atoms: C19_20  and  C20_22 
REMARK    3  A    between atoms: C20_22  and  C21_24 
REMARK    4  A    between atoms: C21_24  and  O4_25 
REMARK    5  A    between atoms: O4_25  and  C22_26 
REMARK    6  A    between atoms: C22_26  and  C23_28 
REMARK    7  A    between atoms: C23_28  and  C24_29 
REMARK    8  A    between atoms: C24_29  and  C25_30 
REMARK       I    between atoms: C25_30  and  N1_32 
REMARK    9  A    between atoms: N1_32  and  C26_33 
REMARK   10  A    between atoms: C26_33  and  C27_34 
REMARK   11  A    between atoms: C27_34  and  C28_35 
REMARK   12  A    between atoms: C28_35  and  C29_36 
REMARK   13  A    between atoms: C29_36  and  C30_37 
REMARK   14  A    between atoms: C30_37  and  C31_38 
REMARK   15  A    between atoms: C31_38  and  O8_40 
ROOT
HETATM    1  C1  UNL     1       6.312  57.998  -5.516  1.00  0.00     0.020 C 
HETATM    2  C2  UNL     1       5.242  56.974  -5.994  1.00  0.00    -0.016 C 
HETATM    3  C3  UNL     1       3.915  57.309  -5.253  1.00  0.00     0.022 C 
HETATM    4  C4  UNL     1       3.927  56.989  -3.764  1.00  0.00     0.084 C 
HETATM    5  C5  UNL     1       4.299  55.548  -3.546  1.00  0.00     0.149 C 
HETATM    6  O1  UNL     1       3.889  54.899  -2.588  1.00  0.00    -0.293 OA
HETATM    7  C6  UNL     1       5.272  54.936  -4.477  1.00  0.00     0.053 C 
HETATM    8  C7  UNL     1       5.743  55.591  -5.556  1.00  0.00    -0.068 C 
HETATM    9  C8  UNL     1       6.840  54.927  -6.352  1.00  0.00     0.035 C 
HETATM   10  C9  UNL     1       7.020  55.470  -7.761  1.00  0.00     0.010 C 
HETATM   11  C10 UNL     1       5.715  55.941  -8.398  1.00  0.00    -0.004 C 
HETATM   12  C11 UNL     1       5.105  57.124  -7.584  1.00  0.00     0.002 C 
HETATM   13  C12 UNL     1       3.718  57.530  -8.158  1.00  0.00     0.007 C 
HETATM   14  C13 UNL     1       2.754  56.375  -8.480  1.00  0.00     0.013 C 
HETATM   15  C14 UNL     1       3.411  55.287  -9.350  1.00  0.00    -0.002 C 
HETATM   16  C15 UNL     1       3.716  55.849 -10.763  1.00  0.00     0.019 C 
HETATM   17  C16 UNL     1       4.676  54.825  -8.582  1.00  0.00     0.002 C 
HETATM   18  C17 UNL     1       5.107  53.566  -9.322  1.00  0.00     0.009 C 
HETATM   19  C18 UNL     1       3.786  52.898  -9.740  1.00  0.00     0.047 C 
HETATM   20  C19 UNL     1       2.651  53.926  -9.466  1.00  0.00     0.128 C 
ENDROOT
BRANCH  20  21
HETATM   21  O2  UNL     1       2.059  53.593  -8.207  1.00  0.00    -0.381 OA
HETATM   22  H27 UNL     1       1.724  52.676  -8.258  1.00  0.00     0.211 HD
ENDBRANCH  20  21
BRANCH  20  23
HETATM   23  C20 UNL     1       1.551  53.888 -10.549  1.00  0.00     0.185 C 
HETATM   24  O3  UNL     1       1.608  53.123 -11.516  1.00  0.00    -0.292 OA
BRANCH  23  25
HETATM   25  C21 UNL     1       0.380  54.858 -10.383  1.00  0.00     0.260 C 
BRANCH  25  26
HETATM   26  O4  UNL     1      -0.227  54.755  -9.094  1.00  0.00    -0.314 OA
BRANCH  26  27
HETATM   27  C22 UNL     1      -1.334  53.962  -9.067  1.00  0.00     0.259 C 
HETATM   28  O5  UNL     1      -1.623  53.195  -8.159  1.00  0.00    -0.265 OA
BRANCH  27  29
HETATM   29  C23 UNL     1      -2.127  54.117 -10.330  1.00  0.00     0.120 C 
BRANCH  29  30
HETATM   30  C24 UNL     1      -3.043  52.917 -10.507  1.00  0.00     0.112 C 
BRANCH  30  31
HETATM   31  C25 UNL     1      -3.432  52.731 -11.957  1.00  0.00     0.217 C 
HETATM   32  O6  UNL     1      -4.276  53.417 -12.523  1.00  0.00    -0.274 OA
HETATM   33  N1  UNL     1      -2.745  51.707 -12.577  1.00  0.00    -0.361 N 
HETATM   34  H34 UNL     1      -1.903  51.371 -12.126  1.00  0.00     0.162 HD
BRANCH  33  35
HETATM   35  C26 UNL     1      -2.904  51.468 -13.997  1.00  0.00     0.122 C 
BRANCH  35  36
HETATM   36  C27 UNL     1      -1.555  51.425 -14.708  1.00  0.00     0.020 C 
BRANCH  36  37
HETATM   37  C28 UNL     1      -0.787  50.121 -14.469  1.00  0.00     0.002 C 
BRANCH  37  38
HETATM   38  C29 UNL     1       0.367  49.843 -15.437  1.00  0.00     0.010 C 
BRANCH  38  39
HETATM   39  C30 UNL     1       1.457  50.913 -15.407  1.00  0.00     0.110 C 
BRANCH  39  40
HETATM   40  C31 UNL     1       1.202  51.996 -16.421  1.00  0.00     0.139 C 
HETATM   41  O7  UNL     1       0.829  51.863 -17.574  1.00  0.00    -0.650 OA
BRANCH  40  42
HETATM   42  O8  UNL     1       1.430  53.222 -15.910  1.00  0.00    -0.776 OA
HETATM   43  H45 UNL     1       1.229  53.830 -16.654  1.00  0.00     0.167 HD
ENDBRANCH  40  42
ENDBRANCH  39  40
ENDBRANCH  38  39
ENDBRANCH  37  38
ENDBRANCH  36  37
ENDBRANCH  35  36
ENDBRANCH  33  35
ENDBRANCH  30  31
ENDBRANCH  29  30
ENDBRANCH  27  29
ENDBRANCH  26  27
ENDBRANCH  25  26
ENDBRANCH  23  25
ENDBRANCH  20  23
TORSDOF 15
ENDMDL
MODEL 4
REMARK minimizedAffinity -6.91489363
REMARK CNNscore 0.515038073
REMARK CNNaffinity 6.64877939
REMARK  15 active torsions:
REMARK  status: ('A' for Active; 'I' for Inactive)
REMARK    1  A    between atoms: C19_20  and  O2_21 
REMARK    2  A    between atoms: C19_20  and  C20_22 
REMARK    3  A    between atoms: C20_22  and  C21_24 
REMARK    4  A    between atoms: C21_24  and  O4_25 
REMARK    5  A    between atoms: O4_25  and  C22_26 
REMARK    6  A    between atoms: C22_26  and  C23_28 
REMARK    7  A    between atoms: C23_28  and  C24_29 
REMARK    8  A    between atoms: C24_29  and  C25_30 
REMARK       I    between atoms: C25_30  and  N1_32 
REMARK    9  A    between atoms: N1_32  and  C26_33 
REMARK   10  A    between atoms: C26_33  and  C27_34 
REMARK   11  A    between atoms: C27_34  and  C28_35 
REMARK   12  A    between atoms: C28_35  and  C29_36 
REMARK   13  A    between atoms: C29_36  and  C30_37 
REMARK   14  A    between atoms: C30_37  and  C31_38 
REMARK   15  A    between atoms: C31_38  and  O8_40 
ROOT
HETATM    1  C1  UNL     1       6.547  57.549  -5.660  1.00  0.00     0.020 C 
HETATM    2  C2  UNL     1       5.379  56.625  -6.110  1.00  0.00    -0.016 C 
HETATM    3  C3  UNL     1       4.157  56.943  -5.200  1.00  0.00     0.022 C 
HETATM    4  C4  UNL     1       4.308  56.479  -3.758  1.00  0.00     0.084 C 
HETATM    5  C5  UNL     1       4.621  55.008  -3.717  1.00  0.00     0.149 C 
HETATM    6  O1  UNL     1       4.280  54.287  -2.784  1.00  0.00    -0.293 OA
HETATM    7  C6  UNL     1       5.456  54.448  -4.803  1.00  0.00     0.053 C 
HETATM    8  C7  UNL     1       5.847  55.184  -5.860  1.00  0.00    -0.068 C 
HETATM    9  C8  UNL     1       6.816  54.554  -6.831  1.00  0.00     0.035 C 
HETATM   10  C9  UNL     1       6.877  55.225  -8.195  1.00  0.00     0.010 C 
HETATM   11  C10 UNL     1       5.539  55.813  -8.638  1.00  0.00    -0.004 C 
HETATM   12  C11 UNL     1       5.084  56.936  -7.655  1.00  0.00     0.002 C 
HETATM   13  C12 UNL     1       3.669  57.458  -8.033  1.00  0.00     0.007 C 
HETATM   14  C13 UNL     1       2.614  56.384  -8.353  1.00  0.00     0.013 C 
HETATM   15  C14 UNL     1       3.116  55.358  -9.387  1.00  0.00    -0.002 C 
HETATM   16  C15 UNL     1       3.301  56.043 -10.767  1.00  0.00     0.019 C 
HETATM   17  C16 UNL     1       4.427  54.768  -8.810  1.00  0.00     0.002 C 
HETATM   18  C17 UNL     1       4.709  53.570  -9.707  1.00  0.00     0.009 C 
HETATM   19  C18 UNL     1       3.316  53.005 -10.037  1.00  0.00     0.047 C 
HETATM   20  C19 UNL     1       2.275  54.051  -9.545  1.00  0.00     0.128 C 
ENDROOT
BRANCH  20  21
HETATM   21  O2  UNL     1       1.800  53.622  -8.265  1.00  0.00    -0.381 OA
HETATM   22  H27 UNL     1       1.413  52.731  -8.365  1.00  0.00     0.211 HD
ENDBRANCH  20  21
BRANCH  20  23
HETATM   23  C20 UNL     1       1.066  54.168 -10.500  1.00  0.00     0.185 C 
HETATM   24  O3  UNL     1       0.251  55.092 -10.416  1.00  0.00    -0.292 OA
BRANCH  23  25
HETATM   25  C21 UNL     1       0.909  53.075 -11.558  1.00  0.00     0.260 C 
BRANCH  25  26
HETATM   26  O4  UNL     1      -0.016  52.063 -11.156  1.00  0.00    -0.314 OA
BRANCH  26  27
HETATM   27  C22 UNL     1      -1.146  52.017 -11.915  1.00  0.00     0.259 C 
HETATM   28  O5  UNL     1      -2.282  51.926 -11.472  1.00  0.00    -0.265 OA
BRANCH  27  29
HETATM   29  C23 UNL     1      -0.805  52.040 -13.375  1.00  0.00     0.120 C 
BRANCH  29  30
HETATM   30  C24 UNL     1      -1.747  51.119 -14.133  1.00  0.00     0.112 C 
BRANCH  30  31
HETATM   31  C25 UNL     1      -1.056  50.479 -15.317  1.00  0.00     0.217 C 
HETATM   32  O6  UNL     1      -1.282  49.334 -15.692  1.00  0.00    -0.274 OA
HETATM   33  N1  UNL     1      -0.143  51.313 -15.928  1.00  0.00    -0.361 N 
HETATM   34  H34 UNL     1      -0.205  52.302 -15.723  1.00  0.00     0.162 HD
BRANCH  33  35
HETATM   35  C26 UNL     1       0.523  50.906 -17.150  1.00  0.00     0.122 C 
BRANCH  35  36
HETATM   36  C27 UNL     1      -0.413  50.104 -18.051  1.00  0.00     0.020 C 
BRANCH  36  37
HETATM   37  C28 UNL     1      -0.551  50.696 -19.458  1.00  0.00     0.002 C 
BRANCH  37  38
HETATM   38  C29 UNL     1      -0.553  52.225 -19.538  1.00  0.00     0.010 C 
BRANCH  38  39
HETATM   39  C30 UNL     1       0.187  52.769 -20.759  1.00  0.00     0.110 C 
BRANCH  39  40
HETATM   40  C31 UNL     1       1.245  53.767 -20.368  1.00  0.00     0.139 C 
HETATM   41  O7  UNL     1       1.797  54.586 -21.083  1.00  0.00    -0.650 OA
BRANCH  40  42
HETATM   42  O8  UNL     1       1.553  53.682 -19.059  1.00  0.00    -0.776 OA
HETATM   43  H45 UNL     1       2.239  54.372 -18.931  1.00  0.00     0.167 HD
ENDBRANCH  40  42
ENDBRANCH  39  40
ENDBRANCH  38  39
ENDBRANCH  37  38
ENDBRANCH  36  37
ENDBRANCH  35  36
ENDBRANCH  33  35
ENDBRANCH  30  31
ENDBRANCH  29  30
ENDBRANCH  27  29
ENDBRANCH  26  27
ENDBRANCH  25  26
ENDBRANCH  23  25
ENDBRANCH  20  23
TORSDOF 15
ENDMDL
MODEL 5
REMARK minimizedAffinity -7.03277969
REMARK CNNscore 0.405830652
REMARK CNNaffinity 6.34777498
REMARK  15 active torsions:
REMARK  status: ('A' for Active; 'I' for Inactive)
REMARK    1  A    between atoms: C19_20  and  O2_21 
REMARK    2  A    between atoms: C19_20  and  C20_22 
REMARK    3  A    between atoms: C20_22  and  C21_24 
REMARK    4  A    between atoms: C21_24  and  O4_25 
REMARK    5  A    between atoms: O4_25  and  C22_26 
REMARK    6  A    between atoms: C22_26  and  C23_28 
REMARK    7  A    between atoms: C23_28  and  C24_29 
REMARK    8  A    between atoms: C24_29  and  C25_30 
REMARK       I    between atoms: C25_30  and  N1_32 
REMARK    9  A    between atoms: N1_32  and  C26_33 
REMARK   10  A    between atoms: C26_33  and  C27_34 
REMARK   11  A    between atoms: C27_34  and  C28_35 
REMARK   12  A    between atoms: C28_35  and  C29_36 
REMARK   13  A    between atoms: C29_36  and  C30_37 
REMARK   14  A    between atoms: C30_37  and  C31_38 
REMARK   15  A    between atoms: C31_38  and  O8_40 
ROOT
HETATM    1  C1  UNL     1       1.663  51.538 -26.263  1.00  0.00     0.020 C 
HETATM    2  C2  UNL     1       0.146  51.794 -26.030  1.00  0.00    -0.016 C 
HETATM    3  C3  UNL     1      -0.524  51.921 -27.430  1.00  0.00     0.022 C 
HETATM    4  C4  UNL     1      -0.164  53.192 -28.187  1.00  0.00     0.084 C 
HETATM    5  C5  UNL     1      -0.473  54.401 -27.348  1.00  0.00     0.149 C 
HETATM    6  O1  UNL     1      -0.791  55.481 -27.839  1.00  0.00    -0.293 OA
HETATM    7  C6  UNL     1      -0.287  54.293 -25.884  1.00  0.00     0.053 C 
HETATM    8  C7  UNL     1       0.043  53.133 -25.286  1.00  0.00    -0.068 C 
HETATM    9  C8  UNL     1       0.351  53.171 -23.808  1.00  0.00     0.035 C 
HETATM   10  C9  UNL     1       0.280  51.822 -23.110  1.00  0.00     0.010 C 
HETATM   11  C10 UNL     1      -0.771  50.888 -23.705  1.00  0.00    -0.004 C 
HETATM   12  C11 UNL     1      -0.430  50.556 -25.191  1.00  0.00     0.002 C 
HETATM   13  C12 UNL     1      -1.558  49.703 -25.837  1.00  0.00     0.007 C 
HETATM   14  C13 UNL     1      -2.999  50.172 -25.573  1.00  0.00     0.013 C 
HETATM   15  C14 UNL     1      -3.276  50.405 -24.075  1.00  0.00    -0.002 C 
HETATM   16  C15 UNL     1      -3.238  49.054 -23.312  1.00  0.00     0.019 C 
HETATM   17  C16 UNL     1      -2.208  51.419 -23.590  1.00  0.00     0.002 C 
HETATM   18  C17 UNL     1      -2.706  51.834 -22.212  1.00  0.00     0.009 C 
HETATM   19  C18 UNL     1      -4.238  51.853 -22.350  1.00  0.00     0.047 C 
HETATM   20  C19 UNL     1      -4.579  51.188 -23.715  1.00  0.00     0.128 C 
ENDROOT
BRANCH  20  21
HETATM   21  O2  UNL     1      -4.795  52.235 -24.666  1.00  0.00    -0.381 OA
HETATM   22  H27 UNL     1      -5.519  52.802 -24.338  1.00  0.00     0.211 HD
ENDBRANCH  20  21
BRANCH  20  23
HETATM   23  C20 UNL     1      -5.857  50.322 -23.642  1.00  0.00     0.185 C 
HETATM   24  O3  UNL     1      -6.809  50.618 -22.914  1.00  0.00    -0.292 OA
BRANCH  23  25
HETATM   25  C21 UNL     1      -5.891  49.062 -24.509  1.00  0.00     0.260 C 
BRANCH  25  26
HETATM   26  O4  UNL     1      -7.130  48.362 -24.395  1.00  0.00    -0.314 OA
BRANCH  26  27
HETATM   27  C22 UNL     1      -7.220  47.577 -23.285  1.00  0.00     0.259 C 
HETATM   28  O5  UNL     1      -6.386  46.749 -22.945  1.00  0.00    -0.265 OA
BRANCH  27  29
HETATM   29  C23 UNL     1      -8.508  47.831 -22.560  1.00  0.00     0.120 C 
BRANCH  29  30
HETATM   30  C24 UNL     1      -9.379  46.586 -22.619  1.00  0.00     0.112 C 
BRANCH  30  31
HETATM   31  C25 UNL     1     -10.645  46.838 -23.408  1.00  0.00     0.217 C 
HETATM   32  O6  UNL     1     -10.652  47.291 -24.547  1.00  0.00    -0.274 OA
HETATM   33  N1  UNL     1     -11.791  46.511 -22.712  1.00  0.00    -0.361 N 
HETATM   34  H34 UNL     1     -11.690  45.917 -21.900  1.00  0.00     0.162 HD
BRANCH  33  35
HETATM   35  C26 UNL     1     -13.087  46.576 -23.358  1.00  0.00     0.122 C 
BRANCH  35  36
HETATM   36  C27 UNL     1     -14.129  47.223 -22.450  1.00  0.00     0.020 C 
BRANCH  36  37
HETATM   37  C28 UNL     1     -13.586  47.569 -21.059  1.00  0.00     0.002 C 
BRANCH  37  38
HETATM   38  C29 UNL     1     -14.234  46.824 -19.889  1.00  0.00     0.010 C 
BRANCH  38  39
HETATM   39  C30 UNL     1     -13.299  46.636 -18.696  1.00  0.00     0.110 C 
BRANCH  39  40
HETATM   40  C31 UNL     1     -13.665  47.544 -17.552  1.00  0.00     0.139 C 
HETATM   41  O7  UNL     1     -14.515  48.417 -17.538  1.00  0.00    -0.650 OA
BRANCH  40  42
HETATM   42  O8  UNL     1     -12.924  47.290 -16.455  1.00  0.00    -0.776 OA
HETATM   43  H45 UNL     1     -13.254  47.933 -15.792  1.00  0.00     0.167 HD
ENDBRANCH  40  42
ENDBRANCH  39  40
ENDBRANCH  38  39
ENDBRANCH  37  38
ENDBRANCH  36  37
ENDBRANCH  35  36
ENDBRANCH  33  35
ENDBRANCH  30  31
ENDBRANCH  29  30
ENDBRANCH  27  29
ENDBRANCH  26  27
ENDBRANCH  25  26
ENDBRANCH  23  25
ENDBRANCH  20  23
TORSDOF 15
ENDMDL
MODEL 6
REMARK minimizedAffinity -6.846766
REMARK CNNscore 0.353409141
REMARK CNNaffinity 6.23189688
REMARK  15 active torsions:
REMARK  status: ('A' for Active; 'I' for Inactive)
REMARK    1  A    between atoms: C19_20  and  O2_21 
REMARK    2  A    between atoms: C19_20  and  C20_22 
REMARK    3  A    between atoms: C20_22  and  C21_24 
REMARK    4  A    between atoms: C21_24  and  O4_25 
REMARK    5  A    between atoms: O4_25  and  C22_26 
REMARK    6  A    between atoms: C22_26  and  C23_28 
REMARK    7  A    between atoms: C23_28  and  C24_29 
REMARK    8  A    between atoms: C24_29  and  C25_30 
REMARK       I    between atoms: C25_30  and  N1_32 
REMARK    9  A    between atoms: N1_32  and  C26_33 
REMARK   10  A    between atoms: C26_33  and  C27_34 
REMARK   11  A    between atoms: C27_34  and  C28_35 
REMARK   12  A    between atoms: C28_35  and  C29_36 
REMARK   13  A    between atoms: C29_36  and  C30_37 
REMARK   14  A    between atoms: C30_37  and  C31_38 
REMARK   15  A    between atoms: C31_38  and  O8_40 
ROOT
HETATM    1  C1  UNL     1      -1.463  53.068  -7.872  1.00  0.00     0.020 C 
HETATM    2  C2  UNL     1      -1.090  52.722  -9.342  1.00  0.00    -0.016 C 
HETATM    3  C3  UNL     1       0.424  52.359  -9.365  1.00  0.00     0.022 C 
HETATM    4  C4  UNL     1       1.357  53.541  -9.136  1.00  0.00     0.084 C 
HETATM    5  C5  UNL     1       1.065  54.632 -10.129  1.00  0.00     0.149 C 
HETATM    6  O1  UNL     1       1.929  55.407 -10.531  1.00  0.00    -0.293 OA
HETATM    7  C6  UNL     1      -0.339  54.825 -10.552  1.00  0.00     0.053 C 
HETATM    8  C7  UNL     1      -1.327  53.999 -10.160  1.00  0.00    -0.068 C 
HETATM    9  C8  UNL     1      -2.742  54.375 -10.531  1.00  0.00     0.035 C 
HETATM   10  C9  UNL     1      -3.741  53.230 -10.463  1.00  0.00     0.010 C 
HETATM   11  C10 UNL     1      -3.133  51.876 -10.818  1.00  0.00    -0.004 C 
HETATM   12  C11 UNL     1      -2.015  51.495  -9.800  1.00  0.00     0.002 C 
HETATM   13  C12 UNL     1      -1.311  50.174 -10.223  1.00  0.00     0.007 C 
HETATM   14  C13 UNL     1      -0.929  50.056 -11.709  1.00  0.00     0.013 C 
HETATM   15  C14 UNL     1      -2.109  50.375 -12.646  1.00  0.00    -0.002 C 
HETATM   16  C15 UNL     1      -3.203  49.283 -12.513  1.00  0.00     0.019 C 
HETATM   17  C16 UNL     1      -2.600  51.792 -12.257  1.00  0.00     0.002 C 
HETATM   18  C17 UNL     1      -3.545  52.170 -13.389  1.00  0.00     0.009 C 
HETATM   19  C18 UNL     1      -2.906  51.548 -14.643  1.00  0.00     0.047 C 
HETATM   20  C19 UNL     1      -1.766  50.610 -14.153  1.00  0.00     0.128 C 
ENDROOT
BRANCH  20  21
HETATM   21  O2  UNL     1      -0.534  51.328 -14.263  1.00  0.00    -0.381 OA
HETATM   22  H27 UNL     1      -0.418  51.597 -15.195  1.00  0.00     0.211 HD
ENDBRANCH  20  21
BRANCH  20  23
HETATM   23  C20 UNL     1      -1.660  49.323 -15.002  1.00  0.00     0.185 C 
HETATM   24  O3  UNL     1      -1.121  48.298 -14.575  1.00  0.00    -0.292 OA
BRANCH  23  25
HETATM   25  C21 UNL     1      -2.244  49.375 -16.415  1.00  0.00     0.260 C 
BRANCH  25  26
HETATM   26  O4  UNL     1      -1.285  49.011 -17.409  1.00  0.00    -0.314 OA
BRANCH  26  27
HETATM   27  C22 UNL     1      -0.387  49.994 -17.695  1.00  0.00     0.259 C 
HETATM   28  O5  UNL     1       0.456  50.420 -16.917  1.00  0.00    -0.265 OA
BRANCH  27  29
HETATM   29  C23 UNL     1      -0.604  50.523 -19.081  1.00  0.00     0.120 C 
BRANCH  29  30
HETATM   30  C24 UNL     1      -2.015  51.076 -19.201  1.00  0.00     0.112 C 
BRANCH  30  31
HETATM   31  C25 UNL     1      -2.589  50.827 -20.578  1.00  0.00     0.217 C 
HETATM   32  O6  UNL     1      -1.971  51.040 -21.615  1.00  0.00    -0.274 OA
HETATM   33  N1  UNL     1      -3.880  50.341 -20.548  1.00  0.00    -0.361 N 
HETATM   34  H34 UNL     1      -4.214  49.958 -19.672  1.00  0.00     0.162 HD
BRANCH  33  35
HETATM   35  C26 UNL     1      -4.541  49.933 -21.772  1.00  0.00     0.122 C 
BRANCH  35  36
HETATM   36  C27 UNL     1      -3.769  48.821 -22.476  1.00  0.00     0.020 C 
BRANCH  36  37
HETATM   37  C28 UNL     1      -4.082  48.721 -23.972  1.00  0.00     0.002 C 
BRANCH  37  38
HETATM   38  C29 UNL     1      -2.875  48.806 -24.911  1.00  0.00     0.010 C 
BRANCH  38  39
HETATM   39  C30 UNL     1      -3.194  48.402 -26.349  1.00  0.00     0.110 C 
BRANCH  39  40
HETATM   40  C31 UNL     1      -3.558  49.594 -27.194  1.00  0.00     0.139 C 
HETATM   41  O7  UNL     1      -3.674  49.640 -28.406  1.00  0.00    -0.650 OA
BRANCH  40  42
HETATM   42  O8  UNL     1      -3.769  50.693 -26.442  1.00  0.00    -0.776 OA
HETATM   43  H45 UNL     1      -3.997  51.388 -27.096  1.00  0.00     0.167 HD
ENDBRANCH  40  42
ENDBRANCH  39  40
ENDBRANCH  38  39
ENDBRANCH  37  38
ENDBRANCH  36  37
ENDBRANCH  35  36
ENDBRANCH  33  35
ENDBRANCH  30  31
ENDBRANCH  29  30
ENDBRANCH  27  29
ENDBRANCH  26  27
ENDBRANCH  25  26
ENDBRANCH  23  25
ENDBRANCH  20  23
TORSDOF 15
ENDMDL
MODEL 7
REMARK minimizedAffinity -7.25098467
REMARK CNNscore 0.343899429
REMARK CNNaffinity 6.5144124
REMARK  15 active torsions:
REMARK  status: ('A' for Active; 'I' for Inactive)
REMARK    1  A    between atoms: C19_20  and  O2_21 
REMARK    2  A    between atoms: C19_20  and  C20_22 
REMARK    3  A    between atoms: C20_22  and  C21_24 
REMARK    4  A    between atoms: C21_24  and  O4_25 
REMARK    5  A    between atoms: O4_25  and  C22_26 
REMARK    6  A    between atoms: C22_26  and  C23_28 
REMARK    7  A    between atoms: C23_28  and  C24_29 
REMARK    8  A    between atoms: C24_29  and  C25_30 
REMARK       I    between atoms: C25_30  and  N1_32 
REMARK    9  A    between atoms: N1_32  and  C26_33 
REMARK   10  A    between atoms: C26_33  and  C27_34 
REMARK   11  A    between atoms: C27_34  and  C28_35 
REMARK   12  A    between atoms: C28_35  and  C29_36 
REMARK   13  A    between atoms: C29_36  and  C30_37 
REMARK   14  A    between atoms: C30_37  and  C31_38 
REMARK   15  A    between atoms: C31_38  and  O8_40 
ROOT
HETATM    1  C1  UNL     1      -3.807  48.471 -25.437  1.00  0.00     0.020 C 
HETATM    2  C2  UNL     1      -3.870  48.885 -23.938  1.00  0.00    -0.016 C 
HETATM    3  C3  UNL     1      -4.894  47.943 -23.239  1.00  0.00     0.022 C 
HETATM    4  C4  UNL     1      -6.345  48.189 -23.632  1.00  0.00     0.084 C 
HETATM    5  C5  UNL     1      -6.710  49.628 -23.395  1.00  0.00     0.149 C 
HETATM    6  O1  UNL     1      -7.851  49.981 -23.109  1.00  0.00    -0.293 OA
HETATM    7  C6  UNL     1      -5.665  50.652 -23.613  1.00  0.00     0.053 C 
HETATM    8  C7  UNL     1      -4.392  50.328 -23.910  1.00  0.00    -0.068 C 
HETATM    9  C8  UNL     1      -3.446  51.452 -24.256  1.00  0.00     0.035 C 
HETATM   10  C9  UNL     1      -1.971  51.098 -24.147  1.00  0.00     0.010 C 
HETATM   11  C10 UNL     1      -1.673  50.086 -23.043  1.00  0.00    -0.004 C 
HETATM   12  C11 UNL     1      -2.393  48.733 -23.333  1.00  0.00     0.002 C 
HETATM   13  C12 UNL     1      -2.191  47.738 -22.155  1.00  0.00     0.007 C 
HETATM   14  C13 UNL     1      -2.392  48.312 -20.741  1.00  0.00     0.013 C 
HETATM   15  C14 UNL     1      -1.588  49.606 -20.512  1.00  0.00    -0.002 C 
HETATM   16  C15 UNL     1      -0.069  49.294 -20.514  1.00  0.00     0.019 C 
HETATM   17  C16 UNL     1      -2.019  50.587 -21.633  1.00  0.00     0.002 C 
HETATM   18  C17 UNL     1      -1.435  51.921 -21.188  1.00  0.00     0.009 C 
HETATM   19  C18 UNL     1      -1.562  51.900 -19.654  1.00  0.00     0.047 C 
HETATM   20  C19 UNL     1      -1.962  50.451 -19.252  1.00  0.00     0.128 C 
ENDROOT
BRANCH  20  21
HETATM   21  O2  UNL     1      -3.379  50.430 -19.056  1.00  0.00    -0.381 OA
HETATM   22  H27 UNL     1      -3.602  51.083 -18.364  1.00  0.00     0.211 HD
ENDBRANCH  20  21
BRANCH  20  23
HETATM   23  C20 UNL     1      -1.280  49.997 -17.942  1.00  0.00     0.185 C 
HETATM   24  O3  UNL     1      -1.353  48.834 -17.533  1.00  0.00    -0.292 OA
BRANCH  23  25
HETATM   25  C21 UNL     1      -0.514  51.062 -17.154  1.00  0.00     0.260 C 
BRANCH  25  26
HETATM   26  O4  UNL     1       0.788  50.616 -16.771  1.00  0.00    -0.314 OA
BRANCH  26  27
HETATM   27  C22 UNL     1       1.533  51.566 -16.141  1.00  0.00     0.259 C 
HETATM   28  O5  UNL     1       2.448  52.194 -16.657  1.00  0.00    -0.265 OA
BRANCH  27  29
HETATM   29  C23 UNL     1       1.113  51.704 -14.708  1.00  0.00     0.120 C 
BRANCH  29  30
HETATM   30  C24 UNL     1       1.727  50.581 -13.887  1.00  0.00     0.112 C 
BRANCH  30  31
HETATM   31  C25 UNL     1       2.310  51.103 -12.592  1.00  0.00     0.217 C 
HETATM   32  O6  UNL     1       3.376  50.716 -12.128  1.00  0.00    -0.274 OA
HETATM   33  N1  UNL     1       1.515  52.053 -11.984  1.00  0.00    -0.361 N 
HETATM   34  H34 UNL     1       0.799  52.492 -12.547  1.00  0.00     0.162 HD
BRANCH  33  35
HETATM   35  C26 UNL     1       1.976  52.746 -10.797  1.00  0.00     0.122 C 
BRANCH  35  36
HETATM   36  C27 UNL     1       2.957  53.861 -11.151  1.00  0.00     0.020 C 
BRANCH  36  37
HETATM   37  C28 UNL     1       2.615  55.200 -10.489  1.00  0.00     0.002 C 
BRANCH  37  38
HETATM   38  C29 UNL     1       3.808  56.012  -9.977  1.00  0.00     0.010 C 
BRANCH  38  39
HETATM   39  C30 UNL     1       5.160  55.402 -10.345  1.00  0.00     0.110 C 
BRANCH  39  40
HETATM   40  C31 UNL     1       5.935  54.989  -9.122  1.00  0.00     0.139 C 
HETATM   41  O7  UNL     1       5.523  54.881  -7.980  1.00  0.00    -0.650 OA
BRANCH  40  42
HETATM   42  O8  UNL     1       7.224  54.720  -9.415  1.00  0.00    -0.776 OA
HETATM   43  H45 UNL     1       7.614  54.465  -8.551  1.00  0.00     0.167 HD
ENDBRANCH  40  42
ENDBRANCH  39  40
ENDBRANCH  38  39
ENDBRANCH  37  38
ENDBRANCH  36  37
ENDBRANCH  35  36
ENDBRANCH  33  35
ENDBRANCH  30  31
ENDBRANCH  29  30
ENDBRANCH  27  29
ENDBRANCH  26  27
ENDBRANCH  25  26
ENDBRANCH  23  25
ENDBRANCH  20  23
TORSDOF 15
ENDMDL
MODEL 8
REMARK minimizedAffinity -7.7506938
REMARK CNNscore 0.30880478
REMARK CNNaffinity 6.95747137
REMARK  15 active torsions:
REMARK  status: ('A' for Active; 'I' for Inactive)
REMARK    1  A    between atoms: C19_20  and  O2_21 
REMARK    2  A    between atoms: C19_20  and  C20_22 
REMARK    3  A    between atoms: C20_22  and  C21_24 
REMARK    4  A    between atoms: C21_24  and  O4_25 
REMARK    5  A    between atoms: O4_25  and  C22_26 
REMARK    6  A    between atoms: C22_26  and  C23_28 
REMARK    7  A    between atoms: C23_28  and  C24_29 
REMARK    8  A    between atoms: C24_29  and  C25_30 
REMARK       I    between atoms: C25_30  and  N1_32 
REMARK    9  A    between atoms: N1_32  and  C26_33 
REMARK   10  A    between atoms: C26_33  and  C27_34 
REMARK   11  A    between atoms: C27_34  and  C28_35 
REMARK   12  A    between atoms: C28_35  and  C29_36 
REMARK   13  A    between atoms: C29_36  and  C30_37 
REMARK   14  A    between atoms: C30_37  and  C31_38 
REMARK   15  A    between atoms: C31_38  and  O8_40 
ROOT
HETATM    1  C1  UNL     1       0.836  50.719 -26.232  1.00  0.00     0.020 C 
HETATM    2  C2  UNL     1      -0.657  51.045 -25.938  1.00  0.00    -0.016 C 
HETATM    3  C3  UNL     1      -1.427  50.950 -27.287  1.00  0.00     0.022 C 
HETATM    4  C4  UNL     1      -1.112  52.067 -28.273  1.00  0.00     0.084 C 
HETATM    5  C5  UNL     1      -1.346  53.407 -27.630  1.00  0.00     0.149 C 
HETATM    6  O1  UNL     1      -1.689  54.396 -28.271  1.00  0.00    -0.293 OA
HETATM    7  C6  UNL     1      -1.053  53.542 -26.185  1.00  0.00     0.053 C 
HETATM    8  C7  UNL     1      -0.691  52.491 -25.425  1.00  0.00    -0.068 C 
HETATM    9  C8  UNL     1      -0.274  52.769 -24.001  1.00  0.00     0.035 C 
HETATM   10  C9  UNL     1      -0.307  51.558 -23.082  1.00  0.00     0.010 C 
HETATM   11  C10 UNL     1      -1.409  50.562 -23.434  1.00  0.00    -0.004 C 
HETATM   12  C11 UNL     1      -1.182  49.978 -24.863  1.00  0.00     0.002 C 
HETATM   13  C12 UNL     1      -2.363  49.054 -25.274  1.00  0.00     0.007 C 
HETATM   14  C13 UNL     1      -3.776  49.593 -24.990  1.00  0.00     0.013 C 
HETATM   15  C14 UNL     1      -3.938  50.079 -23.537  1.00  0.00    -0.002 C 
HETATM   16  C15 UNL     1      -3.857  48.875 -22.562  1.00  0.00     0.019 C 
HETATM   17  C16 UNL     1      -2.828  51.136 -23.308  1.00  0.00     0.002 C 
HETATM   18  C17 UNL     1      -3.218  51.788 -21.988  1.00  0.00     0.009 C 
HETATM   19  C18 UNL     1      -4.756  51.817 -22.017  1.00  0.00     0.047 C 
HETATM   20  C19 UNL     1      -5.203  50.941 -23.222  1.00  0.00     0.128 C 
ENDROOT
BRANCH  20  21
HETATM   21  O2  UNL     1      -5.478  51.818 -24.318  1.00  0.00    -0.381 OA
HETATM   22  H27 UNL     1      -6.171  52.448 -24.040  1.00  0.00     0.211 HD
ENDBRANCH  20  21
BRANCH  20  23
HETATM   23  C20 UNL     1      -6.481  50.128 -22.914  1.00  0.00     0.185 C 
HETATM   24  O3  UNL     1      -7.029  50.162 -21.808  1.00  0.00    -0.292 OA
BRANCH  23  25
HETATM   25  C21 UNL     1      -7.039  49.259 -24.042  1.00  0.00     0.260 C 
BRANCH  25  26
HETATM   26  O4  UNL     1      -8.467  49.252 -24.061  1.00  0.00    -0.314 OA
BRANCH  26  27
HETATM   27  C22 UNL     1      -9.005  48.166 -24.683  1.00  0.00     0.259 C 
HETATM   28  O5  UNL     1      -9.444  47.178 -24.109  1.00  0.00    -0.265 OA
BRANCH  27  29
HETATM   29  C23 UNL     1      -8.939  48.321 -26.173  1.00  0.00     0.120 C 
BRANCH  29  30
HETATM   30  C24 UNL     1      -7.852  47.417 -26.732  1.00  0.00     0.112 C 
BRANCH  30  31
HETATM   31  C25 UNL     1      -7.934  47.326 -28.240  1.00  0.00     0.217 C 
HETATM   32  O6  UNL     1      -8.139  46.278 -28.842  1.00  0.00    -0.274 OA
HETATM   33  N1  UNL     1      -7.750  48.540 -28.868  1.00  0.00    -0.361 N 
HETATM   34  H34 UNL     1      -7.843  49.376 -28.304  1.00  0.00     0.162 HD
BRANCH  33  35
HETATM   35  C26 UNL     1      -7.916  48.659 -30.303  1.00  0.00     0.122 C 
BRANCH  35  36
HETATM   36  C27 UNL     1      -7.256  47.494 -31.036  1.00  0.00     0.020 C 
BRANCH  36  37
HETATM   37  C28 UNL     1      -6.160  47.936 -32.011  1.00  0.00     0.002 C 
BRANCH  37  38
HETATM   38  C29 UNL     1      -5.045  46.917 -32.264  1.00  0.00     0.010 C 
BRANCH  38  39
HETATM   39  C30 UNL     1      -4.510  46.944 -33.694  1.00  0.00     0.110 C 
BRANCH  39  40
HETATM   40  C31 UNL     1      -3.366  47.913 -33.843  1.00  0.00     0.139 C 
HETATM   41  O7  UNL     1      -2.205  47.748 -33.514  1.00  0.00    -0.650 OA
BRANCH  40  42
HETATM   42  O8  UNL     1      -3.760  49.066 -34.420  1.00  0.00    -0.776 OA
HETATM   43  H45 UNL     1      -2.939  49.601 -34.462  1.00  0.00     0.167 HD
ENDBRANCH  40  42
ENDBRANCH  39  40
ENDBRANCH  38  39
ENDBRANCH  37  38
ENDBRANCH  36  37
ENDBRANCH  35  36
ENDBRANCH  33  35
ENDBRANCH  30  31
ENDBRANCH  29  30
ENDBRANCH  27  29
ENDBRANCH  26  27
ENDBRANCH  25  26
ENDBRANCH  23  25
ENDBRANCH  20  23
TORSDOF 15
ENDMDL
MODEL 9
REMARK minimizedAffinity -7.06788874
REMARK CNNscore 0.244124308
REMARK CNNaffinity 5.8718648
REMARK  15 active torsions:
REMARK  status: ('A' for Active; 'I' for Inactive)
REMARK    1  A    between atoms: C19_20  and  O2_21 
REMARK    2  A    between atoms: C19_20  and  C20_22 
REMARK    3  A    between atoms: C20_22  and  C21_24 
REMARK    4  A    between atoms: C21_24  and  O4_25 
REMARK    5  A    between atoms: O4_25  and  C22_26 
REMARK    6  A    between atoms: C22_26  and  C23_28 
REMARK    7  A    between atoms: C23_28  and  C24_29 
REMARK    8  A    between atoms: C24_29  and  C25_30 
REMARK       I    between atoms: C25_30  and  N1_32 
REMARK    9  A    between atoms: N1_32  and  C26_33 
REMARK   10  A    between atoms: C26_33  and  C27_34 
REMARK   11  A    between atoms: C27_34  and  C28_35 
REMARK   12  A    between atoms: C28_35  and  C29_36 
REMARK   13  A    between atoms: C29_36  and  C30_37 
REMARK   14  A    between atoms: C30_37  and  C31_38 
REMARK   15  A    between atoms: C31_38  and  O8_40 
ROOT
HETATM    1  C1  UNL     1      -3.831  48.545 -25.291  1.00  0.00     0.020 C 
HETATM    2  C2  UNL     1      -3.855  48.952 -23.789  1.00  0.00    -0.016 C 
HETATM    3  C3  UNL     1      -4.911  48.054 -23.081  1.00  0.00     0.022 C 
HETATM    4  C4  UNL     1      -6.355  48.367 -23.454  1.00  0.00     0.084 C 
HETATM    5  C5  UNL     1      -6.652  49.820 -23.204  1.00  0.00     0.149 C 
HETATM    6  O1  UNL     1      -7.771  50.222 -22.901  1.00  0.00    -0.293 OA
HETATM    7  C6  UNL     1      -5.564  50.797 -23.430  1.00  0.00     0.053 C 
HETATM    8  C7  UNL     1      -4.311  50.417 -23.746  1.00  0.00    -0.068 C 
HETATM    9  C8  UNL     1      -3.320  51.500 -24.098  1.00  0.00     0.035 C 
HETATM   10  C9  UNL     1      -1.861  51.078 -24.011  1.00  0.00     0.010 C 
HETATM   11  C10 UNL     1      -1.595  50.048 -22.917  1.00  0.00    -0.004 C 
HETATM   12  C11 UNL     1      -2.379  48.730 -23.204  1.00  0.00     0.002 C 
HETATM   13  C12 UNL     1      -2.207  47.720 -22.034  1.00  0.00     0.007 C 
HETATM   14  C13 UNL     1      -2.364  48.294 -20.615  1.00  0.00     0.013 C 
HETATM   15  C14 UNL     1      -1.499  49.549 -20.390  1.00  0.00    -0.002 C 
HETATM   16  C15 UNL     1       0.005  49.169 -20.413  1.00  0.00     0.019 C 
HETATM   17  C16 UNL     1      -1.899  50.555 -21.499  1.00  0.00     0.002 C 
HETATM   18  C17 UNL     1      -1.250  51.859 -21.055  1.00  0.00     0.009 C 
HETATM   19  C18 UNL     1      -1.358  51.834 -19.520  1.00  0.00     0.047 C 
HETATM   20  C19 UNL     1      -1.817  50.403 -19.120  1.00  0.00     0.128 C 
ENDROOT
BRANCH  20  21
HETATM   21  O2  UNL     1      -3.231  50.445 -18.906  1.00  0.00    -0.381 OA
HETATM   22  H27 UNL     1      -3.416  51.102 -18.207  1.00  0.00     0.211 HD
ENDBRANCH  20  21
BRANCH  20  23
HETATM   23  C20 UNL     1      -1.140  49.911 -17.822  1.00  0.00     0.185 C 
HETATM   24  O3  UNL     1       0.036  50.177 -17.553  1.00  0.00    -0.292 OA
BRANCH  23  25
HETATM   25  C21 UNL     1      -1.989  49.060 -16.876  1.00  0.00     0.260 C 
BRANCH  25  26
HETATM   26  O4  UNL     1      -1.899  49.504 -15.522  1.00  0.00    -0.314 OA
BRANCH  26  27
HETATM   27  C22 UNL     1      -2.426  50.743 -15.312  1.00  0.00     0.259 C 
HETATM   28  O5  UNL     1      -3.373  51.213 -15.927  1.00  0.00    -0.265 OA
BRANCH  27  29
HETATM   29  C23 UNL     1      -1.653  51.475 -14.256  1.00  0.00     0.120 C 
BRANCH  29  30
HETATM   30  C24 UNL     1      -2.301  51.247 -12.900  1.00  0.00     0.112 C 
BRANCH  30  31
HETATM   31  C25 UNL     1      -2.895  52.525 -12.352  1.00  0.00     0.217 C 
HETATM   32  O6  UNL     1      -3.898  53.056 -12.816  1.00  0.00    -0.274 OA
HETATM   33  N1  UNL     1      -2.191  53.036 -11.281  1.00  0.00    -0.361 N 
HETATM   34  H34 UNL     1      -1.545  52.415 -10.809  1.00  0.00     0.162 HD
BRANCH  33  35
HETATM   35  C26 UNL     1      -2.687  54.189 -10.557  1.00  0.00     0.122 C 
BRANCH  35  36
HETATM   36  C27 UNL     1      -1.578  55.208 -10.310  1.00  0.00     0.020 C 
BRANCH  36  37
HETATM   37  C28 UNL     1      -0.440  54.664  -9.440  1.00  0.00     0.002 C 
BRANCH  37  38
HETATM   38  C29 UNL     1       0.033  55.585  -8.312  1.00  0.00     0.010 C 
BRANCH  38  39
HETATM   39  C30 UNL     1       1.513  55.953  -8.408  1.00  0.00     0.110 C 
BRANCH  39  40
HETATM   40  C31 UNL     1       2.000  56.631  -7.155  1.00  0.00     0.139 C 
HETATM   41  O7  UNL     1       1.848  57.796  -6.832  1.00  0.00    -0.650 OA
BRANCH  40  42
HETATM   42  O8  UNL     1       2.666  55.777  -6.352  1.00  0.00    -0.776 OA
HETATM   43  H45 UNL     1       2.925  56.329  -5.583  1.00  0.00     0.167 HD
ENDBRANCH  40  42
ENDBRANCH  39  40
ENDBRANCH  38  39
ENDBRANCH  37  38
ENDBRANCH  36  37
ENDBRANCH  35  36
ENDBRANCH  33  35
ENDBRANCH  30  31
ENDBRANCH  29  30
ENDBRANCH  27  29
ENDBRANCH  26  27
ENDBRANCH  25  26
ENDBRANCH  23  25
ENDBRANCH  20  23
TORSDOF 15
ENDMDL
