MODEL 1
REMARK minimizedAffinity -9.77442646
REMARK  6 active torsions:
REMARK  status: ('A' for Active; 'I' for Inactive)
REMARK    1  A    between atoms: C2_2  and  C30_32 
REMARK    2  A    between atoms: C3_3  and  C4_4 
REMARK    3  A    between atoms: C4_4  and  C5_6 
REMARK    4  A    between atoms: C5_6  and  C6_7 
REMARK    5  A    between atoms: C6_7  and  C8_9 
REMARK    6  A    between atoms: C30_32  and  O4_34 
ROOT
HETATM    1  C8  UNL     1      -5.726   6.550  14.657  1.00  0.00    -0.001 C 
HETATM    2  C9  UNL     1      -6.326   7.517  13.596  1.00  0.00     0.007 C 
HETATM    3  C10 UNL     1      -5.151   8.254  12.928  1.00  0.00     0.015 C 
HETATM    4  C11 UNL     1      -3.929   7.938  13.816  1.00  0.00    -0.013 C 
HETATM    5  C12 UNL     1      -3.971   8.967  14.990  1.00  0.00     0.021 C 
HETATM    6  C13 UNL     1      -2.541   8.055  13.196  1.00  0.00    -0.070 C 
HETATM    7  C14 UNL     1      -2.264   8.897  12.188  1.00  0.00    -0.022 C 
HETATM    8  C15 UNL     1      -0.914   9.082  11.574  1.00  0.00     0.034 C 
HETATM    9  C16 UNL     1       0.288   8.367  12.246  1.00  0.00     0.013 C 
HETATM   10  C17 UNL     1       1.038   7.354  11.308  1.00  0.00     0.018 C 
HETATM   11  C18 UNL     1       1.551   8.081  10.040  1.00  0.00     0.023 C 
HETATM   12  C19 UNL     1       0.184   6.155  10.877  1.00  0.00     0.023 C 
HETATM   13  C20 UNL     1       2.286   6.812  12.029  1.00  0.00     0.135 C 
HETATM   14  O2  UNL     1       3.177   6.210  11.428  1.00  0.00    -0.297 OA
HETATM   15  C21 UNL     1       2.405   7.056  13.514  1.00  0.00     0.080 C 
HETATM   16  C22 UNL     1       1.053   6.818  14.162  1.00  0.00     0.017 C 
HETATM   17  C23 UNL     1      -0.026   7.840  13.704  1.00  0.00    -0.031 C 
HETATM   18  C24 UNL     1       0.045   9.065  14.663  1.00  0.00     0.016 C 
HETATM   19  C25 UNL     1      -1.448   7.168  13.777  1.00  0.00     0.024 C 
HETATM   20  C26 UNL     1      -1.810   6.590  15.171  1.00  0.00     0.010 C 
HETATM   21  C27 UNL     1      -3.236   6.007  15.313  1.00  0.00     0.011 C 
HETATM   22  C28 UNL     1      -4.227   6.450  14.218  1.00  0.00    -0.029 C 
HETATM   23  C29 UNL     1      -4.127   5.450  13.022  1.00  0.00     0.016 C 
ENDROOT
BRANCH   1  24
HETATM   24  C6  UNL     1      -6.566   5.253  14.824  1.00  0.00    -0.007 C 
HETATM   25  C7  UNL     1      -7.415   5.250  16.099  1.00  0.00     0.011 C 
BRANCH  24  26
HETATM   26  C5  UNL     1      -7.447   4.950  13.588  1.00  0.00     0.087 C 
BRANCH  26  27
HETATM   27  C4  UNL     1      -7.219   3.586  12.955  1.00  0.00     0.150 C 
HETATM   28  O1  UNL     1      -8.087   2.720  12.922  1.00  0.00    -0.293 OA
BRANCH  27  29
HETATM   29  C3  UNL     1      -5.855   3.329  12.411  1.00  0.00     0.063 C 
HETATM   30  C2  UNL     1      -5.513   2.240  11.698  1.00  0.00     0.015 C 
HETATM   31  C1  UNL     1      -6.420   1.128  11.264  1.00  0.00     0.055 C 
BRANCH  30  32
HETATM   32  C30 UNL     1      -4.091   2.186  11.290  1.00  0.00     0.171 C 
HETATM   33  O3  UNL     1      -3.455   3.087  10.772  1.00  0.00    -0.646 OA
BRANCH  32  34
HETATM   34  O4  UNL     1      -3.522   1.001  11.558  1.00  0.00    -0.773 OA
HETATM   35  H44 UNL     1      -2.595   1.106  11.255  1.00  0.00     0.167 HD
ENDBRANCH  32  34
ENDBRANCH  30  32
ENDBRANCH  27  29
ENDBRANCH  26  27
ENDBRANCH  24  26
ENDBRANCH   1  24
TORSDOF 6
ENDMDL
MODEL 2
REMARK minimizedAffinity -9.21682644
REMARK  6 active torsions:
REMARK  status: ('A' for Active; 'I' for Inactive)
REMARK    1  A    between atoms: C2_2  and  C30_32 
REMARK    2  A    between atoms: C3_3  and  C4_4 
REMARK    3  A    between atoms: C4_4  and  C5_6 
REMARK    4  A    between atoms: C5_6  and  C6_7 
REMARK    5  A    between atoms: C6_7  and  C8_9 
REMARK    6  A    between atoms: C30_32  and  O4_34 
ROOT
HETATM    1  C8  UNL     1      -3.634   5.510  13.128  1.00  0.00    -0.001 C 
HETATM    2  C9  UNL     1      -2.296   4.809  13.506  1.00  0.00     0.007 C 
HETATM    3  C10 UNL     1      -1.427   5.843  14.245  1.00  0.00     0.015 C 
HETATM    4  C11 UNL     1      -2.135   7.194  14.012  1.00  0.00    -0.013 C 
HETATM    5  C12 UNL     1      -1.644   7.704  12.619  1.00  0.00     0.021 C 
HETATM    6  C13 UNL     1      -1.868   8.325  14.998  1.00  0.00    -0.070 C 
HETATM    7  C14 UNL     1      -0.717   8.437  15.681  1.00  0.00    -0.022 C 
HETATM    8  C15 UNL     1      -0.387   9.548  16.626  1.00  0.00     0.034 C 
HETATM    9  C16 UNL     1      -1.376  10.740  16.710  1.00  0.00     0.013 C 
HETATM   10  C17 UNL     1      -1.985  10.967  18.141  1.00  0.00     0.018 C 
HETATM   11  C18 UNL     1      -0.854  11.198  19.172  1.00  0.00     0.023 C 
HETATM   12  C19 UNL     1      -2.870   9.813  18.630  1.00  0.00     0.023 C 
HETATM   13  C20 UNL     1      -2.838  12.249  18.140  1.00  0.00     0.135 C 
HETATM   14  O2  UNL     1      -3.209  12.787  19.184  1.00  0.00    -0.297 OA
HETATM   15  C21 UNL     1      -3.198  12.856  16.806  1.00  0.00     0.080 C 
HETATM   16  C22 UNL     1      -3.591  11.744  15.849  1.00  0.00     0.017 C 
HETATM   17  C23 UNL     1      -2.410  10.789  15.514  1.00  0.00    -0.031 C 
HETATM   18  C24 UNL     1      -1.661  11.376  14.281  1.00  0.00     0.016 C 
HETATM   19  C25 UNL     1      -2.973   9.356  15.183  1.00  0.00     0.024 C 
HETATM   20  C26 UNL     1      -4.026   9.332  14.044  1.00  0.00     0.010 C 
HETATM   21  C27 UNL     1      -4.533   7.933  13.621  1.00  0.00     0.011 C 
HETATM   22  C28 UNL     1      -3.642   6.758  14.072  1.00  0.00    -0.029 C 
HETATM   23  C29 UNL     1      -4.101   6.302  15.494  1.00  0.00     0.016 C 
ENDROOT
BRANCH   1  24
HETATM   24  C6  UNL     1      -4.842   4.532  13.137  1.00  0.00    -0.007 C 
HETATM   25  C7  UNL     1      -6.120   5.165  13.696  1.00  0.00     0.011 C 
BRANCH  24  26
HETATM   26  C5  UNL     1      -5.113   3.906  11.748  1.00  0.00     0.087 C 
BRANCH  26  27
HETATM   27  C4  UNL     1      -4.943   2.396  11.679  1.00  0.00     0.150 C 
HETATM   28  O1  UNL     1      -5.896   1.623  11.703  1.00  0.00    -0.293 OA
BRANCH  27  29
HETATM   29  C3  UNL     1      -3.543   1.889  11.631  1.00  0.00     0.063 C 
HETATM   30  C2  UNL     1      -2.564   2.424  10.878  1.00  0.00     0.015 C 
HETATM   31  C1  UNL     1      -2.664   3.642  10.008  1.00  0.00     0.055 C 
BRANCH  30  32
HETATM   32  C30 UNL     1      -1.260   1.732  10.968  1.00  0.00     0.171 C 
HETATM   33  O3  UNL     1      -0.215   2.213  11.371  1.00  0.00    -0.646 OA
BRANCH  32  34
HETATM   34  O4  UNL     1      -1.323   0.456  10.557  1.00  0.00    -0.773 OA
HETATM   35  H44 UNL     1      -0.411   0.119  10.681  1.00  0.00     0.167 HD
ENDBRANCH  32  34
ENDBRANCH  30  32
ENDBRANCH  27  29
ENDBRANCH  26  27
ENDBRANCH  24  26
ENDBRANCH   1  24
TORSDOF 6
ENDMDL
MODEL 3
REMARK minimizedAffinity -9.16032314
REMARK  6 active torsions:
REMARK  status: ('A' for Active; 'I' for Inactive)
REMARK    1  A    between atoms: C2_2  and  C30_32 
REMARK    2  A    between atoms: C3_3  and  C4_4 
REMARK    3  A    between atoms: C4_4  and  C5_6 
REMARK    4  A    between atoms: C5_6  and  C6_7 
REMARK    5  A    between atoms: C6_7  and  C8_9 
REMARK    6  A    between atoms: C30_32  and  O4_34 
ROOT
HETATM    1  C8  UNL     1      -3.612   7.599  14.430  1.00  0.00    -0.001 C 
HETATM    2  C9  UNL     1      -4.354   8.220  13.210  1.00  0.00     0.007 C 
HETATM    3  C10 UNL     1      -3.285   8.614  12.174  1.00  0.00     0.015 C 
HETATM    4  C11 UNL     1      -1.943   8.505  12.928  1.00  0.00    -0.013 C 
HETATM    5  C12 UNL     1      -1.767   9.854  13.694  1.00  0.00     0.021 C 
HETATM    6  C13 UNL     1      -0.672   8.311  12.108  1.00  0.00    -0.070 C 
HETATM    7  C14 UNL     1      -0.542   8.764  10.852  1.00  0.00    -0.022 C 
HETATM    8  C15 UNL     1       0.694   8.640  10.020  1.00  0.00     0.034 C 
HETATM    9  C16 UNL     1       1.971   8.087  10.706  1.00  0.00     0.013 C 
HETATM   10  C17 UNL     1       2.533   6.774  10.052  1.00  0.00     0.018 C 
HETATM   11  C18 UNL     1       2.850   7.016   8.556  1.00  0.00     0.023 C 
HETATM   12  C19 UNL     1       1.591   5.569  10.166  1.00  0.00     0.023 C 
HETATM   13  C20 UNL     1       3.867   6.395  10.720  1.00  0.00     0.135 C 
HETATM   14  O2  UNL     1       4.634   5.567  10.226  1.00  0.00    -0.297 OA
HETATM   15  C21 UNL     1       4.233   7.090  12.009  1.00  0.00     0.080 C 
HETATM   16  C22 UNL     1       3.000   7.176  12.890  1.00  0.00     0.017 C 
HETATM   17  C23 UNL     1       1.886   8.078  12.286  1.00  0.00    -0.031 C 
HETATM   18  C24 UNL     1       2.143   9.535  12.770  1.00  0.00     0.016 C 
HETATM   19  C25 UNL     1       0.479   7.575  12.781  1.00  0.00     0.024 C 
HETATM   20  C26 UNL     1       0.334   7.501  14.325  1.00  0.00     0.010 C 
HETATM   21  C27 UNL     1      -1.063   7.105  14.856  1.00  0.00     0.011 C 
HETATM   22  C28 UNL     1      -2.209   7.250  13.833  1.00  0.00    -0.029 C 
HETATM   23  C29 UNL     1      -2.330   5.916  13.029  1.00  0.00     0.016 C 
ENDROOT
BRANCH   1  24
HETATM   24  C6  UNL     1      -4.446   6.491  15.132  1.00  0.00    -0.007 C 
HETATM   25  C7  UNL     1      -5.771   7.010  15.701  1.00  0.00     0.011 C 
BRANCH  24  26
HETATM   26  C5  UNL     1      -4.693   5.264  14.222  1.00  0.00     0.087 C 
BRANCH  26  27
HETATM   27  C4  UNL     1      -6.068   5.210  13.574  1.00  0.00     0.150 C 
HETATM   28  O1  UNL     1      -6.775   6.205  13.443  1.00  0.00    -0.293 OA
BRANCH  27  29
HETATM   29  C3  UNL     1      -6.546   3.865  13.145  1.00  0.00     0.063 C 
HETATM   30  C2  UNL     1      -5.960   3.119  12.190  1.00  0.00     0.015 C 
HETATM   31  C1  UNL     1      -4.711   3.450  11.430  1.00  0.00     0.055 C 
BRANCH  30  32
HETATM   32  C30 UNL     1      -6.630   1.829  11.911  1.00  0.00     0.171 C 
HETATM   33  O3  UNL     1      -6.267   0.988  11.107  1.00  0.00    -0.646 OA
BRANCH  32  34
HETATM   34  O4  UNL     1      -7.727   1.644  12.661  1.00  0.00    -0.773 OA
HETATM   35  H44 UNL     1      -8.058   0.762  12.388  1.00  0.00     0.167 HD
ENDBRANCH  32  34
ENDBRANCH  30  32
ENDBRANCH  27  29
ENDBRANCH  26  27
ENDBRANCH  24  26
ENDBRANCH   1  24
TORSDOF 6
ENDMDL
MODEL 4
REMARK minimizedAffinity -8.95363903
REMARK  6 active torsions:
REMARK  status: ('A' for Active; 'I' for Inactive)
REMARK    1  A    between atoms: C2_2  and  C30_32 
REMARK    2  A    between atoms: C3_3  and  C4_4 
REMARK    3  A    between atoms: C4_4  and  C5_6 
REMARK    4  A    between atoms: C5_6  and  C6_7 
REMARK    5  A    between atoms: C6_7  and  C8_9 
REMARK    6  A    between atoms: C30_32  and  O4_34 
ROOT
HETATM    1  C8  UNL     1      -4.350   7.830  15.291  1.00  0.00    -0.001 C 
HETATM    2  C9  UNL     1      -4.098   9.361  15.414  1.00  0.00     0.007 C 
HETATM    3  C10 UNL     1      -2.700   9.646  14.834  1.00  0.00     0.015 C 
HETATM    4  C11 UNL     1      -2.047   8.257  14.675  1.00  0.00    -0.013 C 
HETATM    5  C12 UNL     1      -1.449   7.899  16.073  1.00  0.00     0.021 C 
HETATM    6  C13 UNL     1      -0.908   8.109  13.673  1.00  0.00    -0.070 C 
HETATM    7  C14 UNL     1      -0.091   9.122  13.348  1.00  0.00    -0.022 C 
HETATM    8  C15 UNL     1       1.066   9.021  12.406  1.00  0.00     0.034 C 
HETATM    9  C16 UNL     1       1.448   7.611  11.884  1.00  0.00     0.013 C 
HETATM   10  C17 UNL     1       1.375   7.464  10.321  1.00  0.00     0.018 C 
HETATM   11  C18 UNL     1       2.303   8.502   9.644  1.00  0.00     0.023 C 
HETATM   12  C19 UNL     1      -0.039   7.618   9.747  1.00  0.00     0.023 C 
HETATM   13  C20 UNL     1       1.904   6.078   9.909  1.00  0.00     0.135 C 
HETATM   14  O2  UNL     1       2.194   5.810   8.741  1.00  0.00    -0.297 OA
HETATM   15  C21 UNL     1       2.083   5.041  10.990  1.00  0.00     0.080 C 
HETATM   16  C22 UNL     1       0.889   5.092  11.925  1.00  0.00     0.017 C 
HETATM   17  C23 UNL     1       0.792   6.432  12.710  1.00  0.00    -0.031 C 
HETATM   18  C24 UNL     1       1.616   6.273  14.021  1.00  0.00     0.016 C 
HETATM   19  C25 UNL     1      -0.717   6.736  13.043  1.00  0.00     0.024 C 
HETATM   20  C26 UNL     1      -1.440   5.603  13.819  1.00  0.00     0.010 C 
HETATM   21  C27 UNL     1      -2.895   5.900  14.251  1.00  0.00     0.011 C 
HETATM   22  C28 UNL     1      -3.282   7.393  14.234  1.00  0.00    -0.029 C 
HETATM   23  C29 UNL     1      -3.817   7.753  12.811  1.00  0.00     0.016 C 
ENDROOT
BRANCH   1  24
HETATM   24  C6  UNL     1      -5.848   7.490  15.056  1.00  0.00    -0.007 C 
HETATM   25  C7  UNL     1      -6.767   8.708  15.196  1.00  0.00     0.011 C 
BRANCH  24  26
HETATM   26  C5  UNL     1      -6.094   6.782  13.702  1.00  0.00     0.087 C 
BRANCH  26  27
HETATM   27  C4  UNL     1      -6.430   5.302  13.802  1.00  0.00     0.150 C 
HETATM   28  O1  UNL     1      -7.235   4.862  14.618  1.00  0.00    -0.293 OA
BRANCH  27  29
HETATM   29  C3  UNL     1      -5.689   4.391  12.884  1.00  0.00     0.063 C 
HETATM   30  C2  UNL     1      -6.160   3.211  12.439  1.00  0.00     0.015 C 
HETATM   31  C1  UNL     1      -7.509   2.619  12.716  1.00  0.00     0.055 C 
BRANCH  30  32
HETATM   32  C30 UNL     1      -5.233   2.464  11.561  1.00  0.00     0.171 C 
HETATM   33  O3  UNL     1      -4.016   2.529  11.576  1.00  0.00    -0.646 OA
BRANCH  32  34
HETATM   34  O4  UNL     1      -5.874   1.654  10.703  1.00  0.00    -0.773 OA
HETATM   35  H44 UNL     1      -5.153   1.219  10.201  1.00  0.00     0.167 HD
ENDBRANCH  32  34
ENDBRANCH  30  32
ENDBRANCH  27  29
ENDBRANCH  26  27
ENDBRANCH  24  26
ENDBRANCH   1  24
TORSDOF 6
ENDMDL
MODEL 5
REMARK minimizedAffinity -8.93792057
REMARK  6 active torsions:
REMARK  status: ('A' for Active; 'I' for Inactive)
REMARK    1  A    between atoms: C2_2  and  C30_32 
REMARK    2  A    between atoms: C3_3  and  C4_4 
REMARK    3  A    between atoms: C4_4  and  C5_6 
REMARK    4  A    between atoms: C5_6  and  C6_7 
REMARK    5  A    between atoms: C6_7  and  C8_9 
REMARK    6  A    between atoms: C30_32  and  O4_34 
ROOT
HETATM    1  C8  UNL     1      -1.263   6.310  12.445  1.00  0.00    -0.001 C 
HETATM    2  C9  UNL     1      -1.073   4.819  12.039  1.00  0.00     0.007 C 
HETATM    3  C10 UNL     1       0.320   4.691  11.395  1.00  0.00     0.015 C 
HETATM    4  C11 UNL     1       0.781   6.145  11.157  1.00  0.00    -0.013 C 
HETATM    5  C12 UNL     1       0.141   6.584   9.802  1.00  0.00     0.021 C 
HETATM    6  C13 UNL     1       2.276   6.412  11.030  1.00  0.00    -0.070 C 
HETATM    7  C14 UNL     1       3.141   5.496  10.566  1.00  0.00    -0.022 C 
HETATM    8  C15 UNL     1       4.608   5.720  10.380  1.00  0.00     0.034 C 
HETATM    9  C16 UNL     1       5.149   7.159  10.589  1.00  0.00     0.013 C 
HETATM   10  C17 UNL     1       6.230   7.279  11.722  1.00  0.00     0.018 C 
HETATM   11  C18 UNL     1       7.429   6.348  11.417  1.00  0.00     0.023 C 
HETATM   12  C19 UNL     1       5.700   6.957  13.125  1.00  0.00     0.023 C 
HETATM   13  C20 UNL     1       6.793   8.712  11.747  1.00  0.00     0.135 C 
HETATM   14  O2  UNL     1       7.823   8.999  12.358  1.00  0.00    -0.297 OA
HETATM   15  C21 UNL     1       6.051   9.775  10.974  1.00  0.00     0.080 C 
HETATM   16  C22 UNL     1       4.560   9.596  11.197  1.00  0.00     0.017 C 
HETATM   17  C23 UNL     1       4.016   8.263  10.608  1.00  0.00    -0.031 C 
HETATM   18  C24 UNL     1       3.606   8.530   9.130  1.00  0.00     0.016 C 
HETATM   19  C25 UNL     1       2.770   7.791  11.447  1.00  0.00     0.024 C 
HETATM   20  C26 UNL     1       1.631   8.841  11.545  1.00  0.00     0.010 C 
HETATM   21  C27 UNL     1       0.348   8.383  12.277  1.00  0.00     0.011 C 
HETATM   22  C28 UNL     1       0.203   6.856  12.433  1.00  0.00    -0.029 C 
HETATM   23  C29 UNL     1       0.905   6.421  13.759  1.00  0.00     0.016 C 
ENDROOT
BRANCH   1  24
HETATM   24  C6  UNL     1      -2.133   6.472  13.723  1.00  0.00    -0.007 C 
HETATM   25  C7  UNL     1      -3.099   7.659  13.641  1.00  0.00     0.011 C 
BRANCH  24  26
HETATM   26  C5  UNL     1      -2.897   5.179  14.093  1.00  0.00     0.087 C 
BRANCH  26  27
HETATM   27  C4  UNL     1      -4.308   5.083  13.534  1.00  0.00     0.150 C 
HETATM   28  O1  UNL     1      -5.244   5.732  13.990  1.00  0.00    -0.293 OA
BRANCH  27  29
HETATM   29  C3  UNL     1      -4.515   4.114  12.421  1.00  0.00     0.063 C 
HETATM   30  C2  UNL     1      -5.636   3.390  12.240  1.00  0.00     0.015 C 
HETATM   31  C1  UNL     1      -6.890   3.456  13.059  1.00  0.00     0.055 C 
BRANCH  30  32
HETATM   32  C30 UNL     1      -5.600   2.468  11.083  1.00  0.00     0.171 C 
HETATM   33  O3  UNL     1      -5.912   1.289  11.091  1.00  0.00    -0.646 OA
BRANCH  32  34
HETATM   34  O4  UNL     1      -5.183   3.067   9.957  1.00  0.00    -0.773 OA
HETATM   35  H44 UNL     1      -5.220   2.358   9.281  1.00  0.00     0.167 HD
ENDBRANCH  32  34
ENDBRANCH  30  32
ENDBRANCH  27  29
ENDBRANCH  26  27
ENDBRANCH  24  26
ENDBRANCH   1  24
TORSDOF 6
ENDMDL
MODEL 6
REMARK minimizedAffinity -8.7616396
REMARK  6 active torsions:
REMARK  status: ('A' for Active; 'I' for Inactive)
REMARK    1  A    between atoms: C2_2  and  C30_32 
REMARK    2  A    between atoms: C3_3  and  C4_4 
REMARK    3  A    between atoms: C4_4  and  C5_6 
REMARK    4  A    between atoms: C5_6  and  C6_7 
REMARK    5  A    between atoms: C6_7  and  C8_9 
REMARK    6  A    between atoms: C30_32  and  O4_34 
ROOT
HETATM    1  C8  UNL     1       1.405   6.717  11.065  1.00  0.00    -0.001 C 
HETATM    2  C9  UNL     1       1.425   5.194  11.386  1.00  0.00     0.007 C 
HETATM    3  C10 UNL     1       0.422   4.952  12.530  1.00  0.00     0.015 C 
HETATM    4  C11 UNL     1       0.075   6.360  13.057  1.00  0.00    -0.013 C 
HETATM    5  C12 UNL     1       1.208   6.736  14.064  1.00  0.00     0.021 C 
HETATM    6  C13 UNL     1      -1.240   6.543  13.806  1.00  0.00    -0.070 C 
HETATM    7  C14 UNL     1      -1.822   5.555  14.504  1.00  0.00    -0.022 C 
HETATM    8  C15 UNL     1      -3.085   5.691  15.291  1.00  0.00     0.034 C 
HETATM    9  C16 UNL     1      -3.689   7.112  15.444  1.00  0.00     0.013 C 
HETATM   10  C17 UNL     1      -5.143   7.257  14.866  1.00  0.00     0.018 C 
HETATM   11  C18 UNL     1      -6.094   6.247  15.555  1.00  0.00     0.023 C 
HETATM   12  C19 UNL     1      -5.232   7.059  13.347  1.00  0.00     0.023 C 
HETATM   13  C20 UNL     1      -5.690   8.658  15.194  1.00  0.00     0.135 C 
HETATM   14  O2  UNL     1      -6.886   8.934  15.083  1.00  0.00    -0.297 OA
HETATM   15  C21 UNL     1      -4.714   9.700  15.682  1.00  0.00     0.080 C 
HETATM   16  C22 UNL     1      -3.444   9.612  14.856  1.00  0.00     0.017 C 
HETATM   17  C23 UNL     1      -2.684   8.270  15.056  1.00  0.00    -0.031 C 
HETATM   18  C24 UNL     1      -1.706   8.454  16.254  1.00  0.00     0.016 C 
HETATM   19  C25 UNL     1      -1.885   7.921  13.745  1.00  0.00     0.024 C 
HETATM   20  C26 UNL     1      -0.906   9.031  13.279  1.00  0.00     0.010 C 
HETATM   21  C27 UNL     1      -0.030   8.690  12.050  1.00  0.00     0.011 C 
HETATM   22  C28 UNL     1       0.065   7.186  11.721  1.00  0.00    -0.029 C 
HETATM   23  C29 UNL     1      -1.113   6.810  10.766  1.00  0.00     0.016 C 
ENDROOT
BRANCH   1  24
HETATM   24  C6  UNL     1       1.669   7.011   9.562  1.00  0.00    -0.007 C 
HETATM   25  C7  UNL     1       0.766   8.114   9.001  1.00  0.00     0.011 C 
BRANCH  24  26
HETATM   26  C5  UNL     1       3.155   7.330   9.268  1.00  0.00     0.087 C 
BRANCH  26  27
HETATM   27  C4  UNL     1       4.155   6.378   9.907  1.00  0.00     0.150 C 
HETATM   28  O1  UNL     1       4.260   5.204   9.565  1.00  0.00    -0.293 OA
BRANCH  27  29
HETATM   29  C3  UNL     1       4.978   6.932  11.020  1.00  0.00     0.063 C 
HETATM   30  C2  UNL     1       6.155   6.420  11.424  1.00  0.00     0.015 C 
HETATM   31  C1  UNL     1       6.887   5.261  10.816  1.00  0.00     0.055 C 
BRANCH  30  32
HETATM   32  C30 UNL     1       6.777   7.119  12.570  1.00  0.00     0.171 C 
HETATM   33  O3  UNL     1       7.664   7.953  12.510  1.00  0.00    -0.646 OA
BRANCH  32  34
HETATM   34  O4  UNL     1       6.252   6.750  13.748  1.00  0.00    -0.773 OA
HETATM   35  H44 UNL     1       6.737   7.290  14.407  1.00  0.00     0.167 HD
ENDBRANCH  32  34
ENDBRANCH  30  32
ENDBRANCH  27  29
ENDBRANCH  26  27
ENDBRANCH  24  26
ENDBRANCH   1  24
TORSDOF 6
ENDMDL
MODEL 7
REMARK minimizedAffinity -8.7256918
REMARK  6 active torsions:
REMARK  status: ('A' for Active; 'I' for Inactive)
REMARK    1  A    between atoms: C2_2  and  C30_32 
REMARK    2  A    between atoms: C3_3  and  C4_4 
REMARK    3  A    between atoms: C4_4  and  C5_6 
REMARK    4  A    between atoms: C5_6  and  C6_7 
REMARK    5  A    between atoms: C6_7  and  C8_9 
REMARK    6  A    between atoms: C30_32  and  O4_34 
ROOT
HETATM    1  C8  UNL     1      -3.451   5.812  12.740  1.00  0.00    -0.001 C 
HETATM    2  C9  UNL     1      -2.088   5.136  13.067  1.00  0.00     0.007 C 
HETATM    3  C10 UNL     1      -1.258   6.144  13.884  1.00  0.00     0.015 C 
HETATM    4  C11 UNL     1      -2.017   7.481  13.751  1.00  0.00    -0.013 C 
HETATM    5  C12 UNL     1      -1.546   8.112  12.402  1.00  0.00     0.021 C 
HETATM    6  C13 UNL     1      -1.793   8.544  14.821  1.00  0.00    -0.070 C 
HETATM    7  C14 UNL     1      -0.648   8.648  15.512  1.00  0.00    -0.022 C 
HETATM    8  C15 UNL     1      -0.360   9.696  16.539  1.00  0.00     0.034 C 
HETATM    9  C16 UNL     1      -1.394  10.840  16.710  1.00  0.00     0.013 C 
HETATM   10  C17 UNL     1      -2.012  10.935  18.152  1.00  0.00     0.018 C 
HETATM   11  C18 UNL     1      -0.890  11.132  19.201  1.00  0.00     0.023 C 
HETATM   12  C19 UNL     1      -2.852   9.715  18.551  1.00  0.00     0.023 C 
HETATM   13  C20 UNL     1      -2.912  12.180  18.245  1.00  0.00     0.135 C 
HETATM   14  O2  UNL     1      -3.304  12.624  19.326  1.00  0.00    -0.297 OA
HETATM   15  C21 UNL     1      -3.296  12.872  16.959  1.00  0.00     0.080 C 
HETATM   16  C22 UNL     1      -3.646  11.821  15.921  1.00  0.00     0.017 C 
HETATM   17  C23 UNL     1      -2.429  10.940  15.518  1.00  0.00    -0.031 C 
HETATM   18  C24 UNL     1      -1.704  11.645  14.335  1.00  0.00     0.016 C 
HETATM   19  C25 UNL     1      -2.937   9.515  15.079  1.00  0.00     0.024 C 
HETATM   20  C26 UNL     1      -3.989   9.536  13.938  1.00  0.00     0.010 C 
HETATM   21  C27 UNL     1      -4.442   8.155  13.410  1.00  0.00     0.011 C 
HETATM   22  C28 UNL     1      -3.507   6.984  13.774  1.00  0.00    -0.029 C 
HETATM   23  C29 UNL     1      -3.948   6.405  15.157  1.00  0.00     0.016 C 
ENDROOT
BRANCH   1  24
HETATM   24  C6  UNL     1      -4.621   4.790  12.672  1.00  0.00    -0.007 C 
HETATM   25  C7  UNL     1      -4.148   3.335  12.743  1.00  0.00     0.011 C 
BRANCH  24  26
HETATM   26  C5  UNL     1      -5.708   5.057  13.740  1.00  0.00     0.087 C 
BRANCH  26  27
HETATM   27  C4  UNL     1      -7.037   4.359  13.493  1.00  0.00     0.150 C 
HETATM   28  O1  UNL     1      -7.325   3.286  14.013  1.00  0.00    -0.293 OA
BRANCH  27  29
HETATM   29  C3  UNL     1      -7.966   5.025  12.536  1.00  0.00     0.063 C 
HETATM   30  C2  UNL     1      -8.842   5.990  12.872  1.00  0.00     0.015 C 
HETATM   31  C1  UNL     1      -9.013   6.618  14.223  1.00  0.00     0.055 C 
BRANCH  30  32
HETATM   32  C30 UNL     1      -9.685   6.480  11.759  1.00  0.00     0.171 C 
HETATM   33  O3  UNL     1     -10.695   7.153  11.863  1.00  0.00    -0.646 OA
BRANCH  32  34
HETATM   34  O4  UNL     1      -9.217   6.113  10.556  1.00  0.00    -0.773 OA
HETATM   35  H44 UNL     1      -9.850   6.508   9.922  1.00  0.00     0.167 HD
ENDBRANCH  32  34
ENDBRANCH  30  32
ENDBRANCH  27  29
ENDBRANCH  26  27
ENDBRANCH  24  26
ENDBRANCH   1  24
TORSDOF 6
ENDMDL
MODEL 8
REMARK minimizedAffinity -8.48499203
REMARK  6 active torsions:
REMARK  status: ('A' for Active; 'I' for Inactive)
REMARK    1  A    between atoms: C2_2  and  C30_32 
REMARK    2  A    between atoms: C3_3  and  C4_4 
REMARK    3  A    between atoms: C4_4  and  C5_6 
REMARK    4  A    between atoms: C5_6  and  C6_7 
REMARK    5  A    between atoms: C6_7  and  C8_9 
REMARK    6  A    between atoms: C30_32  and  O4_34 
ROOT
HETATM    1  C8  UNL     1       0.287   6.801  11.683  1.00  0.00    -0.001 C 
HETATM    2  C9  UNL     1       0.782   5.432  11.131  1.00  0.00     0.007 C 
HETATM    3  C10 UNL     1       2.315   5.510  11.011  1.00  0.00     0.015 C 
HETATM    4  C11 UNL     1       2.650   7.005  11.195  1.00  0.00    -0.013 C 
HETATM    5  C12 UNL     1       2.458   7.666   9.793  1.00  0.00     0.021 C 
HETATM    6  C13 UNL     1       4.057   7.375  11.651  1.00  0.00    -0.070 C 
HETATM    7  C14 UNL     1       5.131   6.617  11.381  1.00  0.00    -0.022 C 
HETATM    8  C15 UNL     1       6.536   6.954  11.766  1.00  0.00     0.034 C 
HETATM    9  C16 UNL     1       6.797   8.352  12.386  1.00  0.00     0.013 C 
HETATM   10  C17 UNL     1       7.409   8.308  13.833  1.00  0.00     0.018 C 
HETATM   11  C18 UNL     1       8.743   7.522  13.824  1.00  0.00     0.023 C 
HETATM   12  C19 UNL     1       6.479   7.687  14.883  1.00  0.00     0.023 C 
HETATM   13  C20 UNL     1       7.753   9.736  14.291  1.00  0.00     0.135 C 
HETATM   14  O2  UNL     1       8.474   9.955  15.266  1.00  0.00    -0.297 OA
HETATM   15  C21 UNL     1       7.193  10.888  13.491  1.00  0.00     0.080 C 
HETATM   16  C22 UNL     1       5.748  10.586  13.139  1.00  0.00     0.017 C 
HETATM   17  C23 UNL     1       5.600   9.366  12.185  1.00  0.00    -0.031 C 
HETATM   18  C24 UNL     1       5.684   9.896  10.723  1.00  0.00     0.016 C 
HETATM   19  C25 UNL     1       4.210   8.671  12.437  1.00  0.00     0.024 C 
HETATM   20  C26 UNL     1       2.988   9.616  12.297  1.00  0.00     0.010 C 
HETATM   21  C27 UNL     1       1.598   8.952  12.441  1.00  0.00     0.011 C 
HETATM   22  C28 UNL     1       1.594   7.419  12.281  1.00  0.00    -0.029 C 
HETATM   23  C29 UNL     1       1.854   6.772  13.679  1.00  0.00     0.016 C 
ENDROOT
BRANCH   1  24
HETATM   24  C6  UNL     1      -0.976   6.661  12.577  1.00  0.00    -0.007 C 
HETATM   25  C7  UNL     1      -1.906   7.875  12.493  1.00  0.00     0.011 C 
BRANCH  24  26
HETATM   26  C5  UNL     1      -1.763   5.358  12.298  1.00  0.00     0.087 C 
BRANCH  26  27
HETATM   27  C4  UNL     1      -2.784   4.983  13.361  1.00  0.00     0.150 C 
HETATM   28  O1  UNL     1      -2.588   5.166  14.559  1.00  0.00    -0.293 OA
BRANCH  27  29
HETATM   29  C3  UNL     1      -4.033   4.328  12.878  1.00  0.00     0.063 C 
HETATM   30  C2  UNL     1      -4.166   3.735  11.677  1.00  0.00     0.015 C 
HETATM   31  C1  UNL     1      -3.100   3.563  10.637  1.00  0.00     0.055 C 
BRANCH  30  32
HETATM   32  C30 UNL     1      -5.510   3.179  11.403  1.00  0.00     0.171 C 
HETATM   33  O3  UNL     1      -6.569   3.620  11.814  1.00  0.00    -0.646 OA
BRANCH  32  34
HETATM   34  O4  UNL     1      -5.469   2.095  10.614  1.00  0.00    -0.773 OA
HETATM   35  H44 UNL     1      -6.410   1.843  10.505  1.00  0.00     0.167 HD
ENDBRANCH  32  34
ENDBRANCH  30  32
ENDBRANCH  27  29
ENDBRANCH  26  27
ENDBRANCH  24  26
ENDBRANCH   1  24
TORSDOF 6
ENDMDL
MODEL 9
REMARK minimizedAffinity -8.42127514
REMARK  6 active torsions:
REMARK  status: ('A' for Active; 'I' for Inactive)
REMARK    1  A    between atoms: C2_2  and  C30_32 
REMARK    2  A    between atoms: C3_3  and  C4_4 
REMARK    3  A    between atoms: C4_4  and  C5_6 
REMARK    4  A    between atoms: C5_6  and  C6_7 
REMARK    5  A    between atoms: C6_7  and  C8_9 
REMARK    6  A    between atoms: C30_32  and  O4_34 
ROOT
HETATM    1  C8  UNL     1       0.488   7.629  12.917  1.00  0.00    -0.001 C 
HETATM    2  C9  UNL     1       0.990   6.690  14.052  1.00  0.00     0.007 C 
HETATM    3  C10 UNL     1      -0.235   6.293  14.897  1.00  0.00     0.015 C 
HETATM    4  C11 UNL     1      -1.360   7.242  14.434  1.00  0.00    -0.013 C 
HETATM    5  C12 UNL     1      -1.169   8.564  15.243  1.00  0.00     0.021 C 
HETATM    6  C13 UNL     1      -2.804   6.808  14.659  1.00  0.00    -0.070 C 
HETATM    7  C14 UNL     1      -3.170   5.997  15.664  1.00  0.00    -0.022 C 
HETATM    8  C15 UNL     1      -4.575   5.576  15.956  1.00  0.00     0.034 C 
HETATM    9  C16 UNL     1      -5.711   6.244  15.138  1.00  0.00     0.013 C 
HETATM   10  C17 UNL     1      -6.580   5.233  14.305  1.00  0.00     0.018 C 
HETATM   11  C18 UNL     1      -7.211   4.174  15.241  1.00  0.00     0.023 C 
HETATM   12  C19 UNL     1      -5.803   4.511  13.197  1.00  0.00     0.023 C 
HETATM   13  C20 UNL     1      -7.753   5.983  13.648  1.00  0.00     0.135 C 
HETATM   14  O2  UNL     1      -8.717   5.389  13.161  1.00  0.00    -0.297 OA
HETATM   15  C21 UNL     1      -7.706   7.491  13.631  1.00  0.00     0.080 C 
HETATM   16  C22 UNL     1      -6.298   7.936  13.281  1.00  0.00     0.017 C 
HETATM   17  C23 UNL     1      -5.253   7.545  14.365  1.00  0.00    -0.031 C 
HETATM   18  C24 UNL     1      -5.194   8.703  15.405  1.00  0.00     0.016 C 
HETATM   19  C25 UNL     1      -3.846   7.345  13.688  1.00  0.00     0.024 C 
HETATM   20  C26 UNL     1      -3.348   8.570  12.875  1.00  0.00     0.010 C 
HETATM   21  C27 UNL     1      -1.928   8.451  12.274  1.00  0.00     0.011 C 
HETATM   22  C28 UNL     1      -1.051   7.346  12.898  1.00  0.00    -0.029 C 
HETATM   23  C29 UNL     1      -1.301   6.014  12.121  1.00  0.00     0.016 C 
ENDROOT
BRANCH   1  24
HETATM   24  C6  UNL     1       1.313   7.476  11.609  1.00  0.00    -0.007 C 
HETATM   25  C7  UNL     1       0.794   8.357  10.468  1.00  0.00     0.011 C 
BRANCH  24  26
HETATM   26  C5  UNL     1       2.827   7.712  11.828  1.00  0.00     0.087 C 
BRANCH  26  27
HETATM   27  C4  UNL     1       3.699   7.467  10.606  1.00  0.00     0.150 C 
HETATM   28  O1  UNL     1       4.172   8.382   9.939  1.00  0.00    -0.293 OA
BRANCH  27  29
HETATM   29  C3  UNL     1       3.916   6.043  10.223  1.00  0.00     0.063 C 
HETATM   30  C2  UNL     1       3.414   5.469   9.114  1.00  0.00     0.015 C 
HETATM   31  C1  UNL     1       2.612   6.139   8.039  1.00  0.00     0.055 C 
BRANCH  30  32
HETATM   32  C30 UNL     1       3.735   4.033   8.958  1.00  0.00     0.171 C 
HETATM   33  O3  UNL     1       4.416   3.538   8.076  1.00  0.00    -0.646 OA
BRANCH  32  34
HETATM   34  O4  UNL     1       3.195   3.274   9.924  1.00  0.00    -0.773 OA
HETATM   35  H44 UNL     1       3.493   2.365   9.710  1.00  0.00     0.167 HD
ENDBRANCH  32  34
ENDBRANCH  30  32
ENDBRANCH  27  29
ENDBRANCH  26  27
ENDBRANCH  24  26
ENDBRANCH   1  24
TORSDOF 6
ENDMDL
