MODEL 1
REMARK minimizedAffinity -9.62102032
REMARK  8 active torsions:
REMARK  status: ('A' for Active; 'I' for Inactive)
REMARK    1  A    between atoms: C2_2  and  C3_3 
REMARK    2  A    between atoms: C2_2  and  C9_12 
REMARK    3  A    between atoms: C3_3  and  C4_4 
REMARK    4  A    between atoms: C4_4  and  C5_5 
REMARK    5  A    between atoms: C6_6  and  C7_7 
REMARK    6  A    between atoms: C6_6  and  C8_9 
REMARK    7  A    between atoms: C7_7  and  O1_8 
REMARK    8  A    between atoms: C8_9  and  O3_11 
ROOT
HETATM    1  C9  UNL     1      -0.357  51.242 -23.903  1.00  0.00    -0.002 C 
HETATM    2  C10 UNL     1       0.595  52.476 -23.819  1.00  0.00     0.006 C 
HETATM    3  C11 UNL     1       0.425  53.088 -22.411  1.00  0.00     0.011 C 
HETATM    4  C12 UNL     1      -0.288  51.995 -21.599  1.00  0.00    -0.032 C 
HETATM    5  C13 UNL     1       0.822  50.977 -21.183  1.00  0.00     0.016 C 
HETATM    6  C14 UNL     1      -1.066  52.453 -20.327  1.00  0.00     0.004 C 
HETATM    7  C15 UNL     1      -0.249  53.236 -19.297  1.00  0.00     0.007 C 
HETATM    8  C16 UNL     1       0.394  52.480 -18.138  1.00  0.00     0.007 C 
HETATM    9  C17 UNL     1       0.028  51.003 -17.914  1.00  0.00     0.010 C 
HETATM   10  C18 UNL     1       0.240  50.548 -16.430  1.00  0.00     0.018 C 
HETATM   11  C19 UNL     1       1.706  50.773 -16.001  1.00  0.00     0.023 C 
HETATM   12  C20 UNL     1      -0.672  51.268 -15.419  1.00  0.00     0.023 C 
HETATM   13  C21 UNL     1      -0.071  49.046 -16.345  1.00  0.00     0.135 C 
HETATM   14  O4  UNL     1       0.687  48.236 -15.809  1.00  0.00    -0.297 OA
HETATM   15  C22 UNL     1      -1.403  48.598 -16.890  1.00  0.00     0.080 C 
HETATM   16  C23 UNL     1      -1.560  49.064 -18.324  1.00  0.00     0.018 C 
HETATM   17  C24 UNL     1      -1.333  50.565 -18.470  1.00  0.00    -0.026 A 
HETATM   18  C25 UNL     1      -2.531  51.478 -18.385  1.00  0.00     0.021 A 
HETATM   19  C26 UNL     1      -1.861  51.272 -19.735  1.00  0.00    -0.027 A 
HETATM   20  C27 UNL     1      -2.721  50.535 -20.774  1.00  0.00     0.011 C 
HETATM   21  C28 UNL     1      -1.992  50.204 -22.091  1.00  0.00     0.011 C 
HETATM   22  C29 UNL     1      -1.309  51.449 -22.684  1.00  0.00    -0.032 C 
HETATM   23  C30 UNL     1      -2.427  52.460 -23.079  1.00  0.00     0.016 C 
ENDROOT
BRANCH   1  24
HETATM   24  C2  UNL     1      -0.861  50.932 -25.349  1.00  0.00    -0.014 C 
HETATM   25  C1  UNL     1      -0.648  52.032 -26.395  1.00  0.00     0.010 C 
BRANCH  24  26
HETATM   26  C3  UNL     1      -2.326  50.435 -25.330  1.00  0.00     0.008 C 
BRANCH  26  27
HETATM   27  C4  UNL     1      -2.514  48.909 -25.341  1.00  0.00     0.028 C 
BRANCH  27  28
HETATM   28  C5  UNL     1      -3.552  48.403 -26.302  1.00  0.00    -0.011 C 
HETATM   29  C6  UNL     1      -3.854  48.942 -27.503  1.00  0.00     0.035 C 
BRANCH  29  30
HETATM   30  C7  UNL     1      -3.134  50.100 -28.126  1.00  0.00     0.209 C 
BRANCH  30  31
HETATM   31  O1  UNL     1      -3.776  50.440 -29.349  1.00  0.00    -0.396 OA
HETATM   32  H12 UNL     1      -3.187  51.060 -29.811  1.00  0.00     0.209 HD
ENDBRANCH  30  31
ENDBRANCH  29  30
BRANCH  29  33
HETATM   33  C8  UNL     1      -4.921  48.352 -28.350  1.00  0.00     0.173 C 
HETATM   34  O2  UNL     1      -4.781  47.950 -29.492  1.00  0.00    -0.646 OA
BRANCH  33  35
HETATM   35  O3  UNL     1      -6.119  48.276 -27.744  1.00  0.00    -0.773 OA
HETATM   36  H13 UNL     1      -6.701  47.893 -28.432  1.00  0.00     0.167 HD
ENDBRANCH  33  35
ENDBRANCH  29  33
ENDBRANCH  27  28
ENDBRANCH  26  27
ENDBRANCH  24  26
ENDBRANCH   1  24
TORSDOF 8
ENDMDL
MODEL 2
REMARK minimizedAffinity -9.34260273
REMARK  8 active torsions:
REMARK  status: ('A' for Active; 'I' for Inactive)
REMARK    1  A    between atoms: C2_2  and  C3_3 
REMARK    2  A    between atoms: C2_2  and  C9_12 
REMARK    3  A    between atoms: C3_3  and  C4_4 
REMARK    4  A    between atoms: C4_4  and  C5_5 
REMARK    5  A    between atoms: C6_6  and  C7_7 
REMARK    6  A    between atoms: C6_6  and  C8_9 
REMARK    7  A    between atoms: C7_7  and  O1_8 
REMARK    8  A    between atoms: C8_9  and  O3_11 
ROOT
HETATM    1  C9  UNL     1      -0.744  50.517 -21.418  1.00  0.00    -0.002 C 
HETATM    2  C10 UNL     1      -0.273  49.264 -20.615  1.00  0.00     0.006 C 
HETATM    3  C11 UNL     1      -1.534  48.613 -20.006  1.00  0.00     0.011 C 
HETATM    4  C12 UNL     1      -2.705  49.242 -20.778  1.00  0.00    -0.032 C 
HETATM    5  C13 UNL     1      -2.785  48.473 -22.136  1.00  0.00     0.016 C 
HETATM    6  C14 UNL     1      -4.103  49.213 -20.089  1.00  0.00     0.004 C 
HETATM    7  C15 UNL     1      -4.608  47.829 -19.672  1.00  0.00     0.007 C 
HETATM    8  C16 UNL     1      -5.511  47.056 -20.628  1.00  0.00     0.007 C 
HETATM    9  C17 UNL     1      -6.063  47.767 -21.875  1.00  0.00     0.010 C 
HETATM   10  C18 UNL     1      -7.391  47.120 -22.399  1.00  0.00     0.018 C 
HETATM   11  C19 UNL     1      -7.170  45.628 -22.727  1.00  0.00     0.023 C 
HETATM   12  C20 UNL     1      -8.570  47.224 -21.412  1.00  0.00     0.023 C 
HETATM   13  C21 UNL     1      -7.799  47.851 -23.687  1.00  0.00     0.135 C 
HETATM   14  O4  UNL     1      -8.099  47.260 -24.725  1.00  0.00    -0.297 OA
HETATM   15  C22 UNL     1      -7.893  49.354 -23.612  1.00  0.00     0.080 C 
HETATM   16  C23 UNL     1      -6.588  49.929 -23.098  1.00  0.00     0.018 C 
HETATM   17  C24 UNL     1      -6.157  49.295 -21.780  1.00  0.00    -0.026 A 
HETATM   18  C25 UNL     1      -6.581  49.964 -20.496  1.00  0.00     0.021 A 
HETATM   19  C26 UNL     1      -5.119  50.032 -20.910  1.00  0.00    -0.027 A 
HETATM   20  C27 UNL     1      -4.617  51.441 -21.268  1.00  0.00     0.011 C 
HETATM   21  C28 UNL     1      -3.179  51.487 -21.820  1.00  0.00     0.011 C 
HETATM   22  C29 UNL     1      -2.198  50.741 -20.899  1.00  0.00    -0.032 C 
HETATM   23  C30 UNL     1      -2.141  51.510 -19.546  1.00  0.00     0.016 C 
ENDROOT
BRANCH   1  24
HETATM   24  C2  UNL     1       0.327  51.651 -21.502  1.00  0.00    -0.014 C 
HETATM   25  C1  UNL     1       0.544  52.479 -20.230  1.00  0.00     0.010 C 
BRANCH  24  26
HETATM   26  C3  UNL     1       0.085  52.552 -22.737  1.00  0.00     0.008 C 
BRANCH  26  27
HETATM   27  C4  UNL     1      -0.157  51.815 -24.064  1.00  0.00     0.028 C 
BRANCH  27  28
HETATM   28  C5  UNL     1      -0.389  52.705 -25.252  1.00  0.00    -0.011 C 
HETATM   29  C6  UNL     1       0.292  52.668 -26.418  1.00  0.00     0.035 C 
BRANCH  29  30
HETATM   30  C7  UNL     1       1.347  51.661 -26.760  1.00  0.00     0.209 C 
BRANCH  30  31
HETATM   31  O1  UNL     1       2.628  52.255 -26.581  1.00  0.00    -0.396 OA
HETATM   32  H12 UNL     1       3.275  51.649 -26.981  1.00  0.00     0.209 HD
ENDBRANCH  30  31
ENDBRANCH  29  30
BRANCH  29  33
HETATM   33  C8  UNL     1      -0.027  53.623 -27.509  1.00  0.00     0.173 C 
HETATM   34  O2  UNL     1      -0.248  54.813 -27.370  1.00  0.00    -0.646 OA
BRANCH  33  35
HETATM   35  O3  UNL     1      -0.051  53.064 -28.732  1.00  0.00    -0.773 OA
HETATM   36  H13 UNL     1      -0.292  53.810 -29.320  1.00  0.00     0.167 HD
ENDBRANCH  33  35
ENDBRANCH  29  33
ENDBRANCH  27  28
ENDBRANCH  26  27
ENDBRANCH  24  26
ENDBRANCH   1  24
TORSDOF 8
ENDMDL
MODEL 3
REMARK minimizedAffinity -9.24672222
REMARK  8 active torsions:
REMARK  status: ('A' for Active; 'I' for Inactive)
REMARK    1  A    between atoms: C2_2  and  C3_3 
REMARK    2  A    between atoms: C2_2  and  C9_12 
REMARK    3  A    between atoms: C3_3  and  C4_4 
REMARK    4  A    between atoms: C4_4  and  C5_5 
REMARK    5  A    between atoms: C6_6  and  C7_7 
REMARK    6  A    between atoms: C6_6  and  C8_9 
REMARK    7  A    between atoms: C7_7  and  O1_8 
REMARK    8  A    between atoms: C8_9  and  O3_11 
ROOT
HETATM    1  C9  UNL     1      -5.842  50.308 -22.152  1.00  0.00    -0.002 C 
HETATM    2  C10 UNL     1      -5.140  50.546 -20.778  1.00  0.00     0.006 C 
HETATM    3  C11 UNL     1      -3.617  50.511 -21.032  1.00  0.00     0.011 C 
HETATM    4  C12 UNL     1      -3.476  50.657 -22.556  1.00  0.00    -0.032 C 
HETATM    5  C13 UNL     1      -3.639  52.181 -22.857  1.00  0.00     0.016 C 
HETATM    6  C14 UNL     1      -2.148  50.148 -23.195  1.00  0.00     0.004 C 
HETATM    7  C15 UNL     1      -0.863  50.751 -22.624  1.00  0.00     0.007 C 
HETATM    8  C16 UNL     1      -0.253  51.970 -23.309  1.00  0.00     0.007 C 
HETATM    9  C17 UNL     1      -0.815  52.422 -24.668  1.00  0.00     0.010 C 
HETATM   10  C18 UNL     1       0.230  53.230 -25.512  1.00  0.00     0.018 C 
HETATM   11  C19 UNL     1       0.712  54.470 -24.730  1.00  0.00     0.023 C 
HETATM   12  C20 UNL     1       1.468  52.412 -25.925  1.00  0.00     0.023 C 
HETATM   13  C21 UNL     1      -0.464  53.700 -26.800  1.00  0.00     0.135 C 
HETATM   14  O4  UNL     1      -0.417  54.866 -27.196  1.00  0.00    -0.297 OA
HETATM   15  C22 UNL     1      -1.160  52.645 -27.620  1.00  0.00     0.080 C 
HETATM   16  C23 UNL     1      -2.155  51.892 -26.758  1.00  0.00     0.018 C 
HETATM   17  C24 UNL     1      -1.515  51.334 -25.492  1.00  0.00    -0.026 A 
HETATM   18  C25 UNL     1      -0.975  49.926 -25.528  1.00  0.00     0.021 A 
HETATM   19  C26 UNL     1      -2.241  50.204 -24.732  1.00  0.00    -0.027 A 
HETATM   20  C27 UNL     1      -3.510  49.541 -25.292  1.00  0.00     0.011 C 
HETATM   21  C28 UNL     1      -4.812  49.937 -24.568  1.00  0.00     0.011 C 
HETATM   22  C29 UNL     1      -4.687  49.756 -23.045  1.00  0.00    -0.032 C 
HETATM   23  C30 UNL     1      -4.509  48.235 -22.762  1.00  0.00     0.016 C 
ENDROOT
BRANCH   1  24
HETATM   24  C2  UNL     1      -7.243  49.627 -22.035  1.00  0.00    -0.014 C 
HETATM   25  C1  UNL     1      -7.309  48.342 -21.201  1.00  0.00     0.010 C 
BRANCH  24  26
HETATM   26  C3  UNL     1      -7.886  49.438 -23.430  1.00  0.00     0.008 C 
BRANCH  26  27
HETATM   27  C4  UNL     1      -8.011  47.985 -23.916  1.00  0.00     0.028 C 
BRANCH  27  28
HETATM   28  C5  UNL     1      -7.717  47.775 -25.374  1.00  0.00    -0.011 C 
HETATM   29  C6  UNL     1      -8.547  48.054 -26.401  1.00  0.00     0.035 C 
BRANCH  29  30
HETATM   30  C7  UNL     1      -9.886  48.713 -26.264  1.00  0.00     0.209 C 
BRANCH  30  31
HETATM   31  O1  UNL     1      -9.703  50.123 -26.193  1.00  0.00    -0.396 OA
HETATM   32  H12 UNL     1     -10.556  50.502 -25.923  1.00  0.00     0.209 HD
ENDBRANCH  30  31
ENDBRANCH  29  30
BRANCH  29  33
HETATM   33  C8  UNL     1      -8.136  47.779 -27.801  1.00  0.00     0.173 C 
HETATM   34  O2  UNL     1      -8.715  47.040 -28.579  1.00  0.00    -0.646 OA
BRANCH  33  35
HETATM   35  O3  UNL     1      -7.028  48.437 -28.185  1.00  0.00    -0.773 OA
HETATM   36  H13 UNL     1      -6.887  48.132 -29.105  1.00  0.00     0.167 HD
ENDBRANCH  33  35
ENDBRANCH  29  33
ENDBRANCH  27  28
ENDBRANCH  26  27
ENDBRANCH  24  26
ENDBRANCH   1  24
TORSDOF 8
ENDMDL
MODEL 4
REMARK minimizedAffinity -9.03113842
REMARK  8 active torsions:
REMARK  status: ('A' for Active; 'I' for Inactive)
REMARK    1  A    between atoms: C2_2  and  C3_3 
REMARK    2  A    between atoms: C2_2  and  C9_12 
REMARK    3  A    between atoms: C3_3  and  C4_4 
REMARK    4  A    between atoms: C4_4  and  C5_5 
REMARK    5  A    between atoms: C6_6  and  C7_7 
REMARK    6  A    between atoms: C6_6  and  C8_9 
REMARK    7  A    between atoms: C7_7  and  O1_8 
REMARK    8  A    between atoms: C8_9  and  O3_11 
ROOT
HETATM    1  C9  UNL     1      -5.608  49.293 -22.740  1.00  0.00    -0.002 C 
HETATM    2  C10 UNL     1      -6.531  49.834 -21.604  1.00  0.00     0.006 C 
HETATM    3  C11 UNL     1      -5.632  50.105 -20.377  1.00  0.00     0.011 C 
HETATM    4  C12 UNL     1      -4.202  50.104 -20.939  1.00  0.00    -0.032 C 
HETATM    5  C13 UNL     1      -3.994  51.511 -21.585  1.00  0.00     0.016 C 
HETATM    6  C14 UNL     1      -3.045  49.829 -19.929  1.00  0.00     0.004 C 
HETATM    7  C15 UNL     1      -2.989  50.760 -18.716  1.00  0.00     0.007 C 
HETATM    8  C16 UNL     1      -2.098  51.997 -18.777  1.00  0.00     0.007 C 
HETATM    9  C17 UNL     1      -1.123  52.158 -19.956  1.00  0.00     0.010 C 
HETATM   10  C18 UNL     1       0.100  53.073 -19.606  1.00  0.00     0.018 C 
HETATM   11  C19 UNL     1      -0.383  54.470 -19.159  1.00  0.00     0.023 C 
HETATM   12  C20 UNL     1       1.011  52.505 -18.502  1.00  0.00     0.023 C 
HETATM   13  C21 UNL     1       0.952  53.231 -20.874  1.00  0.00     0.135 C 
HETATM   14  O4  UNL     1       1.335  54.326 -21.290  1.00  0.00    -0.297 OA
HETATM   15  C22 UNL     1       1.376  51.963 -21.568  1.00  0.00     0.080 C 
HETATM   16  C23 UNL     1       0.160  51.113 -21.882  1.00  0.00     0.018 C 
HETATM   17  C24 UNL     1      -0.698  50.856 -20.648  1.00  0.00    -0.026 A 
HETATM   18  C25 UNL     1      -0.436  49.606 -19.846  1.00  0.00     0.021 A 
HETATM   19  C26 UNL     1      -1.706  49.689 -20.678  1.00  0.00    -0.027 A 
HETATM   20  C27 UNL     1      -1.767  48.704 -21.858  1.00  0.00     0.011 C 
HETATM   21  C28 UNL     1      -2.988  48.885 -22.780  1.00  0.00     0.011 C 
HETATM   22  C29 UNL     1      -4.301  48.910 -21.978  1.00  0.00    -0.032 C 
HETATM   23  C30 UNL     1      -4.485  47.507 -21.328  1.00  0.00     0.016 C 
ENDROOT
BRANCH   1  24
HETATM   24  C2  UNL     1      -6.334  48.340 -23.742  1.00  0.00    -0.014 C 
HETATM   25  C1  UNL     1      -6.434  46.866 -23.331  1.00  0.00     0.010 C 
BRANCH  24  26
HETATM   26  C3  UNL     1      -5.762  48.497 -25.171  1.00  0.00     0.008 C 
BRANCH  26  27
HETATM   27  C4  UNL     1      -4.240  48.321 -25.304  1.00  0.00     0.028 C 
BRANCH  27  28
HETATM   28  C5  UNL     1      -3.620  49.017 -26.482  1.00  0.00    -0.011 C 
HETATM   29  C6  UNL     1      -3.326  50.332 -26.566  1.00  0.00     0.035 C 
BRANCH  29  30
HETATM   30  C7  UNL     1      -3.489  51.317 -25.448  1.00  0.00     0.209 C 
BRANCH  30  31
HETATM   31  O1  UNL     1      -3.327  52.633 -25.963  1.00  0.00    -0.396 OA
HETATM   32  H12 UNL     1      -3.256  53.226 -25.197  1.00  0.00     0.209 HD
ENDBRANCH  30  31
ENDBRANCH  29  30
BRANCH  29  33
HETATM   33  C8  UNL     1      -2.731  50.897 -27.803  1.00  0.00     0.173 C 
HETATM   34  O2  UNL     1      -1.665  51.484 -27.874  1.00  0.00    -0.646 OA
BRANCH  33  35
HETATM   35  O3  UNL     1      -3.477  50.704 -28.905  1.00  0.00    -0.773 OA
HETATM   36  H13 UNL     1      -2.963  51.147 -29.610  1.00  0.00     0.167 HD
ENDBRANCH  33  35
ENDBRANCH  29  33
ENDBRANCH  27  28
ENDBRANCH  26  27
ENDBRANCH  24  26
ENDBRANCH   1  24
TORSDOF 8
ENDMDL
MODEL 5
REMARK minimizedAffinity -8.91305065
REMARK  8 active torsions:
REMARK  status: ('A' for Active; 'I' for Inactive)
REMARK    1  A    between atoms: C2_2  and  C3_3 
REMARK    2  A    between atoms: C2_2  and  C9_12 
REMARK    3  A    between atoms: C3_3  and  C4_4 
REMARK    4  A    between atoms: C4_4  and  C5_5 
REMARK    5  A    between atoms: C6_6  and  C7_7 
REMARK    6  A    between atoms: C6_6  and  C8_9 
REMARK    7  A    between atoms: C7_7  and  O1_8 
REMARK    8  A    between atoms: C8_9  and  O3_11 
ROOT
HETATM    1  C9  UNL     1      -1.840  51.346 -22.068  1.00  0.00    -0.002 C 
HETATM    2  C10 UNL     1      -2.793  52.376 -22.752  1.00  0.00     0.006 C 
HETATM    3  C11 UNL     1      -4.137  51.656 -23.004  1.00  0.00     0.011 C 
HETATM    4  C12 UNL     1      -4.072  50.399 -22.123  1.00  0.00    -0.032 C 
HETATM    5  C13 UNL     1      -4.427  50.869 -20.676  1.00  0.00     0.016 C 
HETATM    6  C14 UNL     1      -5.001  49.210 -22.518  1.00  0.00     0.004 C 
HETATM    7  C15 UNL     1      -6.492  49.540 -22.619  1.00  0.00     0.007 C 
HETATM    8  C16 UNL     1      -7.383  49.305 -21.404  1.00  0.00     0.007 C 
HETATM    9  C17 UNL     1      -6.812  48.547 -20.193  1.00  0.00     0.010 C 
HETATM   10  C18 UNL     1      -7.927  47.858 -19.334  1.00  0.00     0.018 C 
HETATM   11  C19 UNL     1      -8.947  48.904 -18.836  1.00  0.00     0.023 C 
HETATM   12  C20 UNL     1      -8.698  46.753 -20.079  1.00  0.00     0.023 C 
HETATM   13  C21 UNL     1      -7.253  47.210 -18.115  1.00  0.00     0.135 C 
HETATM   14  O4  UNL     1      -7.655  47.376 -16.963  1.00  0.00    -0.297 OA
HETATM   15  C22 UNL     1      -6.098  46.282 -18.393  1.00  0.00     0.080 C 
HETATM   16  C23 UNL     1      -5.051  46.994 -19.228  1.00  0.00     0.018 C 
HETATM   17  C24 UNL     1      -5.641  47.604 -20.495  1.00  0.00    -0.026 A 
HETATM   18  C25 UNL     1      -5.619  46.779 -21.758  1.00  0.00     0.021 A 
HETATM   19  C26 UNL     1      -4.687  47.977 -21.649  1.00  0.00    -0.027 A 
HETATM   20  C27 UNL     1      -3.191  47.625 -21.606  1.00  0.00     0.011 C 
HETATM   21  C28 UNL     1      -2.259  48.826 -21.354  1.00  0.00     0.011 C 
HETATM   22  C29 UNL     1      -2.555  49.982 -22.326  1.00  0.00    -0.032 C 
HETATM   23  C30 UNL     1      -2.210  49.492 -23.764  1.00  0.00     0.016 C 
ENDROOT
BRANCH   1  24
HETATM   24  C2  UNL     1      -0.326  51.596 -22.362  1.00  0.00    -0.014 C 
HETATM   25  C1  UNL     1       0.560  51.909 -21.151  1.00  0.00     0.010 C 
BRANCH  24  26
HETATM   26  C3  UNL     1      -0.146  52.642 -23.489  1.00  0.00     0.008 C 
BRANCH  26  27
HETATM   27  C4  UNL     1       0.632  52.165 -24.725  1.00  0.00     0.028 C 
BRANCH  27  28
HETATM   28  C5  UNL     1       0.349  52.926 -25.988  1.00  0.00    -0.011 C 
HETATM   29  C6  UNL     1      -0.762  52.820 -26.749  1.00  0.00     0.035 C 
BRANCH  29  30
HETATM   30  C7  UNL     1      -1.954  51.978 -26.408  1.00  0.00     0.209 C 
BRANCH  30  31
HETATM   31  O1  UNL     1      -3.086  52.824 -26.242  1.00  0.00    -0.396 OA
HETATM   32  H12 UNL     1      -3.787  52.278 -25.848  1.00  0.00     0.209 HD
ENDBRANCH  30  31
ENDBRANCH  29  30
BRANCH  29  33
HETATM   33  C8  UNL     1      -0.908  53.622 -27.990  1.00  0.00     0.173 C 
HETATM   34  O2  UNL     1      -1.696  54.536 -28.157  1.00  0.00    -0.646 OA
BRANCH  33  35
HETATM   35  O3  UNL     1      -0.063  53.263 -28.973  1.00  0.00    -0.773 OA
HETATM   36  H13 UNL     1      -0.302  53.862 -29.711  1.00  0.00     0.167 HD
ENDBRANCH  33  35
ENDBRANCH  29  33
ENDBRANCH  27  28
ENDBRANCH  26  27
ENDBRANCH  24  26
ENDBRANCH   1  24
TORSDOF 8
ENDMDL
MODEL 6
REMARK minimizedAffinity -8.89391041
REMARK  8 active torsions:
REMARK  status: ('A' for Active; 'I' for Inactive)
REMARK    1  A    between atoms: C2_2  and  C3_3 
REMARK    2  A    between atoms: C2_2  and  C9_12 
REMARK    3  A    between atoms: C3_3  and  C4_4 
REMARK    4  A    between atoms: C4_4  and  C5_5 
REMARK    5  A    between atoms: C6_6  and  C7_7 
REMARK    6  A    between atoms: C6_6  and  C8_9 
REMARK    7  A    between atoms: C7_7  and  O1_8 
REMARK    8  A    between atoms: C8_9  and  O3_11 
ROOT
HETATM    1  C9  UNL     1      -2.574  48.049 -19.238  1.00  0.00    -0.002 C 
HETATM    2  C10 UNL     1      -3.215  46.912 -20.094  1.00  0.00     0.006 C 
HETATM    3  C11 UNL     1      -3.634  47.539 -21.443  1.00  0.00     0.011 C 
HETATM    4  C12 UNL     1      -2.883  48.879 -21.496  1.00  0.00    -0.032 C 
HETATM    5  C13 UNL     1      -1.426  48.536 -21.940  1.00  0.00     0.016 C 
HETATM    6  C14 UNL     1      -3.462  49.977 -22.439  1.00  0.00     0.004 C 
HETATM    7  C15 UNL     1      -3.636  49.568 -23.904  1.00  0.00     0.007 C 
HETATM    8  C16 UNL     1      -2.518  49.879 -24.893  1.00  0.00     0.007 C 
HETATM    9  C17 UNL     1      -1.353  50.779 -24.446  1.00  0.00     0.010 C 
HETATM   10  C18 UNL     1      -0.650  51.496 -25.650  1.00  0.00     0.018 C 
HETATM   11  C19 UNL     1      -0.122  50.457 -26.662  1.00  0.00     0.023 C 
HETATM   12  C20 UNL     1      -1.557  52.484 -26.406  1.00  0.00     0.023 C 
HETATM   13  C21 UNL     1       0.542  52.292 -25.096  1.00  0.00     0.135 C 
HETATM   14  O4  UNL     1       1.674  52.221 -25.578  1.00  0.00    -0.297 OA
HETATM   15  C22 UNL     1       0.255  53.241 -23.962  1.00  0.00     0.080 C 
HETATM   16  C23 UNL     1      -0.427  52.501 -22.827  1.00  0.00     0.018 C 
HETATM   17  C24 UNL     1      -1.664  51.743 -23.294  1.00  0.00    -0.026 A 
HETATM   18  C25 UNL     1      -3.000  52.439 -23.209  1.00  0.00     0.021 A 
HETATM   19  C26 UNL     1      -2.703  51.304 -22.242  1.00  0.00    -0.027 A 
HETATM   20  C27 UNL     1      -2.589  51.728 -20.768  1.00  0.00     0.011 C 
HETATM   21  C28 UNL     1      -2.151  50.604 -19.810  1.00  0.00     0.011 C 
HETATM   22  C29 UNL     1      -3.019  49.345 -19.985  1.00  0.00    -0.032 C 
HETATM   23  C30 UNL     1      -4.471  49.707 -19.553  1.00  0.00     0.016 C 
ENDROOT
BRANCH   1  24
HETATM   24  C2  UNL     1      -2.731  47.842 -17.698  1.00  0.00    -0.014 C 
HETATM   25  C1  UNL     1      -4.162  47.669 -17.176  1.00  0.00     0.010 C 
BRANCH  24  26
HETATM   26  C3  UNL     1      -1.964  48.932 -16.911  1.00  0.00     0.008 C 
BRANCH  26  27
HETATM   27  C4  UNL     1      -0.471  49.075 -17.251  1.00  0.00     0.028 C 
BRANCH  27  28
HETATM   28  C5  UNL     1       0.331  49.877 -16.267  1.00  0.00    -0.011 C 
HETATM   29  C6  UNL     1       0.820  51.120 -16.464  1.00  0.00     0.035 C 
BRANCH  29  30
HETATM   30  C7  UNL     1       0.565  51.955 -17.683  1.00  0.00     0.209 C 
BRANCH  30  31
HETATM   31  O1  UNL     1       1.574  52.955 -17.777  1.00  0.00    -0.396 OA
HETATM   32  H12 UNL     1       1.281  53.582 -18.460  1.00  0.00     0.209 HD
ENDBRANCH  30  31
ENDBRANCH  29  30
BRANCH  29  33
HETATM   33  C8  UNL     1       1.618  51.795 -15.410  1.00  0.00     0.173 C 
HETATM   34  O2  UNL     1       2.637  51.361 -14.902  1.00  0.00    -0.646 OA
BRANCH  33  35
HETATM   35  O3  UNL     1       1.124  52.988 -15.032  1.00  0.00    -0.773 OA
HETATM   36  H13 UNL     1       1.742  53.280 -14.331  1.00  0.00     0.167 HD
ENDBRANCH  33  35
ENDBRANCH  29  33
ENDBRANCH  27  28
ENDBRANCH  26  27
ENDBRANCH  24  26
ENDBRANCH   1  24
TORSDOF 8
ENDMDL
MODEL 7
REMARK minimizedAffinity -8.77260303
REMARK  8 active torsions:
REMARK  status: ('A' for Active; 'I' for Inactive)
REMARK    1  A    between atoms: C2_2  and  C3_3 
REMARK    2  A    between atoms: C2_2  and  C9_12 
REMARK    3  A    between atoms: C3_3  and  C4_4 
REMARK    4  A    between atoms: C4_4  and  C5_5 
REMARK    5  A    between atoms: C6_6  and  C7_7 
REMARK    6  A    between atoms: C6_6  and  C8_9 
REMARK    7  A    between atoms: C7_7  and  O1_8 
REMARK    8  A    between atoms: C8_9  and  O3_11 
ROOT
HETATM    1  C9  UNL     1      -1.235  48.905 -18.482  1.00  0.00    -0.002 C 
HETATM    2  C10 UNL     1      -2.402  47.875 -18.597  1.00  0.00     0.006 C 
HETATM    3  C11 UNL     1      -3.311  48.344 -19.756  1.00  0.00     0.011 C 
HETATM    4  C12 UNL     1      -2.460  49.368 -20.523  1.00  0.00    -0.032 C 
HETATM    5  C13 UNL     1      -1.493  48.535 -21.424  1.00  0.00     0.016 C 
HETATM    6  C14 UNL     1      -3.224  50.400 -21.408  1.00  0.00     0.004 C 
HETATM    7  C15 UNL     1      -4.162  49.804 -22.461  1.00  0.00     0.007 C 
HETATM    8  C16 UNL     1      -3.638  49.585 -23.876  1.00  0.00     0.007 C 
HETATM    9  C17 UNL     1      -2.266  50.165 -24.263  1.00  0.00     0.010 C 
HETATM   10  C18 UNL     1      -2.129  50.411 -25.805  1.00  0.00     0.018 C 
HETATM   11  C19 UNL     1      -2.357  49.098 -26.583  1.00  0.00     0.023 C 
HETATM   12  C20 UNL     1      -3.101  51.471 -26.357  1.00  0.00     0.023 C 
HETATM   13  C21 UNL     1      -0.701  50.904 -26.081  1.00  0.00     0.135 C 
HETATM   14  O4  UNL     1       0.017  50.416 -26.955  1.00  0.00    -0.297 OA
HETATM   15  C22 UNL     1      -0.223  52.085 -25.275  1.00  0.00     0.080 C 
HETATM   16  C23 UNL     1      -0.379  51.798 -23.794  1.00  0.00     0.018 C 
HETATM   17  C24 UNL     1      -1.798  51.369 -23.436  1.00  0.00    -0.026 A 
HETATM   18  C25 UNL     1      -2.775  52.433 -23.000  1.00  0.00     0.021 A 
HETATM   19  C26 UNL     1      -2.246  51.454 -21.962  1.00  0.00    -0.027 A 
HETATM   20  C27 UNL     1      -1.353  52.085 -20.881  1.00  0.00     0.011 C 
HETATM   21  C28 UNL     1      -0.706  51.073 -19.915  1.00  0.00     0.011 C 
HETATM   22  C29 UNL     1      -1.754  50.118 -19.316  1.00  0.00    -0.032 C 
HETATM   23  C30 UNL     1      -2.718  50.966 -18.434  1.00  0.00     0.016 C 
ENDROOT
BRANCH   1  24
HETATM   24  C2  UNL     1      -0.651  49.036 -17.039  1.00  0.00    -0.014 C 
HETATM   25  C1  UNL     1      -1.666  49.249 -15.910  1.00  0.00     0.010 C 
BRANCH  24  26
HETATM   26  C3  UNL     1       0.484  50.087 -16.994  1.00  0.00     0.008 C 
BRANCH  26  27
HETATM   27  C4  UNL     1       0.210  51.330 -16.132  1.00  0.00     0.028 C 
BRANCH  27  28
HETATM   28  C5  UNL     1       0.941  51.368 -14.821  1.00  0.00    -0.011 C 
HETATM   29  C6  UNL     1       2.240  51.693 -14.643  1.00  0.00     0.035 C 
BRANCH  29  30
HETATM   30  C7  UNL     1       3.160  52.163 -15.729  1.00  0.00     0.209 C 
BRANCH  30  31
HETATM   31  O1  UNL     1       2.597  53.315 -16.345  1.00  0.00    -0.396 OA
HETATM   32  H12 UNL     1       3.115  53.483 -17.150  1.00  0.00     0.209 HD
ENDBRANCH  30  31
ENDBRANCH  29  30
BRANCH  29  33
HETATM   33  C8  UNL     1       2.846  51.671 -13.288  1.00  0.00     0.173 C 
HETATM   34  O2  UNL     1       3.334  50.695 -12.743  1.00  0.00    -0.646 OA
BRANCH  33  35
HETATM   35  O3  UNL     1       2.831  52.862 -12.664  1.00  0.00    -0.773 OA
HETATM   36  H13 UNL     1       3.239  52.671 -11.794  1.00  0.00     0.167 HD
ENDBRANCH  33  35
ENDBRANCH  29  33
ENDBRANCH  27  28
ENDBRANCH  26  27
ENDBRANCH  24  26
ENDBRANCH   1  24
TORSDOF 8
ENDMDL
MODEL 8
REMARK minimizedAffinity -8.75780487
REMARK  8 active torsions:
REMARK  status: ('A' for Active; 'I' for Inactive)
REMARK    1  A    between atoms: C2_2  and  C3_3 
REMARK    2  A    between atoms: C2_2  and  C9_12 
REMARK    3  A    between atoms: C3_3  and  C4_4 
REMARK    4  A    between atoms: C4_4  and  C5_5 
REMARK    5  A    between atoms: C6_6  and  C7_7 
REMARK    6  A    between atoms: C6_6  and  C8_9 
REMARK    7  A    between atoms: C7_7  and  O1_8 
REMARK    8  A    between atoms: C8_9  and  O3_11 
ROOT
HETATM    1  C9  UNL     1      -2.032  49.056 -20.414  1.00  0.00    -0.002 C 
HETATM    2  C10 UNL     1      -3.554  49.213 -20.726  1.00  0.00     0.006 C 
HETATM    3  C11 UNL     1      -3.702  50.430 -21.666  1.00  0.00     0.011 C 
HETATM    4  C12 UNL     1      -2.280  50.690 -22.188  1.00  0.00    -0.032 C 
HETATM    5  C13 UNL     1      -2.045  49.651 -23.330  1.00  0.00     0.016 C 
HETATM    6  C14 UNL     1      -1.975  52.121 -22.727  1.00  0.00     0.004 C 
HETATM    7  C15 UNL     1      -2.898  52.620 -23.841  1.00  0.00     0.007 C 
HETATM    8  C16 UNL     1      -2.474  52.421 -25.293  1.00  0.00     0.007 C 
HETATM    9  C17 UNL     1      -1.048  51.929 -25.595  1.00  0.00     0.010 C 
HETATM   10  C18 UNL     1      -0.557  52.345 -27.024  1.00  0.00     0.018 C 
HETATM   11  C19 UNL     1      -1.516  51.798 -28.103  1.00  0.00     0.023 C 
HETATM   12  C20 UNL     1      -0.428  53.866 -27.223  1.00  0.00     0.023 C 
HETATM   13  C21 UNL     1       0.833  51.729 -27.245  1.00  0.00     0.135 C 
HETATM   14  O4  UNL     1       1.127  51.091 -28.257  1.00  0.00    -0.297 OA
HETATM   15  C22 UNL     1       1.872  52.003 -26.188  1.00  0.00     0.080 C 
HETATM   16  C23 UNL     1       1.348  51.588 -24.827  1.00  0.00     0.018 C 
HETATM   17  C24 UNL     1      -0.003  52.221 -24.511  1.00  0.00    -0.026 A 
HETATM   18  C25 UNL     1      -0.017  53.527 -23.756  1.00  0.00     0.021 A 
HETATM   19  C26 UNL     1      -0.473  52.264 -23.043  1.00  0.00    -0.027 A 
HETATM   20  C27 UNL     1       0.438  51.813 -21.889  1.00  0.00     0.011 C 
HETATM   21  C28 UNL     1       0.052  50.460 -21.260  1.00  0.00     0.011 C 
HETATM   22  C29 UNL     1      -1.436  50.424 -20.871  1.00  0.00    -0.032 C 
HETATM   23  C30 UNL     1      -1.657  51.475 -19.743  1.00  0.00     0.016 C 
ENDROOT
BRANCH   1  24
HETATM   24  C2  UNL     1      -1.738  48.407 -19.023  1.00  0.00    -0.014 C 
HETATM   25  C1  UNL     1      -2.679  47.278 -18.585  1.00  0.00     0.010 C 
BRANCH  24  26
HETATM   26  C3  UNL     1      -1.593  49.489 -17.927  1.00  0.00     0.008 C 
BRANCH  26  27
HETATM   27  C4  UNL     1      -0.406  49.311 -16.965  1.00  0.00     0.028 C 
BRANCH  27  28
HETATM   28  C5  UNL     1       0.609  50.417 -16.997  1.00  0.00    -0.011 C 
HETATM   29  C6  UNL     1       1.010  51.160 -15.943  1.00  0.00     0.035 C 
BRANCH  29  30
HETATM   30  C7  UNL     1       0.568  50.943 -14.527  1.00  0.00     0.209 C 
BRANCH  30  31
HETATM   31  O1  UNL     1       0.026  52.158 -14.021  1.00  0.00    -0.396 OA
HETATM   32  H12 UNL     1      -0.079  52.038 -13.062  1.00  0.00     0.209 HD
ENDBRANCH  30  31
ENDBRANCH  29  30
BRANCH  29  33
HETATM   33  C8  UNL     1       2.012  52.242 -16.117  1.00  0.00     0.173 C 
HETATM   34  O2  UNL     1       3.222  52.104 -16.069  1.00  0.00    -0.646 OA
BRANCH  33  35
HETATM   35  O3  UNL     1       1.474  53.451 -16.354  1.00  0.00    -0.773 OA
HETATM   36  H13 UNL     1       2.253  54.040 -16.420  1.00  0.00     0.167 HD
ENDBRANCH  33  35
ENDBRANCH  29  33
ENDBRANCH  27  28
ENDBRANCH  26  27
ENDBRANCH  24  26
ENDBRANCH   1  24
TORSDOF 8
ENDMDL
MODEL 9
REMARK minimizedAffinity -8.7286911
REMARK  8 active torsions:
REMARK  status: ('A' for Active; 'I' for Inactive)
REMARK    1  A    between atoms: C2_2  and  C3_3 
REMARK    2  A    between atoms: C2_2  and  C9_12 
REMARK    3  A    between atoms: C3_3  and  C4_4 
REMARK    4  A    between atoms: C4_4  and  C5_5 
REMARK    5  A    between atoms: C6_6  and  C7_7 
REMARK    6  A    between atoms: C6_6  and  C8_9 
REMARK    7  A    between atoms: C7_7  and  O1_8 
REMARK    8  A    between atoms: C8_9  and  O3_11 
ROOT
HETATM    1  C9  UNL     1      -2.832  51.309 -22.038  1.00  0.00    -0.002 C 
HETATM    2  C10 UNL     1      -4.350  51.258 -21.681  1.00  0.00     0.006 C 
HETATM    3  C11 UNL     1      -4.478  50.505 -20.338  1.00  0.00     0.011 C 
HETATM    4  C12 UNL     1      -3.052  50.496 -19.764  1.00  0.00    -0.032 C 
HETATM    5  C13 UNL     1      -2.839  51.904 -19.122  1.00  0.00     0.016 C 
HETATM    6  C14 UNL     1      -2.721  49.397 -18.709  1.00  0.00     0.004 C 
HETATM    7  C15 UNL     1      -3.637  49.358 -17.483  1.00  0.00     0.007 C 
HETATM    8  C16 UNL     1      -3.220  50.118 -16.227  1.00  0.00     0.007 C 
HETATM    9  C17 UNL     1      -1.804  50.715 -16.150  1.00  0.00     0.010 C 
HETATM   10  C18 UNL     1      -1.309  50.901 -14.675  1.00  0.00     0.018 C 
HETATM   11  C19 UNL     1      -2.280  51.809 -13.891  1.00  0.00     0.023 C 
HETATM   12  C20 UNL     1      -1.151  49.582 -13.897  1.00  0.00     0.023 C 
HETATM   13  C21 UNL     1       0.069  51.579 -14.721  1.00  0.00     0.135 C 
HETATM   14  O4  UNL     1       0.349  52.569 -14.042  1.00  0.00    -0.297 OA
HETATM   15  C22 UNL     1       1.115  50.932 -15.591  1.00  0.00     0.080 C 
HETATM   16  C23 UNL     1       0.586  50.771 -17.004  1.00  0.00     0.018 C 
HETATM   17  C24 UNL     1      -0.751  50.041 -17.039  1.00  0.00    -0.026 A 
HETATM   18  C25 UNL     1      -0.740  48.543 -17.221  1.00  0.00     0.021 A 
HETATM   19  C26 UNL     1      -1.218  49.417 -18.371  1.00  0.00    -0.027 A 
HETATM   20  C27 UNL     1      -0.313  49.396 -19.614  1.00  0.00     0.011 C 
HETATM   21  C28 UNL     1      -0.723  50.387 -20.720  1.00  0.00     0.011 C 
HETATM   22  C29 UNL     1      -2.211  50.241 -21.084  1.00  0.00    -0.032 C 
HETATM   23  C30 UNL     1      -2.409  48.827 -21.708  1.00  0.00     0.016 C 
ENDROOT
BRANCH   1  24
HETATM   24  C2  UNL     1      -2.547  51.366 -23.573  1.00  0.00    -0.014 C 
HETATM   25  C1  UNL     1      -3.545  50.635 -24.479  1.00  0.00     0.010 C 
BRANCH  24  26
HETATM   26  C3  UNL     1      -1.087  50.956 -23.881  1.00  0.00     0.008 C 
BRANCH  26  27
HETATM   27  C4  UNL     1      -0.053  52.093 -23.850  1.00  0.00     0.028 C 
BRANCH  27  28
HETATM   28  C5  UNL     1      -0.311  53.213 -24.817  1.00  0.00    -0.011 C 
HETATM   29  C6  UNL     1       0.130  53.281 -26.092  1.00  0.00     0.035 C 
BRANCH  29  30
HETATM   30  C7  UNL     1       0.887  52.194 -26.793  1.00  0.00     0.209 C 
BRANCH  30  31
HETATM   31  O1  UNL     1       2.265  52.299 -26.458  1.00  0.00    -0.396 OA
HETATM   32  H12 UNL     1       2.746  51.708 -27.062  1.00  0.00     0.209 HD
ENDBRANCH  30  31
ENDBRANCH  29  30
BRANCH  29  33
HETATM   33  C8  UNL     1      -0.182  54.460 -26.938  1.00  0.00     0.173 C 
HETATM   34  O2  UNL     1      -0.805  54.438 -27.985  1.00  0.00    -0.646 OA
BRANCH  33  35
HETATM   35  O3  UNL     1       0.285  55.622 -26.448  1.00  0.00    -0.773 OA
HETATM   36  H13 UNL     1       0.018  56.280 -27.123  1.00  0.00     0.167 HD
ENDBRANCH  33  35
ENDBRANCH  29  33
ENDBRANCH  27  28
ENDBRANCH  26  27
ENDBRANCH  24  26
ENDBRANCH   1  24
TORSDOF 8
ENDMDL
