MODEL 1
REMARK minimizedAffinity -9.01530266
REMARK CNNscore 0.201657832
REMARK CNNaffinity 6.49534607
REMARK  7 active torsions:
REMARK  status: ('A' for Active; 'I' for Inactive)
REMARK    1  A    between atoms: C2_2  and  C3_3 
REMARK    2  A    between atoms: C9_10  and  O1_11 
REMARK    3  A    between atoms: C18_22  and  C19_23 
REMARK    4  A    between atoms: C33_39  and  C34_40 
REMARK    5  A    between atoms: C34_40  and  O2_41 
REMARK    6  A    between atoms: C35_42  and  C38_45 
REMARK    7  A    between atoms: C39_46  and  O3_47 
ROOT
HETATM    1  C19 UNL     1       1.743  10.932  18.214  1.00  0.00    -0.003 C 
HETATM    2  C20 UNL     1       2.353  10.096  19.079  1.00  0.00     0.102 C 
HETATM    3  N3  UNL     1       3.137  10.514  20.137  1.00  0.00    -0.349 N 
HETATM    4  C21 UNL     1       2.963  10.058  21.473  1.00  0.00     0.041 A 
HETATM    5  C22 UNL     1       2.395   8.863  21.885  1.00  0.00     0.030 A 
HETATM    6  C23 UNL     1       2.273   8.604  23.249  1.00  0.00     0.002 A 
HETATM    7  C24 UNL     1       2.717   9.536  24.195  1.00  0.00     0.001 A 
HETATM    8  C25 UNL     1       3.301  10.735  23.784  1.00  0.00     0.010 A 
HETATM    9  C26 UNL     1       3.414  10.984  22.423  1.00  0.00    -0.018 A 
HETATM   10  C27 UNL     1       4.010  12.167  21.712  1.00  0.00     0.041 C 
HETATM   11  C28 UNL     1       5.542  12.112  21.757  1.00  0.00     0.046 C 
HETATM   12  C29 UNL     1       5.961  13.474  21.235  1.00  0.00     0.239 C 
HETATM   13  N4  UNL     1       4.922  14.444  21.832  1.00  0.00    -0.062 N 
HETATM   14  C30 UNL     1       5.530  15.163  23.032  1.00  0.00     0.273 C 
HETATM   15  C31 UNL     1       4.519  15.489  20.798  1.00  0.00     0.271 C 
HETATM   16  C32 UNL     1       3.495  15.016  19.794  1.00  0.00    -0.051 C 
HETATM   17  C33 UNL     1       3.555  15.360  18.493  1.00  0.00     0.004 C 
HETATM   18  C35 UNL     1       2.317  14.223  20.341  1.00  0.00     0.027 C 
HETATM   19  C36 UNL     1       2.400  14.194  21.873  1.00  0.00     0.044 C 
HETATM   20  C37 UNL     1       3.716  13.557  22.298  1.00  0.00     0.206 C 
HETATM   21  C38 UNL     1       2.213  12.747  19.904  1.00  0.00     0.052 C 
HETATM   22  C39 UNL     1       1.863  12.443  18.424  1.00  0.00     0.160 C 
HETATM   23  C40 UNL     1       3.475  11.946  20.269  1.00  0.00     0.112 C 
ENDROOT
BRANCH   1  24
HETATM   24  C18 UNL     1       0.888  10.390  17.156  1.00  0.00    -0.016 A 
HETATM   25  C3  UNL     1      -0.581  10.235  17.241  1.00  0.00    -0.032 A 
HETATM   26  C4  UNL     1      -1.229   9.707  16.182  1.00  0.00     0.099 A 
HETATM   27  N1  UNL     1      -0.612   9.331  14.993  1.00  0.00    -0.354 N 
HETATM   28  C5  UNL     1      -1.337   8.525  13.983  1.00  0.00     0.133 C 
HETATM   29  C16 UNL     1       0.785   9.495  14.857  1.00  0.00     0.062 A 
HETATM   30  C6  UNL     1      -0.774   8.726  12.568  1.00  0.00     0.062 C 
HETATM   31  C7  UNL     1       0.722   8.730  12.538  1.00  0.00    -0.012 A 
HETATM   32  C8  UNL     1       1.592   8.439  11.565  1.00  0.00     0.033 A 
HETATM   33  C15 UNL     1       1.431   9.172  13.719  1.00  0.00     0.067 A 
HETATM   34  C9  UNL     1       1.544   8.006  10.198  1.00  0.00     0.081 A 
HETATM   35  C14 UNL     1       2.868   8.783  12.229  1.00  0.00     0.046 A 
HETATM   36  C11 UNL     1       2.712   7.913   9.529  1.00  0.00     0.038 A 
HETATM   37  C12 UNL     1       3.988   8.234  10.157  1.00  0.00     0.005 A 
HETATM   38  C13 UNL     1       4.099   8.637  11.431  1.00  0.00     0.030 A 
HETATM   39  N2  UNL     1       2.784   9.200  13.455  1.00  0.00    -0.353 N 
ATOM     40  H2  UNL     1       3.542   9.484  14.077  1.00  0.00     0.166 HD
HETATM   41  C17 UNL     1       1.504  10.036  16.006  1.00  0.00     0.044 A 
BRANCH  25  42
HETATM   42  C2  UNL     1      -1.343  10.648  18.476  1.00  0.00     0.036 C 
HETATM   43  C1  UNL     1      -2.779  10.139  18.501  1.00  0.00     0.010 C 
ENDBRANCH  25  42
BRANCH  34  44
HETATM   44  O1  UNL     1       0.281   7.750   9.720  1.00  0.00    -0.355 OA
HETATM   45  C10 UNL     1      -0.112   8.427   8.523  1.00  0.00     0.210 C 
ENDBRANCH  34  44
ENDBRANCH   1  24
BRANCH  22  46
HETATM   46  O3  UNL     1       0.671  13.162  18.122  1.00  0.00    -0.390 OA
HETATM   47  H42 UNL     1       0.031  12.547  17.729  1.00  0.00     0.210 HD
ENDBRANCH  22  46
BRANCH  17  48
HETATM   48  C34 UNL     1       4.639  16.160  17.845  1.00  0.00     0.191 C 
BRANCH  48  49
HETATM   49  O2  UNL     1       4.081  16.704  16.650  1.00  0.00    -0.397 OA
HETATM   50  H35 UNL     1       4.742  17.335  16.302  1.00  0.00     0.209 HD
ENDBRANCH  48  49
ENDBRANCH  17  48
TORSDOF 7
ENDMDL
MODEL 2
REMARK minimizedAffinity -8.08777523
REMARK CNNscore 0.173251912
REMARK CNNaffinity 6.4491787
REMARK  7 active torsions:
REMARK  status: ('A' for Active; 'I' for Inactive)
REMARK    1  A    between atoms: C2_2  and  C3_3 
REMARK    2  A    between atoms: C9_10  and  O1_11 
REMARK    3  A    between atoms: C18_22  and  C19_23 
REMARK    4  A    between atoms: C33_39  and  C34_40 
REMARK    5  A    between atoms: C34_40  and  O2_41 
REMARK    6  A    between atoms: C35_42  and  C38_45 
REMARK    7  A    between atoms: C39_46  and  O3_47 
ROOT
HETATM    1  C19 UNL     1      -8.902  -8.630  -2.263  1.00  0.00    -0.003 C 
HETATM    2  C20 UNL     1      -7.579  -8.893  -2.227  1.00  0.00     0.102 C 
HETATM    3  N3  UNL     1      -6.920  -9.391  -1.120  1.00  0.00    -0.349 N 
HETATM    4  C21 UNL     1      -6.062 -10.526  -1.161  1.00  0.00     0.041 A 
HETATM    5  C22 UNL     1      -5.365 -11.013  -2.255  1.00  0.00     0.030 A 
HETATM    6  C23 UNL     1      -4.599 -12.168  -2.113  1.00  0.00     0.002 A 
HETATM    7  C24 UNL     1      -4.531 -12.832  -0.883  1.00  0.00     0.001 A 
HETATM    8  C25 UNL     1      -5.221 -12.339   0.226  1.00  0.00     0.010 A 
HETATM    9  C26 UNL     1      -5.984 -11.188   0.071  1.00  0.00    -0.018 A 
HETATM   10  C27 UNL     1      -6.801 -10.438   1.086  1.00  0.00     0.041 C 
HETATM   11  C28 UNL     1      -5.895  -9.627   2.019  1.00  0.00     0.046 C 
HETATM   12  C29 UNL     1      -6.840  -9.154   3.109  1.00  0.00     0.239 C 
HETATM   13  N4  UNL     1      -7.787 -10.350   3.334  1.00  0.00    -0.062 N 
HETATM   14  C30 UNL     1      -7.360 -11.105   4.589  1.00  0.00     0.273 C 
HETATM   15  C31 UNL     1      -9.218  -9.863   3.528  1.00  0.00     0.271 C 
HETATM   16  C32 UNL     1      -9.946  -9.533   2.246  1.00  0.00    -0.051 C 
HETATM   17  C33 UNL     1     -10.774  -8.475   2.146  1.00  0.00     0.004 C 
HETATM   18  C35 UNL     1      -9.795 -10.521   1.100  1.00  0.00     0.027 C 
HETATM   19  C36 UNL     1      -8.992 -11.735   1.586  1.00  0.00     0.044 C 
HETATM   20  C37 UNL     1      -7.625 -11.274   2.077  1.00  0.00     0.206 C 
HETATM   21  C38 UNL     1      -9.060 -10.015  -0.159  1.00  0.00     0.052 C 
HETATM   22  C39 UNL     1      -9.761  -8.945  -1.037  1.00  0.00     0.160 C 
HETATM   23  C40 UNL     1      -7.643  -9.512   0.163  1.00  0.00     0.112 C 
ENDROOT
BRANCH   1  24
HETATM   24  C18 UNL     1      -9.516  -8.153  -3.504  1.00  0.00    -0.016 A 
HETATM   25  C3  UNL     1     -10.312  -8.981  -4.436  1.00  0.00    -0.032 A 
HETATM   26  C4  UNL     1     -10.805  -8.396  -5.548  1.00  0.00     0.099 A 
HETATM   27  N1  UNL     1     -10.647  -7.050  -5.860  1.00  0.00    -0.354 N 
HETATM   28  C5  UNL     1     -10.987  -6.539  -7.209  1.00  0.00     0.133 C 
HETATM   29  C16 UNL     1      -9.924  -6.215  -4.979  1.00  0.00     0.062 A 
HETATM   30  C6  UNL     1     -11.335  -5.044  -7.192  1.00  0.00     0.062 C 
HETATM   31  C7  UNL     1     -10.400  -4.243  -6.339  1.00  0.00    -0.012 A 
HETATM   32  C8  UNL     1     -10.052  -2.953  -6.374  1.00  0.00     0.033 A 
HETATM   33  C15 UNL     1      -9.762  -4.899  -5.218  1.00  0.00     0.067 A 
HETATM   34  C9  UNL     1     -10.351  -1.797  -7.168  1.00  0.00     0.081 A 
HETATM   35  C14 UNL     1      -9.199  -2.870  -5.168  1.00  0.00     0.046 A 
HETATM   36  C11 UNL     1      -9.820  -0.617  -6.784  1.00  0.00     0.038 A 
HETATM   37  C12 UNL     1      -8.967  -0.503  -5.607  1.00  0.00     0.005 A 
HETATM   38  C13 UNL     1      -8.645  -1.546  -4.828  1.00  0.00     0.030 A 
HETATM   39  N2  UNL     1      -9.030  -3.973  -4.506  1.00  0.00    -0.353 N 
ATOM     40  H2  UNL     1      -8.484  -4.121  -3.657  1.00  0.00     0.166 HD
HETATM   41  C17 UNL     1      -9.359  -6.840  -3.788  1.00  0.00     0.044 A 
BRANCH  25  42
HETATM   42  C2  UNL     1     -10.567 -10.444  -4.164  1.00  0.00     0.036 C 
HETATM   43  C1  UNL     1      -9.451 -11.356  -4.656  1.00  0.00     0.010 C 
ENDBRANCH  25  42
BRANCH  34  44
HETATM   44  O1  UNL     1     -11.177  -2.034  -8.240  1.00  0.00    -0.355 OA
HETATM   45  C10 UNL     1     -10.631  -1.817  -9.545  1.00  0.00     0.210 C 
ENDBRANCH  34  44
ENDBRANCH   1  24
BRANCH  22  46
HETATM   46  O3  UNL     1     -11.055  -9.450  -1.355  1.00  0.00    -0.390 OA
HETATM   47  H42 UNL     1     -11.180  -9.393  -2.316  1.00  0.00     0.210 HD
ENDBRANCH  22  46
BRANCH  17  48
HETATM   48  C34 UNL     1     -11.031  -7.456   3.209  1.00  0.00     0.191 C 
BRANCH  48  49
HETATM   49  O2  UNL     1     -12.394  -7.058   3.068  1.00  0.00    -0.397 OA
HETATM   50  H35 UNL     1     -12.598  -6.500   3.845  1.00  0.00     0.209 HD
ENDBRANCH  48  49
ENDBRANCH  17  48
TORSDOF 7
ENDMDL
MODEL 3
REMARK minimizedAffinity -9.1163311
REMARK CNNscore 0.156482473
REMARK CNNaffinity 6.59329081
REMARK  7 active torsions:
REMARK  status: ('A' for Active; 'I' for Inactive)
REMARK    1  A    between atoms: C2_2  and  C3_3 
REMARK    2  A    between atoms: C9_10  and  O1_11 
REMARK    3  A    between atoms: C18_22  and  C19_23 
REMARK    4  A    between atoms: C33_39  and  C34_40 
REMARK    5  A    between atoms: C34_40  and  O2_41 
REMARK    6  A    between atoms: C35_42  and  C38_45 
REMARK    7  A    between atoms: C39_46  and  O3_47 
ROOT
HETATM    1  C19 UNL     1     -10.378   9.371  15.402  1.00  0.00    -0.003 C 
HETATM    2  C20 UNL     1     -10.449  10.545  14.740  1.00  0.00     0.102 C 
HETATM    3  N3  UNL     1     -10.990  11.700  15.271  1.00  0.00    -0.349 N 
HETATM    4  C21 UNL     1     -10.322  12.956  15.262  1.00  0.00     0.041 A 
HETATM    5  C22 UNL     1      -9.340  13.380  14.381  1.00  0.00     0.030 A 
HETATM    6  C23 UNL     1      -8.770  14.639  14.554  1.00  0.00     0.002 A 
HETATM    7  C24 UNL     1      -9.179  15.470  15.604  1.00  0.00     0.001 A 
HETATM    8  C25 UNL     1     -10.176  15.053  16.487  1.00  0.00     0.010 A 
HETATM    9  C26 UNL     1     -10.735  13.795  16.306  1.00  0.00    -0.018 A 
HETATM   10  C27 UNL     1     -11.824  13.110  17.086  1.00  0.00     0.041 C 
HETATM   11  C28 UNL     1     -13.196  13.692  16.729  1.00  0.00     0.046 C 
HETATM   12  C29 UNL     1     -14.121  13.083  17.766  1.00  0.00     0.239 C 
HETATM   13  N4  UNL     1     -13.283  13.072  19.061  1.00  0.00    -0.062 N 
HETATM   14  C30 UNL     1     -13.709  14.237  19.950  1.00  0.00     0.273 C 
HETATM   15  C31 UNL     1     -13.509  11.774  19.826  1.00  0.00     0.271 C 
HETATM   16  C32 UNL     1     -12.717  10.596  19.309  1.00  0.00    -0.051 C 
HETATM   17  C33 UNL     1     -13.239   9.356  19.247  1.00  0.00     0.004 C 
HETATM   18  C35 UNL     1     -11.257  10.850  18.969  1.00  0.00     0.027 C 
HETATM   19  C36 UNL     1     -10.892  12.288  19.363  1.00  0.00     0.044 C 
HETATM   20  C37 UNL     1     -11.792  13.262  18.614  1.00  0.00     0.206 C 
HETATM   21  C38 UNL     1     -10.857  10.714  17.484  1.00  0.00     0.052 C 
HETATM   22  C39 UNL     1     -10.865   9.298  16.850  1.00  0.00     0.160 C 
HETATM   23  C40 UNL     1     -11.677  11.647  16.578  1.00  0.00     0.112 C 
ENDROOT
BRANCH   1  24
HETATM   24  C18 UNL     1      -9.737   8.216  14.770  1.00  0.00    -0.016 A 
HETATM   25  C3  UNL     1     -10.422   7.219  13.918  1.00  0.00    -0.032 A 
HETATM   26  C4  UNL     1      -9.693   6.201  13.414  1.00  0.00     0.099 A 
HETATM   27  N1  UNL     1      -8.325   6.045  13.612  1.00  0.00    -0.354 N 
HETATM   28  C5  UNL     1      -7.647   4.778  13.251  1.00  0.00     0.133 C 
HETATM   29  C16 UNL     1      -7.625   6.994  14.389  1.00  0.00     0.062 A 
HETATM   30  C6  UNL     1      -6.153   4.983  12.958  1.00  0.00     0.062 C 
HETATM   31  C7  UNL     1      -5.491   5.893  13.945  1.00  0.00    -0.012 A 
HETATM   32  C8  UNL     1      -4.218   5.999  14.339  1.00  0.00     0.033 A 
HETATM   33  C15 UNL     1      -6.295   6.907  14.591  1.00  0.00     0.067 A 
HETATM   34  C9  UNL     1      -2.966   5.357  14.059  1.00  0.00     0.081 A 
HETATM   35  C14 UNL     1      -4.306   7.178  15.229  1.00  0.00     0.046 A 
HETATM   36  C11 UNL     1      -1.858   5.861  14.643  1.00  0.00     0.038 A 
HETATM   37  C12 UNL     1      -1.913   7.014  15.533  1.00  0.00     0.005 A 
HETATM   38  C13 UNL     1      -3.051   7.653  15.839  1.00  0.00     0.030 A 
HETATM   39  N2  UNL     1      -5.485   7.699  15.377  1.00  0.00    -0.353 N 
ATOM     40  H2  UNL     1      -5.751   8.506  15.941  1.00  0.00     0.166 HD
HETATM   41  C17 UNL     1      -8.406   8.084  14.966  1.00  0.00     0.044 A 
BRANCH  25  42
HETATM   42  C2  UNL     1     -11.898   7.325  13.619  1.00  0.00     0.036 C 
HETATM   43  C1  UNL     1     -12.741   6.291  14.354  1.00  0.00     0.010 C 
ENDBRANCH  25  42
BRANCH  34  44
HETATM   44  O1  UNL     1      -3.047   4.293  13.194  1.00  0.00    -0.355 OA
HETATM   45  C10 UNL     1      -2.311   4.388  11.970  1.00  0.00     0.210 C 
ENDBRANCH  34  44
ENDBRANCH   1  24
BRANCH  22  46
HETATM   46  O3  UNL     1     -10.068   8.463  17.685  1.00  0.00    -0.390 OA
HETATM   47  H42 UNL     1      -9.416   8.006  17.130  1.00  0.00     0.210 HD
ENDBRANCH  22  46
BRANCH  17  48
HETATM   48  C34 UNL     1     -14.645   8.975  19.584  1.00  0.00     0.191 C 
BRANCH  48  49
HETATM   49  O2  UNL     1     -14.878   7.707  18.974  1.00  0.00    -0.397 OA
HETATM   50  H35 UNL     1     -15.743   7.397  19.309  1.00  0.00     0.209 HD
ENDBRANCH  48  49
ENDBRANCH  17  48
TORSDOF 7
ENDMDL
MODEL 4
REMARK minimizedAffinity -8.19093227
REMARK CNNscore 0.136193797
REMARK CNNaffinity 6.08487368
REMARK  7 active torsions:
REMARK  status: ('A' for Active; 'I' for Inactive)
REMARK    1  A    between atoms: C2_2  and  C3_3 
REMARK    2  A    between atoms: C9_10  and  O1_11 
REMARK    3  A    between atoms: C18_22  and  C19_23 
REMARK    4  A    between atoms: C33_39  and  C34_40 
REMARK    5  A    between atoms: C34_40  and  O2_41 
REMARK    6  A    between atoms: C35_42  and  C38_45 
REMARK    7  A    between atoms: C39_46  and  O3_47 
ROOT
HETATM    1  C19 UNL     1      -9.606  -9.440   2.889  1.00  0.00    -0.003 C 
HETATM    2  C20 UNL     1      -8.705 -10.373   2.515  1.00  0.00     0.102 C 
HETATM    3  N3  UNL     1      -8.365 -10.637   1.202  1.00  0.00    -0.349 N 
HETATM    4  C21 UNL     1      -7.022 -10.688   0.735  1.00  0.00     0.041 A 
HETATM    5  C22 UNL     1      -5.884 -10.970   1.475  1.00  0.00     0.030 A 
HETATM    6  C23 UNL     1      -4.641 -10.935   0.847  1.00  0.00     0.002 A 
HETATM    7  C24 UNL     1      -4.535 -10.621  -0.512  1.00  0.00     0.001 A 
HETATM    8  C25 UNL     1      -5.679 -10.348  -1.265  1.00  0.00     0.010 A 
HETATM    9  C26 UNL     1      -6.913 -10.383  -0.629  1.00  0.00    -0.018 A 
HETATM   10  C27 UNL     1      -8.287 -10.152  -1.193  1.00  0.00     0.041 C 
HETATM   11  C28 UNL     1      -8.752 -11.368  -2.003  1.00  0.00     0.046 C 
HETATM   12  C29 UNL     1     -10.011 -10.874  -2.693  1.00  0.00     0.239 C 
HETATM   13  N4  UNL     1      -9.687  -9.414  -3.071  1.00  0.00    -0.062 N 
HETATM   14  C30 UNL     1      -9.328  -9.341  -4.552  1.00  0.00     0.273 C 
HETATM   15  C31 UNL     1     -10.899  -8.524  -2.824  1.00  0.00     0.271 C 
HETATM   16  C32 UNL     1     -11.086  -8.106  -1.385  1.00  0.00    -0.051 C 
HETATM   17  C33 UNL     1     -12.304  -8.033  -0.814  1.00  0.00     0.004 C 
HETATM   18  C35 UNL     1      -9.842  -7.653  -0.637  1.00  0.00     0.027 C 
HETATM   19  C36 UNL     1      -8.656  -7.618  -1.610  1.00  0.00     0.044 C 
HETATM   20  C37 UNL     1      -8.447  -9.006  -2.203  1.00  0.00     0.206 C 
HETATM   21  C38 UNL     1      -9.384  -8.534   0.544  1.00  0.00     0.052 C 
HETATM   22  C39 UNL     1     -10.265  -8.566   1.820  1.00  0.00     0.160 C 
HETATM   23  C40 UNL     1      -9.119  -9.986   0.111  1.00  0.00     0.112 C 
ENDROOT
BRANCH   1  24
HETATM   24  C18 UNL     1      -9.859  -9.201   4.311  1.00  0.00    -0.016 A 
HETATM   25  C3  UNL     1     -11.177  -8.881   4.902  1.00  0.00    -0.032 A 
HETATM   26  C4  UNL     1     -11.246  -8.675   6.234  1.00  0.00     0.099 A 
HETATM   27  N1  UNL     1     -10.163  -8.782   7.100  1.00  0.00    -0.354 N 
HETATM   28  C5  UNL     1     -10.257  -8.293   8.496  1.00  0.00     0.133 C 
HETATM   29  C16 UNL     1      -8.893  -9.121   6.582  1.00  0.00     0.062 A 
HETATM   30  C6  UNL     1      -9.271  -9.011   9.429  1.00  0.00     0.062 C 
HETATM   31  C7  UNL     1      -7.914  -9.174   8.819  1.00  0.00    -0.012 A 
HETATM   32  C8  UNL     1      -6.704  -9.313   9.370  1.00  0.00     0.033 A 
HETATM   33  C15 UNL     1      -7.815  -9.263   7.378  1.00  0.00     0.067 A 
HETATM   34  C9  UNL     1      -6.140  -9.360  10.688  1.00  0.00     0.081 A 
HETATM   35  C14 UNL     1      -5.880  -9.540   8.162  1.00  0.00     0.046 A 
HETATM   36  C11 UNL     1      -4.819  -9.614  10.796  1.00  0.00     0.038 A 
HETATM   37  C12 UNL     1      -3.977  -9.831   9.626  1.00  0.00     0.005 A 
HETATM   38  C13 UNL     1      -4.443  -9.794   8.369  1.00  0.00     0.030 A 
HETATM   39  N2  UNL     1      -6.506  -9.514   7.026  1.00  0.00    -0.353 N 
ATOM     40  H2  UNL     1      -6.120  -9.646   6.091  1.00  0.00     0.166 HD
HETATM   41  C17 UNL     1      -8.796  -9.315   5.139  1.00  0.00     0.044 A 
BRANCH  25  42
HETATM   42  C2  UNL     1     -12.416  -8.778   4.046  1.00  0.00     0.036 C 
HETATM   43  C1  UNL     1     -13.369  -9.955   4.215  1.00  0.00     0.010 C 
ENDBRANCH  25  42
BRANCH  34  44
HETATM   44  O1  UNL     1      -7.040  -9.154  11.706  1.00  0.00    -0.355 OA
HETATM   45  C10 UNL     1      -7.112 -10.155  12.726  1.00  0.00     0.210 C 
ENDBRANCH  34  44
ENDBRANCH   1  24
BRANCH  22  46
HETATM   46  O3  UNL     1     -10.463  -7.214   2.224  1.00  0.00    -0.390 OA
HETATM   47  H42 UNL     1     -10.231  -7.137   3.163  1.00  0.00     0.210 HD
ENDBRANCH  22  46
BRANCH  17  48
HETATM   48  C34 UNL     1     -13.600  -8.417  -1.454  1.00  0.00     0.191 C 
BRANCH  48  49
HETATM   49  O2  UNL     1     -14.465  -8.832  -0.399  1.00  0.00    -0.397 OA
HETATM   50  H35 UNL     1     -15.349  -8.949  -0.800  1.00  0.00     0.209 HD
ENDBRANCH  48  49
ENDBRANCH  17  48
TORSDOF 7
ENDMDL
MODEL 5
REMARK minimizedAffinity -8.83779621
REMARK CNNscore 0.132781133
REMARK CNNaffinity 6.37299299
REMARK  7 active torsions:
REMARK  status: ('A' for Active; 'I' for Inactive)
REMARK    1  A    between atoms: C2_2  and  C3_3 
REMARK    2  A    between atoms: C9_10  and  O1_11 
REMARK    3  A    between atoms: C18_22  and  C19_23 
REMARK    4  A    between atoms: C33_39  and  C34_40 
REMARK    5  A    between atoms: C34_40  and  O2_41 
REMARK    6  A    between atoms: C35_42  and  C38_45 
REMARK    7  A    between atoms: C39_46  and  O3_47 
ROOT
HETATM    1  C19 UNL     1       1.132   9.076  15.246  1.00  0.00    -0.003 C 
HETATM    2  C20 UNL     1       1.169   7.755  14.971  1.00  0.00     0.102 C 
HETATM    3  N3  UNL     1       0.059   7.004  14.637  1.00  0.00    -0.349 N 
HETATM    4  C21 UNL     1      -0.001   6.155  13.496  1.00  0.00     0.041 A 
HETATM    5  C22 UNL     1       1.062   5.557  12.837  1.00  0.00     0.030 A 
HETATM    6  C23 UNL     1       0.810   4.784  11.705  1.00  0.00     0.002 A 
HETATM    7  C24 UNL     1      -0.496   4.611  11.235  1.00  0.00     0.001 A 
HETATM    8  C25 UNL     1      -1.571   5.202  11.902  1.00  0.00     0.010 A 
HETATM    9  C26 UNL     1      -1.308   5.972  13.027  1.00  0.00    -0.018 A 
HETATM   10  C27 UNL     1      -2.263   6.696  13.935  1.00  0.00     0.041 C 
HETATM   11  C28 UNL     1      -2.980   5.711  14.865  1.00  0.00     0.046 C 
HETATM   12  C29 UNL     1      -4.061   6.558  15.513  1.00  0.00     0.239 C 
HETATM   13  N4  UNL     1      -4.547   7.484  14.379  1.00  0.00    -0.062 N 
HETATM   14  C30 UNL     1      -5.861   6.952  13.817  1.00  0.00     0.273 C 
HETATM   15  C31 UNL     1      -4.785   8.892  14.912  1.00  0.00     0.271 C 
HETATM   16  C32 UNL     1      -3.535   9.727  15.054  1.00  0.00    -0.051 C 
HETATM   17  C33 UNL     1      -3.346  10.559  16.098  1.00  0.00     0.004 C 
HETATM   18  C35 UNL     1      -2.544   9.678  13.901  1.00  0.00     0.027 C 
HETATM   19  C36 UNL     1      -3.140   8.839  12.763  1.00  0.00     0.044 C 
HETATM   20  C37 UNL     1      -3.437   7.434  13.273  1.00  0.00     0.206 C 
HETATM   21  C38 UNL     1      -1.165   9.054  14.199  1.00  0.00     0.052 C 
HETATM   22  C39 UNL     1      -0.196   9.826  15.134  1.00  0.00     0.160 C 
HETATM   23  C40 UNL     1      -1.284   7.613  14.723  1.00  0.00     0.112 C 
ENDROOT
BRANCH   1  24
HETATM   24  C18 UNL     1       2.374   9.794  15.539  1.00  0.00    -0.016 A 
HETATM   25  C3  UNL     1       3.353  10.253  14.529  1.00  0.00    -0.032 A 
HETATM   26  C4  UNL     1       4.459  10.895  14.958  1.00  0.00     0.099 A 
HETATM   27  N1  UNL     1       4.726  11.190  16.291  1.00  0.00    -0.354 N 
HETATM   28  C5  UNL     1       6.067  11.659  16.711  1.00  0.00     0.133 C 
HETATM   29  C16 UNL     1       3.800  10.801  17.284  1.00  0.00     0.062 A 
HETATM   30  C6  UNL     1       6.014  12.487  18.003  1.00  0.00     0.062 C 
HETATM   31  C7  UNL     1       5.112  11.886  19.036  1.00  0.00    -0.012 A 
HETATM   32  C8  UNL     1       5.097  11.987  20.369  1.00  0.00     0.033 A 
HETATM   33  C15 UNL     1       3.994  11.084  18.588  1.00  0.00     0.067 A 
HETATM   34  C9  UNL     1       5.864  12.642  21.389  1.00  0.00     0.081 A 
HETATM   35  C14 UNL     1       3.866  11.230  20.685  1.00  0.00     0.046 A 
HETATM   36  C11 UNL     1       5.429  12.541  22.663  1.00  0.00     0.038 A 
HETATM   37  C12 UNL     1       4.226  11.794  23.009  1.00  0.00     0.005 A 
HETATM   38  C13 UNL     1       3.471  11.155  22.103  1.00  0.00     0.030 A 
HETATM   39  N2  UNL     1       3.233  10.714  19.677  1.00  0.00    -0.353 N 
ATOM     40  H2  UNL     1       2.375  10.163  19.687  1.00  0.00     0.166 HD
HETATM   41  C17 UNL     1       2.613  10.079  16.838  1.00  0.00     0.044 A 
BRANCH  25  42
HETATM   42  C2  UNL     1       3.132  10.010  13.055  1.00  0.00     0.036 C 
HETATM   43  C1  UNL     1       3.810   8.746  12.541  1.00  0.00     0.010 C 
ENDBRANCH  25  42
BRANCH  34  44
HETATM   44  O1  UNL     1       6.965  13.325  20.931  1.00  0.00    -0.355 OA
HETATM   45  C10 UNL     1       8.208  13.081  21.598  1.00  0.00     0.210 C 
ENDBRANCH  34  44
ENDBRANCH   1  24
BRANCH  22  46
HETATM   46  O3  UNL     1      -0.071  11.144  14.606  1.00  0.00    -0.390 OA
HETATM   47  H42 UNL     1       0.873  11.351  14.519  1.00  0.00     0.210 HD
ENDBRANCH  22  46
BRANCH  17  48
HETATM   48  C34 UNL     1      -4.259  10.720  17.271  1.00  0.00     0.191 C 
BRANCH  48  49
HETATM   49  O2  UNL     1      -3.686   9.964  18.336  1.00  0.00    -0.397 OA
HETATM   50  H35 UNL     1      -4.205  10.181  19.136  1.00  0.00     0.209 HD
ENDBRANCH  48  49
ENDBRANCH  17  48
TORSDOF 7
ENDMDL
MODEL 6
REMARK minimizedAffinity -8.48680019
REMARK CNNscore 0.128304183
REMARK CNNaffinity 6.16149855
REMARK  7 active torsions:
REMARK  status: ('A' for Active; 'I' for Inactive)
REMARK    1  A    between atoms: C2_2  and  C3_3 
REMARK    2  A    between atoms: C9_10  and  O1_11 
REMARK    3  A    between atoms: C18_22  and  C19_23 
REMARK    4  A    between atoms: C33_39  and  C34_40 
REMARK    5  A    between atoms: C34_40  and  O2_41 
REMARK    6  A    between atoms: C35_42  and  C38_45 
REMARK    7  A    between atoms: C39_46  and  O3_47 
ROOT
HETATM    1  C19 UNL     1     -10.993  10.388  17.714  1.00  0.00    -0.003 C 
HETATM    2  C20 UNL     1     -10.504  11.634  17.536  1.00  0.00     0.102 C 
HETATM    3  N3  UNL     1     -10.471  12.600  18.523  1.00  0.00    -0.349 N 
HETATM    4  C21 UNL     1      -9.303  13.340  18.859  1.00  0.00     0.041 A 
HETATM    5  C22 UNL     1      -8.215  13.608  18.043  1.00  0.00     0.030 A 
HETATM    6  C23 UNL     1      -7.137  14.322  18.563  1.00  0.00     0.002 A 
HETATM    7  C24 UNL     1      -7.148  14.765  19.891  1.00  0.00     0.001 A 
HETATM    8  C25 UNL     1      -8.247  14.508  20.712  1.00  0.00     0.010 A 
HETATM    9  C26 UNL     1      -9.314  13.793  20.185  1.00  0.00    -0.018 A 
HETATM   10  C27 UNL     1     -10.613  13.398  20.829  1.00  0.00     0.041 C 
HETATM   11  C28 UNL     1     -11.559  14.600  20.926  1.00  0.00     0.046 C 
HETATM   12  C29 UNL     1     -12.686  14.096  21.809  1.00  0.00     0.239 C 
HETATM   13  N4  UNL     1     -11.977  13.223  22.865  1.00  0.00    -0.062 N 
HETATM   14  C30 UNL     1     -11.846  14.007  24.167  1.00  0.00     0.273 C 
HETATM   15  C31 UNL     1     -12.789  11.963  23.141  1.00  0.00     0.271 C 
HETATM   16  C32 UNL     1     -12.610  10.866  22.118  1.00  0.00    -0.051 C 
HETATM   17  C33 UNL     1     -13.638  10.103  21.700  1.00  0.00     0.004 C 
HETATM   18  C35 UNL     1     -11.187  10.579  21.665  1.00  0.00     0.027 C 
HETATM   19  C36 UNL     1     -10.216  11.440  22.484  1.00  0.00     0.044 C 
HETATM   20  C37 UNL     1     -10.553  12.912  22.286  1.00  0.00     0.206 C 
HETATM   21  C38 UNL     1     -10.857  10.875  20.187  1.00  0.00     0.052 C 
HETATM   22  C39 UNL     1     -11.495   9.973  19.098  1.00  0.00     0.160 C 
HETATM   23  C40 UNL     1     -11.138  12.341  19.816  1.00  0.00     0.112 C 
ENDROOT
BRANCH   1  24
HETATM   24  C18 UNL     1     -10.934   9.419  16.618  1.00  0.00    -0.016 A 
HETATM   25  C3  UNL     1     -12.069   9.050  15.743  1.00  0.00    -0.032 A 
HETATM   26  C4  UNL     1     -11.858   8.129  14.780  1.00  0.00     0.099 A 
HETATM   27  N1  UNL     1     -10.630   7.527  14.527  1.00  0.00    -0.354 N 
HETATM   28  C5  UNL     1     -10.533   6.347  13.636  1.00  0.00     0.133 C 
HETATM   29  C16 UNL     1      -9.512   7.877  15.316  1.00  0.00     0.062 A 
HETATM   30  C6  UNL     1      -9.140   6.211  13.004  1.00  0.00     0.062 C 
HETATM   31  C7  UNL     1      -8.036   6.459  13.984  1.00  0.00    -0.012 A 
HETATM   32  C8  UNL     1      -6.765   6.043  14.014  1.00  0.00     0.033 A 
HETATM   33  C15 UNL     1      -8.293   7.345  15.098  1.00  0.00     0.067 A 
HETATM   34  C9  UNL     1      -5.901   5.222  13.216  1.00  0.00     0.081 A 
HETATM   35  C14 UNL     1      -6.267   6.780  15.196  1.00  0.00     0.046 A 
HETATM   36  C11 UNL     1      -4.605   5.134  13.583  1.00  0.00     0.038 A 
HETATM   37  C12 UNL     1      -4.084   5.838  14.748  1.00  0.00     0.005 A 
HETATM   38  C13 UNL     1      -4.842   6.615  15.537  1.00  0.00     0.030 A 
HETATM   39  N2  UNL     1      -7.130   7.523  15.817  1.00  0.00    -0.353 N 
ATOM     40  H2  UNL     1      -6.984   8.102  16.644  1.00  0.00     0.166 HD
HETATM   41  C17 UNL     1      -9.731   8.849  16.382  1.00  0.00     0.044 A 
BRANCH  25  42
HETATM   42  C2  UNL     1     -13.431   9.676  15.919  1.00  0.00     0.036 C 
HETATM   43  C1  UNL     1     -14.339   8.899  16.864  1.00  0.00     0.010 C 
ENDBRANCH  25  42
BRANCH  34  44
HETATM   44  O1  UNL     1      -6.510   4.625  12.138  1.00  0.00    -0.355 OA
HETATM   45  C10 UNL     1      -6.307   3.219  11.971  1.00  0.00     0.210 C 
ENDBRANCH  34  44
ENDBRANCH   1  24
BRANCH  22  46
HETATM   46  O3  UNL     1     -11.188   8.625  19.442  1.00  0.00    -0.390 OA
HETATM   47  H42 UNL     1     -10.803   8.190  18.664  1.00  0.00     0.210 HD
ENDBRANCH  22  46
BRANCH  17  48
HETATM   48  C34 UNL     1     -15.071  10.264  22.097  1.00  0.00     0.191 C 
BRANCH  48  49
HETATM   49  O2  UNL     1     -15.304   9.337  23.156  1.00  0.00    -0.397 OA
HETATM   50  H35 UNL     1     -16.195   9.539  23.505  1.00  0.00     0.209 HD
ENDBRANCH  48  49
ENDBRANCH  17  48
TORSDOF 7
ENDMDL
MODEL 7
REMARK minimizedAffinity -9.27215195
REMARK CNNscore 0.123279728
REMARK CNNaffinity 6.92238188
REMARK  7 active torsions:
REMARK  status: ('A' for Active; 'I' for Inactive)
REMARK    1  A    between atoms: C2_2  and  C3_3 
REMARK    2  A    between atoms: C9_10  and  O1_11 
REMARK    3  A    between atoms: C18_22  and  C19_23 
REMARK    4  A    between atoms: C33_39  and  C34_40 
REMARK    5  A    between atoms: C34_40  and  O2_41 
REMARK    6  A    between atoms: C35_42  and  C38_45 
REMARK    7  A    between atoms: C39_46  and  O3_47 
ROOT
HETATM    1  C19 UNL     1     -12.817   8.278  14.519  1.00  0.00    -0.003 C 
HETATM    2  C20 UNL     1     -13.516   7.313  15.154  1.00  0.00     0.102 C 
HETATM    3  N3  UNL     1     -14.869   7.097  14.981  1.00  0.00    -0.349 N 
HETATM    4  C21 UNL     1     -15.429   5.823  14.685  1.00  0.00     0.041 A 
HETATM    5  C22 UNL     1     -14.892   4.580  14.979  1.00  0.00     0.030 A 
HETATM    6  C23 UNL     1     -15.572   3.434  14.573  1.00  0.00     0.002 A 
HETATM    7  C24 UNL     1     -16.782   3.530  13.877  1.00  0.00     0.001 A 
HETATM    8  C25 UNL     1     -17.334   4.780  13.589  1.00  0.00     0.010 A 
HETATM    9  C26 UNL     1     -16.646   5.916  13.996  1.00  0.00    -0.018 A 
HETATM   10  C27 UNL     1     -17.014   7.365  13.839  1.00  0.00     0.041 C 
HETATM   11  C28 UNL     1     -18.109   7.759  14.836  1.00  0.00     0.046 C 
HETATM   12  C29 UNL     1     -18.528   9.143  14.375  1.00  0.00     0.239 C 
HETATM   13  N4  UNL     1     -18.482   9.059  12.835  1.00  0.00    -0.062 N 
HETATM   14  C30 UNL     1     -19.898   8.889  12.294  1.00  0.00     0.273 C 
HETATM   15  C31 UNL     1     -17.894  10.340  12.254  1.00  0.00     0.271 C 
HETATM   16  C32 UNL     1     -16.386  10.410  12.292  1.00  0.00    -0.051 C 
HETATM   17  C33 UNL     1     -15.730  11.552  12.577  1.00  0.00     0.004 C 
HETATM   18  C35 UNL     1     -15.632   9.156  11.875  1.00  0.00     0.027 C 
HETATM   19  C36 UNL     1     -16.637   8.107  11.381  1.00  0.00     0.044 C 
HETATM   20  C37 UNL     1     -17.627   7.790  12.495  1.00  0.00     0.206 C 
HETATM   21  C38 UNL     1     -14.801   8.452  12.968  1.00  0.00     0.052 C 
HETATM   22  C39 UNL     1     -13.529   9.166  13.497  1.00  0.00     0.160 C 
HETATM   23  C40 UNL     1     -15.661   8.053  14.179  1.00  0.00     0.112 C 
ENDROOT
BRANCH   1  24
HETATM   24  C18 UNL     1     -11.373   8.392  14.731  1.00  0.00    -0.016 A 
HETATM   25  C3  UNL     1     -10.702   9.480  15.476  1.00  0.00    -0.032 A 
HETATM   26  C4  UNL     1      -9.357   9.450  15.576  1.00  0.00     0.099 A 
HETATM   27  N1  UNL     1      -8.555   8.439  15.056  1.00  0.00    -0.354 N 
HETATM   28  C5  UNL     1      -7.085   8.602  14.977  1.00  0.00     0.133 C 
HETATM   29  C16 UNL     1      -9.158   7.362  14.369  1.00  0.00     0.062 A 
HETATM   30  C6  UNL     1      -6.351   7.253  14.975  1.00  0.00     0.062 C 
HETATM   31  C7  UNL     1      -7.007   6.241  14.087  1.00  0.00    -0.012 A 
HETATM   32  C8  UNL     1      -6.522   5.166  13.458  1.00  0.00     0.033 A 
HETATM   33  C15 UNL     1      -8.433   6.343  13.867  1.00  0.00     0.067 A 
HETATM   34  C9  UNL     1      -5.257   4.504  13.313  1.00  0.00     0.081 A 
HETATM   35  C14 UNL     1      -7.765   4.603  12.885  1.00  0.00     0.046 A 
HETATM   36  C11 UNL     1      -5.232   3.344  12.624  1.00  0.00     0.038 A 
HETATM   37  C12 UNL     1      -6.436   2.769  12.038  1.00  0.00     0.005 A 
HETATM   38  C13 UNL     1      -7.646   3.341  12.133  1.00  0.00     0.030 A 
HETATM   39  N2  UNL     1      -8.856   5.268  13.114  1.00  0.00    -0.353 N 
ATOM     40  H2  UNL     1      -9.804   5.047  12.809  1.00  0.00     0.166 HD
HETATM   41  C17 UNL     1     -10.610   7.397  14.225  1.00  0.00     0.044 A 
BRANCH  25  42
HETATM   42  C2  UNL     1     -11.492  10.602  16.105  1.00  0.00     0.036 C 
HETATM   43  C1  UNL     1     -10.646  11.525  16.974  1.00  0.00     0.010 C 
ENDBRANCH  25  42
BRANCH  34  44
HETATM   44  O1  UNL     1      -4.203   5.140  13.923  1.00  0.00    -0.355 OA
HETATM   45  C10 UNL     1      -2.986   5.247  13.179  1.00  0.00     0.210 C 
ENDBRANCH  34  44
ENDBRANCH   1  24
BRANCH  22  46
HETATM   46  O3  UNL     1     -12.731   9.490  12.361  1.00  0.00    -0.390 OA
HETATM   47  H42 UNL     1     -11.831   9.162  12.515  1.00  0.00     0.210 HD
ENDBRANCH  22  46
BRANCH  17  48
HETATM   48  C34 UNL     1     -16.357  12.852  12.967  1.00  0.00     0.191 C 
BRANCH  48  49
HETATM   49  O2  UNL     1     -16.443  13.632  11.776  1.00  0.00    -0.397 OA
HETATM   50  H35 UNL     1     -16.975  14.421  12.003  1.00  0.00     0.209 HD
ENDBRANCH  48  49
ENDBRANCH  17  48
TORSDOF 7
ENDMDL
MODEL 8
REMARK minimizedAffinity -9.14667606
REMARK CNNscore 0.122683495
REMARK CNNaffinity 7.01084661
REMARK  7 active torsions:
REMARK  status: ('A' for Active; 'I' for Inactive)
REMARK    1  A    between atoms: C2_2  and  C3_3 
REMARK    2  A    between atoms: C9_10  and  O1_11 
REMARK    3  A    between atoms: C18_22  and  C19_23 
REMARK    4  A    between atoms: C33_39  and  C34_40 
REMARK    5  A    between atoms: C34_40  and  O2_41 
REMARK    6  A    between atoms: C35_42  and  C38_45 
REMARK    7  A    between atoms: C39_46  and  O3_47 
ROOT
HETATM    1  C19 UNL     1     -10.092   9.442  15.844  1.00  0.00    -0.003 C 
HETATM    2  C20 UNL     1     -10.409   9.312  17.150  1.00  0.00     0.102 C 
HETATM    3  N3  UNL     1     -10.776  10.365  17.965  1.00  0.00    -0.349 N 
HETATM    4  C21 UNL     1     -11.943  10.359  18.778  1.00  0.00     0.041 A 
HETATM    5  C22 UNL     1     -12.612   9.254  19.280  1.00  0.00     0.030 A 
HETATM    6  C23 UNL     1     -13.770   9.445  20.031  1.00  0.00     0.002 A 
HETATM    7  C24 UNL     1     -14.256  10.734  20.279  1.00  0.00     0.001 A 
HETATM    8  C25 UNL     1     -13.579  11.851  19.786  1.00  0.00     0.010 A 
HETATM    9  C26 UNL     1     -12.428  11.649  19.037  1.00  0.00    -0.018 A 
HETATM   10  C27 UNL     1     -11.504  12.656  18.410  1.00  0.00     0.041 C 
HETATM   11  C28 UNL     1     -10.612  13.308  19.471  1.00  0.00     0.046 C 
HETATM   12  C29 UNL     1      -9.946  14.449  18.723  1.00  0.00     0.239 C 
HETATM   13  N4  UNL     1     -11.053  14.991  17.797  1.00  0.00    -0.062 N 
HETATM   14  C30 UNL     1     -11.642  16.263  18.400  1.00  0.00     0.273 C 
HETATM   15  C31 UNL     1     -10.478  15.330  16.427  1.00  0.00     0.271 C 
HETATM   16  C32 UNL     1     -10.299  14.142  15.512  1.00  0.00    -0.051 C 
HETATM   17  C33 UNL     1      -9.228  14.016  14.704  1.00  0.00     0.004 C 
HETATM   18  C35 UNL     1     -11.445  13.144  15.455  1.00  0.00     0.027 C 
HETATM   19  C36 UNL     1     -12.614  13.673  16.297  1.00  0.00     0.044 C 
HETATM   20  C37 UNL     1     -12.152  13.875  17.734  1.00  0.00     0.206 C 
HETATM   21  C38 UNL     1     -11.157  11.726  15.991  1.00  0.00     0.052 C 
HETATM   22  C39 UNL     1     -10.190  10.819  15.185  1.00  0.00     0.160 C 
HETATM   23  C40 UNL     1     -10.680  11.748  17.453  1.00  0.00     0.112 C 
ENDROOT
BRANCH   1  24
HETATM   24  C18 UNL     1      -9.767   8.255  15.052  1.00  0.00    -0.016 A 
HETATM   25  C3  UNL     1     -10.744   7.437  14.299  1.00  0.00    -0.032 A 
HETATM   26  C4  UNL     1     -10.289   6.362  13.623  1.00  0.00     0.099 A 
HETATM   27  N1  UNL     1      -8.951   5.989  13.553  1.00  0.00    -0.354 N 
HETATM   28  C5  UNL     1      -8.560   4.664  13.015  1.00  0.00     0.133 C 
HETATM   29  C16 UNL     1      -7.981   6.763  14.228  1.00  0.00     0.062 A 
HETATM   30  C6  UNL     1      -7.129   4.665  12.457  1.00  0.00     0.062 C 
HETATM   31  C7  UNL     1      -6.165   5.390  13.343  1.00  0.00    -0.012 A 
HETATM   32  C8  UNL     1      -4.841   5.276  13.496  1.00  0.00     0.033 A 
HETATM   33  C15 UNL     1      -6.668   6.463  14.173  1.00  0.00     0.067 A 
HETATM   34  C9  UNL     1      -3.778   4.477  12.957  1.00  0.00     0.081 A 
HETATM   35  C14 UNL     1      -4.580   6.386  14.439  1.00  0.00     0.046 A 
HETATM   36  C11 UNL     1      -2.519   4.765  13.346  1.00  0.00     0.038 A 
HETATM   37  C12 UNL     1      -2.228   5.844  14.282  1.00  0.00     0.005 A 
HETATM   38  C13 UNL     1      -3.177   6.622  14.824  1.00  0.00     0.030 A 
HETATM   39  N2  UNL     1      -5.614   7.065  14.828  1.00  0.00    -0.353 N 
ATOM     40  H2  UNL     1      -5.642   7.858  15.469  1.00  0.00     0.166 HD
HETATM   41  C17 UNL     1      -8.461   7.911  14.989  1.00  0.00     0.044 A 
BRANCH  25  42
HETATM   42  C2  UNL     1     -12.213   7.784  14.287  1.00  0.00     0.036 C 
HETATM   43  C1  UNL     1     -12.890   7.508  12.950  1.00  0.00     0.010 C 
ENDBRANCH  25  42
BRANCH  34  44
HETATM   44  O1  UNL     1      -4.182   3.503  12.075  1.00  0.00    -0.355 OA
HETATM   45  C10 UNL     1      -3.306   2.387  11.890  1.00  0.00     0.210 C 
ENDBRANCH  34  44
ENDBRANCH   1  24
BRANCH  22  46
HETATM   46  O3  UNL     1     -10.675  10.782  13.845  1.00  0.00    -0.390 OA
HETATM   47  H42 UNL     1     -10.748   9.854  13.570  1.00  0.00     0.210 HD
ENDBRANCH  22  46
BRANCH  17  48
HETATM   48  C34 UNL     1      -8.058  14.944  14.644  1.00  0.00     0.191 C 
BRANCH  48  49
HETATM   49  O2  UNL     1      -6.929  14.203  15.104  1.00  0.00    -0.397 OA
HETATM   50  H35 UNL     1      -6.146  14.763  14.934  1.00  0.00     0.209 HD
ENDBRANCH  48  49
ENDBRANCH  17  48
TORSDOF 7
ENDMDL
MODEL 9
REMARK minimizedAffinity -9.82842636
REMARK CNNscore 0.12032336
REMARK CNNaffinity 6.31802511
REMARK  7 active torsions:
REMARK  status: ('A' for Active; 'I' for Inactive)
REMARK    1  A    between atoms: C2_2  and  C3_3 
REMARK    2  A    between atoms: C9_10  and  O1_11 
REMARK    3  A    between atoms: C18_22  and  C19_23 
REMARK    4  A    between atoms: C33_39  and  C34_40 
REMARK    5  A    between atoms: C34_40  and  O2_41 
REMARK    6  A    between atoms: C35_42  and  C38_45 
REMARK    7  A    between atoms: C39_46  and  O3_47 
ROOT
HETATM    1  C19 UNL     1       0.559  10.092  16.539  1.00  0.00    -0.003 C 
HETATM    2  C20 UNL     1      -0.575  10.467  15.911  1.00  0.00     0.102 C 
HETATM    3  N3  UNL     1      -1.007   9.934  14.711  1.00  0.00    -0.349 N 
HETATM    4  C21 UNL     1      -2.322   9.431  14.504  1.00  0.00     0.041 A 
HETATM    5  C22 UNL     1      -3.475   9.785  15.187  1.00  0.00     0.030 A 
HETATM    6  C23 UNL     1      -4.674   9.152  14.868  1.00  0.00     0.002 A 
HETATM    7  C24 UNL     1      -4.720   8.170  13.872  1.00  0.00     0.001 A 
HETATM    8  C25 UNL     1      -3.564   7.819  13.172  1.00  0.00     0.010 A 
HETATM    9  C26 UNL     1      -2.374   8.455  13.500  1.00  0.00    -0.018 A 
HETATM   10  C27 UNL     1      -1.004   8.288  12.904  1.00  0.00     0.041 C 
HETATM   11  C28 UNL     1      -0.916   8.984  11.542  1.00  0.00     0.046 C 
HETATM   12  C29 UNL     1       0.413   8.508  10.985  1.00  0.00     0.239 C 
HETATM   13  N4  UNL     1       0.501   7.032  11.424  1.00  0.00    -0.062 N 
HETATM   14  C30 UNL     1       0.141   6.131  10.247  1.00  0.00     0.273 C 
HETATM   15  C31 UNL     1       1.918   6.698  11.872  1.00  0.00     0.271 C 
HETATM   16  C32 UNL     1       2.249   7.132  13.280  1.00  0.00    -0.051 C 
HETATM   17  C33 UNL     1       3.452   7.643  13.607  1.00  0.00     0.004 C 
HETATM   18  C35 UNL     1       1.199   6.857  14.345  1.00  0.00     0.027 C 
HETATM   19  C36 UNL     1       0.046   6.060  13.720  1.00  0.00     0.044 C 
HETATM   20  C37 UNL     1      -0.555   6.857  12.569  1.00  0.00     0.206 C 
HETATM   21  C38 UNL     1       0.542   8.089  15.004  1.00  0.00     0.052 C 
HETATM   22  C39 UNL     1       1.409   8.970  15.940  1.00  0.00     0.160 C 
HETATM   23  C40 UNL     1      -0.128   9.008  13.969  1.00  0.00     0.112 C 
ENDROOT
BRANCH   1  24
HETATM   24  C18 UNL     1       0.902  10.680  17.835  1.00  0.00    -0.016 A 
HETATM   25  C3  UNL     1      -0.066  11.027  18.898  1.00  0.00    -0.032 A 
HETATM   26  C4  UNL     1       0.407  11.575  20.038  1.00  0.00     0.099 A 
HETATM   27  N1  UNL     1       1.755  11.802  20.297  1.00  0.00    -0.354 N 
HETATM   28  C5  UNL     1       2.176  12.637  21.447  1.00  0.00     0.133 C 
HETATM   29  C16 UNL     1       2.715  11.452  19.323  1.00  0.00     0.062 A 
HETATM   30  C6  UNL     1       3.591  12.287  21.930  1.00  0.00     0.062 C 
HETATM   31  C7  UNL     1       4.553  12.089  20.800  1.00  0.00    -0.012 A 
HETATM   32  C8  UNL     1       5.883  12.211  20.735  1.00  0.00     0.033 A 
HETATM   33  C15 UNL     1       4.036  11.626  19.531  1.00  0.00     0.067 A 
HETATM   34  C9  UNL     1       6.957  12.569  21.616  1.00  0.00     0.081 A 
HETATM   35  C14 UNL     1       6.131  11.743  19.354  1.00  0.00     0.046 A 
HETATM   36  C11 UNL     1       8.216  12.474  21.140  1.00  0.00     0.038 A 
HETATM   37  C12 UNL     1       8.495  12.027  19.780  1.00  0.00     0.005 A 
HETATM   38  C13 UNL     1       7.535  11.684  18.908  1.00  0.00     0.030 A 
HETATM   39  N2  UNL     1       5.085  11.408  18.663  1.00  0.00    -0.353 N 
ATOM     40  H2  UNL     1       5.047  11.065  17.703  1.00  0.00     0.166 HD
HETATM   41  C17 UNL     1       2.217  10.888  18.073  1.00  0.00     0.044 A 
BRANCH  25  42
HETATM   42  C2  UNL     1      -1.545  10.785  18.722  1.00  0.00     0.036 C 
HETATM   43  C1  UNL     1      -2.367  12.067  18.662  1.00  0.00     0.010 C 
ENDBRANCH  25  42
BRANCH  34  44
HETATM   44  O1  UNL     1       6.564  12.959  22.873  1.00  0.00    -0.355 OA
HETATM   45  C10 UNL     1       6.487  14.365  23.126  1.00  0.00     0.210 C 
ENDBRANCH  34  44
ENDBRANCH   1  24
BRANCH  22  46
HETATM   46  O3  UNL     1       1.986   8.103  16.912  1.00  0.00    -0.390 OA
HETATM   47  H42 UNL     1       1.808   8.468  17.794  1.00  0.00     0.210 HD
ENDBRANCH  22  46
BRANCH  17  48
HETATM   48  C34 UNL     1       4.574   7.927  12.659  1.00  0.00     0.191 C 
BRANCH  48  49
HETATM   49  O2  UNL     1       5.329   6.722  12.554  1.00  0.00    -0.397 OA
HETATM   50  H35 UNL     1       5.975   6.866  11.833  1.00  0.00     0.209 HD
ENDBRANCH  48  49
ENDBRANCH  17  48
TORSDOF 7
ENDMDL
