MODEL 1
REMARK minimizedAffinity -7.6183176
REMARK CNNscore 0.355554223
REMARK CNNaffinity 6.69428015
REMARK  20 active torsions:
REMARK  status: ('A' for Active; 'I' for Inactive)
REMARK    1  A    between atoms: C2_2  and  C3_3 
REMARK    2  A    between atoms: C2_2  and  C30_37 
REMARK    3  A    between atoms: C4_4  and  C5_5 
REMARK    4  A    between atoms: C6_6  and  C7_7 
REMARK    5  A    between atoms: C6_6  and  C11_14 
REMARK    6  A    between atoms: C7_7  and  O1_8 
REMARK    7  A    between atoms: O1_8  and  C8_9 
REMARK    8  A    between atoms: C8_9  and  C9_10 
REMARK    9  A    between atoms: C9_10  and  O2_11 
REMARK   10  A    between atoms: C9_10  and  C10_12 
REMARK   11  A    between atoms: C10_12  and  O3_13 
REMARK   12  A    between atoms: C15_18  and  O4_19 
REMARK   13  A    between atoms: C16_20  and  C17_21 
REMARK   14  A    between atoms: C17_21  and  C18_22 
REMARK   15  A    between atoms: C18_22  and  C19_23 
REMARK   16  A    between atoms: C19_23  and  O5_24 
REMARK   17  A    between atoms: C21_26  and  C22_27 
REMARK   18  A    between atoms: C28_34  and  O7_36 
REMARK   19  A    between atoms: C30_37  and  C31_38 
REMARK   20  A    between atoms: C31_38  and  C32_39 
ROOT
HETATM    1  C11 UNL     1       0.482   9.070  14.521  1.00  0.00     0.046 C 
HETATM    2  C12 UNL     1      -0.103  10.473  14.671  1.00  0.00     0.013 C 
HETATM    3  C13 UNL     1      -1.447  10.353  13.951  1.00  0.00     0.017 C 
HETATM    4  C14 UNL     1      -1.981   8.914  14.262  1.00  0.00     0.024 C 
HETATM    5  C15 UNL     1      -0.738   8.202  14.915  1.00  0.00     0.138 C 
HETATM    6  C16 UNL     1      -2.409   8.212  12.881  1.00  0.00     0.029 C 
HETATM    7  C20 UNL     1      -3.542   7.199  13.146  1.00  0.00    -0.061 C 
HETATM    8  C21 UNL     1      -3.530   5.843  13.170  1.00  0.00    -0.017 C 
HETATM    9  C23 UNL     1      -4.779   5.002  13.341  1.00  0.00     0.042 C 
HETATM   10  C24 UNL     1      -6.079   5.795  13.261  1.00  0.00     0.005 C 
HETATM   11  C25 UNL     1      -5.955   7.078  14.061  1.00  0.00     0.009 C 
HETATM   12  C26 UNL     1      -4.836   7.957  13.477  1.00  0.00     0.018 C 
HETATM   13  C27 UNL     1      -4.553   9.147  14.422  1.00  0.00     0.047 C 
HETATM   14  C28 UNL     1      -3.248   8.987  15.235  1.00  0.00     0.066 C 
HETATM   15  C29 UNL     1      -3.218  10.096  16.307  1.00  0.00     0.047 C 
ENDROOT
BRANCH   1  16
HETATM   16  C6  UNL     1       1.801   8.643  15.164  1.00  0.00    -0.050 C 
HETATM   17  C5  UNL     1       3.012   8.427  14.607  1.00  0.00     0.005 C 
BRANCH  17  18
HETATM   18  C4  UNL     1       3.450   8.562  13.235  1.00  0.00     0.001 C 
HETATM   19  C3  UNL     1       4.513   7.899  12.751  1.00  0.00     0.006 C 
BRANCH  19  20
HETATM   20  C2  UNL     1       5.062   8.003  11.398  1.00  0.00    -0.067 C 
HETATM   21  C1  UNL     1       6.399   8.024  11.260  1.00  0.00     0.019 C 
BRANCH  20  22
HETATM   22  C30 UNL     1       4.089   8.107  10.226  1.00  0.00     0.041 C 
BRANCH  22  23
HETATM   23  C31 UNL     1       3.220   6.882   9.873  1.00  0.00     0.032 C 
BRANCH  23  24
HETATM   24  C32 UNL     1       2.859   6.834   8.408  1.00  0.00    -0.024 C 
HETATM   25  C33 UNL     1       1.803   7.394   7.785  1.00  0.00    -0.091 C 
HETATM   26  C34 UNL     1       1.628   7.244   6.295  1.00  0.00     0.042 C 
HETATM   27  C35 UNL     1       0.724   8.203   8.449  1.00  0.00     0.042 C 
ENDBRANCH  23  24
ENDBRANCH  22  23
ENDBRANCH  20  22
ENDBRANCH  19  20
ENDBRANCH  17  18
BRANCH  16  28
HETATM   28  C7  UNL     1       1.678   8.407  16.672  1.00  0.00     0.202 C 
BRANCH  28  29
HETATM   29  O1  UNL     1       1.323   9.636  17.297  1.00  0.00    -0.384 OA
BRANCH  29  30
HETATM   30  C8  UNL     1       2.432  10.352  17.848  1.00  0.00     0.201 C 
BRANCH  30  31
HETATM   31  C9  UNL     1       2.273  10.686  19.342  1.00  0.00     0.165 C 
BRANCH  31  32
HETATM   32  O2  UNL     1       2.733   9.587  20.141  1.00  0.00    -0.391 OA
HETATM   33  H11 UNL     1       2.805   9.907  21.057  1.00  0.00     0.210 HD
ENDBRANCH  31  32
BRANCH  31  34
HETATM   34  C10 UNL     1       0.831  11.040  19.724  1.00  0.00     0.198 C 
BRANCH  34  35
HETATM   35  O3  UNL     1       0.769  12.253  20.463  1.00  0.00    -0.398 OA
HETATM   36  H14 UNL     1       0.765  12.032  21.410  1.00  0.00     0.209 HD
ENDBRANCH  34  35
ENDBRANCH  31  34
ENDBRANCH  30  31
ENDBRANCH  29  30
ENDBRANCH  28  29
ENDBRANCH  16  28
ENDBRANCH   1  16
BRANCH   5  37
HETATM   37  O4  UNL     1      -0.839   8.162  16.348  1.00  0.00    -0.394 OA
HETATM   38  H21 UNL     1      -0.081   7.642  16.670  1.00  0.00     0.210 HD
ENDBRANCH   5  37
BRANCH   6  39
HETATM   39  C17 UNL     1      -1.317   7.701  11.898  1.00  0.00     0.012 C 
BRANCH  39  40
HETATM   40  C18 UNL     1       0.107   7.564  12.461  1.00  0.00     0.027 C 
BRANCH  40  41
HETATM   41  C19 UNL     1       0.721   6.210  12.099  1.00  0.00     0.164 C 
BRANCH  41  42
HETATM   42  O5  UNL     1       1.377   5.647  13.230  1.00  0.00    -0.401 OA
HETATM   43  H29 UNL     1       0.759   5.026  13.653  1.00  0.00     0.209 HD
ENDBRANCH  41  42
ENDBRANCH  40  41
ENDBRANCH  39  40
ENDBRANCH   6  39
BRANCH  14  44
HETATM   44  O7  UNL     1      -3.362   7.753  15.969  1.00  0.00    -0.389 OA
HETATM   45  H43 UNL     1      -2.558   7.719  16.530  1.00  0.00     0.210 HD
ENDBRANCH  14  44
BRANCH   8  46
HETATM   46  C22 UNL     1      -2.299   4.999  13.098  1.00  0.00     0.265 C 
HETATM   47  O6  UNL     1      -2.143   4.116  12.260  1.00  0.00    -0.302 OA
ENDBRANCH   8  46
TORSDOF 20
ENDMDL
MODEL 2
REMARK minimizedAffinity -6.53862476
REMARK CNNscore 0.296970814
REMARK CNNaffinity 6.40877295
REMARK  20 active torsions:
REMARK  status: ('A' for Active; 'I' for Inactive)
REMARK    1  A    between atoms: C2_2  and  C3_3 
REMARK    2  A    between atoms: C2_2  and  C30_37 
REMARK    3  A    between atoms: C4_4  and  C5_5 
REMARK    4  A    between atoms: C6_6  and  C7_7 
REMARK    5  A    between atoms: C6_6  and  C11_14 
REMARK    6  A    between atoms: C7_7  and  O1_8 
REMARK    7  A    between atoms: O1_8  and  C8_9 
REMARK    8  A    between atoms: C8_9  and  C9_10 
REMARK    9  A    between atoms: C9_10  and  O2_11 
REMARK   10  A    between atoms: C9_10  and  C10_12 
REMARK   11  A    between atoms: C10_12  and  O3_13 
REMARK   12  A    between atoms: C15_18  and  O4_19 
REMARK   13  A    between atoms: C16_20  and  C17_21 
REMARK   14  A    between atoms: C17_21  and  C18_22 
REMARK   15  A    between atoms: C18_22  and  C19_23 
REMARK   16  A    between atoms: C19_23  and  O5_24 
REMARK   17  A    between atoms: C21_26  and  C22_27 
REMARK   18  A    between atoms: C28_34  and  O7_36 
REMARK   19  A    between atoms: C30_37  and  C31_38 
REMARK   20  A    between atoms: C31_38  and  C32_39 
ROOT
HETATM    1  C11 UNL     1      -1.878  11.080  16.880  1.00  0.00     0.046 C 
HETATM    2  C12 UNL     1      -2.844  11.706  15.876  1.00  0.00     0.013 C 
HETATM    3  C13 UNL     1      -2.277  11.246  14.534  1.00  0.00     0.017 C 
HETATM    4  C14 UNL     1      -1.738   9.793  14.763  1.00  0.00     0.024 C 
HETATM    5  C15 UNL     1      -1.781   9.636  16.329  1.00  0.00     0.138 C 
HETATM    6  C16 UNL     1      -0.236   9.703  14.198  1.00  0.00     0.029 C 
HETATM    7  C20 UNL     1       0.056   8.261  13.733  1.00  0.00    -0.061 C 
HETATM    8  C21 UNL     1       0.816   7.287  14.293  1.00  0.00    -0.017 C 
HETATM    9  C23 UNL     1       1.078   5.951  13.629  1.00  0.00     0.042 C 
HETATM   10  C24 UNL     1       0.603   5.871  12.182  1.00  0.00     0.005 C 
HETATM   11  C25 UNL     1      -0.778   6.484  12.055  1.00  0.00     0.009 C 
HETATM   12  C26 UNL     1      -0.734   7.970  12.450  1.00  0.00     0.018 C 
HETATM   13  C27 UNL     1      -2.170   8.533  12.545  1.00  0.00     0.047 C 
HETATM   14  C28 UNL     1      -2.656   8.730  13.999  1.00  0.00     0.066 C 
HETATM   15  C29 UNL     1      -4.166   9.044  13.955  1.00  0.00     0.047 C 
ENDROOT
BRANCH   1  16
HETATM   16  C6  UNL     1      -2.072  11.171  18.393  1.00  0.00    -0.050 C 
HETATM   17  C5  UNL     1      -1.175  11.044  19.395  1.00  0.00     0.005 C 
BRANCH  17  18
HETATM   18  C4  UNL     1       0.253  10.815  19.352  1.00  0.00     0.001 C 
HETATM   19  C3  UNL     1       1.001  10.725  20.464  1.00  0.00     0.006 C 
BRANCH  19  20
HETATM   20  C2  UNL     1       2.451  10.542  20.524  1.00  0.00    -0.067 C 
HETATM   21  C1  UNL     1       3.213  11.259  19.679  1.00  0.00     0.019 C 
BRANCH  20  22
HETATM   22  C30 UNL     1       3.016   9.533  21.522  1.00  0.00     0.041 C 
BRANCH  22  23
HETATM   23  C31 UNL     1       3.386  10.019  22.937  1.00  0.00     0.032 C 
BRANCH  23  24
HETATM   24  C32 UNL     1       4.792  10.566  23.011  1.00  0.00    -0.024 C 
HETATM   25  C33 UNL     1       5.195  11.851  22.955  1.00  0.00    -0.091 C 
HETATM   26  C34 UNL     1       6.659  12.195  23.066  1.00  0.00     0.042 C 
HETATM   27  C35 UNL     1       4.297  13.044  22.793  1.00  0.00     0.042 C 
ENDBRANCH  23  24
ENDBRANCH  22  23
ENDBRANCH  20  22
ENDBRANCH  19  20
ENDBRANCH  17  18
BRANCH  16  28
HETATM   28  C7  UNL     1      -3.530  11.417  18.793  1.00  0.00     0.202 C 
BRANCH  28  29
HETATM   29  O1  UNL     1      -3.665  12.773  19.206  1.00  0.00    -0.384 OA
BRANCH  29  30
HETATM   30  C8  UNL     1      -4.871  13.046  19.924  1.00  0.00     0.201 C 
BRANCH  30  31
HETATM   31  C9  UNL     1      -4.840  14.372  20.705  1.00  0.00     0.165 C 
BRANCH  31  32
HETATM   32  O2  UNL     1      -5.923  14.410  21.646  1.00  0.00    -0.391 OA
HETATM   33  H11 UNL     1      -5.754  15.157  22.248  1.00  0.00     0.210 HD
ENDBRANCH  31  32
BRANCH  31  34
HETATM   34  C10 UNL     1      -4.899  15.603  19.793  1.00  0.00     0.198 C 
BRANCH  34  35
HETATM   35  O3  UNL     1      -5.247  15.250  18.461  1.00  0.00    -0.398 OA
HETATM   36  H14 UNL     1      -4.426  15.145  17.950  1.00  0.00     0.209 HD
ENDBRANCH  34  35
ENDBRANCH  31  34
ENDBRANCH  30  31
ENDBRANCH  29  30
ENDBRANCH  28  29
ENDBRANCH  16  28
ENDBRANCH   1  16
BRANCH   5  37
HETATM   37  O4  UNL     1      -2.933   8.894  16.759  1.00  0.00    -0.394 OA
HETATM   38  H21 UNL     1      -2.848   8.772  17.721  1.00  0.00     0.210 HD
ENDBRANCH   5  37
BRANCH   6  39
HETATM   39  C17 UNL     1       0.931  10.365  14.986  1.00  0.00     0.012 C 
BRANCH  39  40
HETATM   40  C18 UNL     1       2.202  10.696  14.185  1.00  0.00     0.027 C 
BRANCH  40  41
HETATM   41  C19 UNL     1       3.429  10.771  15.097  1.00  0.00     0.164 C 
BRANCH  41  42
HETATM   42  O5  UNL     1       3.122  10.242  16.382  1.00  0.00    -0.401 OA
HETATM   43  H29 UNL     1       3.417   9.316  16.400  1.00  0.00     0.209 HD
ENDBRANCH  41  42
ENDBRANCH  40  41
ENDBRANCH  39  40
ENDBRANCH   6  39
BRANCH  14  44
HETATM   44  O7  UNL     1      -2.554   7.450  14.650  1.00  0.00    -0.389 OA
HETATM   45  H43 UNL     1      -2.939   7.590  15.541  1.00  0.00     0.210 HD
ENDBRANCH  14  44
BRANCH   8  46
HETATM   46  C22 UNL     1       1.440   7.364  15.648  1.00  0.00     0.265 C 
HETATM   47  O6  UNL     1       2.655   7.368  15.826  1.00  0.00    -0.302 OA
ENDBRANCH   8  46
TORSDOF 20
ENDMDL
MODEL 3
REMARK minimizedAffinity -8.25110435
REMARK CNNscore 0.286965191
REMARK CNNaffinity 6.97637796
REMARK  20 active torsions:
REMARK  status: ('A' for Active; 'I' for Inactive)
REMARK    1  A    between atoms: C2_2  and  C3_3 
REMARK    2  A    between atoms: C2_2  and  C30_37 
REMARK    3  A    between atoms: C4_4  and  C5_5 
REMARK    4  A    between atoms: C6_6  and  C7_7 
REMARK    5  A    between atoms: C6_6  and  C11_14 
REMARK    6  A    between atoms: C7_7  and  O1_8 
REMARK    7  A    between atoms: O1_8  and  C8_9 
REMARK    8  A    between atoms: C8_9  and  C9_10 
REMARK    9  A    between atoms: C9_10  and  O2_11 
REMARK   10  A    between atoms: C9_10  and  C10_12 
REMARK   11  A    between atoms: C10_12  and  O3_13 
REMARK   12  A    between atoms: C15_18  and  O4_19 
REMARK   13  A    between atoms: C16_20  and  C17_21 
REMARK   14  A    between atoms: C17_21  and  C18_22 
REMARK   15  A    between atoms: C18_22  and  C19_23 
REMARK   16  A    between atoms: C19_23  and  O5_24 
REMARK   17  A    between atoms: C21_26  and  C22_27 
REMARK   18  A    between atoms: C28_34  and  O7_36 
REMARK   19  A    between atoms: C30_37  and  C31_38 
REMARK   20  A    between atoms: C31_38  and  C32_39 
ROOT
HETATM    1  C11 UNL     1       0.004   6.731  11.779  1.00  0.00     0.046 C 
HETATM    2  C12 UNL     1      -0.113   7.154  10.316  1.00  0.00     0.013 C 
HETATM    3  C13 UNL     1       1.019   8.170  10.170  1.00  0.00     0.017 C 
HETATM    4  C14 UNL     1       2.196   7.642  11.058  1.00  0.00     0.024 C 
HETATM    5  C15 UNL     1       1.528   6.484  11.890  1.00  0.00     0.138 C 
HETATM    6  C16 UNL     1       2.706   8.836  12.005  1.00  0.00     0.029 C 
HETATM    7  C20 UNL     1       4.204   8.643  12.321  1.00  0.00    -0.061 C 
HETATM    8  C21 UNL     1       4.825   8.240  13.458  1.00  0.00    -0.017 C 
HETATM    9  C23 UNL     1       6.331   8.214  13.619  1.00  0.00     0.042 C 
HETATM   10  C24 UNL     1       7.090   8.886  12.481  1.00  0.00     0.005 C 
HETATM   11  C25 UNL     1       6.498   8.474  11.147  1.00  0.00     0.009 C 
HETATM   12  C26 UNL     1       5.031   8.926  11.059  1.00  0.00     0.018 C 
HETATM   13  C27 UNL     1       4.362   8.309   9.809  1.00  0.00     0.047 C 
HETATM   14  C28 UNL     1       3.406   7.140  10.141  1.00  0.00     0.066 C 
HETATM   15  C29 UNL     1       3.014   6.458   8.814  1.00  0.00     0.047 C 
ENDROOT
BRANCH   1  16
HETATM   16  C6  UNL     1      -0.864   5.639  12.404  1.00  0.00    -0.050 C 
HETATM   17  C5  UNL     1      -2.114   5.706  12.914  1.00  0.00     0.005 C 
BRANCH  17  18
HETATM   18  C4  UNL     1      -3.033   6.819  13.001  1.00  0.00     0.001 C 
HETATM   19  C3  UNL     1      -3.479   7.293  14.176  1.00  0.00     0.006 C 
BRANCH  19  20
HETATM   20  C2  UNL     1      -4.441   8.379  14.368  1.00  0.00    -0.067 C 
HETATM   21  C1  UNL     1      -3.971   9.574  14.768  1.00  0.00     0.019 C 
BRANCH  20  22
HETATM   22  C30 UNL     1      -5.921   8.089  14.130  1.00  0.00     0.041 C 
BRANCH  22  23
HETATM   23  C31 UNL     1      -6.593   6.959  14.935  1.00  0.00     0.032 C 
BRANCH  23  24
HETATM   24  C32 UNL     1      -6.322   5.594  14.349  1.00  0.00    -0.024 C 
HETATM   25  C33 UNL     1      -6.968   4.969  13.344  1.00  0.00    -0.091 C 
HETATM   26  C34 UNL     1      -6.527   3.601  12.890  1.00  0.00     0.042 C 
HETATM   27  C35 UNL     1      -8.139   5.520  12.580  1.00  0.00     0.042 C 
ENDBRANCH  23  24
ENDBRANCH  22  23
ENDBRANCH  20  22
ENDBRANCH  19  20
ENDBRANCH  17  18
BRANCH  16  28
HETATM   28  C7  UNL     1      -0.159   4.282  12.468  1.00  0.00     0.202 C 
BRANCH  28  29
HETATM   29  O1  UNL     1      -0.496   3.539  11.300  1.00  0.00    -0.384 OA
BRANCH  29  30
HETATM   30  C8  UNL     1      -1.839   3.046  11.290  1.00  0.00     0.201 C 
BRANCH  30  31
HETATM   31  C9  UNL     1      -1.981   1.652  10.654  1.00  0.00     0.165 C 
BRANCH  31  32
HETATM   32  O2  UNL     1      -2.966   0.889  11.366  1.00  0.00    -0.391 OA
HETATM   33  H11 UNL     1      -3.170   0.106  10.823  1.00  0.00     0.210 HD
ENDBRANCH  31  32
BRANCH  31  34
HETATM   34  C10 UNL     1      -0.658   0.880  10.607  1.00  0.00     0.198 C 
BRANCH  34  35
HETATM   35  O3  UNL     1      -0.395   0.373   9.305  1.00  0.00    -0.398 OA
HETATM   36  H14 UNL     1      -0.714  -0.545   9.265  1.00  0.00     0.209 HD
ENDBRANCH  34  35
ENDBRANCH  31  34
ENDBRANCH  30  31
ENDBRANCH  29  30
ENDBRANCH  28  29
ENDBRANCH  16  28
ENDBRANCH   1  16
BRANCH   5  37
HETATM   37  O4  UNL     1       1.833   5.191  11.344  1.00  0.00    -0.394 OA
HETATM   38  H21 UNL     1       1.455   4.531  11.952  1.00  0.00     0.210 HD
ENDBRANCH   5  37
BRANCH   6  39
HETATM   39  C17 UNL     1       1.851   9.276  13.228  1.00  0.00     0.012 C 
BRANCH  39  40
HETATM   40  C18 UNL     1       0.899   8.222  13.819  1.00  0.00     0.027 C 
BRANCH  40  41
HETATM   41  C19 UNL     1       0.644   8.475  15.307  1.00  0.00     0.164 C 
BRANCH  41  42
HETATM   42  O5  UNL     1      -0.274   7.516  15.820  1.00  0.00    -0.401 OA
HETATM   43  H29 UNL     1       0.241   6.805  16.237  1.00  0.00     0.209 HD
ENDBRANCH  41  42
ENDBRANCH  40  41
ENDBRANCH  39  40
ENDBRANCH   6  39
BRANCH  14  44
HETATM   44  O7  UNL     1       4.179   6.159  10.857  1.00  0.00    -0.389 OA
HETATM   45  H43 UNL     1       3.568   5.402  10.985  1.00  0.00     0.210 HD
ENDBRANCH  14  44
BRANCH   8  46
HETATM   46  C22 UNL     1       4.128   7.714  14.670  1.00  0.00     0.265 C 
HETATM   47  O6  UNL     1       4.551   7.882  15.810  1.00  0.00    -0.302 OA
ENDBRANCH   8  46
TORSDOF 20
ENDMDL
MODEL 4
REMARK minimizedAffinity -7.71912193
REMARK CNNscore 0.28565082
REMARK CNNaffinity 6.81691504
REMARK  20 active torsions:
REMARK  status: ('A' for Active; 'I' for Inactive)
REMARK    1  A    between atoms: C2_2  and  C3_3 
REMARK    2  A    between atoms: C2_2  and  C30_37 
REMARK    3  A    between atoms: C4_4  and  C5_5 
REMARK    4  A    between atoms: C6_6  and  C7_7 
REMARK    5  A    between atoms: C6_6  and  C11_14 
REMARK    6  A    between atoms: C7_7  and  O1_8 
REMARK    7  A    between atoms: O1_8  and  C8_9 
REMARK    8  A    between atoms: C8_9  and  C9_10 
REMARK    9  A    between atoms: C9_10  and  O2_11 
REMARK   10  A    between atoms: C9_10  and  C10_12 
REMARK   11  A    between atoms: C10_12  and  O3_13 
REMARK   12  A    between atoms: C15_18  and  O4_19 
REMARK   13  A    between atoms: C16_20  and  C17_21 
REMARK   14  A    between atoms: C17_21  and  C18_22 
REMARK   15  A    between atoms: C18_22  and  C19_23 
REMARK   16  A    between atoms: C19_23  and  O5_24 
REMARK   17  A    between atoms: C21_26  and  C22_27 
REMARK   18  A    between atoms: C28_34  and  O7_36 
REMARK   19  A    between atoms: C30_37  and  C31_38 
REMARK   20  A    between atoms: C31_38  and  C32_39 
ROOT
HETATM    1  C11 UNL     1      -1.888   7.459  13.861  1.00  0.00     0.046 C 
HETATM    2  C12 UNL     1      -0.948   6.980  14.966  1.00  0.00     0.013 C 
HETATM    3  C13 UNL     1       0.237   6.424  14.178  1.00  0.00     0.017 C 
HETATM    4  C14 UNL     1       0.411   7.358  12.934  1.00  0.00     0.024 C 
HETATM    5  C15 UNL     1      -0.900   8.230  12.952  1.00  0.00     0.138 C 
HETATM    6  C16 UNL     1       0.500   6.449  11.612  1.00  0.00     0.029 C 
HETATM    7  C20 UNL     1       1.354   7.167  10.546  1.00  0.00    -0.061 C 
HETATM    8  C21 UNL     1       0.995   7.795   9.399  1.00  0.00    -0.017 C 
HETATM    9  C23 UNL     1       1.995   8.355   8.408  1.00  0.00     0.042 C 
HETATM   10  C24 UNL     1       3.440   7.961   8.692  1.00  0.00     0.005 C 
HETATM   11  C25 UNL     1       3.734   8.099  10.174  1.00  0.00     0.009 C 
HETATM   12  C26 UNL     1       2.826   7.156  10.982  1.00  0.00     0.018 C 
HETATM   13  C27 UNL     1       2.958   7.462  12.491  1.00  0.00     0.047 C 
HETATM   14  C28 UNL     1       1.747   8.227  13.070  1.00  0.00     0.066 C 
HETATM   15  C29 UNL     1       2.114   8.688  14.495  1.00  0.00     0.047 C 
ENDROOT
BRANCH   1  16
HETATM   16  C6  UNL     1      -3.199   8.192  14.141  1.00  0.00    -0.050 C 
HETATM   17  C5  UNL     1      -3.515   9.067  15.122  1.00  0.00     0.005 C 
BRANCH  17  18
HETATM   18  C4  UNL     1      -2.706   9.608  16.192  1.00  0.00     0.001 C 
HETATM   19  C3  UNL     1      -3.144  10.588  17.000  1.00  0.00     0.006 C 
BRANCH  19  20
HETATM   20  C2  UNL     1      -2.389  11.231  18.076  1.00  0.00    -0.067 C 
HETATM   21  C1  UNL     1      -3.046  12.078  18.888  1.00  0.00     0.019 C 
BRANCH  20  22
HETATM   22  C30 UNL     1      -0.898  10.927  18.200  1.00  0.00     0.041 C 
BRANCH  22  23
HETATM   23  C31 UNL     1      -0.283  10.799  19.608  1.00  0.00     0.032 C 
BRANCH  23  24
HETATM   24  C32 UNL     1       1.189  11.134  19.628  1.00  0.00    -0.024 C 
HETATM   25  C33 UNL     1       2.152  10.635  20.429  1.00  0.00    -0.091 C 
HETATM   26  C34 UNL     1       3.581  11.090  20.276  1.00  0.00     0.042 C 
HETATM   27  C35 UNL     1       1.947   9.614  21.512  1.00  0.00     0.042 C 
ENDBRANCH  23  24
ENDBRANCH  22  23
ENDBRANCH  20  22
ENDBRANCH  19  20
ENDBRANCH  17  18
BRANCH  16  28
HETATM   28  C7  UNL     1      -4.309   7.829  13.151  1.00  0.00     0.202 C 
BRANCH  28  29
HETATM   29  O1  UNL     1      -4.951   6.641  13.605  1.00  0.00    -0.384 OA
BRANCH  29  30
HETATM   30  C8  UNL     1      -6.321   6.823  13.974  1.00  0.00     0.201 C 
BRANCH  30  31
HETATM   31  C9  UNL     1      -6.577   6.690  15.486  1.00  0.00     0.165 C 
BRANCH  31  32
HETATM   32  O2  UNL     1      -5.394   6.212  16.142  1.00  0.00    -0.391 OA
HETATM   33  H11 UNL     1      -5.528   6.332  17.099  1.00  0.00     0.210 HD
ENDBRANCH  31  32
BRANCH  31  34
HETATM   34  C10 UNL     1      -7.761   5.772  15.812  1.00  0.00     0.198 C 
BRANCH  34  35
HETATM   35  O3  UNL     1      -8.776   5.858  14.821  1.00  0.00    -0.398 OA
HETATM   36  H14 UNL     1      -9.439   6.504  15.120  1.00  0.00     0.209 HD
ENDBRANCH  34  35
ENDBRANCH  31  34
ENDBRANCH  30  31
ENDBRANCH  29  30
ENDBRANCH  28  29
ENDBRANCH  16  28
ENDBRANCH   1  16
BRANCH   5  37
HETATM   37  O4  UNL     1      -0.667   9.531  13.515  1.00  0.00    -0.394 OA
HETATM   38  H21 UNL     1      -1.496  10.033  13.420  1.00  0.00     0.210 HD
ENDBRANCH   5  37
BRANCH   6  39
HETATM   39  C17 UNL     1      -0.782   5.772  11.047  1.00  0.00     0.012 C 
BRANCH  39  40
HETATM   40  C18 UNL     1      -1.001   4.295  11.417  1.00  0.00     0.027 C 
BRANCH  40  41
HETATM   41  C19 UNL     1      -2.359   3.793  10.922  1.00  0.00     0.164 C 
BRANCH  41  42
HETATM   42  O5  UNL     1      -2.184   2.832   9.887  1.00  0.00    -0.401 OA
HETATM   43  H29 UNL     1      -2.233   1.949  10.290  1.00  0.00     0.209 HD
ENDBRANCH  41  42
ENDBRANCH  40  41
ENDBRANCH  39  40
ENDBRANCH   6  39
BRANCH  14  44
HETATM   44  O7  UNL     1       1.613   9.438  12.302  1.00  0.00    -0.389 OA
HETATM   45  H43 UNL     1       0.889   9.935  12.739  1.00  0.00     0.210 HD
ENDBRANCH  14  44
BRANCH   8  46
HETATM   46  C22 UNL     1      -0.413   8.077   8.986  1.00  0.00     0.265 C 
HETATM   47  O6  UNL     1      -0.851   9.214   8.837  1.00  0.00    -0.302 OA
ENDBRANCH   8  46
TORSDOF 20
ENDMDL
MODEL 5
REMARK minimizedAffinity -6.46638393
REMARK CNNscore 0.277085125
REMARK CNNaffinity 6.55950403
REMARK  20 active torsions:
REMARK  status: ('A' for Active; 'I' for Inactive)
REMARK    1  A    between atoms: C2_2  and  C3_3 
REMARK    2  A    between atoms: C2_2  and  C30_37 
REMARK    3  A    between atoms: C4_4  and  C5_5 
REMARK    4  A    between atoms: C6_6  and  C7_7 
REMARK    5  A    between atoms: C6_6  and  C11_14 
REMARK    6  A    between atoms: C7_7  and  O1_8 
REMARK    7  A    between atoms: O1_8  and  C8_9 
REMARK    8  A    between atoms: C8_9  and  C9_10 
REMARK    9  A    between atoms: C9_10  and  O2_11 
REMARK   10  A    between atoms: C9_10  and  C10_12 
REMARK   11  A    between atoms: C10_12  and  O3_13 
REMARK   12  A    between atoms: C15_18  and  O4_19 
REMARK   13  A    between atoms: C16_20  and  C17_21 
REMARK   14  A    between atoms: C17_21  and  C18_22 
REMARK   15  A    between atoms: C18_22  and  C19_23 
REMARK   16  A    between atoms: C19_23  and  O5_24 
REMARK   17  A    between atoms: C21_26  and  C22_27 
REMARK   18  A    between atoms: C28_34  and  O7_36 
REMARK   19  A    between atoms: C30_37  and  C31_38 
REMARK   20  A    between atoms: C31_38  and  C32_39 
ROOT
HETATM    1  C11 UNL     1      -2.672   6.943  14.043  1.00  0.00     0.046 C 
HETATM    2  C12 UNL     1      -3.073   5.859  13.044  1.00  0.00     0.013 C 
HETATM    3  C13 UNL     1      -2.064   6.057  11.913  1.00  0.00     0.017 C 
HETATM    4  C14 UNL     1      -0.714   6.458  12.599  1.00  0.00     0.024 C 
HETATM    5  C15 UNL     1      -1.137   6.745  14.088  1.00  0.00     0.138 C 
HETATM    6  C16 UNL     1      -0.140   7.776  11.880  1.00  0.00     0.029 C 
HETATM    7  C20 UNL     1       1.400   7.787  11.971  1.00  0.00    -0.061 C 
HETATM    8  C21 UNL     1       2.237   8.531  12.735  1.00  0.00    -0.017 C 
HETATM    9  C23 UNL     1       3.746   8.481  12.609  1.00  0.00     0.042 C 
HETATM   10  C24 UNL     1       4.243   7.692  11.403  1.00  0.00     0.005 C 
HETATM   11  C25 UNL     1       3.463   6.398  11.271  1.00  0.00     0.009 C 
HETATM   12  C26 UNL     1       1.972   6.703  11.046  1.00  0.00     0.018 C 
HETATM   13  C27 UNL     1       1.146   5.400  11.144  1.00  0.00     0.047 C 
HETATM   14  C28 UNL     1       0.354   5.275  12.465  1.00  0.00     0.066 C 
HETATM   15  C29 UNL     1      -0.209   3.841  12.547  1.00  0.00     0.047 C 
ENDROOT
BRANCH   1  16
HETATM   16  C6  UNL     1      -3.333   7.101  15.412  1.00  0.00    -0.050 C 
HETATM   17  C5  UNL     1      -4.571   6.753  15.826  1.00  0.00     0.005 C 
BRANCH  17  18
HETATM   18  C4  UNL     1      -5.647   6.095  15.117  1.00  0.00     0.001 C 
HETATM   19  C3  UNL     1      -6.848   6.669  14.941  1.00  0.00     0.006 C 
BRANCH  19  20
HETATM   20  C2  UNL     1      -8.010   6.070  14.282  1.00  0.00    -0.067 C 
HETATM   21  C1  UNL     1      -7.792   5.092  13.385  1.00  0.00     0.019 C 
BRANCH  20  22
HETATM   22  C30 UNL     1      -9.398   6.604  14.629  1.00  0.00     0.041 C 
BRANCH  22  23
HETATM   23  C31 UNL     1     -10.288   7.146  13.492  1.00  0.00     0.032 C 
BRANCH  23  24
HETATM   24  C32 UNL     1     -11.735   6.748  13.652  1.00  0.00    -0.024 C 
HETATM   25  C33 UNL     1     -12.839   7.473  13.383  1.00  0.00    -0.091 C 
HETATM   26  C34 UNL     1     -14.210   6.882  13.596  1.00  0.00     0.042 C 
HETATM   27  C35 UNL     1     -12.855   8.881  12.859  1.00  0.00     0.042 C 
ENDBRANCH  23  24
ENDBRANCH  22  23
ENDBRANCH  20  22
ENDBRANCH  19  20
ENDBRANCH  17  18
BRANCH  16  28
HETATM   28  C7  UNL     1      -2.427   7.792  16.434  1.00  0.00     0.202 C 
BRANCH  28  29
HETATM   29  O1  UNL     1      -2.519   9.201  16.244  1.00  0.00    -0.384 OA
BRANCH  29  30
HETATM   30  C8  UNL     1      -3.334   9.868  17.211  1.00  0.00     0.201 C 
BRANCH  30  31
HETATM   31  C9  UNL     1      -2.624  10.119  18.552  1.00  0.00     0.165 C 
BRANCH  31  32
HETATM   32  O2  UNL     1      -3.502   9.791  19.639  1.00  0.00    -0.391 OA
HETATM   33  H11 UNL     1      -2.961   9.769  20.448  1.00  0.00     0.210 HD
ENDBRANCH  31  32
BRANCH  31  34
HETATM   34  C10 UNL     1      -2.125  11.561  18.703  1.00  0.00     0.198 C 
BRANCH  34  35
HETATM   35  O3  UNL     1      -3.132  12.501  18.353  1.00  0.00    -0.398 OA
HETATM   36  H14 UNL     1      -3.003  12.754  17.423  1.00  0.00     0.209 HD
ENDBRANCH  34  35
ENDBRANCH  31  34
ENDBRANCH  30  31
ENDBRANCH  29  30
ENDBRANCH  28  29
ENDBRANCH  16  28
ENDBRANCH   1  16
BRANCH   5  37
HETATM   37  O4  UNL     1      -0.834   5.638  14.951  1.00  0.00    -0.394 OA
HETATM   38  H21 UNL     1      -1.050   5.919  15.858  1.00  0.00     0.210 HD
ENDBRANCH   5  37
BRANCH   6  39
HETATM   39  C17 UNL     1      -0.802   9.158  12.150  1.00  0.00     0.012 C 
BRANCH  39  40
HETATM   40  C18 UNL     1      -0.736   9.683  13.594  1.00  0.00     0.027 C 
BRANCH  40  41
HETATM   41  C19 UNL     1      -1.802  10.752  13.846  1.00  0.00     0.164 C 
BRANCH  41  42
HETATM   42  O5  UNL     1      -1.328  11.710  14.786  1.00  0.00    -0.401 OA
HETATM   43  H29 UNL     1      -0.978  12.467  14.287  1.00  0.00     0.209 HD
ENDBRANCH  41  42
ENDBRANCH  40  41
ENDBRANCH  39  40
ENDBRANCH   6  39
BRANCH  14  44
HETATM   44  O7  UNL     1       1.312   5.367  13.537  1.00  0.00    -0.389 OA
HETATM   45  H43 UNL     1       0.791   5.209  14.353  1.00  0.00     0.210 HD
ENDBRANCH  14  44
BRANCH   8  46
HETATM   46  C22 UNL     1       1.803   9.445  13.834  1.00  0.00     0.265 C 
HETATM   47  O6  UNL     1       2.593  10.076  14.531  1.00  0.00    -0.302 OA
ENDBRANCH   8  46
TORSDOF 20
ENDMDL
MODEL 6
REMARK minimizedAffinity -6.9363451
REMARK CNNscore 0.232837573
REMARK CNNaffinity 5.83683729
REMARK  20 active torsions:
REMARK  status: ('A' for Active; 'I' for Inactive)
REMARK    1  A    between atoms: C2_2  and  C3_3 
REMARK    2  A    between atoms: C2_2  and  C30_37 
REMARK    3  A    between atoms: C4_4  and  C5_5 
REMARK    4  A    between atoms: C6_6  and  C7_7 
REMARK    5  A    between atoms: C6_6  and  C11_14 
REMARK    6  A    between atoms: C7_7  and  O1_8 
REMARK    7  A    between atoms: O1_8  and  C8_9 
REMARK    8  A    between atoms: C8_9  and  C9_10 
REMARK    9  A    between atoms: C9_10  and  O2_11 
REMARK   10  A    between atoms: C9_10  and  C10_12 
REMARK   11  A    between atoms: C10_12  and  O3_13 
REMARK   12  A    between atoms: C15_18  and  O4_19 
REMARK   13  A    between atoms: C16_20  and  C17_21 
REMARK   14  A    between atoms: C17_21  and  C18_22 
REMARK   15  A    between atoms: C18_22  and  C19_23 
REMARK   16  A    between atoms: C19_23  and  O5_24 
REMARK   17  A    between atoms: C21_26  and  C22_27 
REMARK   18  A    between atoms: C28_34  and  O7_36 
REMARK   19  A    between atoms: C30_37  and  C31_38 
REMARK   20  A    between atoms: C31_38  and  C32_39 
ROOT
HETATM    1  C11 UNL     1       1.354  10.245  17.808  1.00  0.00     0.046 C 
HETATM    2  C12 UNL     1      -0.031  10.827  18.082  1.00  0.00     0.013 C 
HETATM    3  C13 UNL     1       0.108  11.367  19.505  1.00  0.00     0.017 C 
HETATM    4  C14 UNL     1       1.565  11.930  19.617  1.00  0.00     0.024 C 
HETATM    5  C15 UNL     1       2.259  11.398  18.307  1.00  0.00     0.138 C 
HETATM    6  C16 UNL     1       2.254  11.329  20.939  1.00  0.00     0.029 C 
HETATM    7  C20 UNL     1       3.298  12.327  21.479  1.00  0.00    -0.061 C 
HETATM    8  C21 UNL     1       4.654  12.294  21.448  1.00  0.00    -0.017 C 
HETATM    9  C23 UNL     1       5.528  13.323  22.135  1.00  0.00     0.042 C 
HETATM   10  C24 UNL     1       4.766  14.276  23.049  1.00  0.00     0.005 C 
HETATM   11  C25 UNL     1       3.494  14.745  22.367  1.00  0.00     0.009 C 
HETATM   12  C26 UNL     1       2.578  13.544  22.077  1.00  0.00     0.018 C 
HETATM   13  C27 UNL     1       1.398  13.985  21.181  1.00  0.00     0.047 C 
HETATM   14  C28 UNL     1       1.541  13.527  19.712  1.00  0.00     0.066 C 
HETATM   15  C29 UNL     1       0.450  14.239  18.886  1.00  0.00     0.047 C 
ENDROOT
BRANCH   1  16
HETATM   16  C6  UNL     1       1.760   9.658  16.457  1.00  0.00    -0.050 C 
HETATM   17  C5  UNL     1       1.049   8.912  15.583  1.00  0.00     0.005 C 
BRANCH  17  18
HETATM   18  C4  UNL     1      -0.325   8.463  15.635  1.00  0.00     0.001 C 
HETATM   19  C3  UNL     1      -0.770   7.426  14.906  1.00  0.00     0.006 C 
BRANCH  19  20
HETATM   20  C2  UNL     1      -2.144   6.926  14.853  1.00  0.00    -0.067 C 
HETATM   21  C1  UNL     1      -2.969   7.240  15.868  1.00  0.00     0.019 C 
BRANCH  20  22
HETATM   22  C30 UNL     1      -2.557   6.057  13.667  1.00  0.00     0.041 C 
BRANCH  22  23
HETATM   23  C31 UNL     1      -4.041   5.668  13.515  1.00  0.00     0.032 C 
BRANCH  23  24
HETATM   24  C32 UNL     1      -4.234   4.467  12.620  1.00  0.00    -0.024 C 
HETATM   25  C33 UNL     1      -5.340   3.714  12.454  1.00  0.00    -0.091 C 
HETATM   26  C34 UNL     1      -5.335   2.556  11.488  1.00  0.00     0.042 C 
HETATM   27  C35 UNL     1      -6.651   3.916  13.160  1.00  0.00     0.042 C 
ENDBRANCH  23  24
ENDBRANCH  22  23
ENDBRANCH  20  22
ENDBRANCH  19  20
ENDBRANCH  17  18
BRANCH  16  28
HETATM   28  C7  UNL     1       3.215   9.961  16.088  1.00  0.00     0.202 C 
BRANCH  28  29
HETATM   29  O1  UNL     1       3.807   8.777  15.565  1.00  0.00    -0.384 OA
BRANCH  29  30
HETATM   30  C8  UNL     1       4.919   9.015  14.698  1.00  0.00     0.201 C 
BRANCH  30  31
HETATM   31  C9  UNL     1       5.983   7.904  14.736  1.00  0.00     0.165 C 
BRANCH  31  32
HETATM   32  O2  UNL     1       5.465   6.754  15.420  1.00  0.00    -0.391 OA
HETATM   33  H11 UNL     1       6.078   6.017  15.250  1.00  0.00     0.210 HD
ENDBRANCH  31  32
BRANCH  31  34
HETATM   34  C10 UNL     1       7.293   8.354  15.393  1.00  0.00     0.198 C 
BRANCH  34  35
HETATM   35  O3  UNL     1       8.235   7.292  15.463  1.00  0.00    -0.398 OA
HETATM   36  H14 UNL     1       8.159   6.875  16.339  1.00  0.00     0.209 HD
ENDBRANCH  34  35
ENDBRANCH  31  34
ENDBRANCH  30  31
ENDBRANCH  29  30
ENDBRANCH  28  29
ENDBRANCH  16  28
ENDBRANCH   1  16
BRANCH   5  37
HETATM   37  O4  UNL     1       2.326  12.412  17.291  1.00  0.00    -0.394 OA
HETATM   38  H21 UNL     1       2.833  12.035  16.549  1.00  0.00     0.210 HD
ENDBRANCH   5  37
BRANCH   6  39
HETATM   39  C17 UNL     1       2.721   9.845  20.965  1.00  0.00     0.012 C 
BRANCH  39  40
HETATM   40  C18 UNL     1       2.347   9.027  22.212  1.00  0.00     0.027 C 
BRANCH  40  41
HETATM   41  C19 UNL     1       3.261   9.363  23.392  1.00  0.00     0.164 C 
BRANCH  41  42
HETATM   42  O5  UNL     1       2.508   9.422  24.599  1.00  0.00    -0.401 OA
HETATM   43  H29 UNL     1       2.590   8.561  25.042  1.00  0.00     0.209 HD
ENDBRANCH  41  42
ENDBRANCH  40  41
ENDBRANCH  39  40
ENDBRANCH   6  39
BRANCH  14  44
HETATM   44  O7  UNL     1       2.790  14.057  19.229  1.00  0.00    -0.389 OA
HETATM   45  H43 UNL     1       2.814  13.815  18.278  1.00  0.00     0.210 HD
ENDBRANCH  14  44
BRANCH   8  46
HETATM   46  C22 UNL     1       5.466  11.292  20.694  1.00  0.00     0.265 C 
HETATM   47  O6  UNL     1       5.555  11.288  19.470  1.00  0.00    -0.302 OA
ENDBRANCH   8  46
TORSDOF 20
ENDMDL
MODEL 7
REMARK minimizedAffinity -6.67490625
REMARK CNNscore 0.228516832
REMARK CNNaffinity 6.15250397
REMARK  20 active torsions:
REMARK  status: ('A' for Active; 'I' for Inactive)
REMARK    1  A    between atoms: C2_2  and  C3_3 
REMARK    2  A    between atoms: C2_2  and  C30_37 
REMARK    3  A    between atoms: C4_4  and  C5_5 
REMARK    4  A    between atoms: C6_6  and  C7_7 
REMARK    5  A    between atoms: C6_6  and  C11_14 
REMARK    6  A    between atoms: C7_7  and  O1_8 
REMARK    7  A    between atoms: O1_8  and  C8_9 
REMARK    8  A    between atoms: C8_9  and  C9_10 
REMARK    9  A    between atoms: C9_10  and  O2_11 
REMARK   10  A    between atoms: C9_10  and  C10_12 
REMARK   11  A    between atoms: C10_12  and  O3_13 
REMARK   12  A    between atoms: C15_18  and  O4_19 
REMARK   13  A    between atoms: C16_20  and  C17_21 
REMARK   14  A    between atoms: C17_21  and  C18_22 
REMARK   15  A    between atoms: C18_22  and  C19_23 
REMARK   16  A    between atoms: C19_23  and  O5_24 
REMARK   17  A    between atoms: C21_26  and  C22_27 
REMARK   18  A    between atoms: C28_34  and  O7_36 
REMARK   19  A    between atoms: C30_37  and  C31_38 
REMARK   20  A    between atoms: C31_38  and  C32_39 
ROOT
HETATM    1  C11 UNL     1      -2.360   9.184  16.598  1.00  0.00     0.046 C 
HETATM    2  C12 UNL     1      -3.678   9.863  16.965  1.00  0.00     0.013 C 
HETATM    3  C13 UNL     1      -3.212  11.163  17.621  1.00  0.00     0.017 C 
HETATM    4  C14 UNL     1      -1.938  11.618  16.832  1.00  0.00     0.024 C 
HETATM    5  C15 UNL     1      -1.597  10.362  15.944  1.00  0.00     0.138 C 
HETATM    6  C16 UNL     1      -0.765  11.939  17.882  1.00  0.00     0.029 C 
HETATM    7  C20 UNL     1       0.172  13.016  17.298  1.00  0.00    -0.061 C 
HETATM    8  C21 UNL     1       1.428  12.919  16.795  1.00  0.00    -0.017 C 
HETATM    9  C23 UNL     1       2.247  14.118  16.362  1.00  0.00     0.042 C 
HETATM   10  C24 UNL     1       1.633  15.460  16.742  1.00  0.00     0.005 C 
HETATM   11  C25 UNL     1       0.145  15.454  16.446  1.00  0.00     0.009 C 
HETATM   12  C26 UNL     1      -0.554  14.368  17.281  1.00  0.00     0.018 C 
HETATM   13  C27 UNL     1      -2.018  14.204  16.813  1.00  0.00     0.047 C 
HETATM   14  C28 UNL     1      -2.253  12.929  15.972  1.00  0.00     0.066 C 
HETATM   15  C29 UNL     1      -3.667  13.018  15.362  1.00  0.00     0.047 C 
ENDROOT
BRANCH   1  16
HETATM   16  C6  UNL     1      -2.287   7.871  15.819  1.00  0.00    -0.050 C 
HETATM   17  C5  UNL     1      -3.278   7.097  15.322  1.00  0.00     0.005 C 
BRANCH  17  18
HETATM   18  C4  UNL     1      -4.712   7.283  15.343  1.00  0.00     0.001 C 
HETATM   19  C3  UNL     1      -5.568   6.257  15.480  1.00  0.00     0.006 C 
BRANCH  19  20
HETATM   20  C2  UNL     1      -7.029   6.335  15.466  1.00  0.00    -0.067 C 
HETATM   21  C1  UNL     1      -7.638   6.945  16.498  1.00  0.00     0.019 C 
BRANCH  20  22
HETATM   22  C30 UNL     1      -7.780   5.699  14.298  1.00  0.00     0.041 C 
BRANCH  22  23
HETATM   23  C31 UNL     1      -7.409   4.264  13.873  1.00  0.00     0.032 C 
BRANCH  23  24
HETATM   24  C32 UNL     1      -6.191   4.222  12.982  1.00  0.00    -0.024 C 
HETATM   25  C33 UNL     1      -5.799   3.243  12.143  1.00  0.00    -0.091 C 
HETATM   26  C34 UNL     1      -4.548   3.403  11.317  1.00  0.00     0.042 C 
HETATM   27  C35 UNL     1      -6.515   1.940  11.923  1.00  0.00     0.042 C 
ENDBRANCH  23  24
ENDBRANCH  22  23
ENDBRANCH  20  22
ENDBRANCH  19  20
ENDBRANCH  17  18
BRANCH  16  28
HETATM   28  C7  UNL     1      -0.852   7.376  15.618  1.00  0.00     0.202 C 
BRANCH  28  29
HETATM   29  O1  UNL     1      -0.589   7.302  14.220  1.00  0.00    -0.384 OA
BRANCH  29  30
HETATM   30  C8  UNL     1       0.641   7.914  13.825  1.00  0.00     0.201 C 
BRANCH  30  31
HETATM   31  C9  UNL     1       1.773   6.908  13.548  1.00  0.00     0.165 C 
BRANCH  31  32
HETATM   32  O2  UNL     1       2.442   6.577  14.774  1.00  0.00    -0.391 OA
HETATM   33  H11 UNL     1       3.004   5.803  14.593  1.00  0.00     0.210 HD
ENDBRANCH  31  32
BRANCH  31  34
HETATM   34  C10 UNL     1       2.789   7.421  12.522  1.00  0.00     0.198 C 
BRANCH  34  35
HETATM   35  O3  UNL     1       2.286   7.325  11.196  1.00  0.00    -0.398 OA
HETATM   36  H14 UNL     1       2.603   6.490  10.811  1.00  0.00     0.209 HD
ENDBRANCH  34  35
ENDBRANCH  31  34
ENDBRANCH  30  31
ENDBRANCH  29  30
ENDBRANCH  28  29
ENDBRANCH  16  28
ENDBRANCH   1  16
BRANCH   5  37
HETATM   37  O4  UNL     1      -2.055  10.524  14.593  1.00  0.00    -0.394 OA
HETATM   38  H21 UNL     1      -1.741   9.750  14.093  1.00  0.00     0.210 HD
ENDBRANCH   5  37
BRANCH   6  39
HETATM   39  C17 UNL     1      -0.025  10.774  18.599  1.00  0.00     0.012 C 
BRANCH  39  40
HETATM   40  C18 UNL     1       0.396  11.019  20.058  1.00  0.00     0.027 C 
BRANCH  40  41
HETATM   41  C19 UNL     1       1.914  10.921  20.223  1.00  0.00     0.164 C 
BRANCH  41  42
HETATM   42  O5  UNL     1       2.412   9.773  19.545  1.00  0.00    -0.401 OA
HETATM   43  H29 UNL     1       2.728  10.057  18.671  1.00  0.00     0.209 HD
ENDBRANCH  41  42
ENDBRANCH  40  41
ENDBRANCH  39  40
ENDBRANCH   6  39
BRANCH  14  44
HETATM   44  O7  UNL     1      -1.351  12.997  14.851  1.00  0.00    -0.389 OA
HETATM   45  H43 UNL     1      -1.577  12.218  14.299  1.00  0.00     0.210 HD
ENDBRANCH  14  44
BRANCH   8  46
HETATM   46  C22 UNL     1       2.148  11.635  16.541  1.00  0.00     0.265 C 
HETATM   47  O6  UNL     1       1.915  10.918  15.571  1.00  0.00    -0.302 OA
ENDBRANCH   8  46
TORSDOF 20
ENDMDL
MODEL 8
REMARK minimizedAffinity -6.44762754
REMARK CNNscore 0.221556008
REMARK CNNaffinity 6.58077478
REMARK  20 active torsions:
REMARK  status: ('A' for Active; 'I' for Inactive)
REMARK    1  A    between atoms: C2_2  and  C3_3 
REMARK    2  A    between atoms: C2_2  and  C30_37 
REMARK    3  A    between atoms: C4_4  and  C5_5 
REMARK    4  A    between atoms: C6_6  and  C7_7 
REMARK    5  A    between atoms: C6_6  and  C11_14 
REMARK    6  A    between atoms: C7_7  and  O1_8 
REMARK    7  A    between atoms: O1_8  and  C8_9 
REMARK    8  A    between atoms: C8_9  and  C9_10 
REMARK    9  A    between atoms: C9_10  and  O2_11 
REMARK   10  A    between atoms: C9_10  and  C10_12 
REMARK   11  A    between atoms: C10_12  and  O3_13 
REMARK   12  A    between atoms: C15_18  and  O4_19 
REMARK   13  A    between atoms: C16_20  and  C17_21 
REMARK   14  A    between atoms: C17_21  and  C18_22 
REMARK   15  A    between atoms: C18_22  and  C19_23 
REMARK   16  A    between atoms: C19_23  and  O5_24 
REMARK   17  A    between atoms: C21_26  and  C22_27 
REMARK   18  A    between atoms: C28_34  and  O7_36 
REMARK   19  A    between atoms: C30_37  and  C31_38 
REMARK   20  A    between atoms: C31_38  and  C32_39 
ROOT
HETATM    1  C11 UNL     1      -6.619  -9.753   4.923  1.00  0.00     0.046 C 
HETATM    2  C12 UNL     1      -7.500  -9.058   3.887  1.00  0.00     0.013 C 
HETATM    3  C13 UNL     1      -6.629  -9.089   2.632  1.00  0.00     0.017 C 
HETATM    4  C14 UNL     1      -5.863 -10.455   2.667  1.00  0.00     0.024 C 
HETATM    5  C15 UNL     1      -6.146 -10.990   4.121  1.00  0.00     0.138 C 
HETATM    6  C16 UNL     1      -4.298 -10.178   2.430  1.00  0.00     0.029 C 
HETATM    7  C20 UNL     1      -3.652 -11.404   1.752  1.00  0.00    -0.061 C 
HETATM    8  C21 UNL     1      -2.825 -12.357   2.248  1.00  0.00    -0.017 C 
HETATM    9  C23 UNL     1      -2.193 -13.438   1.395  1.00  0.00     0.042 C 
HETATM   10  C24 UNL     1      -2.384 -13.238  -0.105  1.00  0.00     0.005 C 
HETATM   11  C25 UNL     1      -3.816 -12.829  -0.396  1.00  0.00     0.009 C 
HETATM   12  C26 UNL     1      -4.134 -11.494   0.297  1.00  0.00     0.018 C 
HETATM   13  C27 UNL     1      -5.647 -11.195   0.196  1.00  0.00     0.047 C 
HETATM   14  C28 UNL     1      -6.408 -11.430   1.521  1.00  0.00     0.066 C 
HETATM   15  C29 UNL     1      -7.918 -11.347   1.222  1.00  0.00     0.047 C 
ENDROOT
BRANCH   1  16
HETATM   16  C6  UNL     1      -7.087 -10.059   6.345  1.00  0.00    -0.050 C 
HETATM   17  C5  UNL     1      -8.309  -9.929   6.907  1.00  0.00     0.005 C 
BRANCH  17  18
HETATM   18  C4  UNL     1      -9.563  -9.492   6.332  1.00  0.00     0.001 C 
HETATM   19  C3  UNL     1     -10.353  -8.588   6.935  1.00  0.00     0.006 C 
BRANCH  19  20
HETATM   20  C2  UNL     1     -11.655  -8.117   6.461  1.00  0.00    -0.067 C 
HETATM   21  C1  UNL     1     -11.716  -7.557   5.239  1.00  0.00     0.019 C 
BRANCH  20  22
HETATM   22  C30 UNL     1     -12.861  -8.262   7.386  1.00  0.00     0.041 C 
BRANCH  22  23
HETATM   23  C31 UNL     1     -14.047  -7.292   7.214  1.00  0.00     0.032 C 
BRANCH  23  24
HETATM   24  C32 UNL     1     -13.879  -6.026   8.019  1.00  0.00    -0.024 C 
HETATM   25  C33 UNL     1     -14.273  -4.775   7.708  1.00  0.00    -0.091 C 
HETATM   26  C34 UNL     1     -14.025  -3.637   8.666  1.00  0.00     0.042 C 
HETATM   27  C35 UNL     1     -14.977  -4.368   6.444  1.00  0.00     0.042 C 
ENDBRANCH  23  24
ENDBRANCH  22  23
ENDBRANCH  20  22
ENDBRANCH  19  20
ENDBRANCH  17  18
BRANCH  16  28
HETATM   28  C7  UNL     1      -5.958 -10.561   7.249  1.00  0.00     0.202 C 
BRANCH  28  29
HETATM   29  O1  UNL     1      -6.388 -10.475   8.604  1.00  0.00    -0.384 OA
BRANCH  29  30
HETATM   30  C8  UNL     1      -6.013  -9.259   9.259  1.00  0.00     0.201 C 
BRANCH  30  31
HETATM   31  C9  UNL     1      -5.349  -9.475  10.630  1.00  0.00     0.165 C 
BRANCH  31  32
HETATM   32  O2  UNL     1      -5.628  -8.359  11.488  1.00  0.00    -0.391 OA
HETATM   33  H11 UNL     1      -5.369  -8.619  12.390  1.00  0.00     0.210 HD
ENDBRANCH  31  32
BRANCH  31  34
HETATM   34  C10 UNL     1      -3.834  -9.691  10.532  1.00  0.00     0.198 C 
BRANCH  34  35
HETATM   35  O3  UNL     1      -3.172  -9.293  11.725  1.00  0.00    -0.398 OA
HETATM   36  H14 UNL     1      -2.858  -8.380  11.610  1.00  0.00     0.209 HD
ENDBRANCH  34  35
ENDBRANCH  31  34
ENDBRANCH  30  31
ENDBRANCH  29  30
ENDBRANCH  28  29
ENDBRANCH  16  28
ENDBRANCH   1  16
BRANCH   5  37
HETATM   37  O4  UNL     1      -7.186 -11.980   4.131  1.00  0.00    -0.394 OA
HETATM   38  H21 UNL     1      -7.248 -12.316   5.044  1.00  0.00     0.210 HD
ENDBRANCH   5  37
BRANCH   6  39
HETATM   39  C17 UNL     1      -3.439  -9.555   3.568  1.00  0.00     0.012 C 
BRANCH  39  40
HETATM   40  C18 UNL     1      -3.553 -10.211   4.955  1.00  0.00     0.027 C 
BRANCH  40  41
HETATM   41  C19 UNL     1      -2.554  -9.601   5.941  1.00  0.00     0.164 C 
BRANCH  41  42
HETATM   42  O5  UNL     1      -2.826  -8.216   6.127  1.00  0.00    -0.401 OA
HETATM   43  H29 UNL     1      -3.366  -8.125   6.930  1.00  0.00     0.209 HD
ENDBRANCH  41  42
ENDBRANCH  40  41
ENDBRANCH  39  40
ENDBRANCH   6  39
BRANCH  14  44
HETATM   44  O7  UNL     1      -6.170 -12.798   1.901  1.00  0.00    -0.389 OA
HETATM   45  H43 UNL     1      -6.724 -12.938   2.699  1.00  0.00     0.210 HD
ENDBRANCH  14  44
BRANCH   8  46
HETATM   46  C22 UNL     1      -2.473 -12.514   3.691  1.00  0.00     0.265 C 
HETATM   47  O6  UNL     1      -1.645 -13.327   4.093  1.00  0.00    -0.302 OA
ENDBRANCH   8  46
TORSDOF 20
ENDMDL
MODEL 9
REMARK minimizedAffinity -7.69015551
REMARK CNNscore 0.210893467
REMARK CNNaffinity 7.07866526
REMARK  20 active torsions:
REMARK  status: ('A' for Active; 'I' for Inactive)
REMARK    1  A    between atoms: C2_2  and  C3_3 
REMARK    2  A    between atoms: C2_2  and  C30_37 
REMARK    3  A    between atoms: C4_4  and  C5_5 
REMARK    4  A    between atoms: C6_6  and  C7_7 
REMARK    5  A    between atoms: C6_6  and  C11_14 
REMARK    6  A    between atoms: C7_7  and  O1_8 
REMARK    7  A    between atoms: O1_8  and  C8_9 
REMARK    8  A    between atoms: C8_9  and  C9_10 
REMARK    9  A    between atoms: C9_10  and  O2_11 
REMARK   10  A    between atoms: C9_10  and  C10_12 
REMARK   11  A    between atoms: C10_12  and  O3_13 
REMARK   12  A    between atoms: C15_18  and  O4_19 
REMARK   13  A    between atoms: C16_20  and  C17_21 
REMARK   14  A    between atoms: C17_21  and  C18_22 
REMARK   15  A    between atoms: C18_22  and  C19_23 
REMARK   16  A    between atoms: C19_23  and  O5_24 
REMARK   17  A    between atoms: C21_26  and  C22_27 
REMARK   18  A    between atoms: C28_34  and  O7_36 
REMARK   19  A    between atoms: C30_37  and  C31_38 
REMARK   20  A    between atoms: C31_38  and  C32_39 
ROOT
HETATM    1  C11 UNL     1      -0.126   8.366  14.873  1.00  0.00     0.046 C 
HETATM    2  C12 UNL     1       1.021   7.644  15.578  1.00  0.00     0.013 C 
HETATM    3  C13 UNL     1       1.620   6.795  14.458  1.00  0.00     0.017 C 
HETATM    4  C14 UNL     1       1.516   7.656  13.154  1.00  0.00     0.024 C 
HETATM    5  C15 UNL     1       0.582   8.849  13.584  1.00  0.00     0.138 C 
HETATM    6  C16 UNL     1       0.847   6.765  11.997  1.00  0.00     0.029 C 
HETATM    7  C20 UNL     1       1.361   7.234  10.620  1.00  0.00    -0.061 C 
HETATM    8  C21 UNL     1       0.748   7.943   9.640  1.00  0.00    -0.017 C 
HETATM    9  C23 UNL     1       1.381   8.219   8.291  1.00  0.00     0.042 C 
HETATM   10  C24 UNL     1       2.673   7.449   8.041  1.00  0.00     0.005 C 
HETATM   11  C25 UNL     1       3.552   7.493   9.276  1.00  0.00     0.009 C 
HETATM   12  C26 UNL     1       2.832   6.824  10.460  1.00  0.00     0.018 C 
HETATM   13  C27 UNL     1       3.621   7.073  11.765  1.00  0.00     0.047 C 
HETATM   14  C28 UNL     1       2.968   8.133  12.682  1.00  0.00     0.066 C 
HETATM   15  C29 UNL     1       3.971   8.469  13.806  1.00  0.00     0.047 C 
ENDROOT
BRANCH   1  16
HETATM   16  C6  UNL     1      -0.991   9.423  15.557  1.00  0.00    -0.050 C 
HETATM   17  C5  UNL     1      -2.307   9.696  15.416  1.00  0.00     0.005 C 
BRANCH  17  18
HETATM   18  C4  UNL     1      -3.315   9.055  14.601  1.00  0.00     0.001 C 
HETATM   19  C3  UNL     1      -3.592   7.744  14.698  1.00  0.00     0.006 C 
BRANCH  19  20
HETATM   20  C2  UNL     1      -4.555   6.995  13.890  1.00  0.00    -0.067 C 
HETATM   21  C1  UNL     1      -5.537   7.684  13.281  1.00  0.00     0.019 C 
BRANCH  20  22
HETATM   22  C30 UNL     1      -4.409   5.478  13.805  1.00  0.00     0.041 C 
BRANCH  22  23
HETATM   23  C31 UNL     1      -4.683   4.782  12.456  1.00  0.00     0.032 C 
BRANCH  23  24
HETATM   24  C32 UNL     1      -5.608   3.597  12.596  1.00  0.00    -0.024 C 
HETATM   25  C33 UNL     1      -6.955   3.588  12.661  1.00  0.00    -0.091 C 
HETATM   26  C34 UNL     1      -7.703   2.285  12.782  1.00  0.00     0.042 C 
HETATM   27  C35 UNL     1      -7.841   4.801  12.618  1.00  0.00     0.042 C 
ENDBRANCH  23  24
ENDBRANCH  22  23
ENDBRANCH  20  22
ENDBRANCH  19  20
ENDBRANCH  17  18
BRANCH  16  28
HETATM   28  C7  UNL     1      -0.198  10.309  16.523  1.00  0.00     0.202 C 
BRANCH  28  29
HETATM   29  O1  UNL     1       0.030  11.569  15.899  1.00  0.00    -0.384 OA
BRANCH  29  30
HETATM   30  C8  UNL     1      -0.384  12.691  16.684  1.00  0.00     0.201 C 
BRANCH  30  31
HETATM   31  C9  UNL     1      -1.003  13.831  15.856  1.00  0.00     0.165 C 
BRANCH  31  32
HETATM   32  O2  UNL     1      -1.572  14.816  16.729  1.00  0.00    -0.391 OA
HETATM   33  H11 UNL     1      -1.769  15.601  16.188  1.00  0.00     0.210 HD
ENDBRANCH  31  32
BRANCH  31  34
HETATM   34  C10 UNL     1      -2.063  13.340  14.863  1.00  0.00     0.198 C 
BRANCH  34  35
HETATM   35  O3  UNL     1      -1.471  12.715  13.732  1.00  0.00    -0.398 OA
HETATM   36  H14 UNL     1      -1.389  13.379  13.026  1.00  0.00     0.209 HD
ENDBRANCH  34  35
ENDBRANCH  31  34
ENDBRANCH  30  31
ENDBRANCH  29  30
ENDBRANCH  28  29
ENDBRANCH  16  28
ENDBRANCH   1  16
BRANCH   5  37
HETATM   37  O4  UNL     1       1.336  10.035  13.881  1.00  0.00    -0.394 OA
HETATM   38  H21 UNL     1       0.690  10.743  14.060  1.00  0.00     0.210 HD
ENDBRANCH   5  37
BRANCH   6  39
HETATM   39  C17 UNL     1      -0.679   6.462  12.035  1.00  0.00     0.012 C 
BRANCH  39  40
HETATM   40  C18 UNL     1      -1.086   4.979  12.085  1.00  0.00     0.027 C 
BRANCH  40  41
HETATM   41  C19 UNL     1       0.138   4.064  12.008  1.00  0.00     0.164 C 
BRANCH  41  42
HETATM   42  O5  UNL     1      -0.105   2.989  11.107  1.00  0.00    -0.401 OA
HETATM   43  H29 UNL     1       0.274   3.231  10.246  1.00  0.00     0.209 HD
ENDBRANCH  41  42
ENDBRANCH  40  41
ENDBRANCH  39  40
ENDBRANCH   6  39
BRANCH  14  44
HETATM   44  O7  UNL     1       2.850   9.340  11.906  1.00  0.00    -0.389 OA
HETATM   45  H43 UNL     1       2.506  10.010  12.535  1.00  0.00     0.210 HD
ENDBRANCH  14  44
BRANCH   8  46
HETATM   46  C22 UNL     1      -0.590   8.596   9.768  1.00  0.00     0.265 C 
HETATM   47  O6  UNL     1      -1.049   9.352   8.917  1.00  0.00    -0.302 OA
ENDBRANCH   8  46
TORSDOF 20
ENDMDL
