MODEL 1
REMARK minimizedAffinity -9.58160019
REMARK  12 active torsions:
REMARK  status: ('A' for Active; 'I' for Inactive)
REMARK    1  A    between atoms: C2_2  and  C3_3 
REMARK    2  A    between atoms: C2_2  and  C26_31 
REMARK    3  A    between atoms: C3_3  and  C4_4 
REMARK    4  A    between atoms: C4_4  and  C5_5 
REMARK    5  A    between atoms: C5_5  and  C7_7 
REMARK    6  A    between atoms: C8_8  and  O1_9 
REMARK    7  A    between atoms: C9_10  and  O2_11 
REMARK    8  A    between atoms: C11_13  and  O3_14 
REMARK    9  A    between atoms: C13_16  and  O4_17 
REMARK   10  A    between atoms: C16_20  and  O5_21 
REMARK   11  A    between atoms: C26_31  and  C28_33 
REMARK   12  A    between atoms: C28_33  and  O6_34 
ROOT
HETATM    1  C7  UNL     1      -0.815  50.183 -19.043  1.00  0.00     0.029 C 
HETATM    2  C8  UNL     1      -2.246  49.664 -18.839  1.00  0.00     0.152 C 
HETATM    3  C9  UNL     1      -3.127  50.664 -19.595  1.00  0.00     0.155 C 
HETATM    4  C10 UNL     1      -2.263  51.188 -20.770  1.00  0.00     0.060 C 
HETATM    5  C11 UNL     1      -2.845  51.172 -22.208  1.00  0.00     0.071 C 
HETATM    6  C12 UNL     1      -4.171  51.938 -22.337  1.00  0.00     0.071 C 
HETATM    7  C13 UNL     1      -4.751  51.816 -23.745  1.00  0.00     0.126 C 
HETATM    8  C14 UNL     1      -5.216  50.382 -24.025  1.00  0.00     0.025 C 
HETATM    9  C15 UNL     1      -6.616  50.174 -23.395  1.00  0.00     0.039 C 
HETATM   10  C16 UNL     1      -7.186  48.792 -23.686  1.00  0.00     0.118 C 
HETATM   11  C17 UNL     1      -6.224  47.670 -23.319  1.00  0.00     0.032 C 
HETATM   12  C18 UNL     1      -4.895  48.172 -22.757  1.00  0.00     0.012 C 
HETATM   13  C19 UNL     1      -4.182  49.261 -23.617  1.00  0.00    -0.031 C 
HETATM   14  C20 UNL     1      -3.736  48.560 -24.941  1.00  0.00     0.016 C 
HETATM   15  C21 UNL     1      -2.829  49.786 -22.926  1.00  0.00     0.029 C 
HETATM   16  C22 UNL     1      -2.127  48.708 -22.071  1.00  0.00     0.009 C 
HETATM   17  C23 UNL     1      -0.805  49.165 -21.454  1.00  0.00     0.011 C 
HETATM   18  C24 UNL     1      -0.865  50.478 -20.610  1.00  0.00    -0.029 C 
HETATM   19  C25 UNL     1       0.317  51.347 -21.092  1.00  0.00     0.016 C 
ENDROOT
BRANCH   1  20
HETATM   20  C5  UNL     1      -0.346  51.413 -18.164  1.00  0.00    -0.011 C 
HETATM   21  C6  UNL     1       0.075  52.570 -19.091  1.00  0.00     0.010 C 
BRANCH  20  22
HETATM   22  C4  UNL     1       0.783  51.145 -17.140  1.00  0.00     0.009 C 
BRANCH  22  23
HETATM   23  C3  UNL     1       1.692  52.360 -16.865  1.00  0.00     0.034 C 
BRANCH  23  24
HETATM   24  C2  UNL     1       2.796  52.165 -15.830  1.00  0.00    -0.083 C 
HETATM   25  C1  UNL     1       3.993  52.776 -15.912  1.00  0.00     0.015 C 
BRANCH  24  26
HETATM   26  C26 UNL     1       2.429  51.189 -14.699  1.00  0.00     0.033 C 
HETATM   27  C27 UNL     1       3.611  50.389 -14.134  1.00  0.00     0.017 C 
BRANCH  26  28
HETATM   28  C28 UNL     1       1.671  51.891 -13.557  1.00  0.00     0.172 C 
BRANCH  28  29
HETATM   29  O6  UNL     1       0.813  52.920 -14.039  1.00  0.00    -0.400 OA
HETATM   30  H48 UNL     1       0.202  52.501 -14.672  1.00  0.00     0.209 HD
ENDBRANCH  28  29
ENDBRANCH  26  28
ENDBRANCH  24  26
ENDBRANCH  23  24
ENDBRANCH  22  23
ENDBRANCH  20  22
ENDBRANCH   1  20
BRANCH   2  31
HETATM   31  O1  UNL     1      -2.662  49.479 -17.497  1.00  0.00    -0.393 OA
HETATM   32  H13 UNL     1      -3.316  48.756 -17.498  1.00  0.00     0.210 HD
ENDBRANCH   2  31
BRANCH   3  33
HETATM   33  O2  UNL     1      -4.348  50.045 -19.961  1.00  0.00    -0.392 OA
HETATM   34  H15 UNL     1      -4.886  50.012 -19.150  1.00  0.00     0.210 HD
ENDBRANCH   3  33
BRANCH   5  35
HETATM   35  O3  UNL     1      -1.885  51.989 -22.943  1.00  0.00    -0.389 OA
HETATM   36  H17 UNL     1      -2.321  52.241 -23.785  1.00  0.00     0.210 HD
ENDBRANCH   5  35
BRANCH   7  37
HETATM   37  O4  UNL     1      -3.766  52.218 -24.698  1.00  0.00    -0.395 OA
HETATM   38  H21 UNL     1      -3.995  51.847 -25.578  1.00  0.00     0.210 HD
ENDBRANCH   7  37
BRANCH  10  39
HETATM   39  O5  UNL     1      -7.505  48.685 -25.071  1.00  0.00    -0.396 OA
HETATM   40  H26 UNL     1      -8.191  49.348 -25.268  1.00  0.00     0.210 HD
ENDBRANCH  10  39
TORSDOF 12
ENDMDL
MODEL 2
REMARK minimizedAffinity -9.32378292
REMARK  12 active torsions:
REMARK  status: ('A' for Active; 'I' for Inactive)
REMARK    1  A    between atoms: C2_2  and  C3_3 
REMARK    2  A    between atoms: C2_2  and  C26_31 
REMARK    3  A    between atoms: C3_3  and  C4_4 
REMARK    4  A    between atoms: C4_4  and  C5_5 
REMARK    5  A    between atoms: C5_5  and  C7_7 
REMARK    6  A    between atoms: C8_8  and  O1_9 
REMARK    7  A    between atoms: C9_10  and  O2_11 
REMARK    8  A    between atoms: C11_13  and  O3_14 
REMARK    9  A    between atoms: C13_16  and  O4_17 
REMARK   10  A    between atoms: C16_20  and  O5_21 
REMARK   11  A    between atoms: C26_31  and  C28_33 
REMARK   12  A    between atoms: C28_33  and  O6_34 
ROOT
HETATM    1  C7  UNL     1      -1.393  50.707 -22.534  1.00  0.00     0.029 C 
HETATM    2  C8  UNL     1      -2.083  50.684 -21.162  1.00  0.00     0.152 C 
HETATM    3  C9  UNL     1      -3.531  51.088 -21.456  1.00  0.00     0.155 C 
HETATM    4  C10 UNL     1      -3.831  50.582 -22.889  1.00  0.00     0.060 C 
HETATM    5  C11 UNL     1      -5.108  49.738 -23.146  1.00  0.00     0.071 C 
HETATM    6  C12 UNL     1      -6.402  50.444 -22.711  1.00  0.00     0.071 C 
HETATM    7  C13 UNL     1      -7.620  49.540 -22.897  1.00  0.00     0.126 C 
HETATM    8  C14 UNL     1      -7.586  48.364 -21.913  1.00  0.00     0.025 C 
HETATM    9  C15 UNL     1      -8.110  48.843 -20.536  1.00  0.00     0.039 C 
HETATM   10  C16 UNL     1      -8.176  47.716 -19.514  1.00  0.00     0.118 C 
HETATM   11  C17 UNL     1      -6.862  46.957 -19.390  1.00  0.00     0.032 C 
HETATM   12  C18 UNL     1      -5.771  47.478 -20.326  1.00  0.00     0.012 C 
HETATM   13  C19 UNL     1      -6.196  47.621 -21.821  1.00  0.00    -0.031 C 
HETATM   14  C20 UNL     1      -6.427  46.171 -22.357  1.00  0.00     0.016 C 
HETATM   15  C21 UNL     1      -5.020  48.237 -22.727  1.00  0.00     0.029 C 
HETATM   16  C22 UNL     1      -3.608  47.868 -22.218  1.00  0.00     0.009 C 
HETATM   17  C23 UNL     1      -2.473  48.391 -23.099  1.00  0.00     0.011 C 
HETATM   18  C24 UNL     1      -2.488  49.926 -23.391  1.00  0.00    -0.029 C 
HETATM   19  C25 UNL     1      -2.272  50.072 -24.913  1.00  0.00     0.016 C 
ENDROOT
BRANCH   1  20
HETATM   20  C5  UNL     1      -0.984  52.116 -23.129  1.00  0.00    -0.011 C 
HETATM   21  C6  UNL     1      -2.097  52.612 -24.074  1.00  0.00     0.010 C 
BRANCH  20  22
HETATM   22  C4  UNL     1       0.377  52.193 -23.861  1.00  0.00     0.009 C 
BRANCH  22  23
HETATM   23  C3  UNL     1       0.534  53.423 -24.779  1.00  0.00     0.034 C 
BRANCH  23  24
HETATM   24  C2  UNL     1       0.427  53.170 -26.280  1.00  0.00    -0.083 C 
HETATM   25  C1  UNL     1      -0.094  54.066 -27.139  1.00  0.00     0.015 C 
BRANCH  24  26
HETATM   26  C26 UNL     1       0.943  51.789 -26.722  1.00  0.00     0.033 C 
HETATM   27  C27 UNL     1       0.719  51.466 -28.206  1.00  0.00     0.017 C 
BRANCH  26  28
HETATM   28  C28 UNL     1       2.424  51.585 -26.352  1.00  0.00     0.172 C 
BRANCH  28  29
HETATM   29  O6  UNL     1       3.262  51.542 -27.502  1.00  0.00    -0.400 OA
HETATM   30  H48 UNL     1       3.123  52.379 -27.980  1.00  0.00     0.209 HD
ENDBRANCH  28  29
ENDBRANCH  26  28
ENDBRANCH  24  26
ENDBRANCH  23  24
ENDBRANCH  22  23
ENDBRANCH  20  22
ENDBRANCH   1  20
BRANCH   2  31
HETATM   31  O1  UNL     1      -1.492  51.479 -20.148  1.00  0.00    -0.393 OA
HETATM   32  H13 UNL     1      -1.684  51.045 -19.297  1.00  0.00     0.210 HD
ENDBRANCH   2  31
BRANCH   3  33
HETATM   33  O2  UNL     1      -4.382  50.589 -20.439  1.00  0.00    -0.392 OA
HETATM   34  H15 UNL     1      -4.256  51.175 -19.671  1.00  0.00     0.210 HD
ENDBRANCH   3  33
BRANCH   5  35
HETATM   35  O3  UNL     1      -5.182  49.718 -24.604  1.00  0.00    -0.389 OA
HETATM   36  H17 UNL     1      -6.094  49.436 -24.832  1.00  0.00     0.210 HD
ENDBRANCH   5  35
BRANCH   7  37
HETATM   37  O4  UNL     1      -7.655  49.066 -24.243  1.00  0.00    -0.395 OA
HETATM   38  H21 UNL     1      -8.213  48.259 -24.289  1.00  0.00     0.210 HD
ENDBRANCH   7  37
BRANCH  10  39
HETATM   39  O5  UNL     1      -9.202  46.795 -19.878  1.00  0.00    -0.396 OA
HETATM   40  H26 UNL     1     -10.049  47.276 -19.860  1.00  0.00     0.210 HD
ENDBRANCH  10  39
TORSDOF 12
ENDMDL
MODEL 3
REMARK minimizedAffinity -9.26966667
REMARK  12 active torsions:
REMARK  status: ('A' for Active; 'I' for Inactive)
REMARK    1  A    between atoms: C2_2  and  C3_3 
REMARK    2  A    between atoms: C2_2  and  C26_31 
REMARK    3  A    between atoms: C3_3  and  C4_4 
REMARK    4  A    between atoms: C4_4  and  C5_5 
REMARK    5  A    between atoms: C5_5  and  C7_7 
REMARK    6  A    between atoms: C8_8  and  O1_9 
REMARK    7  A    between atoms: C9_10  and  O2_11 
REMARK    8  A    between atoms: C11_13  and  O3_14 
REMARK    9  A    between atoms: C13_16  and  O4_17 
REMARK   10  A    between atoms: C16_20  and  O5_21 
REMARK   11  A    between atoms: C26_31  and  C28_33 
REMARK   12  A    between atoms: C28_33  and  O6_34 
ROOT
HETATM    1  C7  UNL     1      -1.373  52.101 -21.751  1.00  0.00     0.029 C 
HETATM    2  C8  UNL     1      -2.628  51.909 -22.615  1.00  0.00     0.152 C 
HETATM    3  C9  UNL     1      -2.701  50.398 -22.852  1.00  0.00     0.155 C 
HETATM    4  C10 UNL     1      -2.072  49.740 -21.598  1.00  0.00     0.060 C 
HETATM    5  C11 UNL     1      -2.845  48.615 -20.860  1.00  0.00     0.071 C 
HETATM    6  C12 UNL     1      -3.212  47.431 -21.769  1.00  0.00     0.071 C 
HETATM    7  C13 UNL     1      -4.050  46.394 -21.023  1.00  0.00     0.126 C 
HETATM    8  C14 UNL     1      -5.441  46.948 -20.692  1.00  0.00     0.025 C 
HETATM    9  C15 UNL     1      -6.345  46.825 -21.944  1.00  0.00     0.039 C 
HETATM   10  C16 UNL     1      -7.771  47.291 -21.682  1.00  0.00     0.118 C 
HETATM   11  C17 UNL     1      -7.831  48.684 -21.070  1.00  0.00     0.032 C 
HETATM   12  C18 UNL     1      -6.454  49.304 -20.838  1.00  0.00     0.012 C 
HETATM   13  C19 UNL     1      -5.443  48.399 -20.069  1.00  0.00    -0.031 C 
HETATM   14  C20 UNL     1      -5.992  48.260 -18.612  1.00  0.00     0.016 C 
HETATM   15  C21 UNL     1      -4.000  49.092 -19.925  1.00  0.00     0.029 C 
HETATM   16  C22 UNL     1      -4.073  50.634 -19.849  1.00  0.00     0.009 C 
HETATM   17  C23 UNL     1      -2.718  51.312 -19.649  1.00  0.00     0.011 C 
HETATM   18  C24 UNL     1      -1.609  50.939 -20.685  1.00  0.00    -0.029 C 
HETATM   19  C25 UNL     1      -0.345  50.620 -19.857  1.00  0.00     0.016 C 
ENDROOT
BRANCH   1  20
HETATM   20  C5  UNL     1       0.034  52.045 -22.474  1.00  0.00    -0.011 C 
HETATM   21  C6  UNL     1       0.857  53.289 -22.082  1.00  0.00     0.010 C 
BRANCH  20  22
HETATM   22  C4  UNL     1       0.019  51.911 -24.015  1.00  0.00     0.009 C 
BRANCH  22  23
HETATM   23  C3  UNL     1       0.451  53.187 -24.767  1.00  0.00     0.034 C 
BRANCH  23  24
HETATM   24  C2  UNL     1       0.454  53.110 -26.292  1.00  0.00    -0.083 C 
HETATM   25  C1  UNL     1       0.011  54.111 -27.077  1.00  0.00     0.015 C 
BRANCH  24  26
HETATM   26  C26 UNL     1       0.983  51.779 -26.852  1.00  0.00     0.033 C 
HETATM   27  C27 UNL     1       0.834  51.617 -28.371  1.00  0.00     0.017 C 
BRANCH  26  28
HETATM   28  C28 UNL     1       2.442  51.519 -26.432  1.00  0.00     0.172 C 
BRANCH  28  29
HETATM   29  O6  UNL     1       3.332  51.551 -27.542  1.00  0.00    -0.400 OA
HETATM   30  H48 UNL     1       3.229  52.425 -27.958  1.00  0.00     0.209 HD
ENDBRANCH  28  29
ENDBRANCH  26  28
ENDBRANCH  24  26
ENDBRANCH  23  24
ENDBRANCH  22  23
ENDBRANCH  20  22
ENDBRANCH   1  20
BRANCH   2  31
HETATM   31  O1  UNL     1      -2.679  52.651 -23.822  1.00  0.00    -0.393 OA
HETATM   32  H13 UNL     1      -3.620  52.824 -24.011  1.00  0.00     0.210 HD
ENDBRANCH   2  31
BRANCH   3  33
HETATM   33  O2  UNL     1      -4.039  50.022 -23.135  1.00  0.00    -0.392 OA
HETATM   34  H15 UNL     1      -4.203  50.288 -24.057  1.00  0.00     0.210 HD
ENDBRANCH   3  33
BRANCH   5  35
HETATM   35  O3  UNL     1      -1.829  48.076 -19.961  1.00  0.00    -0.389 OA
HETATM   36  H17 UNL     1      -2.160  47.203 -19.659  1.00  0.00     0.210 HD
ENDBRANCH   5  35
BRANCH   7  37
HETATM   37  O4  UNL     1      -3.369  46.006 -19.830  1.00  0.00    -0.395 OA
HETATM   38  H21 UNL     1      -4.013  45.611 -19.202  1.00  0.00     0.210 HD
ENDBRANCH   7  37
BRANCH  10  39
HETATM   39  O5  UNL     1      -8.421  46.377 -20.801  1.00  0.00    -0.396 OA
HETATM   40  H26 UNL     1      -8.457  45.512 -21.248  1.00  0.00     0.210 HD
ENDBRANCH  10  39
TORSDOF 12
ENDMDL
MODEL 4
REMARK minimizedAffinity -9.00641632
REMARK  12 active torsions:
REMARK  status: ('A' for Active; 'I' for Inactive)
REMARK    1  A    between atoms: C2_2  and  C3_3 
REMARK    2  A    between atoms: C2_2  and  C26_31 
REMARK    3  A    between atoms: C3_3  and  C4_4 
REMARK    4  A    between atoms: C4_4  and  C5_5 
REMARK    5  A    between atoms: C5_5  and  C7_7 
REMARK    6  A    between atoms: C8_8  and  O1_9 
REMARK    7  A    between atoms: C9_10  and  O2_11 
REMARK    8  A    between atoms: C11_13  and  O3_14 
REMARK    9  A    between atoms: C13_16  and  O4_17 
REMARK   10  A    between atoms: C16_20  and  O5_21 
REMARK   11  A    between atoms: C26_31  and  C28_33 
REMARK   12  A    between atoms: C28_33  and  O6_34 
ROOT
HETATM    1  C7  UNL     1      -1.113  50.778 -23.138  1.00  0.00     0.029 C 
HETATM    2  C8  UNL     1      -0.992  50.244 -21.703  1.00  0.00     0.152 C 
HETATM    3  C9  UNL     1      -2.257  50.747 -21.000  1.00  0.00     0.155 C 
HETATM    4  C10 UNL     1      -3.349  50.825 -22.096  1.00  0.00     0.060 C 
HETATM    5  C11 UNL     1      -4.727  50.158 -21.847  1.00  0.00     0.071 C 
HETATM    6  C12 UNL     1      -5.426  50.660 -20.574  1.00  0.00     0.071 C 
HETATM    7  C13 UNL     1      -6.732  49.909 -20.320  1.00  0.00     0.126 C 
HETATM    8  C14 UNL     1      -6.460  48.448 -19.944  1.00  0.00     0.025 C 
HETATM    9  C15 UNL     1      -6.089  48.374 -18.442  1.00  0.00     0.039 C 
HETATM   10  C16 UNL     1      -5.869  46.944 -17.965  1.00  0.00     0.118 C 
HETATM   11  C17 UNL     1      -4.880  46.180 -18.835  1.00  0.00     0.032 C 
HETATM   12  C18 UNL     1      -4.337  47.004 -20.002  1.00  0.00     0.012 C 
HETATM   13  C19 UNL     1      -5.421  47.709 -20.875  1.00  0.00    -0.031 C 
HETATM   14  C20 UNL     1      -6.205  46.574 -21.610  1.00  0.00     0.016 C 
HETATM   15  C21 UNL     1      -4.770  48.609 -22.037  1.00  0.00     0.029 C 
HETATM   16  C22 UNL     1      -3.417  48.058 -22.543  1.00  0.00     0.009 C 
HETATM   17  C23 UNL     1      -2.808  48.863 -23.691  1.00  0.00     0.011 C 
HETATM   18  C24 UNL     1      -2.632  50.394 -23.433  1.00  0.00    -0.029 C 
HETATM   19  C25 UNL     1      -3.197  51.104 -24.682  1.00  0.00     0.016 C 
ENDROOT
BRANCH   1  20
HETATM   20  C5  UNL     1      -0.766  52.303 -23.388  1.00  0.00    -0.011 C 
HETATM   21  C6  UNL     1      -1.811  52.912 -24.344  1.00  0.00     0.010 C 
BRANCH  20  22
HETATM   22  C4  UNL     1       0.653  52.615 -23.920  1.00  0.00     0.009 C 
BRANCH  22  23
HETATM   23  C3  UNL     1       0.682  53.180 -25.355  1.00  0.00     0.034 C 
BRANCH  23  24
HETATM   24  C2  UNL     1       1.074  52.206 -26.462  1.00  0.00    -0.083 C 
HETATM   25  C1  UNL     1       2.174  51.431 -26.401  1.00  0.00     0.015 C 
BRANCH  24  26
HETATM   26  C26 UNL     1       0.116  52.205 -27.666  1.00  0.00     0.033 C 
HETATM   27  C27 UNL     1      -1.048  51.210 -27.559  1.00  0.00     0.017 C 
BRANCH  26  28
HETATM   28  C28 UNL     1      -0.418  53.616 -27.975  1.00  0.00     0.172 C 
BRANCH  28  29
HETATM   29  O6  UNL     1      -1.840  53.653 -28.010  1.00  0.00    -0.400 OA
HETATM   30  H48 UNL     1      -2.150  53.334 -27.144  1.00  0.00     0.209 HD
ENDBRANCH  28  29
ENDBRANCH  26  28
ENDBRANCH  24  26
ENDBRANCH  23  24
ENDBRANCH  22  23
ENDBRANCH  20  22
ENDBRANCH   1  20
BRANCH   2  31
HETATM   31  O1  UNL     1       0.192  50.588 -21.003  1.00  0.00    -0.393 OA
HETATM   32  H13 UNL     1       0.371  49.866 -20.373  1.00  0.00     0.210 HD
ENDBRANCH   2  31
BRANCH   3  33
HETATM   33  O2  UNL     1      -2.555  49.909 -19.897  1.00  0.00    -0.392 OA
HETATM   34  H15 UNL     1      -1.930  50.158 -19.193  1.00  0.00     0.210 HD
ENDBRANCH   3  33
BRANCH   5  35
HETATM   35  O3  UNL     1      -5.536  50.693 -22.937  1.00  0.00    -0.389 OA
HETATM   36  H17 UNL     1      -6.473  50.529 -22.694  1.00  0.00     0.210 HD
ENDBRANCH   5  35
BRANCH   7  37
HETATM   37  O4  UNL     1      -7.552  49.982 -21.487  1.00  0.00    -0.395 OA
HETATM   38  H21 UNL     1      -8.217  49.259 -21.462  1.00  0.00     0.210 HD
ENDBRANCH   7  37
BRANCH  10  39
HETATM   39  O5  UNL     1      -7.111  46.243 -17.961  1.00  0.00    -0.396 OA
HETATM   40  H26 UNL     1      -7.700  46.691 -17.329  1.00  0.00     0.210 HD
ENDBRANCH  10  39
TORSDOF 12
ENDMDL
MODEL 5
REMARK minimizedAffinity -8.76325607
REMARK  12 active torsions:
REMARK  status: ('A' for Active; 'I' for Inactive)
REMARK    1  A    between atoms: C2_2  and  C3_3 
REMARK    2  A    between atoms: C2_2  and  C26_31 
REMARK    3  A    between atoms: C3_3  and  C4_4 
REMARK    4  A    between atoms: C4_4  and  C5_5 
REMARK    5  A    between atoms: C5_5  and  C7_7 
REMARK    6  A    between atoms: C8_8  and  O1_9 
REMARK    7  A    between atoms: C9_10  and  O2_11 
REMARK    8  A    between atoms: C11_13  and  O3_14 
REMARK    9  A    between atoms: C13_16  and  O4_17 
REMARK   10  A    between atoms: C16_20  and  O5_21 
REMARK   11  A    between atoms: C26_31  and  C28_33 
REMARK   12  A    between atoms: C28_33  and  O6_34 
ROOT
HETATM    1  C7  UNL     1      -3.842  50.392 -24.919  1.00  0.00     0.029 C 
HETATM    2  C8  UNL     1      -4.989  49.535 -24.366  1.00  0.00     0.152 C 
HETATM    3  C9  UNL     1      -4.289  48.403 -23.607  1.00  0.00     0.155 C 
HETATM    4  C10 UNL     1      -2.961  49.004 -23.080  1.00  0.00     0.060 C 
HETATM    5  C11 UNL     1      -2.591  48.838 -21.583  1.00  0.00     0.071 C 
HETATM    6  C12 UNL     1      -2.558  47.373 -21.121  1.00  0.00     0.071 C 
HETATM    7  C13 UNL     1      -2.282  47.265 -19.623  1.00  0.00     0.126 C 
HETATM    8  C14 UNL     1      -3.467  47.798 -18.808  1.00  0.00     0.025 C 
HETATM    9  C15 UNL     1      -4.554  46.699 -18.720  1.00  0.00     0.039 C 
HETATM   10  C16 UNL     1      -5.742  47.120 -17.865  1.00  0.00     0.118 C 
HETATM   11  C17 UNL     1      -6.322  48.463 -18.288  1.00  0.00     0.032 C 
HETATM   12  C18 UNL     1      -5.581  49.101 -19.462  1.00  0.00     0.012 C 
HETATM   13  C19 UNL     1      -4.032  49.189 -19.297  1.00  0.00    -0.031 C 
HETATM   14  C20 UNL     1      -3.766  50.211 -18.144  1.00  0.00     0.016 C 
HETATM   15  C21 UNL     1      -3.319  49.807 -20.598  1.00  0.00     0.029 C 
HETATM   16  C22 UNL     1      -4.208  50.823 -21.350  1.00  0.00     0.009 C 
HETATM   17  C23 UNL     1      -3.529  51.471 -22.556  1.00  0.00     0.011 C 
HETATM   18  C24 UNL     1      -2.932  50.487 -23.613  1.00  0.00    -0.029 C 
HETATM   19  C25 UNL     1      -1.507  50.999 -23.913  1.00  0.00     0.016 C 
ENDROOT
BRANCH   1  20
HETATM   20  C5  UNL     1      -3.083  49.865 -26.205  1.00  0.00    -0.011 C 
HETATM   21  C6  UNL     1      -2.999  48.327 -26.151  1.00  0.00     0.010 C 
BRANCH  20  22
HETATM   22  C4  UNL     1      -1.671  50.443 -26.464  1.00  0.00     0.009 C 
BRANCH  22  23
HETATM   23  C3  UNL     1      -1.636  51.595 -27.489  1.00  0.00     0.034 C 
BRANCH  23  24
HETATM   24  C2  UNL     1      -0.340  52.397 -27.568  1.00  0.00    -0.083 C 
HETATM   25  C1  UNL     1      -0.280  53.648 -28.063  1.00  0.00     0.015 C 
BRANCH  24  26
HETATM   26  C26 UNL     1       0.898  51.640 -27.055  1.00  0.00     0.033 C 
HETATM   27  C27 UNL     1       2.113  51.687 -27.992  1.00  0.00     0.017 C 
BRANCH  26  28
HETATM   28  C28 UNL     1       1.302  52.092 -25.639  1.00  0.00     0.172 C 
BRANCH  28  29
HETATM   29  O6  UNL     1       0.860  53.415 -25.354  1.00  0.00    -0.400 OA
HETATM   30  H48 UNL     1      -0.107  53.417 -25.469  1.00  0.00     0.209 HD
ENDBRANCH  28  29
ENDBRANCH  26  28
ENDBRANCH  24  26
ENDBRANCH  23  24
ENDBRANCH  22  23
ENDBRANCH  20  22
ENDBRANCH   1  20
BRANCH   2  31
HETATM   31  O1  UNL     1      -5.928  49.053 -25.313  1.00  0.00    -0.393 OA
HETATM   32  H13 UNL     1      -6.781  48.965 -24.850  1.00  0.00     0.210 HD
ENDBRANCH   2  31
BRANCH   3  33
HETATM   33  O2  UNL     1      -5.159  47.881 -22.617  1.00  0.00    -0.392 OA
HETATM   34  H15 UNL     1      -5.797  47.319 -23.091  1.00  0.00     0.210 HD
ENDBRANCH   3  33
BRANCH   5  35
HETATM   35  O3  UNL     1      -1.193  49.256 -21.557  1.00  0.00    -0.389 OA
HETATM   36  H17 UNL     1      -0.821  48.930 -20.709  1.00  0.00     0.210 HD
ENDBRANCH   5  35
BRANCH   7  37
HETATM   37  O4  UNL     1      -1.092  47.989 -19.308  1.00  0.00    -0.395 OA
HETATM   38  H21 UNL     1      -1.084  48.200 -18.349  1.00  0.00     0.210 HD
ENDBRANCH   7  37
BRANCH  10  39
HETATM   39  O5  UNL     1      -5.345  47.205 -16.498  1.00  0.00    -0.396 OA
HETATM   40  H26 UNL     1      -5.065  46.315 -16.217  1.00  0.00     0.210 HD
ENDBRANCH  10  39
TORSDOF 12
ENDMDL
MODEL 6
REMARK minimizedAffinity -8.63620853
REMARK  12 active torsions:
REMARK  status: ('A' for Active; 'I' for Inactive)
REMARK    1  A    between atoms: C2_2  and  C3_3 
REMARK    2  A    between atoms: C2_2  and  C26_31 
REMARK    3  A    between atoms: C3_3  and  C4_4 
REMARK    4  A    between atoms: C4_4  and  C5_5 
REMARK    5  A    between atoms: C5_5  and  C7_7 
REMARK    6  A    between atoms: C8_8  and  O1_9 
REMARK    7  A    between atoms: C9_10  and  O2_11 
REMARK    8  A    between atoms: C11_13  and  O3_14 
REMARK    9  A    between atoms: C13_16  and  O4_17 
REMARK   10  A    between atoms: C16_20  and  O5_21 
REMARK   11  A    between atoms: C26_31  and  C28_33 
REMARK   12  A    between atoms: C28_33  and  O6_34 
ROOT
HETATM    1  C7  UNL     1      -0.906  50.727 -21.554  1.00  0.00     0.029 C 
HETATM    2  C8  UNL     1      -1.328  49.542 -20.672  1.00  0.00     0.152 C 
HETATM    3  C9  UNL     1      -2.747  49.893 -20.214  1.00  0.00     0.155 C 
HETATM    4  C10 UNL     1      -3.365  50.738 -21.356  1.00  0.00     0.060 C 
HETATM    5  C11 UNL     1      -4.758  50.353 -21.919  1.00  0.00     0.071 C 
HETATM    6  C12 UNL     1      -5.857  50.298 -20.846  1.00  0.00     0.071 C 
HETATM    7  C13 UNL     1      -7.186  49.825 -21.431  1.00  0.00     0.126 C 
HETATM    8  C14 UNL     1      -7.110  48.350 -21.843  1.00  0.00     0.025 C 
HETATM    9  C15 UNL     1      -7.310  47.465 -20.588  1.00  0.00     0.039 C 
HETATM   10  C16 UNL     1      -7.318  45.978 -20.918  1.00  0.00     0.118 C 
HETATM   11  C17 UNL     1      -6.103  45.550 -21.730  1.00  0.00     0.032 C 
HETATM   12  C18 UNL     1      -5.151  46.702 -22.049  1.00  0.00     0.012 C 
HETATM   13  C19 UNL     1      -5.825  47.962 -22.675  1.00  0.00    -0.031 C 
HETATM   14  C20 UNL     1      -6.322  47.541 -24.096  1.00  0.00     0.016 C 
HETATM   15  C21 UNL     1      -4.772  49.153 -22.917  1.00  0.00     0.029 C 
HETATM   16  C22 UNL     1      -3.345  48.645 -23.221  1.00  0.00     0.009 C 
HETATM   17  C23 UNL     1      -2.339  49.758 -23.517  1.00  0.00     0.011 C 
HETATM   18  C24 UNL     1      -2.226  50.880 -22.436  1.00  0.00    -0.029 C 
HETATM   19  C25 UNL     1      -2.279  52.218 -23.205  1.00  0.00     0.016 C 
ENDROOT
BRANCH   1  20
HETATM   20  C5  UNL     1      -0.450  52.059 -20.828  1.00  0.00    -0.011 C 
HETATM   21  C6  UNL     1       1.053  52.287 -21.082  1.00  0.00     0.010 C 
BRANCH  20  22
HETATM   22  C4  UNL     1      -0.730  52.153 -19.309  1.00  0.00     0.009 C 
BRANCH  22  23
HETATM   23  C3  UNL     1       0.506  52.511 -18.458  1.00  0.00     0.034 C 
BRANCH  23  24
HETATM   24  C2  UNL     1       0.649  51.782 -17.125  1.00  0.00    -0.083 C 
HETATM   25  C1  UNL     1      -0.043  50.667 -16.821  1.00  0.00     0.015 C 
BRANCH  24  26
HETATM   26  C26 UNL     1       1.633  52.448 -16.148  1.00  0.00     0.033 C 
HETATM   27  C27 UNL     1       1.737  51.766 -14.777  1.00  0.00     0.017 C 
BRANCH  26  28
HETATM   28  C28 UNL     1       3.034  52.612 -16.767  1.00  0.00     0.172 C 
BRANCH  28  29
HETATM   29  O6  UNL     1       3.921  53.315 -15.904  1.00  0.00    -0.400 OA
HETATM   30  H48 UNL     1       3.954  52.816 -15.069  1.00  0.00     0.209 HD
ENDBRANCH  28  29
ENDBRANCH  26  28
ENDBRANCH  24  26
ENDBRANCH  23  24
ENDBRANCH  22  23
ENDBRANCH  20  22
ENDBRANCH   1  20
BRANCH   2  31
HETATM   31  O1  UNL     1      -0.469  49.228 -19.589  1.00  0.00    -0.393 OA
HETATM   32  H13 UNL     1      -0.551  48.270 -19.429  1.00  0.00     0.210 HD
ENDBRANCH   2  31
BRANCH   3  33
HETATM   33  O2  UNL     1      -3.448  48.707 -19.881  1.00  0.00    -0.392 OA
HETATM   34  H15 UNL     1      -3.113  48.433 -19.008  1.00  0.00     0.210 HD
ENDBRANCH   3  33
BRANCH   5  35
HETATM   35  O3  UNL     1      -5.102  51.518 -22.728  1.00  0.00    -0.389 OA
HETATM   36  H17 UNL     1      -6.068  51.464 -22.897  1.00  0.00     0.210 HD
ENDBRANCH   5  35
BRANCH   7  37
HETATM   37  O4  UNL     1      -7.526  50.641 -22.552  1.00  0.00    -0.395 OA
HETATM   38  H21 UNL     1      -8.174  50.165 -23.116  1.00  0.00     0.210 HD
ENDBRANCH   7  37
BRANCH  10  39
HETATM   39  O5  UNL     1      -8.496  45.655 -21.655  1.00  0.00    -0.396 OA
HETATM   40  H26 UNL     1      -9.262  45.848 -21.085  1.00  0.00     0.210 HD
ENDBRANCH  10  39
TORSDOF 12
ENDMDL
MODEL 7
REMARK minimizedAffinity -8.59437847
REMARK  12 active torsions:
REMARK  status: ('A' for Active; 'I' for Inactive)
REMARK    1  A    between atoms: C2_2  and  C3_3 
REMARK    2  A    between atoms: C2_2  and  C26_31 
REMARK    3  A    between atoms: C3_3  and  C4_4 
REMARK    4  A    between atoms: C4_4  and  C5_5 
REMARK    5  A    between atoms: C5_5  and  C7_7 
REMARK    6  A    between atoms: C8_8  and  O1_9 
REMARK    7  A    between atoms: C9_10  and  O2_11 
REMARK    8  A    between atoms: C11_13  and  O3_14 
REMARK    9  A    between atoms: C13_16  and  O4_17 
REMARK   10  A    between atoms: C16_20  and  O5_21 
REMARK   11  A    between atoms: C26_31  and  C28_33 
REMARK   12  A    between atoms: C28_33  and  O6_34 
ROOT
HETATM    1  C7  UNL     1      -1.881  50.762 -23.005  1.00  0.00     0.029 C 
HETATM    2  C8  UNL     1      -1.606  50.384 -21.542  1.00  0.00     0.152 C 
HETATM    3  C9  UNL     1      -2.924  50.676 -20.818  1.00  0.00     0.155 C 
HETATM    4  C10 UNL     1      -4.044  50.441 -21.863  1.00  0.00     0.060 C 
HETATM    5  C11 UNL     1      -5.246  49.532 -21.499  1.00  0.00     0.071 C 
HETATM    6  C12 UNL     1      -5.993  49.985 -20.234  1.00  0.00     0.071 C 
HETATM    7  C13 UNL     1      -7.107  49.008 -19.863  1.00  0.00     0.126 C 
HETATM    8  C14 UNL     1      -6.529  47.668 -19.393  1.00  0.00     0.025 C 
HETATM    9  C15 UNL     1      -6.102  47.795 -17.910  1.00  0.00     0.039 C 
HETATM   10  C16 UNL     1      -5.578  46.484 -17.340  1.00  0.00     0.118 C 
HETATM   11  C17 UNL     1      -4.481  45.866 -18.197  1.00  0.00     0.032 C 
HETATM   12  C18 UNL     1      -4.157  46.685 -19.447  1.00  0.00     0.012 C 
HETATM   13  C19 UNL     1      -5.390  47.081 -20.316  1.00  0.00    -0.031 C 
HETATM   14  C20 UNL     1      -5.948  45.754 -20.926  1.00  0.00     0.016 C 
HETATM   15  C21 UNL     1      -4.976  47.996 -21.571  1.00  0.00     0.029 C 
HETATM   16  C22 UNL     1      -3.556  47.691 -22.100  1.00  0.00     0.009 C 
HETATM   17  C23 UNL     1      -3.163  48.505 -23.333  1.00  0.00     0.011 C 
HETATM   18  C24 UNL     1      -3.297  50.056 -23.197  1.00  0.00    -0.029 C 
HETATM   19  C25 UNL     1      -4.036  50.531 -24.467  1.00  0.00     0.016 C 
ENDROOT
BRANCH   1  20
HETATM   20  C5  UNL     1      -1.863  52.300 -23.384  1.00  0.00    -0.011 C 
HETATM   21  C6  UNL     1      -3.230  52.692 -23.980  1.00  0.00     0.010 C 
BRANCH  20  22
HETATM   22  C4  UNL     1      -0.739  52.768 -24.338  1.00  0.00     0.009 C 
BRANCH  22  23
HETATM   23  C3  UNL     1       0.195  51.639 -24.820  1.00  0.00     0.034 C 
BRANCH  23  24
HETATM   24  C2  UNL     1      -0.094  51.060 -26.202  1.00  0.00    -0.083 C 
HETATM   25  C1  UNL     1      -1.268  50.486 -26.525  1.00  0.00     0.015 C 
BRANCH  24  26
HETATM   26  C26 UNL     1       1.084  51.168 -27.186  1.00  0.00     0.033 C 
HETATM   27  C27 UNL     1       0.889  52.196 -28.309  1.00  0.00     0.017 C 
BRANCH  26  28
HETATM   28  C28 UNL     1       2.418  51.422 -26.459  1.00  0.00     0.172 C 
BRANCH  28  29
HETATM   29  O6  UNL     1       3.382  52.033 -27.309  1.00  0.00    -0.400 OA
HETATM   30  H48 UNL     1       2.985  52.862 -27.631  1.00  0.00     0.209 HD
ENDBRANCH  28  29
ENDBRANCH  26  28
ENDBRANCH  24  26
ENDBRANCH  23  24
ENDBRANCH  22  23
ENDBRANCH  20  22
ENDBRANCH   1  20
BRANCH   2  31
HETATM   31  O1  UNL     1      -0.497  51.017 -20.927  1.00  0.00    -0.393 OA
HETATM   32  H13 UNL     1      -0.153  50.400 -20.255  1.00  0.00     0.210 HD
ENDBRANCH   2  31
BRANCH   3  33
HETATM   33  O2  UNL     1      -3.009  49.889 -19.643  1.00  0.00    -0.392 OA
HETATM   34  H15 UNL     1      -2.425  50.317 -18.991  1.00  0.00     0.210 HD
ENDBRANCH   3  33
BRANCH   5  35
HETATM   35  O3  UNL     1      -6.183  49.800 -22.585  1.00  0.00    -0.389 OA
HETATM   36  H17 UNL     1      -7.058  49.470 -22.286  1.00  0.00     0.210 HD
ENDBRANCH   5  35
BRANCH   7  37
HETATM   37  O4  UNL     1      -7.962  48.817 -20.991  1.00  0.00    -0.395 OA
HETATM   38  H21 UNL     1      -8.463  47.980 -20.880  1.00  0.00     0.210 HD
ENDBRANCH   7  37
BRANCH  10  39
HETATM   39  O5  UNL     1      -6.648  45.548 -17.224  1.00  0.00    -0.396 OA
HETATM   40  H26 UNL     1      -7.296  45.918 -16.599  1.00  0.00     0.210 HD
ENDBRANCH  10  39
TORSDOF 12
ENDMDL
MODEL 8
REMARK minimizedAffinity -8.52625561
REMARK  12 active torsions:
REMARK  status: ('A' for Active; 'I' for Inactive)
REMARK    1  A    between atoms: C2_2  and  C3_3 
REMARK    2  A    between atoms: C2_2  and  C26_31 
REMARK    3  A    between atoms: C3_3  and  C4_4 
REMARK    4  A    between atoms: C4_4  and  C5_5 
REMARK    5  A    between atoms: C5_5  and  C7_7 
REMARK    6  A    between atoms: C8_8  and  O1_9 
REMARK    7  A    between atoms: C9_10  and  O2_11 
REMARK    8  A    between atoms: C11_13  and  O3_14 
REMARK    9  A    between atoms: C13_16  and  O4_17 
REMARK   10  A    between atoms: C16_20  and  O5_21 
REMARK   11  A    between atoms: C26_31  and  C28_33 
REMARK   12  A    between atoms: C28_33  and  O6_34 
ROOT
HETATM    1  C7  UNL     1      -1.328  49.575 -19.322  1.00  0.00     0.029 C 
HETATM    2  C8  UNL     1      -1.085  48.697 -20.559  1.00  0.00     0.152 C 
HETATM    3  C9  UNL     1      -2.426  48.703 -21.301  1.00  0.00     0.155 C 
HETATM    4  C10 UNL     1      -3.077  50.074 -20.989  1.00  0.00     0.060 C 
HETATM    5  C11 UNL     1      -3.608  50.947 -22.156  1.00  0.00     0.071 C 
HETATM    6  C12 UNL     1      -4.639  50.226 -23.038  1.00  0.00     0.071 C 
HETATM    7  C13 UNL     1      -5.061  51.090 -24.225  1.00  0.00     0.126 C 
HETATM    8  C14 UNL     1      -3.904  51.264 -25.216  1.00  0.00     0.025 C 
HETATM    9  C15 UNL     1      -3.819  50.009 -26.119  1.00  0.00     0.039 C 
HETATM   10  C16 UNL     1      -2.737  50.128 -27.183  1.00  0.00     0.118 C 
HETATM   11  C17 UNL     1      -1.380  50.504 -26.601  1.00  0.00     0.032 C 
HETATM   12  C18 UNL     1      -1.403  50.695 -25.085  1.00  0.00     0.012 C 
HETATM   13  C19 UNL     1      -2.521  51.645 -24.556  1.00  0.00    -0.031 C 
HETATM   14  C20 UNL     1      -2.163  53.080 -25.064  1.00  0.00     0.016 C 
HETATM   15  C21 UNL     1      -2.524  51.741 -22.951  1.00  0.00     0.029 C 
HETATM   16  C22 UNL     1      -1.118  51.564 -22.332  1.00  0.00     0.009 C 
HETATM   17  C23 UNL     1      -1.085  51.713 -20.811  1.00  0.00     0.011 C 
HETATM   18  C24 UNL     1      -2.074  50.802 -20.015  1.00  0.00    -0.029 C 
HETATM   19  C25 UNL     1      -2.777  51.726 -18.997  1.00  0.00     0.016 C 
ENDROOT
BRANCH   1  20
HETATM   20  C5  UNL     1      -2.117  48.934 -18.108  1.00  0.00    -0.011 C 
HETATM   21  C6  UNL     1      -3.555  49.491 -18.085  1.00  0.00     0.010 C 
BRANCH  20  22
HETATM   22  C4  UNL     1      -1.486  49.098 -16.705  1.00  0.00     0.009 C 
BRANCH  22  23
HETATM   23  C3  UNL     1       0.050  49.232 -16.712  1.00  0.00     0.034 C 
BRANCH  23  24
HETATM   24  C2  UNL     1       0.614  50.623 -16.433  1.00  0.00    -0.083 C 
HETATM   25  C1  UNL     1       0.635  51.604 -17.355  1.00  0.00     0.015 C 
BRANCH  24  26
HETATM   26  C26 UNL     1       1.178  50.797 -15.013  1.00  0.00     0.033 C 
HETATM   27  C27 UNL     1       2.560  51.462 -14.949  1.00  0.00     0.017 C 
BRANCH  26  28
HETATM   28  C28 UNL     1       0.191  51.535 -14.089  1.00  0.00     0.172 C 
BRANCH  28  29
HETATM   29  O6  UNL     1       0.557  52.896 -13.894  1.00  0.00    -0.400 OA
HETATM   30  H48 UNL     1       0.595  53.305 -14.777  1.00  0.00     0.209 HD
ENDBRANCH  28  29
ENDBRANCH  26  28
ENDBRANCH  24  26
ENDBRANCH  23  24
ENDBRANCH  22  23
ENDBRANCH  20  22
ENDBRANCH   1  20
BRANCH   2  31
HETATM   31  O1  UNL     1      -0.606  47.385 -20.314  1.00  0.00    -0.393 OA
HETATM   32  H13 UNL     1      -0.070  47.128 -21.086  1.00  0.00     0.210 HD
ENDBRANCH   2  31
BRANCH   3  33
HETATM   33  O2  UNL     1      -2.212  48.425 -22.674  1.00  0.00    -0.392 OA
HETATM   34  H15 UNL     1      -2.057  47.465 -22.732  1.00  0.00     0.210 HD
ENDBRANCH   3  33
BRANCH   5  35
HETATM   35  O3  UNL     1      -4.383  51.967 -21.457  1.00  0.00    -0.389 OA
HETATM   36  H17 UNL     1      -4.958  52.390 -22.131  1.00  0.00     0.210 HD
ENDBRANCH   5  35
BRANCH   7  37
HETATM   37  O4  UNL     1      -5.509  52.360 -23.749  1.00  0.00    -0.395 OA
HETATM   38  H21 UNL     1      -5.470  53.013 -24.481  1.00  0.00     0.210 HD
ENDBRANCH   7  37
BRANCH  10  39
HETATM   39  O5  UNL     1      -3.111  51.114 -28.142  1.00  0.00    -0.396 OA
HETATM   40  H26 UNL     1      -3.931  50.811 -28.571  1.00  0.00     0.210 HD
ENDBRANCH  10  39
TORSDOF 12
ENDMDL
MODEL 9
REMARK minimizedAffinity -8.52052498
REMARK  12 active torsions:
REMARK  status: ('A' for Active; 'I' for Inactive)
REMARK    1  A    between atoms: C2_2  and  C3_3 
REMARK    2  A    between atoms: C2_2  and  C26_31 
REMARK    3  A    between atoms: C3_3  and  C4_4 
REMARK    4  A    between atoms: C4_4  and  C5_5 
REMARK    5  A    between atoms: C5_5  and  C7_7 
REMARK    6  A    between atoms: C8_8  and  O1_9 
REMARK    7  A    between atoms: C9_10  and  O2_11 
REMARK    8  A    between atoms: C11_13  and  O3_14 
REMARK    9  A    between atoms: C13_16  and  O4_17 
REMARK   10  A    between atoms: C16_20  and  O5_21 
REMARK   11  A    between atoms: C26_31  and  C28_33 
REMARK   12  A    between atoms: C28_33  and  O6_34 
ROOT
HETATM    1  C7  UNL     1      -0.961  50.531 -22.793  1.00  0.00     0.029 C 
HETATM    2  C8  UNL     1      -1.273  49.432 -21.767  1.00  0.00     0.152 C 
HETATM    3  C9  UNL     1      -2.586  49.877 -21.117  1.00  0.00     0.155 C 
HETATM    4  C10 UNL     1      -3.354  50.666 -22.207  1.00  0.00     0.060 C 
HETATM    5  C11 UNL     1      -4.832  50.304 -22.511  1.00  0.00     0.071 C 
HETATM    6  C12 UNL     1      -5.743  50.375 -21.275  1.00  0.00     0.071 C 
HETATM    7  C13 UNL     1      -7.164  49.922 -21.603  1.00  0.00     0.126 C 
HETATM    8  C14 UNL     1      -7.204  48.419 -21.906  1.00  0.00     0.025 C 
HETATM    9  C15 UNL     1      -7.227  47.635 -20.570  1.00  0.00     0.039 C 
HETATM   10  C16 UNL     1      -7.337  46.131 -20.779  1.00  0.00     0.118 C 
HETATM   11  C17 UNL     1      -6.284  45.591 -21.738  1.00  0.00     0.032 C 
HETATM   12  C18 UNL     1      -5.359  46.674 -22.293  1.00  0.00     0.012 C 
HETATM   13  C19 UNL     1      -6.084  47.916 -22.899  1.00  0.00    -0.031 C 
HETATM   14  C20 UNL     1      -6.818  47.417 -24.186  1.00  0.00     0.016 C 
HETATM   15  C21 UNL     1      -5.047  49.037 -23.397  1.00  0.00     0.029 C 
HETATM   16  C22 UNL     1      -3.704  48.446 -23.884  1.00  0.00     0.009 C 
HETATM   17  C23 UNL     1      -2.724  49.489 -24.422  1.00  0.00     0.011 C 
HETATM   18  C24 UNL     1      -2.400  50.679 -23.463  1.00  0.00    -0.029 C 
HETATM   19  C25 UNL     1      -2.534  51.960 -24.315  1.00  0.00     0.016 C 
ENDROOT
BRANCH   1  20
HETATM   20  C5  UNL     1      -0.350  51.889 -22.255  1.00  0.00    -0.011 C 
HETATM   21  C6  UNL     1       0.520  52.527 -23.356  1.00  0.00     0.010 C 
BRANCH  20  22
HETATM   22  C4  UNL     1       0.466  51.812 -20.942  1.00  0.00     0.009 C 
BRANCH  22  23
HETATM   23  C3  UNL     1      -0.196  52.519 -19.742  1.00  0.00     0.034 C 
BRANCH  23  24
HETATM   24  C2  UNL     1       0.097  51.936 -18.362  1.00  0.00    -0.083 C 
HETATM   25  C1  UNL     1       1.028  52.445 -17.533  1.00  0.00     0.015 C 
BRANCH  24  26
HETATM   26  C26 UNL     1      -0.749  50.699 -18.012  1.00  0.00     0.033 C 
HETATM   27  C27 UNL     1       0.004  49.604 -17.244  1.00  0.00     0.017 C 
BRANCH  26  28
HETATM   28  C28 UNL     1      -2.041  51.080 -17.265  1.00  0.00     0.172 C 
BRANCH  28  29
HETATM   29  O6  UNL     1      -3.052  51.548 -18.149  1.00  0.00    -0.400 OA
HETATM   30  H48 UNL     1      -3.208  50.838 -18.797  1.00  0.00     0.209 HD
ENDBRANCH  28  29
ENDBRANCH  26  28
ENDBRANCH  24  26
ENDBRANCH  23  24
ENDBRANCH  22  23
ENDBRANCH  20  22
ENDBRANCH   1  20
BRANCH   2  31
HETATM   31  O1  UNL     1      -0.261  49.157 -20.813  1.00  0.00    -0.393 OA
HETATM   32  H13 UNL     1      -0.346  48.218 -20.568  1.00  0.00     0.210 HD
ENDBRANCH   2  31
BRANCH   3  33
HETATM   33  O2  UNL     1      -3.263  48.751 -20.586  1.00  0.00    -0.392 OA
HETATM   34  H15 UNL     1      -2.800  48.525 -19.759  1.00  0.00     0.210 HD
ENDBRANCH   3  33
BRANCH   5  35
HETATM   35  O3  UNL     1      -5.264  51.423 -23.342  1.00  0.00    -0.389 OA
HETATM   36  H17 UNL     1      -6.245  51.400 -23.351  1.00  0.00     0.210 HD
ENDBRANCH   5  35
BRANCH   7  37
HETATM   37  O4  UNL     1      -7.654  50.670 -22.715  1.00  0.00    -0.395 OA
HETATM   38  H21 UNL     1      -8.401  50.185 -23.130  1.00  0.00     0.210 HD
ENDBRANCH   7  37
BRANCH  10  39
HETATM   39  O5  UNL     1      -8.628  45.809 -21.291  1.00  0.00    -0.396 OA
HETATM   40  H26 UNL     1      -9.285  46.076 -20.623  1.00  0.00     0.210 HD
ENDBRANCH  10  39
TORSDOF 12
ENDMDL
