MODEL 1
REMARK minimizedAffinity -9.38897991
REMARK  6 active torsions:
REMARK  status: ('A' for Active; 'I' for Inactive)
REMARK    1  A    between atoms: C2_2  and  C30_32 
REMARK    2  A    between atoms: C3_3  and  C4_4 
REMARK    3  A    between atoms: C4_4  and  C5_6 
REMARK    4  A    between atoms: C5_6  and  C6_7 
REMARK    5  A    between atoms: C6_7  and  C8_9 
REMARK    6  A    between atoms: C30_32  and  O4_34 
ROOT
HETATM    1  C8  UNL     1      -3.093  50.760 -25.091  1.00  0.00    -0.001 C 
HETATM    2  C9  UNL     1      -2.899  52.254 -24.699  1.00  0.00     0.007 C 
HETATM    3  C10 UNL     1      -3.145  52.369 -23.183  1.00  0.00     0.015 C 
HETATM    4  C11 UNL     1      -3.774  51.018 -22.781  1.00  0.00    -0.013 C 
HETATM    5  C12 UNL     1      -5.300  51.145 -23.088  1.00  0.00     0.021 C 
HETATM    6  C13 UNL     1      -3.666  50.581 -21.325  1.00  0.00    -0.070 C 
HETATM    7  C14 UNL     1      -3.583  51.453 -20.309  1.00  0.00    -0.022 C 
HETATM    8  C15 UNL     1      -3.519  51.080 -18.862  1.00  0.00     0.034 C 
HETATM    9  C16 UNL     1      -3.720  49.586 -18.495  1.00  0.00     0.013 C 
HETATM   10  C17 UNL     1      -2.499  48.940 -17.746  1.00  0.00     0.018 C 
HETATM   11  C18 UNL     1      -2.194  49.725 -16.446  1.00  0.00     0.023 C 
HETATM   12  C19 UNL     1      -1.219  48.868 -18.589  1.00  0.00     0.023 C 
HETATM   13  C20 UNL     1      -2.860  47.508 -17.311  1.00  0.00     0.135 C 
HETATM   14  O2  UNL     1      -2.184  46.884 -16.491  1.00  0.00    -0.297 OA
HETATM   15  C21 UNL     1      -4.096  46.880 -17.907  1.00  0.00     0.080 C 
HETATM   16  C22 UNL     1      -4.147  47.203 -19.389  1.00  0.00     0.017 C 
HETATM   17  C23 UNL     1      -4.331  48.722 -19.671  1.00  0.00    -0.031 C 
HETATM   18  C24 UNL     1      -5.860  49.015 -19.712  1.00  0.00     0.016 C 
HETATM   19  C25 UNL     1      -3.666  49.082 -21.052  1.00  0.00     0.024 C 
HETATM   20  C26 UNL     1      -4.188  48.245 -22.250  1.00  0.00     0.010 C 
HETATM   21  C27 UNL     1      -3.632  48.632 -23.640  1.00  0.00     0.011 C 
HETATM   22  C28 UNL     1      -2.984  50.030 -23.711  1.00  0.00    -0.029 C 
HETATM   23  C29 UNL     1      -1.473  49.898 -23.338  1.00  0.00     0.016 C 
ENDROOT
BRANCH   1  24
HETATM   24  C6  UNL     1      -2.170  50.328 -26.264  1.00  0.00    -0.007 C 
HETATM   25  C7  UNL     1      -2.441  48.898 -26.742  1.00  0.00     0.011 C 
BRANCH  24  26
HETATM   26  C5  UNL     1      -2.220  51.313 -27.457  1.00  0.00     0.087 C 
BRANCH  26  27
HETATM   27  C4  UNL     1      -1.115  52.358 -27.474  1.00  0.00     0.150 C 
HETATM   28  O1  UNL     1      -1.344  53.559 -27.584  1.00  0.00    -0.293 OA
BRANCH  27  29
HETATM   29  C3  UNL     1       0.282  51.845 -27.398  1.00  0.00     0.063 C 
HETATM   30  C2  UNL     1       1.089  51.989 -26.331  1.00  0.00     0.015 C 
HETATM   31  C1  UNL     1       0.738  52.620 -25.017  1.00  0.00     0.055 C 
BRANCH  30  32
HETATM   32  C30 UNL     1       2.447  51.425 -26.498  1.00  0.00     0.171 C 
HETATM   33  O3  UNL     1       2.909  50.470 -25.898  1.00  0.00    -0.646 OA
BRANCH  32  34
HETATM   34  O4  UNL     1       3.168  52.079 -27.421  1.00  0.00    -0.773 OA
HETATM   35  H44 UNL     1       4.024  51.601 -27.439  1.00  0.00     0.167 HD
ENDBRANCH  32  34
ENDBRANCH  30  32
ENDBRANCH  27  29
ENDBRANCH  26  27
ENDBRANCH  24  26
ENDBRANCH   1  24
TORSDOF 6
ENDMDL
MODEL 2
REMARK minimizedAffinity -9.34870815
REMARK  6 active torsions:
REMARK  status: ('A' for Active; 'I' for Inactive)
REMARK    1  A    between atoms: C2_2  and  C30_32 
REMARK    2  A    between atoms: C3_3  and  C4_4 
REMARK    3  A    between atoms: C4_4  and  C5_6 
REMARK    4  A    between atoms: C5_6  and  C6_7 
REMARK    5  A    between atoms: C6_7  and  C8_9 
REMARK    6  A    between atoms: C30_32  and  O4_34 
ROOT
HETATM    1  C8  UNL     1      -1.810  51.551 -23.255  1.00  0.00    -0.001 C 
HETATM    2  C9  UNL     1      -2.774  52.717 -23.623  1.00  0.00     0.007 C 
HETATM    3  C10 UNL     1      -4.213  52.189 -23.474  1.00  0.00     0.015 C 
HETATM    4  C11 UNL     1      -4.061  50.660 -23.328  1.00  0.00    -0.013 C 
HETATM    5  C12 UNL     1      -3.952  50.097 -24.781  1.00  0.00     0.021 C 
HETATM    6  C13 UNL     1      -5.188  49.887 -22.653  1.00  0.00    -0.070 C 
HETATM    7  C14 UNL     1      -6.466  50.295 -22.681  1.00  0.00    -0.022 C 
HETATM    8  C15 UNL     1      -7.615  49.554 -22.074  1.00  0.00     0.034 C 
HETATM    9  C16 UNL     1      -7.338  48.137 -21.507  1.00  0.00     0.013 C 
HETATM   10  C17 UNL     1      -7.654  47.987 -19.975  1.00  0.00     0.018 C 
HETATM   11  C18 UNL     1      -9.135  48.343 -19.697  1.00  0.00     0.023 C 
HETATM   12  C19 UNL     1      -6.763  48.847 -19.069  1.00  0.00     0.023 C 
HETATM   13  C20 UNL     1      -7.477  46.517 -19.554  1.00  0.00     0.135 C 
HETATM   14  O2  UNL     1      -7.907  46.088 -18.482  1.00  0.00    -0.297 OA
HETATM   15  C21 UNL     1      -6.769  45.589 -20.511  1.00  0.00     0.080 C 
HETATM   16  C22 UNL     1      -5.566  46.308 -21.095  1.00  0.00     0.017 C 
HETATM   17  C23 UNL     1      -5.959  47.524 -21.981  1.00  0.00    -0.031 C 
HETATM   18  C24 UNL     1      -6.161  47.005 -23.435  1.00  0.00     0.016 C 
HETATM   19  C25 UNL     1      -4.809  48.598 -21.936  1.00  0.00     0.024 C 
HETATM   20  C26 UNL     1      -3.415  48.058 -22.351  1.00  0.00     0.010 C 
HETATM   21  C27 UNL     1      -2.275  49.102 -22.414  1.00  0.00     0.011 C 
HETATM   22  C28 UNL     1      -2.745  50.569 -22.475  1.00  0.00    -0.029 C 
HETATM   23  C29 UNL     1      -2.913  51.100 -21.015  1.00  0.00     0.016 C 
ENDROOT
BRANCH   1  24
HETATM   24  C6  UNL     1      -0.497  52.052 -22.592  1.00  0.00    -0.007 C 
HETATM   25  C7  UNL     1      -0.044  51.172 -21.422  1.00  0.00     0.011 C 
BRANCH  24  26
HETATM   26  C5  UNL     1       0.655  52.230 -23.610  1.00  0.00     0.087 C 
BRANCH  26  27
HETATM   27  C4  UNL     1       0.735  53.605 -24.257  1.00  0.00     0.150 C 
HETATM   28  O1  UNL     1       1.338  54.542 -23.744  1.00  0.00    -0.293 OA
BRANCH  27  29
HETATM   29  C3  UNL     1      -0.008  53.777 -25.538  1.00  0.00     0.063 C 
HETATM   30  C2  UNL     1      -0.007  52.883 -26.544  1.00  0.00     0.015 C 
HETATM   31  C1  UNL     1       0.667  51.544 -26.556  1.00  0.00     0.055 C 
BRANCH  30  32
HETATM   32  C30 UNL     1      -0.792  53.284 -27.733  1.00  0.00     0.171 C 
HETATM   33  O3  UNL     1      -1.953  53.655 -27.738  1.00  0.00    -0.646 OA
BRANCH  32  34
HETATM   34  O4  UNL     1      -0.082  53.213 -28.869  1.00  0.00    -0.773 OA
HETATM   35  H44 UNL     1      -0.707  53.513 -29.562  1.00  0.00     0.167 HD
ENDBRANCH  32  34
ENDBRANCH  30  32
ENDBRANCH  27  29
ENDBRANCH  26  27
ENDBRANCH  24  26
ENDBRANCH   1  24
TORSDOF 6
ENDMDL
MODEL 3
REMARK minimizedAffinity -9.33024406
REMARK  6 active torsions:
REMARK  status: ('A' for Active; 'I' for Inactive)
REMARK    1  A    between atoms: C2_2  and  C30_32 
REMARK    2  A    between atoms: C3_3  and  C4_4 
REMARK    3  A    between atoms: C4_4  and  C5_6 
REMARK    4  A    between atoms: C5_6  and  C6_7 
REMARK    5  A    between atoms: C6_7  and  C8_9 
REMARK    6  A    between atoms: C30_32  and  O4_34 
ROOT
HETATM    1  C8  UNL     1      -3.017  51.743 -25.613  1.00  0.00    -0.001 C 
HETATM    2  C9  UNL     1      -2.598  52.914 -24.677  1.00  0.00     0.007 C 
HETATM    3  C10 UNL     1      -2.972  52.511 -23.238  1.00  0.00     0.015 C 
HETATM    4  C11 UNL     1      -3.872  51.268 -23.397  1.00  0.00    -0.013 C 
HETATM    5  C12 UNL     1      -5.311  51.809 -23.673  1.00  0.00     0.021 C 
HETATM    6  C13 UNL     1      -3.994  50.313 -22.215  1.00  0.00    -0.070 C 
HETATM    7  C14 UNL     1      -3.859  50.714 -20.941  1.00  0.00    -0.022 C 
HETATM    8  C15 UNL     1      -4.012  49.831 -19.744  1.00  0.00     0.034 C 
HETATM    9  C16 UNL     1      -4.515  48.382 -19.978  1.00  0.00     0.013 C 
HETATM   10  C17 UNL     1      -3.513  47.270 -19.499  1.00  0.00     0.018 C 
HETATM   11  C18 UNL     1      -3.206  47.442 -17.991  1.00  0.00     0.023 C 
HETATM   12  C19 UNL     1      -2.188  47.252 -20.272  1.00  0.00     0.023 C 
HETATM   13  C20 UNL     1      -4.168  45.886 -19.652  1.00  0.00     0.135 C 
HETATM   14  O2  UNL     1      -3.703  44.880 -19.113  1.00  0.00    -0.297 OA
HETATM   15  C21 UNL     1      -5.430  45.789 -20.474  1.00  0.00     0.080 C 
HETATM   16  C22 UNL     1      -5.271  46.637 -21.723  1.00  0.00     0.017 C 
HETATM   17  C23 UNL     1      -5.148  48.156 -21.410  1.00  0.00    -0.031 C 
HETATM   18  C24 UNL     1      -6.587  48.751 -21.378  1.00  0.00     0.016 C 
HETATM   19  C25 UNL     1      -4.292  48.854 -22.532  1.00  0.00     0.024 C 
HETATM   20  C26 UNL     1      -4.831  48.642 -23.972  1.00  0.00     0.010 C 
HETATM   21  C27 UNL     1      -4.075  49.390 -25.095  1.00  0.00     0.011 C 
HETATM   22  C28 UNL     1      -3.183  50.551 -24.612  1.00  0.00    -0.029 C 
HETATM   23  C29 UNL     1      -1.766  49.984 -24.277  1.00  0.00     0.016 C 
ENDROOT
BRANCH   1  24
HETATM   24  C6  UNL     1      -2.072  51.592 -26.838  1.00  0.00    -0.007 C 
HETATM   25  C7  UNL     1      -2.508  50.478 -27.795  1.00  0.00     0.011 C 
BRANCH  24  26
HETATM   26  C5  UNL     1      -1.879  52.920 -27.608  1.00  0.00     0.087 C 
BRANCH  26  27
HETATM   27  C4  UNL     1      -0.537  53.602 -27.386  1.00  0.00     0.150 C 
HETATM   28  O1  UNL     1      -0.428  54.817 -27.257  1.00  0.00    -0.293 OA
BRANCH  27  29
HETATM   29  C3  UNL     1       0.662  52.717 -27.383  1.00  0.00     0.063 C 
HETATM   30  C2  UNL     1       1.311  52.319 -26.273  1.00  0.00     0.015 C 
HETATM   31  C1  UNL     1       0.934  52.622 -24.854  1.00  0.00     0.055 C 
BRANCH  30  32
HETATM   32  C30 UNL     1       2.496  51.467 -26.517  1.00  0.00     0.171 C 
HETATM   33  O3  UNL     1       2.764  50.424 -25.947  1.00  0.00    -0.646 OA
BRANCH  32  34
HETATM   34  O4  UNL     1       3.295  51.957 -27.477  1.00  0.00    -0.773 OA
HETATM   35  H44 UNL     1       4.020  51.300 -27.545  1.00  0.00     0.167 HD
ENDBRANCH  32  34
ENDBRANCH  30  32
ENDBRANCH  27  29
ENDBRANCH  26  27
ENDBRANCH  24  26
ENDBRANCH   1  24
TORSDOF 6
ENDMDL
MODEL 4
REMARK minimizedAffinity -9.2539587
REMARK  6 active torsions:
REMARK  status: ('A' for Active; 'I' for Inactive)
REMARK    1  A    between atoms: C2_2  and  C30_32 
REMARK    2  A    between atoms: C3_3  and  C4_4 
REMARK    3  A    between atoms: C4_4  and  C5_6 
REMARK    4  A    between atoms: C5_6  and  C6_7 
REMARK    5  A    between atoms: C6_7  and  C8_9 
REMARK    6  A    between atoms: C30_32  and  O4_34 
ROOT
HETATM    1  C8  UNL     1      -0.958  51.101 -20.819  1.00  0.00    -0.001 C 
HETATM    2  C9  UNL     1      -0.059  49.844 -21.003  1.00  0.00     0.007 C 
HETATM    3  C10 UNL     1      -0.976  48.609 -20.943  1.00  0.00     0.015 C 
HETATM    4  C11 UNL     1      -2.326  49.143 -20.420  1.00  0.00    -0.013 C 
HETATM    5  C12 UNL     1      -2.200  49.186 -18.864  1.00  0.00     0.021 C 
HETATM    6  C13 UNL     1      -3.584  48.337 -20.724  1.00  0.00    -0.070 C 
HETATM    7  C14 UNL     1      -3.569  47.007 -20.900  1.00  0.00    -0.022 C 
HETATM    8  C15 UNL     1      -4.777  46.163 -21.157  1.00  0.00     0.034 C 
HETATM    9  C16 UNL     1      -6.166  46.847 -21.061  1.00  0.00     0.013 C 
HETATM   10  C17 UNL     1      -7.003  46.787 -22.389  1.00  0.00     0.018 C 
HETATM   11  C18 UNL     1      -7.213  45.316 -22.822  1.00  0.00     0.023 C 
HETATM   12  C19 UNL     1      -6.374  47.559 -23.556  1.00  0.00     0.023 C 
HETATM   13  C20 UNL     1      -8.407  47.368 -22.140  1.00  0.00     0.135 C 
HETATM   14  O2  UNL     1      -9.333  47.204 -22.936  1.00  0.00    -0.297 OA
HETATM   15  C21 UNL     1      -8.634  48.142 -20.864  1.00  0.00     0.080 C 
HETATM   16  C22 UNL     1      -7.440  49.047 -20.617  1.00  0.00     0.017 C 
HETATM   17  C23 UNL     1      -6.129  48.256 -20.342  1.00  0.00    -0.031 C 
HETATM   18  C24 UNL     1      -6.049  47.990 -18.810  1.00  0.00     0.016 C 
HETATM   19  C25 UNL     1      -4.894  49.109 -20.816  1.00  0.00     0.024 C 
HETATM   20  C26 UNL     1      -4.813  50.523 -20.182  1.00  0.00     0.010 C 
HETATM   21  C27 UNL     1      -3.563  51.358 -20.546  1.00  0.00     0.011 C 
HETATM   22  C28 UNL     1      -2.388  50.544 -21.126  1.00  0.00    -0.029 C 
HETATM   23  C29 UNL     1      -2.562  50.453 -22.676  1.00  0.00     0.016 C 
ENDROOT
BRANCH   1  24
HETATM   24  C6  UNL     1      -0.428  52.333 -21.605  1.00  0.00    -0.007 C 
HETATM   25  C7  UNL     1       0.297  53.345 -20.712  1.00  0.00     0.011 C 
BRANCH  24  26
HETATM   26  C5  UNL     1       0.464  51.935 -22.805  1.00  0.00     0.087 C 
BRANCH  26  27
HETATM   27  C4  UNL     1       0.090  52.587 -24.128  1.00  0.00     0.150 C 
HETATM   28  O1  UNL     1      -0.975  53.173 -24.297  1.00  0.00    -0.293 OA
BRANCH  27  29
HETATM   29  C3  UNL     1       1.069  52.434 -25.241  1.00  0.00     0.063 C 
HETATM   30  C2  UNL     1       0.927  51.576 -26.268  1.00  0.00     0.015 C 
HETATM   31  C1  UNL     1      -0.239  50.670 -26.527  1.00  0.00     0.055 C 
BRANCH  30  32
HETATM   32  C30 UNL     1       2.044  51.577 -27.239  1.00  0.00     0.171 C 
HETATM   33  O3  UNL     1       1.956  51.779 -28.437  1.00  0.00    -0.646 OA
BRANCH  32  34
HETATM   34  O4  UNL     1       3.231  51.333 -26.661  1.00  0.00    -0.773 OA
HETATM   35  H44 UNL     1       3.871  51.376 -27.402  1.00  0.00     0.167 HD
ENDBRANCH  32  34
ENDBRANCH  30  32
ENDBRANCH  27  29
ENDBRANCH  26  27
ENDBRANCH  24  26
ENDBRANCH   1  24
TORSDOF 6
ENDMDL
MODEL 5
REMARK minimizedAffinity -9.20910072
REMARK  6 active torsions:
REMARK  status: ('A' for Active; 'I' for Inactive)
REMARK    1  A    between atoms: C2_2  and  C30_32 
REMARK    2  A    between atoms: C3_3  and  C4_4 
REMARK    3  A    between atoms: C4_4  and  C5_6 
REMARK    4  A    between atoms: C5_6  and  C6_7 
REMARK    5  A    between atoms: C6_7  and  C8_9 
REMARK    6  A    between atoms: C30_32  and  O4_34 
ROOT
HETATM    1  C8  UNL     1      -1.680  50.658 -22.790  1.00  0.00    -0.001 C 
HETATM    2  C9  UNL     1      -1.950  49.906 -24.125  1.00  0.00     0.007 C 
HETATM    3  C10 UNL     1      -2.969  48.790 -23.827  1.00  0.00     0.015 C 
HETATM    4  C11 UNL     1      -3.034  48.714 -22.288  1.00  0.00    -0.013 C 
HETATM    5  C12 UNL     1      -1.840  47.809 -21.849  1.00  0.00     0.021 C 
HETATM    6  C13 UNL     1      -4.282  48.114 -21.650  1.00  0.00    -0.070 C 
HETATM    7  C14 UNL     1      -5.036  47.187 -22.262  1.00  0.00    -0.022 C 
HETATM    8  C15 UNL     1      -6.242  46.534 -21.667  1.00  0.00     0.034 C 
HETATM    9  C16 UNL     1      -6.560  46.832 -20.177  1.00  0.00     0.013 C 
HETATM   10  C17 UNL     1      -7.965  47.494 -19.942  1.00  0.00     0.018 C 
HETATM   11  C18 UNL     1      -9.085  46.587 -20.508  1.00  0.00     0.023 C 
HETATM   12  C19 UNL     1      -8.105  48.892 -20.559  1.00  0.00     0.023 C 
HETATM   13  C20 UNL     1      -8.231  47.616 -18.431  1.00  0.00     0.135 C 
HETATM   14  O2  UNL     1      -9.352  47.859 -17.982  1.00  0.00    -0.297 OA
HETATM   15  C21 UNL     1      -7.068  47.408 -17.491  1.00  0.00     0.080 C 
HETATM   16  C22 UNL     1      -5.847  48.112 -18.054  1.00  0.00     0.017 C 
HETATM   17  C23 UNL     1      -5.356  47.493 -19.394  1.00  0.00    -0.031 C 
HETATM   18  C24 UNL     1      -4.349  46.356 -19.049  1.00  0.00     0.016 C 
HETATM   19  C25 UNL     1      -4.651  48.605 -20.257  1.00  0.00     0.024 C 
HETATM   20  C26 UNL     1      -3.483  49.328 -19.537  1.00  0.00     0.010 C 
HETATM   21  C27 UNL     1      -2.701  50.361 -20.383  1.00  0.00     0.011 C 
HETATM   22  C28 UNL     1      -2.900  50.232 -21.906  1.00  0.00    -0.029 C 
HETATM   23  C29 UNL     1      -4.137  51.090 -22.322  1.00  0.00     0.016 C 
ENDROOT
BRANCH   1  24
HETATM   24  C6  UNL     1      -1.380  52.168 -23.007  1.00  0.00    -0.007 C 
HETATM   25  C7  UNL     1      -0.049  52.607 -22.389  1.00  0.00     0.011 C 
BRANCH  24  26
HETATM   26  C5  UNL     1      -1.445  52.580 -24.497  1.00  0.00     0.087 C 
BRANCH  26  27
HETATM   27  C4  UNL     1      -0.249  53.377 -24.996  1.00  0.00     0.150 C 
HETATM   28  O1  UNL     1      -0.290  54.591 -25.167  1.00  0.00    -0.293 OA
BRANCH  27  29
HETATM   29  C3  UNL     1       0.978  52.595 -25.321  1.00  0.00     0.063 C 
HETATM   30  C2  UNL     1       1.273  52.114 -26.543  1.00  0.00     0.015 C 
HETATM   31  C1  UNL     1       0.484  52.314 -27.802  1.00  0.00     0.055 C 
BRANCH  30  32
HETATM   32  C30 UNL     1       2.532  51.340 -26.619  1.00  0.00     0.171 C 
HETATM   33  O3  UNL     1       2.884  50.460 -25.852  1.00  0.00    -0.646 OA
BRANCH  32  34
HETATM   34  O4  UNL     1       3.295  51.696 -27.663  1.00  0.00    -0.773 OA
HETATM   35  H44 UNL     1       4.076  51.106 -27.602  1.00  0.00     0.167 HD
ENDBRANCH  32  34
ENDBRANCH  30  32
ENDBRANCH  27  29
ENDBRANCH  26  27
ENDBRANCH  24  26
ENDBRANCH   1  24
TORSDOF 6
ENDMDL
MODEL 6
REMARK minimizedAffinity -9.18134308
REMARK  6 active torsions:
REMARK  status: ('A' for Active; 'I' for Inactive)
REMARK    1  A    between atoms: C2_2  and  C30_32 
REMARK    2  A    between atoms: C3_3  and  C4_4 
REMARK    3  A    between atoms: C4_4  and  C5_6 
REMARK    4  A    between atoms: C5_6  and  C6_7 
REMARK    5  A    between atoms: C6_7  and  C8_9 
REMARK    6  A    between atoms: C30_32  and  O4_34 
ROOT
HETATM    1  C8  UNL     1      -2.700  51.126 -24.646  1.00  0.00    -0.001 C 
HETATM    2  C9  UNL     1      -2.607  52.243 -23.567  1.00  0.00     0.007 C 
HETATM    3  C10 UNL     1      -3.560  51.857 -22.420  1.00  0.00     0.015 C 
HETATM    4  C11 UNL     1      -4.411  50.701 -22.986  1.00  0.00    -0.013 C 
HETATM    5  C12 UNL     1      -5.571  51.372 -23.790  1.00  0.00     0.021 C 
HETATM    6  C13 UNL     1      -5.073  49.747 -21.998  1.00  0.00    -0.070 C 
HETATM    7  C14 UNL     1      -5.434  50.118 -20.760  1.00  0.00    -0.022 C 
HETATM    8  C15 UNL     1      -6.124  49.237 -19.768  1.00  0.00     0.034 C 
HETATM    9  C16 UNL     1      -6.598  47.841 -20.253  1.00  0.00     0.013 C 
HETATM   10  C17 UNL     1      -5.963  46.639 -19.465  1.00  0.00     0.018 C 
HETATM   11  C18 UNL     1      -6.280  46.764 -17.955  1.00  0.00     0.023 C 
HETATM   12  C19 UNL     1      -4.445  46.512 -19.642  1.00  0.00     0.023 C 
HETATM   13  C20 UNL     1      -6.605  45.321 -19.933  1.00  0.00     0.135 C 
HETATM   14  O2  UNL     1      -6.476  44.270 -19.302  1.00  0.00    -0.297 OA
HETATM   15  C21 UNL     1      -7.431  45.347 -21.197  1.00  0.00     0.080 C 
HETATM   16  C22 UNL     1      -6.716  46.193 -22.235  1.00  0.00     0.017 C 
HETATM   17  C23 UNL     1      -6.614  47.691 -21.828  1.00  0.00    -0.031 C 
HETATM   18  C24 UNL     1      -7.894  48.411 -22.347  1.00  0.00     0.016 C 
HETATM   19  C25 UNL     1      -5.327  48.324 -22.477  1.00  0.00     0.024 C 
HETATM   20  C26 UNL     1      -5.254  48.178 -24.021  1.00  0.00     0.010 C 
HETATM   21  C27 UNL     1      -4.054  48.870 -24.709  1.00  0.00     0.011 C 
HETATM   22  C28 UNL     1      -3.347  49.941 -23.854  1.00  0.00    -0.029 C 
HETATM   23  C29 UNL     1      -2.234  49.246 -23.006  1.00  0.00     0.016 C 
ENDROOT
BRANCH   1  24
HETATM   24  C6  UNL     1      -1.356  50.907 -25.395  1.00  0.00    -0.007 C 
HETATM   25  C7  UNL     1      -1.397  51.385 -26.850  1.00  0.00     0.011 C 
BRANCH  24  26
HETATM   26  C5  UNL     1      -0.152  51.537 -24.654  1.00  0.00     0.087 C 
BRANCH  26  27
HETATM   27  C4  UNL     1      -0.023  53.045 -24.803  1.00  0.00     0.150 C 
HETATM   28  O1  UNL     1      -0.426  53.648 -25.793  1.00  0.00    -0.293 OA
BRANCH  27  29
HETATM   29  C3  UNL     1       0.670  53.762 -23.696  1.00  0.00     0.063 C 
HETATM   30  C2  UNL     1       0.796  53.288 -22.442  1.00  0.00     0.015 C 
HETATM   31  C1  UNL     1       0.334  51.955 -21.935  1.00  0.00     0.055 C 
BRANCH  30  32
HETATM   32  C30 UNL     1       1.498  54.191 -21.503  1.00  0.00     0.171 C 
HETATM   33  O3  UNL     1       1.491  54.112 -20.287  1.00  0.00    -0.646 OA
BRANCH  32  34
HETATM   34  O4  UNL     1       2.189  55.154 -22.131  1.00  0.00    -0.773 OA
HETATM   35  H44 UNL     1       2.608  55.661 -21.405  1.00  0.00     0.167 HD
ENDBRANCH  32  34
ENDBRANCH  30  32
ENDBRANCH  27  29
ENDBRANCH  26  27
ENDBRANCH  24  26
ENDBRANCH   1  24
TORSDOF 6
ENDMDL
MODEL 7
REMARK minimizedAffinity -8.8122921
REMARK  6 active torsions:
REMARK  status: ('A' for Active; 'I' for Inactive)
REMARK    1  A    between atoms: C2_2  and  C30_32 
REMARK    2  A    between atoms: C3_3  and  C4_4 
REMARK    3  A    between atoms: C4_4  and  C5_6 
REMARK    4  A    between atoms: C5_6  and  C6_7 
REMARK    5  A    between atoms: C6_7  and  C8_9 
REMARK    6  A    between atoms: C30_32  and  O4_34 
ROOT
HETATM    1  C8  UNL     1      -0.818  52.110 -20.517  1.00  0.00    -0.001 C 
HETATM    2  C9  UNL     1       0.158  51.598 -19.418  1.00  0.00     0.007 C 
HETATM    3  C10 UNL     1      -0.505  50.383 -18.743  1.00  0.00     0.015 C 
HETATM    4  C11 UNL     1      -1.965  50.402 -19.240  1.00  0.00    -0.013 C 
HETATM    5  C12 UNL     1      -2.726  51.397 -18.307  1.00  0.00     0.021 C 
HETATM    6  C13 UNL     1      -2.753  49.097 -19.205  1.00  0.00    -0.070 C 
HETATM    7  C14 UNL     1      -2.505  48.123 -18.316  1.00  0.00    -0.022 C 
HETATM    8  C15 UNL     1      -3.274  46.844 -18.210  1.00  0.00     0.034 C 
HETATM    9  C16 UNL     1      -4.547  46.695 -19.085  1.00  0.00     0.013 C 
HETATM   10  C17 UNL     1      -4.498  45.485 -20.086  1.00  0.00     0.018 C 
HETATM   11  C18 UNL     1      -4.279  44.161 -19.314  1.00  0.00     0.023 C 
HETATM   12  C19 UNL     1      -3.413  45.613 -21.163  1.00  0.00     0.023 C 
HETATM   13  C20 UNL     1      -5.857  45.351 -20.797  1.00  0.00     0.135 C 
HETATM   14  O2  UNL     1      -6.165  44.340 -21.431  1.00  0.00    -0.297 OA
HETATM   15  C21 UNL     1      -6.830  46.498 -20.682  1.00  0.00     0.080 C 
HETATM   16  C22 UNL     1      -6.074  47.804 -20.844  1.00  0.00     0.017 C 
HETATM   17  C23 UNL     1      -5.060  48.062 -19.692  1.00  0.00    -0.031 C 
HETATM   18  C24 UNL     1      -5.813  48.818 -18.558  1.00  0.00     0.016 C 
HETATM   19  C25 UNL     1      -3.865  48.934 -20.233  1.00  0.00     0.024 C 
HETATM   20  C26 UNL     1      -4.296  50.276 -20.882  1.00  0.00     0.010 C 
HETATM   21  C27 UNL     1      -3.148  51.207 -21.339  1.00  0.00     0.011 C 
HETATM   22  C28 UNL     1      -1.772  50.887 -20.721  1.00  0.00    -0.029 C 
HETATM   23  C29 UNL     1      -1.050  49.841 -21.629  1.00  0.00     0.016 C 
ENDROOT
BRANCH   1  24
HETATM   24  C6  UNL     1      -0.073  52.717 -21.739  1.00  0.00    -0.007 C 
HETATM   25  C7  UNL     1       1.405  53.005 -21.456  1.00  0.00     0.011 C 
BRANCH  24  26
HETATM   26  C5  UNL     1      -0.220  51.853 -23.015  1.00  0.00     0.087 C 
BRANCH  26  27
HETATM   27  C4  UNL     1      -0.534  52.631 -24.284  1.00  0.00     0.150 C 
HETATM   28  O1  UNL     1      -1.602  53.210 -24.455  1.00  0.00    -0.293 OA
BRANCH  27  29
HETATM   29  C3  UNL     1       0.511  52.613 -25.346  1.00  0.00     0.063 C 
HETATM   30  C2  UNL     1       0.580  51.699 -26.331  1.00  0.00     0.015 C 
HETATM   31  C1  UNL     1      -0.385  50.582 -26.590  1.00  0.00     0.055 C 
BRANCH  30  32
HETATM   32  C30 UNL     1       1.725  51.864 -27.254  1.00  0.00     0.171 C 
HETATM   33  O3  UNL     1       1.680  51.830 -28.472  1.00  0.00    -0.646 OA
BRANCH  32  34
HETATM   34  O4  UNL     1       2.883  52.077 -26.609  1.00  0.00    -0.773 OA
HETATM   35  H44 UNL     1       3.542  52.181 -27.327  1.00  0.00     0.167 HD
ENDBRANCH  32  34
ENDBRANCH  30  32
ENDBRANCH  27  29
ENDBRANCH  26  27
ENDBRANCH  24  26
ENDBRANCH   1  24
TORSDOF 6
ENDMDL
MODEL 8
REMARK minimizedAffinity -8.73028278
REMARK  6 active torsions:
REMARK  status: ('A' for Active; 'I' for Inactive)
REMARK    1  A    between atoms: C2_2  and  C30_32 
REMARK    2  A    between atoms: C3_3  and  C4_4 
REMARK    3  A    between atoms: C4_4  and  C5_6 
REMARK    4  A    between atoms: C5_6  and  C6_7 
REMARK    5  A    between atoms: C6_7  and  C8_9 
REMARK    6  A    between atoms: C30_32  and  O4_34 
ROOT
HETATM    1  C8  UNL     1      -3.509  50.347 -24.313  1.00  0.00    -0.001 C 
HETATM    2  C9  UNL     1      -3.130  51.478 -23.313  1.00  0.00     0.007 C 
HETATM    3  C10 UNL     1      -3.810  51.153 -21.970  1.00  0.00     0.015 C 
HETATM    4  C11 UNL     1      -4.811  50.025 -22.296  1.00  0.00    -0.013 C 
HETATM    5  C12 UNL     1      -6.097  50.730 -22.834  1.00  0.00     0.021 C 
HETATM    6  C13 UNL     1      -5.265  49.117 -21.159  1.00  0.00    -0.070 C 
HETATM    7  C14 UNL     1      -5.320  49.525 -19.882  1.00  0.00    -0.022 C 
HETATM    8  C15 UNL     1      -5.798  48.691 -18.736  1.00  0.00     0.034 C 
HETATM    9  C16 UNL     1      -6.423  47.309 -19.063  1.00  0.00     0.013 C 
HETATM   10  C17 UNL     1      -5.671  46.095 -18.408  1.00  0.00     0.018 C 
HETATM   11  C18 UNL     1      -5.629  46.259 -16.869  1.00  0.00     0.023 C 
HETATM   12  C19 UNL     1      -4.238  45.900 -18.921  1.00  0.00     0.023 C 
HETATM   13  C20 UNL     1      -6.451  44.797 -18.683  1.00  0.00     0.135 C 
HETATM   14  O2  UNL     1      -6.220  43.753 -18.070  1.00  0.00    -0.297 OA
HETATM   15  C21 UNL     1      -7.541  44.836 -19.726  1.00  0.00     0.080 C 
HETATM   16  C22 UNL     1      -7.051  45.633 -20.921  1.00  0.00     0.017 C 
HETATM   17  C23 UNL     1      -6.803  47.132 -20.588  1.00  0.00    -0.031 C 
HETATM   18  C24 UNL     1      -8.139  47.896 -20.823  1.00  0.00     0.016 C 
HETATM   19  C25 UNL     1      -5.675  47.698 -21.530  1.00  0.00     0.024 C 
HETATM   20  C26 UNL     1      -5.961  47.522 -23.045  1.00  0.00     0.010 C 
HETATM   21  C27 UNL     1      -4.924  48.150 -24.007  1.00  0.00     0.011 C 
HETATM   22  C28 UNL     1      -4.001  49.205 -23.363  1.00  0.00    -0.029 C 
HETATM   23  C29 UNL     1      -2.751  48.478 -22.772  1.00  0.00     0.016 C 
ENDROOT
BRANCH   1  24
HETATM   24  C6  UNL     1      -2.380  50.058 -25.341  1.00  0.00    -0.007 C 
HETATM   25  C7  UNL     1      -2.614  48.774 -26.142  1.00  0.00     0.011 C 
BRANCH  24  26
HETATM   26  C5  UNL     1      -2.123  51.250 -26.295  1.00  0.00     0.087 C 
BRANCH  26  27
HETATM   27  C4  UNL     1      -1.117  52.273 -25.789  1.00  0.00     0.150 C 
HETATM   28  O1  UNL     1      -1.448  53.391 -25.408  1.00  0.00    -0.293 OA
BRANCH  27  29
HETATM   29  C3  UNL     1       0.316  51.865 -25.825  1.00  0.00     0.063 C 
HETATM   30  C2  UNL     1       1.105  51.949 -26.913  1.00  0.00     0.015 C 
HETATM   31  C1  UNL     1       0.732  52.510 -28.252  1.00  0.00     0.055 C 
BRANCH  30  32
HETATM   32  C30 UNL     1       2.486  51.456 -26.719  1.00  0.00     0.171 C 
HETATM   33  O3  UNL     1       2.839  50.592 -25.935  1.00  0.00    -0.646 OA
BRANCH  32  34
HETATM   34  O4  UNL     1       3.370  52.062 -27.527  1.00  0.00    -0.773 OA
HETATM   35  H44 UNL     1       4.226  51.638 -27.307  1.00  0.00     0.167 HD
ENDBRANCH  32  34
ENDBRANCH  30  32
ENDBRANCH  27  29
ENDBRANCH  26  27
ENDBRANCH  24  26
ENDBRANCH   1  24
TORSDOF 6
ENDMDL
MODEL 9
REMARK minimizedAffinity -8.59206867
REMARK  6 active torsions:
REMARK  status: ('A' for Active; 'I' for Inactive)
REMARK    1  A    between atoms: C2_2  and  C30_32 
REMARK    2  A    between atoms: C3_3  and  C4_4 
REMARK    3  A    between atoms: C4_4  and  C5_6 
REMARK    4  A    between atoms: C5_6  and  C6_7 
REMARK    5  A    between atoms: C6_7  and  C8_9 
REMARK    6  A    between atoms: C30_32  and  O4_34 
ROOT
HETATM    1  C8  UNL     1      -0.177  50.643 -18.092  1.00  0.00    -0.001 C 
HETATM    2  C9  UNL     1      -0.188  52.103 -18.630  1.00  0.00     0.007 C 
HETATM    3  C10 UNL     1      -1.146  52.144 -19.835  1.00  0.00     0.015 C 
HETATM    4  C11 UNL     1      -1.429  50.663 -20.165  1.00  0.00    -0.013 C 
HETATM    5  C12 UNL     1      -0.243  50.187 -21.062  1.00  0.00     0.021 C 
HETATM    6  C13 UNL     1      -2.704  50.329 -20.931  1.00  0.00    -0.070 C 
HETATM    7  C14 UNL     1      -3.284  51.186 -21.786  1.00  0.00    -0.022 C 
HETATM    8  C15 UNL     1      -4.507  50.894 -22.594  1.00  0.00     0.034 C 
HETATM    9  C16 UNL     1      -5.062  49.445 -22.563  1.00  0.00     0.013 C 
HETATM   10  C17 UNL     1      -6.535  49.334 -22.027  1.00  0.00     0.018 C 
HETATM   11  C18 UNL     1      -7.484  50.200 -22.891  1.00  0.00     0.023 C 
HETATM   12  C19 UNL     1      -6.695  49.743 -20.558  1.00  0.00     0.023 C 
HETATM   13  C20 UNL     1      -7.026  47.882 -22.170  1.00  0.00     0.135 C 
HETATM   14  O2  UNL     1      -8.217  47.582 -22.067  1.00  0.00    -0.297 OA
HETATM   15  C21 UNL     1      -6.000  46.815 -22.464  1.00  0.00     0.080 C 
HETATM   16  C22 UNL     1      -4.770  47.065 -21.610  1.00  0.00     0.017 C 
HETATM   17  C23 UNL     1      -4.041  48.390 -21.972  1.00  0.00    -0.031 C 
HETATM   18  C24 UNL     1      -3.008  48.071 -23.093  1.00  0.00     0.016 C 
HETATM   19  C25 UNL     1      -3.311  48.952 -20.696  1.00  0.00     0.024 C 
HETATM   20  C26 UNL     1      -2.321  47.955 -20.036  1.00  0.00     0.010 C 
HETATM   21  C27 UNL     1      -1.510  48.500 -18.837  1.00  0.00     0.011 C 
HETATM   22  C28 UNL     1      -1.474  50.037 -18.726  1.00  0.00    -0.029 C 
HETATM   23  C29 UNL     1      -2.702  50.504 -17.882  1.00  0.00     0.016 C 
ENDROOT
BRANCH   1  24
HETATM   24  C6  UNL     1       0.030  50.576 -16.553  1.00  0.00    -0.007 C 
HETATM   25  C7  UNL     1       0.516  49.204 -16.074  1.00  0.00     0.011 C 
BRANCH  24  26
HETATM   26  C5  UNL     1       0.964  51.693 -16.028  1.00  0.00     0.087 C 
BRANCH  26  27
HETATM   27  C4  UNL     1       0.972  51.866 -14.517  1.00  0.00     0.150 C 
HETATM   28  O1  UNL     1       0.237  52.661 -13.940  1.00  0.00    -0.293 OA
BRANCH  27  29
HETATM   29  C3  UNL     1       1.964  51.048 -13.763  1.00  0.00     0.063 C 
HETATM   30  C2  UNL     1       3.274  50.975 -14.061  1.00  0.00     0.015 C 
HETATM   31  C1  UNL     1       3.993  51.726 -15.141  1.00  0.00     0.055 C 
BRANCH  30  32
HETATM   32  C30 UNL     1       4.061  50.073 -13.191  1.00  0.00     0.171 C 
HETATM   33  O3  UNL     1       5.151  49.593 -13.449  1.00  0.00    -0.646 OA
BRANCH  32  34
HETATM   34  O4  UNL     1       3.450  49.818 -12.024  1.00  0.00    -0.773 OA
HETATM   35  H44 UNL     1       4.075  49.232 -11.549  1.00  0.00     0.167 HD
ENDBRANCH  32  34
ENDBRANCH  30  32
ENDBRANCH  27  29
ENDBRANCH  26  27
ENDBRANCH  24  26
ENDBRANCH   1  24
TORSDOF 6
ENDMDL
