MODEL 1
REMARK minimizedAffinity -7.71544266
REMARK CNNscore 0.591770649
REMARK CNNaffinity 6.11010742
REMARK  10 active torsions:
REMARK  status: ('A' for Active; 'I' for Inactive)
REMARK    1  A    between atoms: C3_3  and  O1_4 
REMARK    2  A    between atoms: N1_14  and  O2_16 
REMARK    3  A    between atoms: O2_16  and  C13_17 
REMARK    4  A    between atoms: C13_17  and  C14_18 
REMARK       I    between atoms: C14_18  and  N2_20 
REMARK    5  A    between atoms: N2_20  and  C15_21 
REMARK    6  A    between atoms: C15_21  and  C16_22 
REMARK    7  A    between atoms: C15_21  and  C19_29 
REMARK       I    between atoms: C16_22  and  N3_24 
REMARK    8  A    between atoms: N3_24  and  C17_25 
REMARK    9  A    between atoms: C17_25  and  C18_26 
REMARK   10  A    between atoms: C18_26  and  O6_28 
ROOT
HETATM    1  C1  UNL     1      -6.569  47.187 -30.109  1.00  0.00     0.015 C 
HETATM    2  C2  UNL     1      -7.614  47.591 -29.686  1.00  0.00    -0.078 C 
HETATM    3  C3  UNL     1      -8.900  48.126 -29.186  1.00  0.00     0.128 C 
HETATM    4  C4  UNL     1      -9.924  48.149 -30.336  1.00  0.00     0.052 C 
HETATM    5  C5  UNL     1     -10.684  46.822 -30.260  1.00  0.00     0.010 C 
HETATM    6  C6  UNL     1     -10.198  46.102 -28.979  1.00  0.00     0.002 C 
HETATM    7  C7  UNL     1     -11.253  45.228 -28.261  1.00  0.00    -0.004 C 
HETATM    8  C8  UNL     1     -11.868  44.197 -29.224  1.00  0.00     0.010 C 
HETATM    9  C9  UNL     1     -12.882  43.306 -28.518  1.00  0.00     0.035 C 
HETATM   10  C10 UNL     1     -13.950  44.136 -27.845  1.00  0.00    -0.069 C 
HETATM   11  C11 UNL     1     -15.246  43.946 -28.156  1.00  0.00     0.030 C 
HETATM   12  C12 UNL     1     -16.319  44.712 -27.462  1.00  0.00     0.032 C 
HETATM   13  N1  UNL     1     -17.506  44.732 -27.994  1.00  0.00    -0.271 N 
ATOM     14  H1  UNL     1     -17.760  44.236 -28.848  1.00  0.00     0.194 HD
HETATM   15  C22 UNL     1     -15.927  45.398 -26.169  1.00  0.00     0.060 C 
HETATM   16  C23 UNL     1     -14.616  46.132 -26.416  1.00  0.00     0.020 C 
HETATM   17  C24 UNL     1     -13.452  45.191 -26.850  1.00  0.00    -0.016 C 
HETATM   18  C25 UNL     1     -12.921  44.475 -25.592  1.00  0.00     0.020 C 
HETATM   19  C26 UNL     1     -12.350  46.069 -27.556  1.00  0.00     0.002 C 
HETATM   20  C27 UNL     1     -11.700  47.103 -26.615  1.00  0.00     0.007 C 
HETATM   21  C28 UNL     1     -10.716  48.007 -27.360  1.00  0.00     0.014 C 
HETATM   22  C29 UNL     1      -9.592  47.232 -28.109  1.00  0.00     0.003 C 
HETATM   23  C30 UNL     1      -8.597  46.690 -27.063  1.00  0.00     0.020 C 
ENDROOT
BRANCH   3  24
HETATM   24  O1  UNL     1      -8.636  49.435 -28.694  1.00  0.00    -0.377 OA
HETATM   25  H2  UNL     1      -9.472  49.930 -28.657  1.00  0.00     0.211 HD
ENDBRANCH   3  24
BRANCH  13  26
HETATM   26  O2  UNL     1     -18.394  45.521 -27.246  1.00  0.00    -0.271 OA
BRANCH  26  27
HETATM   27  C13 UNL     1     -19.243  44.692 -26.460  1.00  0.00     0.303 C 
BRANCH  27  28
HETATM   28  C14 UNL     1     -19.662  45.327 -25.139  1.00  0.00     0.244 C 
HETATM   29  O3  UNL     1     -20.353  46.339 -25.084  1.00  0.00    -0.271 OA
HETATM   30  N2  UNL     1     -19.224  44.642 -24.030  1.00  0.00    -0.346 N 
HETATM   31  H16 UNL     1     -18.687  43.800 -24.222  1.00  0.00     0.163 HD
BRANCH  30  32
HETATM   32  C15 UNL     1     -19.459  45.079 -22.651  1.00  0.00     0.180 C 
BRANCH  32  33
HETATM   33  C16 UNL     1     -19.928  43.872 -21.796  1.00  0.00     0.241 C 
HETATM   34  O4  UNL     1     -20.270  43.971 -20.621  1.00  0.00    -0.271 OA
HETATM   35  N3  UNL     1     -19.844  42.641 -22.428  1.00  0.00    -0.349 N 
HETATM   36  H18 UNL     1     -19.838  42.685 -23.448  1.00  0.00     0.163 HD
BRANCH  35  37
HETATM   37  C17 UNL     1     -20.491  41.478 -21.836  1.00  0.00     0.232 C 
BRANCH  37  38
HETATM   38  C18 UNL     1     -21.926  41.314 -22.310  1.00  0.00     0.158 C 
HETATM   39  O5  UNL     1     -22.834  40.796 -21.677  1.00  0.00    -0.649 OA
BRANCH  38  40
HETATM   40  O6  UNL     1     -22.125  41.720 -23.587  1.00  0.00    -0.775 OA
HETATM   41  H21 UNL     1     -23.086  41.590 -23.730  1.00  0.00     0.167 HD
ENDBRANCH  38  40
ENDBRANCH  37  38
ENDBRANCH  35  37
ENDBRANCH  32  33
BRANCH  32  42
HETATM   42  C19 UNL     1     -18.184  45.723 -22.049  1.00  0.00     0.009 C 
HETATM   43  C20 UNL     1     -18.550  46.686 -20.909  1.00  0.00     0.012 C 
HETATM   44  C21 UNL     1     -17.370  46.510 -23.087  1.00  0.00     0.012 C 
ENDBRANCH  32  42
ENDBRANCH  30  32
ENDBRANCH  27  28
ENDBRANCH  26  27
ENDBRANCH  13  26
TORSDOF 10
ENDMDL
MODEL 2
REMARK minimizedAffinity -8.49094105
REMARK CNNscore 0.524324656
REMARK CNNaffinity 6.51542044
REMARK  10 active torsions:
REMARK  status: ('A' for Active; 'I' for Inactive)
REMARK    1  A    between atoms: C3_3  and  O1_4 
REMARK    2  A    between atoms: N1_14  and  O2_16 
REMARK    3  A    between atoms: O2_16  and  C13_17 
REMARK    4  A    between atoms: C13_17  and  C14_18 
REMARK       I    between atoms: C14_18  and  N2_20 
REMARK    5  A    between atoms: N2_20  and  C15_21 
REMARK    6  A    between atoms: C15_21  and  C16_22 
REMARK    7  A    between atoms: C15_21  and  C19_29 
REMARK       I    between atoms: C16_22  and  N3_24 
REMARK    8  A    between atoms: N3_24  and  C17_25 
REMARK    9  A    between atoms: C17_25  and  C18_26 
REMARK   10  A    between atoms: C18_26  and  O6_28 
ROOT
HETATM    1  C1  UNL     1       0.531  51.470 -27.520  1.00  0.00     0.015 C 
HETATM    2  C2  UNL     1      -0.614  51.580 -27.185  1.00  0.00    -0.078 C 
HETATM    3  C3  UNL     1      -2.040  51.722 -26.813  1.00  0.00     0.128 C 
HETATM    4  C4  UNL     1      -2.825  50.500 -27.325  1.00  0.00     0.052 C 
HETATM    5  C5  UNL     1      -2.839  49.488 -26.176  1.00  0.00     0.010 C 
HETATM    6  C6  UNL     1      -2.191  50.187 -24.957  1.00  0.00     0.002 C 
HETATM    7  C7  UNL     1      -2.747  49.773 -23.574  1.00  0.00    -0.004 C 
HETATM    8  C8  UNL     1      -2.680  48.247 -23.383  1.00  0.00     0.010 C 
HETATM    9  C9  UNL     1      -3.190  47.832 -22.009  1.00  0.00     0.035 C 
HETATM   10  C10 UNL     1      -4.589  48.354 -21.776  1.00  0.00    -0.069 C 
HETATM   11  C11 UNL     1      -5.587  47.500 -21.485  1.00  0.00     0.030 C 
HETATM   12  C12 UNL     1      -6.960  47.998 -21.193  1.00  0.00     0.032 C 
HETATM   13  N1  UNL     1      -7.946  47.150 -21.226  1.00  0.00    -0.271 N 
ATOM     14  H1  UNL     1      -7.838  46.154 -21.418  1.00  0.00     0.194 HD
HETATM   15  C22 UNL     1      -7.084  49.471 -20.862  1.00  0.00     0.060 C 
HETATM   16  C23 UNL     1      -6.284  50.246 -21.902  1.00  0.00     0.020 C 
HETATM   17  C24 UNL     1      -4.772  49.869 -21.926  1.00  0.00    -0.016 C 
HETATM   18  C25 UNL     1      -4.085  50.572 -20.738  1.00  0.00     0.020 C 
HETATM   19  C26 UNL     1      -4.179  50.313 -23.316  1.00  0.00     0.002 C 
HETATM   20  C27 UNL     1      -4.215  51.839 -23.535  1.00  0.00     0.007 C 
HETATM   21  C28 UNL     1      -3.733  52.222 -24.935  1.00  0.00     0.014 C 
HETATM   22  C29 UNL     1      -2.306  51.700 -25.274  1.00  0.00     0.003 C 
HETATM   23  C30 UNL     1      -1.282  52.539 -24.485  1.00  0.00     0.020 C 
ENDROOT
BRANCH   3  24
HETATM   24  O1  UNL     1      -2.501  52.928 -27.410  1.00  0.00    -0.377 OA
HETATM   25  H2  UNL     1      -3.471  52.900 -27.465  1.00  0.00     0.211 HD
ENDBRANCH   3  24
BRANCH  13  26
HETATM   26  O2  UNL     1      -9.175  47.775 -20.966  1.00  0.00    -0.271 OA
BRANCH  26  27
HETATM   27  C13 UNL     1     -10.096  46.836 -20.421  1.00  0.00     0.303 C 
BRANCH  27  28
HETATM   28  C14 UNL     1     -11.551  47.143 -20.762  1.00  0.00     0.244 C 
HETATM   29  O3  UNL     1     -12.037  46.890 -21.859  1.00  0.00    -0.271 OA
HETATM   30  N2  UNL     1     -12.262  47.689 -19.720  1.00  0.00    -0.346 N 
HETATM   31  H16 UNL     1     -11.741  47.815 -18.855  1.00  0.00     0.163 HD
BRANCH  30  32
HETATM   32  C15 UNL     1     -13.662  48.111 -19.815  1.00  0.00     0.180 C 
BRANCH  32  33
HETATM   33  C16 UNL     1     -14.487  47.014 -20.540  1.00  0.00     0.241 C 
HETATM   34  O4  UNL     1     -14.674  45.893 -20.075  1.00  0.00    -0.271 OA
HETATM   35  N3  UNL     1     -14.926  47.357 -21.809  1.00  0.00    -0.349 N 
HETATM   36  H18 UNL     1     -14.981  48.361 -21.985  1.00  0.00     0.163 HD
BRANCH  35  37
HETATM   37  C17 UNL     1     -15.917  46.528 -22.480  1.00  0.00     0.232 C 
BRANCH  37  38
HETATM   38  C18 UNL     1     -16.182  46.987 -23.906  1.00  0.00     0.158 C 
HETATM   39  O5  UNL     1     -15.477  47.745 -24.556  1.00  0.00    -0.649 OA
BRANCH  38  40
HETATM   40  O6  UNL     1     -17.362  46.549 -24.406  1.00  0.00    -0.775 OA
HETATM   41  H21 UNL     1     -17.369  46.888 -25.326  1.00  0.00     0.167 HD
ENDBRANCH  38  40
ENDBRANCH  37  38
ENDBRANCH  35  37
ENDBRANCH  32  33
BRANCH  32  42
HETATM   42  C19 UNL     1     -14.248  48.409 -18.411  1.00  0.00     0.009 C 
HETATM   43  C20 UNL     1     -13.752  47.376 -17.387  1.00  0.00     0.012 C 
HETATM   44  C21 UNL     1     -15.783  48.390 -18.393  1.00  0.00     0.012 C 
ENDBRANCH  32  42
ENDBRANCH  30  32
ENDBRANCH  27  28
ENDBRANCH  26  27
ENDBRANCH  13  26
TORSDOF 10
ENDMDL
MODEL 3
REMARK minimizedAffinity -7.79350805
REMARK CNNscore 0.367103368
REMARK CNNaffinity 6.54030085
REMARK  10 active torsions:
REMARK  status: ('A' for Active; 'I' for Inactive)
REMARK    1  A    between atoms: C3_3  and  O1_4 
REMARK    2  A    between atoms: N1_14  and  O2_16 
REMARK    3  A    between atoms: O2_16  and  C13_17 
REMARK    4  A    between atoms: C13_17  and  C14_18 
REMARK       I    between atoms: C14_18  and  N2_20 
REMARK    5  A    between atoms: N2_20  and  C15_21 
REMARK    6  A    between atoms: C15_21  and  C16_22 
REMARK    7  A    between atoms: C15_21  and  C19_29 
REMARK       I    between atoms: C16_22  and  N3_24 
REMARK    8  A    between atoms: N3_24  and  C17_25 
REMARK    9  A    between atoms: C17_25  and  C18_26 
REMARK   10  A    between atoms: C18_26  and  O6_28 
ROOT
HETATM    1  C1  UNL     1       0.861  51.735 -28.449  1.00  0.00     0.015 C 
HETATM    2  C2  UNL     1       0.072  52.149 -27.648  1.00  0.00    -0.078 C 
HETATM    3  C3  UNL     1      -0.917  52.689 -26.689  1.00  0.00     0.128 C 
HETATM    4  C4  UNL     1      -2.334  52.279 -27.131  1.00  0.00     0.052 C 
HETATM    5  C5  UNL     1      -2.649  50.970 -26.403  1.00  0.00     0.010 C 
HETATM    6  C6  UNL     1      -1.474  50.706 -25.430  1.00  0.00     0.002 C 
HETATM    7  C7  UNL     1      -1.846  49.991 -24.110  1.00  0.00    -0.004 C 
HETATM    8  C8  UNL     1      -2.587  48.670 -24.384  1.00  0.00     0.010 C 
HETATM    9  C9  UNL     1      -2.925  47.939 -23.091  1.00  0.00     0.035 C 
HETATM   10  C10 UNL     1      -3.714  48.830 -22.160  1.00  0.00    -0.069 C 
HETATM   11  C11 UNL     1      -4.925  48.440 -21.719  1.00  0.00     0.030 C 
HETATM   12  C12 UNL     1      -5.693  49.275 -20.755  1.00  0.00     0.032 C 
HETATM   13  N1  UNL     1      -6.961  49.030 -20.598  1.00  0.00    -0.271 N 
ATOM     14  H1  UNL     1      -7.463  48.284 -21.078  1.00  0.00     0.194 HD
HETATM   15  C22 UNL     1      -4.910  50.344 -20.019  1.00  0.00     0.060 C 
HETATM   16  C23 UNL     1      -4.069  51.089 -21.047  1.00  0.00     0.020 C 
HETATM   17  C24 UNL     1      -3.063  50.172 -21.805  1.00  0.00    -0.016 C 
HETATM   18  C25 UNL     1      -1.861  49.909 -20.875  1.00  0.00     0.020 C 
HETATM   19  C26 UNL     1      -2.647  50.899 -23.139  1.00  0.00     0.002 C 
HETATM   20  C27 UNL     1      -1.886  52.219 -22.902  1.00  0.00     0.007 C 
HETATM   21  C28 UNL     1      -1.594  52.948 -24.214  1.00  0.00     0.014 C 
HETATM   22  C29 UNL     1      -0.805  52.092 -25.249  1.00  0.00     0.003 C 
HETATM   23  C30 UNL     1       0.655  51.976 -24.770  1.00  0.00     0.020 C 
ENDROOT
BRANCH   3  24
HETATM   24  O1  UNL     1      -0.758  54.103 -26.686  1.00  0.00    -0.377 OA
HETATM   25  H2  UNL     1      -1.567  54.509 -26.334  1.00  0.00     0.211 HD
ENDBRANCH   3  24
BRANCH  13  26
HETATM   26  O2  UNL     1      -7.551  49.920 -19.687  1.00  0.00    -0.271 OA
BRANCH  26  27
HETATM   27  C13 UNL     1      -8.154  49.199 -18.619  1.00  0.00     0.303 C 
BRANCH  27  28
HETATM   28  C14 UNL     1      -9.328  48.329 -19.057  1.00  0.00     0.244 C 
HETATM   29  O3  UNL     1     -10.375  48.803 -19.485  1.00  0.00    -0.271 OA
HETATM   30  N2  UNL     1      -9.086  46.979 -18.959  1.00  0.00    -0.346 N 
HETATM   31  H16 UNL     1      -8.161  46.725 -18.618  1.00  0.00     0.163 HD
BRANCH  30  32
HETATM   32  C15 UNL     1     -10.073  45.944 -19.276  1.00  0.00     0.180 C 
BRANCH  32  33
HETATM   33  C16 UNL     1     -11.501  46.486 -18.998  1.00  0.00     0.241 C 
HETATM   34  O4  UNL     1     -12.349  46.631 -19.875  1.00  0.00    -0.271 OA
HETATM   35  N3  UNL     1     -11.729  46.890 -17.692  1.00  0.00    -0.349 N 
HETATM   36  H18 UNL     1     -11.102  46.474 -17.002  1.00  0.00     0.163 HD
BRANCH  35  37
HETATM   37  C17 UNL     1     -13.087  47.167 -17.247  1.00  0.00     0.232 C 
BRANCH  37  38
HETATM   38  C18 UNL     1     -13.648  46.051 -16.379  1.00  0.00     0.158 C 
HETATM   39  O5  UNL     1     -13.670  44.864 -16.666  1.00  0.00    -0.649 OA
BRANCH  38  40
HETATM   40  O6  UNL     1     -14.236  46.493 -15.242  1.00  0.00    -0.775 OA
HETATM   41  H21 UNL     1     -14.508  45.671 -14.781  1.00  0.00     0.167 HD
ENDBRANCH  38  40
ENDBRANCH  37  38
ENDBRANCH  35  37
ENDBRANCH  32  33
BRANCH  32  42
HETATM   42  C19 UNL     1      -9.934  45.478 -20.748  1.00  0.00     0.009 C 
HETATM   43  C20 UNL     1     -10.684  46.430 -21.691  1.00  0.00     0.012 C 
HETATM   44  C21 UNL     1     -10.481  44.061 -20.975  1.00  0.00     0.012 C 
ENDBRANCH  32  42
ENDBRANCH  30  32
ENDBRANCH  27  28
ENDBRANCH  26  27
ENDBRANCH  13  26
TORSDOF 10
ENDMDL
MODEL 4
REMARK minimizedAffinity -8.22483444
REMARK CNNscore 0.352152348
REMARK CNNaffinity 6.47495413
REMARK  10 active torsions:
REMARK  status: ('A' for Active; 'I' for Inactive)
REMARK    1  A    between atoms: C3_3  and  O1_4 
REMARK    2  A    between atoms: N1_14  and  O2_16 
REMARK    3  A    between atoms: O2_16  and  C13_17 
REMARK    4  A    between atoms: C13_17  and  C14_18 
REMARK       I    between atoms: C14_18  and  N2_20 
REMARK    5  A    between atoms: N2_20  and  C15_21 
REMARK    6  A    between atoms: C15_21  and  C16_22 
REMARK    7  A    between atoms: C15_21  and  C19_29 
REMARK       I    between atoms: C16_22  and  N3_24 
REMARK    8  A    between atoms: N3_24  and  C17_25 
REMARK    9  A    between atoms: C17_25  and  C18_26 
REMARK   10  A    between atoms: C18_26  and  O6_28 
ROOT
HETATM    1  C1  UNL     1       0.771  51.699 -26.416  1.00  0.00     0.015 C 
HETATM    2  C2  UNL     1      -0.424  51.698 -26.330  1.00  0.00    -0.078 C 
HETATM    3  C3  UNL     1      -1.903  51.702 -26.269  1.00  0.00     0.128 C 
HETATM    4  C4  UNL     1      -2.443  50.402 -26.892  1.00  0.00     0.052 C 
HETATM    5  C5  UNL     1      -2.603  49.408 -25.739  1.00  0.00     0.010 C 
HETATM    6  C6  UNL     1      -2.295  50.183 -24.435  1.00  0.00     0.002 C 
HETATM    7  C7  UNL     1      -3.089  49.733 -23.185  1.00  0.00    -0.004 C 
HETATM    8  C8  UNL     1      -2.919  48.224 -22.934  1.00  0.00     0.010 C 
HETATM    9  C9  UNL     1      -3.665  47.777 -21.684  1.00  0.00     0.035 C 
HETATM   10  C10 UNL     1      -5.125  48.161 -21.764  1.00  0.00    -0.069 C 
HETATM   11  C11 UNL     1      -6.077  47.215 -21.659  1.00  0.00     0.030 C 
HETATM   12  C12 UNL     1      -7.521  47.578 -21.676  1.00  0.00     0.032 C 
HETATM   13  N1  UNL     1      -8.393  46.636 -21.886  1.00  0.00    -0.271 N 
ATOM     14  H1  UNL     1      -8.154  45.653 -22.018  1.00  0.00     0.194 HD
HETATM   15  C22 UNL     1      -7.850  49.036 -21.427  1.00  0.00     0.060 C 
HETATM   16  C23 UNL     1      -6.927  49.873 -22.303  1.00  0.00     0.020 C 
HETATM   17  C24 UNL     1      -5.415  49.648 -21.999  1.00  0.00    -0.016 C 
HETATM   18  C25 UNL     1      -5.063  50.431 -20.718  1.00  0.00     0.020 C 
HETATM   19  C26 UNL     1      -4.587  50.132 -23.249  1.00  0.00     0.002 C 
HETATM   20  C27 UNL     1      -4.721  51.643 -23.521  1.00  0.00     0.007 C 
HETATM   21  C28 UNL     1      -3.993  52.055 -24.802  1.00  0.00     0.014 C 
HETATM   22  C29 UNL     1      -2.483  51.673 -24.819  1.00  0.00     0.003 C 
HETATM   23  C30 UNL     1      -1.732  52.620 -23.862  1.00  0.00     0.020 C 
ENDROOT
BRANCH   3  24
HETATM   24  O1  UNL     1      -2.340  52.849 -26.988  1.00  0.00    -0.377 OA
HETATM   25  H2  UNL     1      -3.270  52.724 -27.243  1.00  0.00     0.211 HD
ENDBRANCH   3  24
BRANCH  13  26
HETATM   26  O2  UNL     1      -9.703  47.139 -21.908  1.00  0.00    -0.271 OA
BRANCH  26  27
HETATM   27  C13 UNL     1     -10.311  46.976 -20.632  1.00  0.00     0.303 C 
BRANCH  27  28
HETATM   28  C14 UNL     1     -11.618  46.190 -20.675  1.00  0.00     0.244 C 
HETATM   29  O3  UNL     1     -11.676  44.995 -20.407  1.00  0.00    -0.271 OA
HETATM   30  N2  UNL     1     -12.713  46.952 -21.006  1.00  0.00    -0.346 N 
HETATM   31  H16 UNL     1     -12.525  47.938 -21.172  1.00  0.00     0.163 HD
BRANCH  30  32
HETATM   32  C15 UNL     1     -14.068  46.416 -21.157  1.00  0.00     0.180 C 
BRANCH  32  33
HETATM   33  C16 UNL     1     -14.858  46.619 -19.837  1.00  0.00     0.241 C 
HETATM   34  O4  UNL     1     -15.195  45.693 -19.104  1.00  0.00    -0.271 OA
HETATM   35  N3  UNL     1     -15.247  47.925 -19.584  1.00  0.00    -0.349 N 
HETATM   36  H18 UNL     1     -14.694  48.635 -20.065  1.00  0.00     0.163 HD
BRANCH  35  37
HETATM   37  C17 UNL     1     -15.758  48.286 -18.269  1.00  0.00     0.232 C 
BRANCH  37  38
HETATM   38  C18 UNL     1     -15.481  49.741 -17.923  1.00  0.00     0.158 C 
HETATM   39  O5  UNL     1     -15.932  50.346 -16.962  1.00  0.00    -0.649 OA
BRANCH  38  40
HETATM   40  O6  UNL     1     -14.732  50.384 -18.850  1.00  0.00    -0.775 OA
HETATM   41  H21 UNL     1     -14.609  51.281 -18.473  1.00  0.00     0.167 HD
ENDBRANCH  38  40
ENDBRANCH  37  38
ENDBRANCH  35  37
ENDBRANCH  32  33
BRANCH  32  42
HETATM   42  C19 UNL     1     -14.799  47.086 -22.349  1.00  0.00     0.009 C 
HETATM   43  C20 UNL     1     -16.174  46.438 -22.575  1.00  0.00     0.012 C 
HETATM   44  C21 UNL     1     -14.009  46.983 -23.663  1.00  0.00     0.012 C 
ENDBRANCH  32  42
ENDBRANCH  30  32
ENDBRANCH  27  28
ENDBRANCH  26  27
ENDBRANCH  13  26
TORSDOF 10
ENDMDL
MODEL 5
REMARK minimizedAffinity -7.01157665
REMARK CNNscore 0.336147457
REMARK CNNaffinity 5.62813568
REMARK  10 active torsions:
REMARK  status: ('A' for Active; 'I' for Inactive)
REMARK    1  A    between atoms: C3_3  and  O1_4 
REMARK    2  A    between atoms: N1_14  and  O2_16 
REMARK    3  A    between atoms: O2_16  and  C13_17 
REMARK    4  A    between atoms: C13_17  and  C14_18 
REMARK       I    between atoms: C14_18  and  N2_20 
REMARK    5  A    between atoms: N2_20  and  C15_21 
REMARK    6  A    between atoms: C15_21  and  C16_22 
REMARK    7  A    between atoms: C15_21  and  C19_29 
REMARK       I    between atoms: C16_22  and  N3_24 
REMARK    8  A    between atoms: N3_24  and  C17_25 
REMARK    9  A    between atoms: C17_25  and  C18_26 
REMARK   10  A    between atoms: C18_26  and  O6_28 
ROOT
HETATM    1  C1  UNL     1      -6.657  47.193 -30.323  1.00  0.00     0.015 C 
HETATM    2  C2  UNL     1      -7.691  47.599 -29.873  1.00  0.00    -0.078 C 
HETATM    3  C3  UNL     1      -8.962  48.138 -29.341  1.00  0.00     0.128 C 
HETATM    4  C4  UNL     1     -10.017  48.158 -30.463  1.00  0.00     0.052 C 
HETATM    5  C5  UNL     1     -10.775  46.832 -30.362  1.00  0.00     0.010 C 
HETATM    6  C6  UNL     1     -10.255  46.116 -29.092  1.00  0.00     0.002 C 
HETATM    7  C7  UNL     1     -11.292  45.246 -28.342  1.00  0.00    -0.004 C 
HETATM    8  C8  UNL     1     -11.933  44.212 -29.284  1.00  0.00     0.010 C 
HETATM    9  C9  UNL     1     -12.928  43.324 -28.548  1.00  0.00     0.035 C 
HETATM   10  C10 UNL     1     -13.978  44.158 -27.850  1.00  0.00    -0.069 C 
HETATM   11  C11 UNL     1     -15.281  43.968 -28.124  1.00  0.00     0.030 C 
HETATM   12  C12 UNL     1     -16.334  44.738 -27.404  1.00  0.00     0.032 C 
HETATM   13  N1  UNL     1     -17.535  44.757 -27.904  1.00  0.00    -0.271 N 
ATOM     14  H1  UNL     1     -17.813  44.258 -28.749  1.00  0.00     0.194 HD
HETATM   15  C22 UNL     1     -15.907  45.428 -26.125  1.00  0.00     0.060 C 
HETATM   16  C23 UNL     1     -14.602  46.160 -26.410  1.00  0.00     0.020 C 
HETATM   17  C24 UNL     1     -13.452  45.216 -26.872  1.00  0.00    -0.016 C 
HETATM   18  C25 UNL     1     -12.888  44.504 -25.626  1.00  0.00     0.020 C 
HETATM   19  C26 UNL     1     -12.369  46.091 -27.610  1.00  0.00     0.002 C 
HETATM   20  C27 UNL     1     -11.692  47.127 -26.692  1.00  0.00     0.007 C 
HETATM   21  C28 UNL     1     -10.728  48.027 -27.466  1.00  0.00     0.014 C 
HETATM   22  C29 UNL     1      -9.625  47.248 -28.242  1.00  0.00     0.003 C 
HETATM   23  C30 UNL     1      -8.603  46.710 -27.222  1.00  0.00     0.020 C 
ENDROOT
BRANCH   3  24
HETATM   24  O1  UNL     1      -8.684  49.448 -28.861  1.00  0.00    -0.377 OA
HETATM   25  H2  UNL     1      -9.517  49.945 -28.803  1.00  0.00     0.211 HD
ENDBRANCH   3  24
BRANCH  13  26
HETATM   26  O2  UNL     1     -18.402  45.549 -27.135  1.00  0.00    -0.271 OA
BRANCH  26  27
HETATM   27  C13 UNL     1     -19.374  44.731 -26.493  1.00  0.00     0.303 C 
BRANCH  27  28
HETATM   28  C14 UNL     1     -19.487  44.983 -24.993  1.00  0.00     0.244 C 
HETATM   29  O3  UNL     1     -20.153  45.900 -24.528  1.00  0.00    -0.271 OA
HETATM   30  N2  UNL     1     -18.805  44.069 -24.225  1.00  0.00    -0.346 N 
HETATM   31  H16 UNL     1     -18.320  43.339 -24.741  1.00  0.00     0.163 HD
BRANCH  30  32
HETATM   32  C15 UNL     1     -18.725  44.126 -22.763  1.00  0.00     0.180 C 
BRANCH  32  33
HETATM   33  C16 UNL     1     -18.062  45.461 -22.330  1.00  0.00     0.241 C 
HETATM   34  O4  UNL     1     -18.684  46.388 -21.818  1.00  0.00    -0.271 OA
HETATM   35  N3  UNL     1     -16.719  45.577 -22.652  1.00  0.00    -0.349 N 
HETATM   36  H18 UNL     1     -16.236  44.690 -22.796  1.00  0.00     0.163 HD
BRANCH  35  37
HETATM   37  C17 UNL     1     -15.928  46.656 -22.077  1.00  0.00     0.232 C 
BRANCH  37  38
HETATM   38  C18 UNL     1     -15.480  46.348 -20.656  1.00  0.00     0.158 C 
HETATM   39  O5  UNL     1     -15.432  45.239 -20.146  1.00  0.00    -0.649 OA
BRANCH  38  40
HETATM   40  O6  UNL     1     -15.209  47.453 -19.922  1.00  0.00    -0.775 OA
HETATM   41  H21 UNL     1     -14.903  47.096 -19.061  1.00  0.00     0.167 HD
ENDBRANCH  38  40
ENDBRANCH  37  38
ENDBRANCH  35  37
ENDBRANCH  32  33
BRANCH  32  42
HETATM   42  C19 UNL     1     -20.129  43.972 -22.124  1.00  0.00     0.009 C 
HETATM   43  C20 UNL     1     -20.011  43.541 -20.654  1.00  0.00     0.012 C 
HETATM   44  C21 UNL     1     -21.000  42.936 -22.850  1.00  0.00     0.012 C 
ENDBRANCH  32  42
ENDBRANCH  30  32
ENDBRANCH  27  28
ENDBRANCH  26  27
ENDBRANCH  13  26
TORSDOF 10
ENDMDL
MODEL 6
REMARK minimizedAffinity -8.04893589
REMARK CNNscore 0.311882049
REMARK CNNaffinity 6.26611567
REMARK  10 active torsions:
REMARK  status: ('A' for Active; 'I' for Inactive)
REMARK    1  A    between atoms: C3_3  and  O1_4 
REMARK    2  A    between atoms: N1_14  and  O2_16 
REMARK    3  A    between atoms: O2_16  and  C13_17 
REMARK    4  A    between atoms: C13_17  and  C14_18 
REMARK       I    between atoms: C14_18  and  N2_20 
REMARK    5  A    between atoms: N2_20  and  C15_21 
REMARK    6  A    between atoms: C15_21  and  C16_22 
REMARK    7  A    between atoms: C15_21  and  C19_29 
REMARK       I    between atoms: C16_22  and  N3_24 
REMARK    8  A    between atoms: N3_24  and  C17_25 
REMARK    9  A    between atoms: C17_25  and  C18_26 
REMARK   10  A    between atoms: C18_26  and  O6_28 
ROOT
HETATM    1  C1  UNL     1       0.645  51.489 -28.051  1.00  0.00     0.015 C 
HETATM    2  C2  UNL     1      -0.472  51.657 -27.651  1.00  0.00    -0.078 C 
HETATM    3  C3  UNL     1      -1.864  51.872 -27.199  1.00  0.00     0.128 C 
HETATM    4  C4  UNL     1      -2.739  50.692 -27.661  1.00  0.00     0.052 C 
HETATM    5  C5  UNL     1      -2.740  49.682 -26.511  1.00  0.00     0.010 C 
HETATM    6  C6  UNL     1      -1.988  50.346 -25.333  1.00  0.00     0.002 C 
HETATM    7  C7  UNL     1      -2.484  49.961 -23.919  1.00  0.00    -0.004 C 
HETATM    8  C8  UNL     1      -2.484  48.434 -23.728  1.00  0.00     0.010 C 
HETATM    9  C9  UNL     1      -2.936  48.044 -22.327  1.00  0.00     0.035 C 
HETATM   10  C10 UNL     1      -4.290  48.638 -22.014  1.00  0.00    -0.069 C 
HETATM   11  C11 UNL     1      -5.313  47.836 -21.665  1.00  0.00     0.030 C 
HETATM   12  C12 UNL     1      -6.639  48.405 -21.296  1.00  0.00     0.032 C 
HETATM   13  N1  UNL     1      -7.667  47.608 -21.270  1.00  0.00    -0.271 N 
ATOM     14  H1  UNL     1      -7.622  46.608 -21.465  1.00  0.00     0.194 HD
HETATM   15  C22 UNL     1      -6.668  49.882 -20.962  1.00  0.00     0.060 C 
HETATM   16  C23 UNL     1      -5.890  50.615 -22.048  1.00  0.00     0.020 C 
HETATM   17  C24 UNL     1      -4.404  50.161 -22.158  1.00  0.00    -0.016 C 
HETATM   18  C25 UNL     1      -3.614  50.827 -21.013  1.00  0.00     0.020 C 
HETATM   19  C26 UNL     1      -3.869  50.574 -23.581  1.00  0.00     0.002 C 
HETATM   20  C27 UNL     1      -3.840  52.100 -23.801  1.00  0.00     0.007 C 
HETATM   21  C28 UNL     1      -3.419  52.458 -25.227  1.00  0.00     0.014 C 
HETATM   22  C29 UNL     1      -2.043  51.863 -25.647  1.00  0.00     0.003 C 
HETATM   23  C30 UNL     1      -0.933  52.648 -24.920  1.00  0.00     0.020 C 
ENDROOT
BRANCH   3  24
HETATM   24  O1  UNL     1      -2.297  53.101 -27.771  1.00  0.00    -0.377 OA
HETATM   25  H2  UNL     1      -3.268  53.123 -27.770  1.00  0.00     0.211 HD
ENDBRANCH   3  24
BRANCH  13  26
HETATM   26  O2  UNL     1      -8.846  48.295 -20.941  1.00  0.00    -0.271 OA
BRANCH  26  27
HETATM   27  C13 UNL     1      -9.470  47.687 -19.816  1.00  0.00     0.303 C 
BRANCH  27  28
HETATM   28  C14 UNL     1     -10.789  46.998 -20.150  1.00  0.00     0.244 C 
HETATM   29  O3  UNL     1     -10.973  46.402 -21.206  1.00  0.00    -0.271 OA
HETATM   30  N2  UNL     1     -11.728  47.082 -19.149  1.00  0.00    -0.346 N 
HETATM   31  H16 UNL     1     -11.430  47.579 -18.312  1.00  0.00     0.163 HD
BRANCH  30  32
HETATM   32  C15 UNL     1     -13.085  46.540 -19.251  1.00  0.00     0.180 C 
BRANCH  32  33
HETATM   33  C16 UNL     1     -13.340  45.551 -18.081  1.00  0.00     0.241 C 
HETATM   34  O4  UNL     1     -14.291  44.776 -18.049  1.00  0.00    -0.271 OA
HETATM   35  N3  UNL     1     -12.462  45.670 -17.015  1.00  0.00    -0.349 N 
HETATM   36  H18 UNL     1     -11.569  46.108 -17.245  1.00  0.00     0.163 HD
BRANCH  35  37
HETATM   37  C17 UNL     1     -12.431  44.641 -15.985  1.00  0.00     0.232 C 
BRANCH  37  38
HETATM   38  C18 UNL     1     -13.495  44.861 -14.921  1.00  0.00     0.158 C 
HETATM   39  O5  UNL     1     -13.422  45.647 -13.988  1.00  0.00    -0.649 OA
BRANCH  38  40
HETATM   40  O6  UNL     1     -14.549  44.017 -15.026  1.00  0.00    -0.775 OA
HETATM   41  H21 UNL     1     -15.154  44.304 -14.308  1.00  0.00     0.167 HD
ENDBRANCH  38  40
ENDBRANCH  37  38
ENDBRANCH  35  37
ENDBRANCH  32  33
BRANCH  32  42
HETATM   42  C19 UNL     1     -14.138  47.678 -19.253  1.00  0.00     0.009 C 
HETATM   43  C20 UNL     1     -13.596  48.914 -19.988  1.00  0.00     0.012 C 
HETATM   44  C21 UNL     1     -14.545  48.112 -17.838  1.00  0.00     0.012 C 
ENDBRANCH  32  42
ENDBRANCH  30  32
ENDBRANCH  27  28
ENDBRANCH  26  27
ENDBRANCH  13  26
TORSDOF 10
ENDMDL
MODEL 7
REMARK minimizedAffinity -8.61875725
REMARK CNNscore 0.286064863
REMARK CNNaffinity 6.0985198
REMARK  10 active torsions:
REMARK  status: ('A' for Active; 'I' for Inactive)
REMARK    1  A    between atoms: C3_3  and  O1_4 
REMARK    2  A    between atoms: N1_14  and  O2_16 
REMARK    3  A    between atoms: O2_16  and  C13_17 
REMARK    4  A    between atoms: C13_17  and  C14_18 
REMARK       I    between atoms: C14_18  and  N2_20 
REMARK    5  A    between atoms: N2_20  and  C15_21 
REMARK    6  A    between atoms: C15_21  and  C16_22 
REMARK    7  A    between atoms: C15_21  and  C19_29 
REMARK       I    between atoms: C16_22  and  N3_24 
REMARK    8  A    between atoms: N3_24  and  C17_25 
REMARK    9  A    between atoms: C17_25  and  C18_26 
REMARK   10  A    between atoms: C18_26  and  O6_28 
ROOT
HETATM    1  C1  UNL     1       1.522  51.790 -25.932  1.00  0.00     0.015 C 
HETATM    2  C2  UNL     1       0.333  51.852 -26.069  1.00  0.00    -0.078 C 
HETATM    3  C3  UNL     1      -1.129  51.937 -26.281  1.00  0.00     0.128 C 
HETATM    4  C4  UNL     1      -1.597  50.721 -27.102  1.00  0.00     0.052 C 
HETATM    5  C5  UNL     1      -2.014  49.653 -26.087  1.00  0.00     0.010 C 
HETATM    6  C6  UNL     1      -1.925  50.308 -24.687  1.00  0.00     0.002 C 
HETATM    7  C7  UNL     1      -2.958  49.812 -23.648  1.00  0.00    -0.004 C 
HETATM    8  C8  UNL     1      -2.902  48.281 -23.499  1.00  0.00     0.010 C 
HETATM    9  C9  UNL     1      -3.890  47.784 -22.451  1.00  0.00     0.035 C 
HETATM   10  C10 UNL     1      -5.290  48.256 -22.766  1.00  0.00    -0.069 C 
HETATM   11  C11 UNL     1      -6.284  47.362 -22.920  1.00  0.00     0.030 C 
HETATM   12  C12 UNL     1      -7.682  47.808 -23.171  1.00  0.00     0.032 C 
HETATM   13  N1  UNL     1      -8.538  46.936 -23.618  1.00  0.00    -0.271 N 
ATOM     14  H1  UNL     1      -8.321  45.954 -23.787  1.00  0.00     0.194 HD
HETATM   15  C22 UNL     1      -7.991  49.259 -22.864  1.00  0.00     0.060 C 
HETATM   16  C23 UNL     1      -6.884  50.105 -23.480  1.00  0.00     0.020 C 
HETATM   17  C24 UNL     1      -5.467  49.771 -22.923  1.00  0.00    -0.016 C 
HETATM   18  C25 UNL     1      -5.330  50.433 -21.537  1.00  0.00     0.020 C 
HETATM   19  C26 UNL     1      -4.399  50.300 -23.953  1.00  0.00     0.002 C 
HETATM   20  C27 UNL     1      -4.415  51.832 -24.115  1.00  0.00     0.007 C 
HETATM   21  C28 UNL     1      -3.441  52.297 -25.200  1.00  0.00     0.014 C 
HETATM   22  C29 UNL     1      -1.973  51.831 -24.971  1.00  0.00     0.003 C 
HETATM   23  C30 UNL     1      -1.376  52.658 -23.815  1.00  0.00     0.020 C 
ENDROOT
BRANCH   3  24
HETATM   24  O1  UNL     1      -1.374  53.158 -26.968  1.00  0.00    -0.377 OA
HETATM   25  H2  UNL     1      -2.243  53.107 -27.399  1.00  0.00     0.211 HD
ENDBRANCH   3  24
BRANCH  13  26
HETATM   26  O2  UNL     1      -9.798  47.514 -23.838  1.00  0.00    -0.271 OA
BRANCH  26  27
HETATM   27  C13 UNL     1     -10.801  46.504 -23.874  1.00  0.00     0.303 C 
BRANCH  27  28
HETATM   28  C14 UNL     1     -12.041  46.905 -24.666  1.00  0.00     0.244 C 
HETATM   29  O3  UNL     1     -11.995  47.683 -25.613  1.00  0.00    -0.271 OA
HETATM   30  N2  UNL     1     -13.194  46.290 -24.240  1.00  0.00    -0.346 N 
HETATM   31  H16 UNL     1     -13.082  45.642 -23.464  1.00  0.00     0.163 HD
BRANCH  30  32
HETATM   32  C15 UNL     1     -14.519  46.547 -24.811  1.00  0.00     0.180 C 
BRANCH  32  33
HETATM   33  C16 UNL     1     -15.183  45.201 -25.209  1.00  0.00     0.241 C 
HETATM   34  O4  UNL     1     -14.965  44.143 -24.626  1.00  0.00    -0.271 OA
HETATM   35  N3  UNL     1     -15.978  45.256 -26.344  1.00  0.00    -0.349 N 
HETATM   36  H18 UNL     1     -16.326  46.187 -26.576  1.00  0.00     0.163 HD
BRANCH  35  37
HETATM   37  C17 UNL     1     -16.854  44.138 -26.668  1.00  0.00     0.232 C 
BRANCH  37  38
HETATM   38  C18 UNL     1     -18.034  44.563 -27.528  1.00  0.00     0.158 C 
HETATM   39  O5  UNL     1     -19.070  45.068 -27.122  1.00  0.00    -0.649 OA
BRANCH  38  40
HETATM   40  O6  UNL     1     -17.893  44.244 -28.836  1.00  0.00    -0.775 OA
HETATM   41  H21 UNL     1     -18.700  44.610 -29.257  1.00  0.00     0.167 HD
ENDBRANCH  38  40
ENDBRANCH  37  38
ENDBRANCH  35  37
ENDBRANCH  32  33
BRANCH  32  42
HETATM   42  C19 UNL     1     -15.410  47.331 -23.814  1.00  0.00     0.009 C 
HETATM   43  C20 UNL     1     -14.794  47.312 -22.407  1.00  0.00     0.012 C 
HETATM   44  C21 UNL     1     -16.832  46.760 -23.713  1.00  0.00     0.012 C 
ENDBRANCH  32  42
ENDBRANCH  30  32
ENDBRANCH  27  28
ENDBRANCH  26  27
ENDBRANCH  13  26
TORSDOF 10
ENDMDL
MODEL 8
REMARK minimizedAffinity -8.23447704
REMARK CNNscore 0.271082193
REMARK CNNaffinity 6.91669607
REMARK  10 active torsions:
REMARK  status: ('A' for Active; 'I' for Inactive)
REMARK    1  A    between atoms: C3_3  and  O1_4 
REMARK    2  A    between atoms: N1_14  and  O2_16 
REMARK    3  A    between atoms: O2_16  and  C13_17 
REMARK    4  A    between atoms: C13_17  and  C14_18 
REMARK       I    between atoms: C14_18  and  N2_20 
REMARK    5  A    between atoms: N2_20  and  C15_21 
REMARK    6  A    between atoms: C15_21  and  C16_22 
REMARK    7  A    between atoms: C15_21  and  C19_29 
REMARK       I    between atoms: C16_22  and  N3_24 
REMARK    8  A    between atoms: N3_24  and  C17_25 
REMARK    9  A    between atoms: C17_25  and  C18_26 
REMARK   10  A    between atoms: C18_26  and  O6_28 
ROOT
HETATM    1  C1  UNL     1      -3.241  50.254 -28.109  1.00  0.00     0.015 C 
HETATM    2  C2  UNL     1      -3.144  50.928 -27.123  1.00  0.00    -0.078 C 
HETATM    3  C3  UNL     1      -3.054  51.788 -25.922  1.00  0.00     0.128 C 
HETATM    4  C4  UNL     1      -4.370  51.698 -25.129  1.00  0.00     0.052 C 
HETATM    5  C5  UNL     1      -4.172  50.587 -24.095  1.00  0.00     0.010 C 
HETATM    6  C6  UNL     1      -2.694  50.140 -24.196  1.00  0.00     0.002 C 
HETATM    7  C7  UNL     1      -2.043  49.675 -22.872  1.00  0.00    -0.004 C 
HETATM    8  C8  UNL     1      -2.869  48.557 -22.210  1.00  0.00     0.010 C 
HETATM    9  C9  UNL     1      -2.217  48.065 -20.925  1.00  0.00     0.035 C 
HETATM   10  C10 UNL     1      -1.979  49.212 -19.970  1.00  0.00    -0.069 C 
HETATM   11  C11 UNL     1      -2.506  49.179 -18.732  1.00  0.00     0.030 C 
HETATM   12  C12 UNL     1      -2.235  50.270 -17.756  1.00  0.00     0.032 C 
HETATM   13  N1  UNL     1      -2.996  50.362 -16.705  1.00  0.00    -0.271 N 
ATOM     14  H1  UNL     1      -3.757  49.719 -16.490  1.00  0.00     0.194 HD
HETATM   15  C22 UNL     1      -1.067  51.181 -18.073  1.00  0.00     0.060 C 
HETATM   16  C23 UNL     1      -1.184  51.589 -19.536  1.00  0.00     0.020 C 
HETATM   17  C24 UNL     1      -1.152  50.381 -20.519  1.00  0.00    -0.016 C 
HETATM   18  C25 UNL     1       0.314  49.924 -20.668  1.00  0.00     0.020 C 
HETATM   19  C26 UNL     1      -1.782  50.845 -21.886  1.00  0.00     0.002 C 
HETATM   20  C27 UNL     1      -0.970  51.953 -22.586  1.00  0.00     0.007 C 
HETATM   21  C28 UNL     1      -1.668  52.453 -23.852  1.00  0.00     0.014 C 
HETATM   22  C29 UNL     1      -1.979  51.330 -24.885  1.00  0.00     0.003 C 
HETATM   23  C30 UNL     1      -0.656  50.906 -25.554  1.00  0.00     0.020 C 
ENDROOT
BRANCH   3  24
HETATM   24  O1  UNL     1      -2.810  53.112 -26.383  1.00  0.00    -0.377 OA
HETATM   25  H2  UNL     1      -3.056  53.739 -25.682  1.00  0.00     0.211 HD
ENDBRANCH   3  24
BRANCH  13  26
HETATM   26  O2  UNL     1      -2.639  51.457 -15.902  1.00  0.00    -0.271 OA
BRANCH  26  27
HETATM   27  C13 UNL     1      -3.328  51.398 -14.658  1.00  0.00     0.303 C 
BRANCH  27  28
HETATM   28  C14 UNL     1      -2.409  51.173 -13.462  1.00  0.00     0.244 C 
HETATM   29  O3  UNL     1      -1.223  50.889 -13.587  1.00  0.00    -0.271 OA
HETATM   30  N2  UNL     1      -3.026  51.354 -12.247  1.00  0.00    -0.346 N 
HETATM   31  H16 UNL     1      -4.006  51.621 -12.290  1.00  0.00     0.163 HD
BRANCH  30  32
HETATM   32  C15 UNL     1      -2.365  51.151 -10.954  1.00  0.00     0.180 C 
BRANCH  32  33
HETATM   33  C16 UNL     1      -2.132  52.524 -10.268  1.00  0.00     0.241 C 
HETATM   34  O4  UNL     1      -2.313  52.717  -9.069  1.00  0.00    -0.271 OA
HETATM   35  N3  UNL     1      -1.793  53.556 -11.129  1.00  0.00    -0.349 N 
HETATM   36  H18 UNL     1      -1.390  53.256 -12.017  1.00  0.00     0.163 HD
BRANCH  35  37
HETATM   37  C17 UNL     1      -1.299  54.815 -10.588  1.00  0.00     0.232 C 
BRANCH  37  38
HETATM   38  C18 UNL     1       0.193  54.770 -10.296  1.00  0.00     0.158 C 
HETATM   39  O5  UNL     1       0.724  55.067  -9.237  1.00  0.00    -0.649 OA
BRANCH  38  40
HETATM   40  O6  UNL     1       0.946  54.449 -11.375  1.00  0.00    -0.775 OA
HETATM   41  H21 UNL     1       1.862  54.423 -11.025  1.00  0.00     0.167 HD
ENDBRANCH  38  40
ENDBRANCH  37  38
ENDBRANCH  35  37
ENDBRANCH  32  33
BRANCH  32  42
HETATM   42  C19 UNL     1      -3.200  50.212 -10.046  1.00  0.00     0.009 C 
HETATM   43  C20 UNL     1      -4.650  50.711  -9.939  1.00  0.00     0.012 C 
HETATM   44  C21 UNL     1      -2.632  50.104  -8.623  1.00  0.00     0.012 C 
ENDBRANCH  32  42
ENDBRANCH  30  32
ENDBRANCH  27  28
ENDBRANCH  26  27
ENDBRANCH  13  26
TORSDOF 10
ENDMDL
MODEL 9
REMARK minimizedAffinity -7.67806816
REMARK CNNscore 0.251359195
REMARK CNNaffinity 6.04891062
REMARK  10 active torsions:
REMARK  status: ('A' for Active; 'I' for Inactive)
REMARK    1  A    between atoms: C3_3  and  O1_4 
REMARK    2  A    between atoms: N1_14  and  O2_16 
REMARK    3  A    between atoms: O2_16  and  C13_17 
REMARK    4  A    between atoms: C13_17  and  C14_18 
REMARK       I    between atoms: C14_18  and  N2_20 
REMARK    5  A    between atoms: N2_20  and  C15_21 
REMARK    6  A    between atoms: C15_21  and  C16_22 
REMARK    7  A    between atoms: C15_21  and  C19_29 
REMARK       I    between atoms: C16_22  and  N3_24 
REMARK    8  A    between atoms: N3_24  and  C17_25 
REMARK    9  A    between atoms: C17_25  and  C18_26 
REMARK   10  A    between atoms: C18_26  and  O6_28 
ROOT
HETATM    1  C1  UNL     1       1.379  51.855 -26.145  1.00  0.00     0.015 C 
HETATM    2  C2  UNL     1       0.184  51.880 -26.234  1.00  0.00    -0.078 C 
HETATM    3  C3  UNL     1      -1.287  51.919 -26.386  1.00  0.00     0.128 C 
HETATM    4  C4  UNL     1      -1.754  50.670 -27.157  1.00  0.00     0.052 C 
HETATM    5  C5  UNL     1      -2.097  49.617 -26.100  1.00  0.00     0.010 C 
HETATM    6  C6  UNL     1      -1.970  50.310 -24.722  1.00  0.00     0.002 C 
HETATM    7  C7  UNL     1      -2.944  49.811 -23.629  1.00  0.00    -0.004 C 
HETATM    8  C8  UNL     1      -2.839  48.286 -23.445  1.00  0.00     0.010 C 
HETATM    9  C9  UNL     1      -3.768  47.789 -22.345  1.00  0.00     0.035 C 
HETATM   10  C10 UNL     1      -5.193  48.214 -22.613  1.00  0.00    -0.069 C 
HETATM   11  C11 UNL     1      -6.166  47.288 -22.704  1.00  0.00     0.030 C 
HETATM   12  C12 UNL     1      -7.586  47.689 -22.907  1.00  0.00     0.032 C 
HETATM   13  N1  UNL     1      -8.434  46.783 -23.297  1.00  0.00    -0.271 N 
ATOM     14  H1  UNL     1      -8.195  45.803 -23.451  1.00  0.00     0.194 HD
HETATM   15  C22 UNL     1      -7.923  49.138 -22.623  1.00  0.00     0.060 C 
HETATM   16  C23 UNL     1      -6.867  50.000 -23.304  1.00  0.00     0.020 C 
HETATM   17  C24 UNL     1      -5.420  49.719 -22.799  1.00  0.00    -0.016 C 
HETATM   18  C25 UNL     1      -5.245  50.419 -21.436  1.00  0.00     0.020 C 
HETATM   19  C26 UNL     1      -4.411  50.251 -23.885  1.00  0.00     0.002 C 
HETATM   20  C27 UNL     1      -4.477  51.778 -24.083  1.00  0.00     0.007 C 
HETATM   21  C28 UNL     1      -3.563  52.242 -25.218  1.00  0.00     0.014 C 
HETATM   22  C29 UNL     1      -2.074  51.823 -25.040  1.00  0.00     0.003 C 
HETATM   23  C30 UNL     1      -1.454  52.695 -23.930  1.00  0.00     0.020 C 
ENDROOT
BRANCH   3  24
HETATM   24  O1  UNL     1      -1.595  53.115 -27.092  1.00  0.00    -0.377 OA
HETATM   25  H2  UNL     1      -2.480  53.029 -27.485  1.00  0.00     0.211 HD
ENDBRANCH   3  24
BRANCH  13  26
HETATM   26  O2  UNL     1      -9.718  47.320 -23.478  1.00  0.00    -0.271 OA
BRANCH  26  27
HETATM   27  C13 UNL     1     -10.670  46.273 -23.628  1.00  0.00     0.303 C 
BRANCH  27  28
HETATM   28  C14 UNL     1     -10.991  45.944 -25.082  1.00  0.00     0.244 C 
HETATM   29  O3  UNL     1     -10.516  46.576 -26.020  1.00  0.00    -0.271 OA
HETATM   30  N2  UNL     1     -11.826  44.863 -25.236  1.00  0.00    -0.346 N 
HETATM   31  H16 UNL     1     -12.119  44.412 -24.372  1.00  0.00     0.163 HD
BRANCH  30  32
HETATM   32  C15 UNL     1     -12.314  44.383 -26.531  1.00  0.00     0.180 C 
BRANCH  32  33
HETATM   33  C16 UNL     1     -13.545  45.223 -26.967  1.00  0.00     0.241 C 
HETATM   34  O4  UNL     1     -13.483  46.420 -27.233  1.00  0.00    -0.271 OA
HETATM   35  N3  UNL     1     -14.753  44.544 -26.944  1.00  0.00    -0.349 N 
HETATM   36  H18 UNL     1     -14.672  43.528 -27.000  1.00  0.00     0.163 HD
BRANCH  35  37
HETATM   37  C17 UNL     1     -15.926  45.134 -27.572  1.00  0.00     0.232 C 
BRANCH  37  38
HETATM   38  C18 UNL     1     -17.192  44.901 -26.762  1.00  0.00     0.158 C 
HETATM   39  O5  UNL     1     -18.193  45.601 -26.780  1.00  0.00    -0.649 OA
BRANCH  38  40
HETATM   40  O6  UNL     1     -17.100  43.858 -25.902  1.00  0.00    -0.775 OA
HETATM   41  H21 UNL     1     -17.988  43.813 -25.490  1.00  0.00     0.167 HD
ENDBRANCH  38  40
ENDBRANCH  37  38
ENDBRANCH  35  37
ENDBRANCH  32  33
BRANCH  32  42
HETATM   42  C19 UNL     1     -11.195  44.442 -27.602  1.00  0.00     0.009 C 
HETATM   43  C20 UNL     1     -11.786  44.296 -29.012  1.00  0.00     0.012 C 
HETATM   44  C21 UNL     1     -10.139  43.341 -27.418  1.00  0.00     0.012 C 
ENDBRANCH  32  42
ENDBRANCH  30  32
ENDBRANCH  27  28
ENDBRANCH  26  27
ENDBRANCH  13  26
TORSDOF 10
ENDMDL
