MODEL 1
REMARK minimizedAffinity -7.73964453
REMARK CNNscore 0.694298089
REMARK CNNaffinity 7.27762556
REMARK  21 active torsions:
REMARK  status: ('A' for Active; 'I' for Inactive)
REMARK    1  A    between atoms: C2_2  and  C18_25 
REMARK    2  A    between atoms: C3_3  and  C4_4 
REMARK    3  A    between atoms: C4_4  and  O2_6 
REMARK    4  A    between atoms: O2_6  and  C5_7 
REMARK    5  A    between atoms: C5_7  and  C6_8 
REMARK    6  A    between atoms: C6_8  and  C7_9 
REMARK    7  A    between atoms: C7_9  and  C8_10 
REMARK    8  A    between atoms: C8_10  and  C9_11 
REMARK    9  A    between atoms: C9_11  and  C10_12 
REMARK   10  A    between atoms: C10_12  and  C11_13 
REMARK   11  A    between atoms: C11_13  and  C12_14 
REMARK       I    between atoms: C12_14  and  N1_16 
REMARK   12  A    between atoms: N1_16  and  C13_17 
REMARK   13  A    between atoms: C17_23  and  O4_24 
REMARK   14  A    between atoms: C18_25  and  C19_26 
REMARK   15  A    between atoms: C21_29  and  C22_30 
REMARK   16  A    between atoms: C22_30  and  C23_31 
REMARK   17  A    between atoms: C24_32  and  C25_33 
REMARK   18  A    between atoms: C25_33  and  C27_35 
REMARK   19  A    between atoms: C27_35  and  O6_37 
REMARK   20  A    between atoms: C29_38  and  O7_39 
REMARK   21  A    between atoms: C30_40  and  O8_41 
ROOT
HETATM    1  C1  UNL     1      -3.662   5.135  14.313  1.00  0.00     0.043 C 
HETATM    2  C2  UNL     1      -2.870   6.049  13.417  1.00  0.00    -0.075 C 
HETATM    3  C3  UNL     1      -2.087   5.629  12.400  1.00  0.00     0.084 C 
ENDROOT
BRANCH   3   4
HETATM    4  C4  UNL     1      -1.802   4.215  12.055  1.00  0.00     0.283 C 
HETATM    5  O1  UNL     1      -0.729   3.649  12.159  1.00  0.00    -0.260 OA
BRANCH   4   6
HETATM    6  O2  UNL     1      -2.953   3.674  11.578  1.00  0.00    -0.318 OA
BRANCH   6   7
HETATM    7  C5  UNL     1      -3.426   2.524  12.297  1.00  0.00     0.179 C 
BRANCH   7   8
HETATM    8  C6  UNL     1      -4.003   1.488  11.334  1.00  0.00     0.027 C 
BRANCH   8   9
HETATM    9  C7  UNL     1      -5.511   1.291  11.500  1.00  0.00     0.002 C 
BRANCH   9  10
HETATM   10  C8  UNL     1      -6.281   2.614  11.516  1.00  0.00     0.000 C 
BRANCH  10  11
HETATM   11  C9  UNL     1      -6.875   2.959  12.885  1.00  0.00     0.000 C 
BRANCH  11  12
HETATM   12  C10 UNL     1      -8.214   3.703  12.859  1.00  0.00     0.009 C 
BRANCH  12  13
HETATM   13  C11 UNL     1      -8.103   5.148  12.373  1.00  0.00     0.103 C 
BRANCH  13  14
HETATM   14  C12 UNL     1      -8.441   6.155  13.458  1.00  0.00     0.218 C 
HETATM   15  O3  UNL     1      -9.514   6.736  13.543  1.00  0.00    -0.274 OA
HETATM   16  N1  UNL     1      -7.396   6.363  14.332  1.00  0.00    -0.349 N 
HETATM   17  H19 UNL     1      -6.681   5.645  14.369  1.00  0.00     0.163 HD
BRANCH  16  18
HETATM   18  C13 UNL     1      -7.571   7.168  15.542  1.00  0.00     0.159 C 
HETATM   19  C14 UNL     1      -8.937   6.956  16.193  1.00  0.00     0.035 C 
HETATM   20  C15 UNL     1      -9.983   7.838  15.529  1.00  0.00     0.022 C 
HETATM   21  C16 UNL     1      -9.582   9.301  15.671  1.00  0.00     0.121 C 
HETATM   22  N2  UNL     1      -8.238   9.581  15.158  1.00  0.00    -0.373 N 
HETATM   23  C17 UNL     1      -7.392   8.620  15.138  1.00  0.00     0.134 C 
ATOM     24  H2  UNL     1      -7.985  10.512  14.829  1.00  0.00     0.161 HD
BRANCH  23  25
HETATM   25  O4  UNL     1      -6.185   8.903  14.624  1.00  0.00    -0.348 OA
HETATM   26  H27 UNL     1      -6.193   9.853  14.409  1.00  0.00     0.219 HD
ENDBRANCH  23  25
ENDBRANCH  16  18
ENDBRANCH  13  14
ENDBRANCH  12  13
ENDBRANCH  11  12
ENDBRANCH  10  11
ENDBRANCH   9  10
ENDBRANCH   8   9
ENDBRANCH   7   8
ENDBRANCH   6   7
ENDBRANCH   4   6
ENDBRANCH   3   4
BRANCH   2  27
HETATM   27  C18 UNL     1      -3.000   7.535  13.712  1.00  0.00     0.068 C 
BRANCH  27  28
HETATM   28  C19 UNL     1      -1.822   8.090  14.540  1.00  0.00     0.156 C 
HETATM   29  O5  UNL     1      -1.212   9.153  13.777  1.00  0.00    -0.382 OA
HETATM   30  C20 UNL     1       0.065   9.517  14.294  1.00  0.00     0.175 C 
HETATM   31  C21 UNL     1       1.089   8.421  13.964  1.00  0.00     0.044 C 
HETATM   32  C29 UNL     1       0.398   7.042  13.909  1.00  0.00     0.155 C 
HETATM   33  C30 UNL     1      -0.803   6.975  14.860  1.00  0.00     0.176 C 
BRANCH  31  34
HETATM   34  C22 UNL     1       1.786   8.748  12.623  1.00  0.00     0.036 C 
BRANCH  34  35
HETATM   35  C23 UNL     1       1.012   8.276  11.423  1.00  0.00    -0.030 C 
HETATM   36  C24 UNL     1       1.570   8.064  10.220  1.00  0.00    -0.024 C 
BRANCH  36  37
HETATM   37  C25 UNL     1       0.869   7.656   8.934  1.00  0.00     0.032 C 
HETATM   38  C26 UNL     1      -0.165   8.677   8.443  1.00  0.00     0.017 C 
BRANCH  37  39
HETATM   39  C27 UNL     1       1.930   7.329   7.849  1.00  0.00     0.121 C 
HETATM   40  C28 UNL     1       2.889   6.210   8.239  1.00  0.00     0.040 C 
BRANCH  39  41
HETATM   41  O6  UNL     1       2.722   8.491   7.561  1.00  0.00    -0.395 OA
HETATM   42  H46 UNL     1       3.185   8.741   8.381  1.00  0.00     0.210 HD
ENDBRANCH  39  41
ENDBRANCH  37  39
ENDBRANCH  36  37
ENDBRANCH  34  35
ENDBRANCH  31  34
BRANCH  32  43
HETATM   43  O7  UNL     1       1.334   6.031  14.319  1.00  0.00    -0.392 OA
HETATM   44  H48 UNL     1       1.202   5.269  13.724  1.00  0.00     0.210 HD
ENDBRANCH  32  43
BRANCH  33  45
HETATM   45  O8  UNL     1      -0.313   7.137  16.207  1.00  0.00    -0.390 OA
HETATM   46  H50 UNL     1       0.488   6.579  16.250  1.00  0.00     0.210 HD
ENDBRANCH  33  45
ENDBRANCH  27  28
ENDBRANCH   2  27
TORSDOF 21
ENDMDL
MODEL 2
REMARK minimizedAffinity -7.87421751
REMARK CNNscore 0.547757804
REMARK CNNaffinity 6.83068609
REMARK  21 active torsions:
REMARK  status: ('A' for Active; 'I' for Inactive)
REMARK    1  A    between atoms: C2_2  and  C18_25 
REMARK    2  A    between atoms: C3_3  and  C4_4 
REMARK    3  A    between atoms: C4_4  and  O2_6 
REMARK    4  A    between atoms: O2_6  and  C5_7 
REMARK    5  A    between atoms: C5_7  and  C6_8 
REMARK    6  A    between atoms: C6_8  and  C7_9 
REMARK    7  A    between atoms: C7_9  and  C8_10 
REMARK    8  A    between atoms: C8_10  and  C9_11 
REMARK    9  A    between atoms: C9_11  and  C10_12 
REMARK   10  A    between atoms: C10_12  and  C11_13 
REMARK   11  A    between atoms: C11_13  and  C12_14 
REMARK       I    between atoms: C12_14  and  N1_16 
REMARK   12  A    between atoms: N1_16  and  C13_17 
REMARK   13  A    between atoms: C17_23  and  O4_24 
REMARK   14  A    between atoms: C18_25  and  C19_26 
REMARK   15  A    between atoms: C21_29  and  C22_30 
REMARK   16  A    between atoms: C22_30  and  C23_31 
REMARK   17  A    between atoms: C24_32  and  C25_33 
REMARK   18  A    between atoms: C25_33  and  C27_35 
REMARK   19  A    between atoms: C27_35  and  O6_37 
REMARK   20  A    between atoms: C29_38  and  O7_39 
REMARK   21  A    between atoms: C30_40  and  O8_41 
ROOT
HETATM    1  C1  UNL     1       0.225   8.638  12.996  1.00  0.00     0.043 C 
HETATM    2  C2  UNL     1      -0.998   7.997  12.397  1.00  0.00    -0.075 C 
HETATM    3  C3  UNL     1      -0.969   6.996  11.490  1.00  0.00     0.084 C 
ENDROOT
BRANCH   3   4
HETATM    4  C4  UNL     1       0.252   6.430  10.868  1.00  0.00     0.283 C 
HETATM    5  O1  UNL     1       0.541   5.249  10.790  1.00  0.00    -0.260 OA
BRANCH   4   6
HETATM    6  O2  UNL     1       1.002   7.471  10.421  1.00  0.00    -0.318 OA
BRANCH   6   7
HETATM    7  C5  UNL     1       0.552   8.059   9.192  1.00  0.00     0.179 C 
BRANCH   7   8
HETATM    8  C6  UNL     1       1.616   7.914   8.106  1.00  0.00     0.027 C 
BRANCH   8   9
HETATM    9  C7  UNL     1       2.983   7.504   8.658  1.00  0.00     0.002 C 
BRANCH   9  10
HETATM   10  C8  UNL     1       3.208   5.989   8.612  1.00  0.00     0.000 C 
BRANCH  10  11
HETATM   11  C9  UNL     1       3.848   5.428   9.884  1.00  0.00     0.000 C 
BRANCH  11  12
HETATM   12  C10 UNL     1       4.337   6.468  10.897  1.00  0.00     0.009 C 
BRANCH  12  13
HETATM   13  C11 UNL     1       5.850   6.445  11.118  1.00  0.00     0.103 C 
BRANCH  13  14
HETATM   14  C12 UNL     1       6.355   7.695  11.815  1.00  0.00     0.218 C 
HETATM   15  O3  UNL     1       6.370   8.806  11.304  1.00  0.00    -0.274 OA
HETATM   16  N1  UNL     1       6.819   7.441  13.088  1.00  0.00    -0.349 N 
HETATM   17  H19 UNL     1       6.500   6.585  13.529  1.00  0.00     0.163 HD
BRANCH  16  18
HETATM   18  C13 UNL     1       7.194   8.533  13.988  1.00  0.00     0.159 C 
HETATM   19  C14 UNL     1       8.663   8.927  13.850  1.00  0.00     0.035 C 
HETATM   20  C15 UNL     1       9.539   8.014  14.695  1.00  0.00     0.022 C 
HETATM   21  C16 UNL     1       9.126   8.121  16.157  1.00  0.00     0.121 C 
HETATM   22  N2  UNL     1       7.702   7.853  16.375  1.00  0.00    -0.373 N 
HETATM   23  C17 UNL     1       6.897   8.064  15.401  1.00  0.00     0.134 C 
ATOM     24  H2  UNL     1       7.363   7.509  17.273  1.00  0.00     0.161 HD
BRANCH  23  25
HETATM   25  O4  UNL     1       5.607   7.768  15.623  1.00  0.00    -0.348 OA
HETATM   26  H27 UNL     1       5.545   7.486  16.553  1.00  0.00     0.219 HD
ENDBRANCH  23  25
ENDBRANCH  16  18
ENDBRANCH  13  14
ENDBRANCH  12  13
ENDBRANCH  11  12
ENDBRANCH  10  11
ENDBRANCH   9  10
ENDBRANCH   8   9
ENDBRANCH   7   8
ENDBRANCH   6   7
ENDBRANCH   4   6
ENDBRANCH   3   4
BRANCH   2  27
HETATM   27  C18 UNL     1      -2.332   8.541  12.883  1.00  0.00     0.068 C 
BRANCH  27  28
HETATM   28  C19 UNL     1      -3.003   7.639  13.939  1.00  0.00     0.156 C 
HETATM   29  O5  UNL     1      -4.342   7.350  13.483  1.00  0.00    -0.382 OA
HETATM   30  C20 UNL     1      -5.153   6.798  14.517  1.00  0.00     0.175 C 
HETATM   31  C21 UNL     1      -5.519   7.894  15.528  1.00  0.00     0.044 C 
HETATM   32  C29 UNL     1      -4.395   8.949  15.605  1.00  0.00     0.155 C 
HETATM   33  C30 UNL     1      -3.020   8.330  15.320  1.00  0.00     0.176 C 
BRANCH  31  34
HETATM   34  C22 UNL     1      -6.863   8.544  15.126  1.00  0.00     0.036 C 
BRANCH  34  35
HETATM   35  C23 UNL     1      -7.854   7.558  14.569  1.00  0.00    -0.030 C 
HETATM   36  C24 UNL     1      -7.501   6.384  14.020  1.00  0.00    -0.024 C 
BRANCH  36  37
HETATM   37  C25 UNL     1      -8.411   5.356  13.370  1.00  0.00     0.032 C 
HETATM   38  C26 UNL     1      -8.784   5.688  11.919  1.00  0.00     0.017 C 
BRANCH  37  39
HETATM   39  C27 UNL     1      -7.776   3.946  13.503  1.00  0.00     0.121 C 
HETATM   40  C28 UNL     1      -6.443   3.796  12.778  1.00  0.00     0.040 C 
BRANCH  39  41
HETATM   41  O6  UNL     1      -8.664   2.949  12.977  1.00  0.00    -0.395 OA
HETATM   42  H46 UNL     1      -8.794   3.141  12.031  1.00  0.00     0.210 HD
ENDBRANCH  39  41
ENDBRANCH  37  39
ENDBRANCH  36  37
ENDBRANCH  34  35
ENDBRANCH  31  34
BRANCH  32  43
HETATM   43  O7  UNL     1      -4.356   9.499  16.933  1.00  0.00    -0.392 OA
HETATM   44  H48 UNL     1      -4.204  10.458  16.835  1.00  0.00     0.210 HD
ENDBRANCH  32  43
BRANCH  33  45
HETATM   45  O8  UNL     1      -2.747   7.360  16.352  1.00  0.00    -0.390 OA
HETATM   46  H50 UNL     1      -3.023   7.795  17.183  1.00  0.00     0.210 HD
ENDBRANCH  33  45
ENDBRANCH  27  28
ENDBRANCH   2  27
TORSDOF 21
ENDMDL
MODEL 3
REMARK minimizedAffinity -7.34367609
REMARK CNNscore 0.544238687
REMARK CNNaffinity 6.6736908
REMARK  21 active torsions:
REMARK  status: ('A' for Active; 'I' for Inactive)
REMARK    1  A    between atoms: C2_2  and  C18_25 
REMARK    2  A    between atoms: C3_3  and  C4_4 
REMARK    3  A    between atoms: C4_4  and  O2_6 
REMARK    4  A    between atoms: O2_6  and  C5_7 
REMARK    5  A    between atoms: C5_7  and  C6_8 
REMARK    6  A    between atoms: C6_8  and  C7_9 
REMARK    7  A    between atoms: C7_9  and  C8_10 
REMARK    8  A    between atoms: C8_10  and  C9_11 
REMARK    9  A    between atoms: C9_11  and  C10_12 
REMARK   10  A    between atoms: C10_12  and  C11_13 
REMARK   11  A    between atoms: C11_13  and  C12_14 
REMARK       I    between atoms: C12_14  and  N1_16 
REMARK   12  A    between atoms: N1_16  and  C13_17 
REMARK   13  A    between atoms: C17_23  and  O4_24 
REMARK   14  A    between atoms: C18_25  and  C19_26 
REMARK   15  A    between atoms: C21_29  and  C22_30 
REMARK   16  A    between atoms: C22_30  and  C23_31 
REMARK   17  A    between atoms: C24_32  and  C25_33 
REMARK   18  A    between atoms: C25_33  and  C27_35 
REMARK   19  A    between atoms: C27_35  and  O6_37 
REMARK   20  A    between atoms: C29_38  and  O7_39 
REMARK   21  A    between atoms: C30_40  and  O8_41 
ROOT
HETATM    1  C1  UNL     1      -5.461   2.310  11.471  1.00  0.00     0.043 C 
HETATM    2  C2  UNL     1      -5.161   3.493  12.353  1.00  0.00    -0.075 C 
HETATM    3  C3  UNL     1      -6.002   3.977  13.292  1.00  0.00     0.084 C 
ENDROOT
BRANCH   3   4
HETATM    4  C4  UNL     1      -7.381   3.495  13.548  1.00  0.00     0.283 C 
HETATM    5  O1  UNL     1      -8.022   2.736  12.843  1.00  0.00    -0.260 OA
BRANCH   4   6
HETATM    6  O2  UNL     1      -7.807   4.074  14.701  1.00  0.00    -0.318 OA
BRANCH   6   7
HETATM    7  C5  UNL     1      -7.449   5.455  14.854  1.00  0.00     0.179 C 
BRANCH   7   8
HETATM    8  C6  UNL     1      -7.186   5.782  16.323  1.00  0.00     0.027 C 
BRANCH   8   9
HETATM    9  C7  UNL     1      -7.678   7.174  16.724  1.00  0.00     0.002 C 
BRANCH   9  10
HETATM   10  C8  UNL     1      -9.111   7.449  16.260  1.00  0.00     0.000 C 
BRANCH  10  11
HETATM   11  C9  UNL     1      -9.389   8.928  15.977  1.00  0.00     0.000 C 
BRANCH  11  12
HETATM   12  C10 UNL     1     -10.327   9.214  14.799  1.00  0.00     0.009 C 
BRANCH  12  13
HETATM   13  C11 UNL     1     -10.693   7.969  13.991  1.00  0.00     0.103 C 
BRANCH  13  14
HETATM   14  C12 UNL     1     -12.151   7.961  13.566  1.00  0.00     0.218 C 
HETATM   15  O3  UNL     1     -12.620   7.185  12.744  1.00  0.00    -0.274 OA
HETATM   16  N1  UNL     1     -12.892   8.940  14.192  1.00  0.00    -0.349 N 
HETATM   17  H19 UNL     1     -12.510   9.324  15.050  1.00  0.00     0.163 HD
BRANCH  16  18
HETATM   18  C13 UNL     1     -14.347   8.995  14.047  1.00  0.00     0.159 C 
HETATM   19  C14 UNL     1     -15.064   7.997  14.955  1.00  0.00     0.035 C 
HETATM   20  C15 UNL     1     -15.112   6.624  14.300  1.00  0.00     0.022 C 
HETATM   21  C16 UNL     1     -15.854   6.718  12.973  1.00  0.00     0.121 C 
HETATM   22  N2  UNL     1     -15.294   7.725  12.069  1.00  0.00    -0.373 N 
HETATM   23  C17 UNL     1     -14.658   8.708  12.589  1.00  0.00     0.134 C 
ATOM     24  H2  UNL     1     -15.406   7.646  11.059  1.00  0.00     0.161 HD
BRANCH  23  25
HETATM   25  O4  UNL     1     -14.122   9.589  11.729  1.00  0.00    -0.348 OA
HETATM   26  H27 UNL     1     -14.392   9.303  10.838  1.00  0.00     0.219 HD
ENDBRANCH  23  25
ENDBRANCH  16  18
ENDBRANCH  13  14
ENDBRANCH  12  13
ENDBRANCH  11  12
ENDBRANCH  10  11
ENDBRANCH   9  10
ENDBRANCH   8   9
ENDBRANCH   7   8
ENDBRANCH   6   7
ENDBRANCH   4   6
ENDBRANCH   3   4
BRANCH   2  27
HETATM   27  C18 UNL     1      -3.805   4.147  12.139  1.00  0.00     0.068 C 
BRANCH  27  28
HETATM   28  C19 UNL     1      -3.497   5.248  13.174  1.00  0.00     0.156 C 
HETATM   29  O5  UNL     1      -3.648   6.524  12.515  1.00  0.00    -0.382 OA
HETATM   30  C20 UNL     1      -3.083   7.589  13.276  1.00  0.00     0.175 C 
HETATM   31  C21 UNL     1      -1.551   7.512  13.214  1.00  0.00     0.044 C 
HETATM   32  C29 UNL     1      -1.093   6.046  13.070  1.00  0.00     0.155 C 
HETATM   33  C30 UNL     1      -2.073   5.080  13.747  1.00  0.00     0.176 C 
BRANCH  31  34
HETATM   34  C22 UNL     1      -1.034   8.374  12.039  1.00  0.00     0.036 C 
BRANCH  34  35
HETATM   35  C23 UNL     1       0.136   7.757  11.321  1.00  0.00    -0.030 C 
HETATM   36  C24 UNL     1       1.336   8.350  11.215  1.00  0.00    -0.024 C 
BRANCH  36  37
HETATM   37  C25 UNL     1       2.553   7.846  10.457  1.00  0.00     0.032 C 
HETATM   38  C26 UNL     1       3.231   6.636  11.111  1.00  0.00     0.017 C 
BRANCH  37  39
HETATM   39  C27 UNL     1       2.165   7.574   8.979  1.00  0.00     0.121 C 
HETATM   40  C28 UNL     1       0.954   8.367   8.500  1.00  0.00     0.040 C 
BRANCH  39  41
HETATM   41  O6  UNL     1       1.867   6.182   8.792  1.00  0.00    -0.395 OA
HETATM   42  H46 UNL     1       1.103   5.967   9.357  1.00  0.00     0.210 HD
ENDBRANCH  39  41
ENDBRANCH  37  39
ENDBRANCH  36  37
ENDBRANCH  34  35
ENDBRANCH  31  34
BRANCH  32  43
HETATM   43  O7  UNL     1       0.185   5.887  13.709  1.00  0.00    -0.392 OA
HETATM   44  H48 UNL     1       0.718   5.310  13.131  1.00  0.00     0.210 HD
ENDBRANCH  32  43
BRANCH  33  45
HETATM   45  O8  UNL     1      -2.080   5.372  15.160  1.00  0.00    -0.390 OA
HETATM   46  H50 UNL     1      -1.140   5.498  15.394  1.00  0.00     0.210 HD
ENDBRANCH  33  45
ENDBRANCH  27  28
ENDBRANCH   2  27
TORSDOF 21
ENDMDL
MODEL 4
REMARK minimizedAffinity -7.04153061
REMARK CNNscore 0.508050323
REMARK CNNaffinity 7.16354609
REMARK  21 active torsions:
REMARK  status: ('A' for Active; 'I' for Inactive)
REMARK    1  A    between atoms: C2_2  and  C18_25 
REMARK    2  A    between atoms: C3_3  and  C4_4 
REMARK    3  A    between atoms: C4_4  and  O2_6 
REMARK    4  A    between atoms: O2_6  and  C5_7 
REMARK    5  A    between atoms: C5_7  and  C6_8 
REMARK    6  A    between atoms: C6_8  and  C7_9 
REMARK    7  A    between atoms: C7_9  and  C8_10 
REMARK    8  A    between atoms: C8_10  and  C9_11 
REMARK    9  A    between atoms: C9_11  and  C10_12 
REMARK   10  A    between atoms: C10_12  and  C11_13 
REMARK   11  A    between atoms: C11_13  and  C12_14 
REMARK       I    between atoms: C12_14  and  N1_16 
REMARK   12  A    between atoms: N1_16  and  C13_17 
REMARK   13  A    between atoms: C17_23  and  O4_24 
REMARK   14  A    between atoms: C18_25  and  C19_26 
REMARK   15  A    between atoms: C21_29  and  C22_30 
REMARK   16  A    between atoms: C22_30  and  C23_31 
REMARK   17  A    between atoms: C24_32  and  C25_33 
REMARK   18  A    between atoms: C25_33  and  C27_35 
REMARK   19  A    between atoms: C27_35  and  O6_37 
REMARK   20  A    between atoms: C29_38  and  O7_39 
REMARK   21  A    between atoms: C30_40  and  O8_41 
ROOT
HETATM    1  C1  UNL     1      -5.906   2.416  11.748  1.00  0.00     0.043 C 
HETATM    2  C2  UNL     1      -5.229   3.720  12.076  1.00  0.00    -0.075 C 
HETATM    3  C3  UNL     1      -5.702   4.624  12.961  1.00  0.00     0.084 C 
ENDROOT
BRANCH   3   4
HETATM    4  C4  UNL     1      -6.996   4.533  13.681  1.00  0.00     0.283 C 
HETATM    5  O1  UNL     1      -7.269   3.756  14.579  1.00  0.00    -0.260 OA
BRANCH   4   6
HETATM    6  O2  UNL     1      -7.829   5.459  13.139  1.00  0.00    -0.318 OA
BRANCH   6   7
HETATM    7  C5  UNL     1      -9.008   5.738  13.908  1.00  0.00     0.179 C 
BRANCH   7   8
HETATM    8  C6  UNL     1      -9.298   7.237  13.922  1.00  0.00     0.027 C 
BRANCH   8   9
HETATM    9  C7  UNL     1      -8.839   7.924  15.210  1.00  0.00     0.002 C 
BRANCH   9  10
HETATM   10  C8  UNL     1      -7.393   7.580  15.578  1.00  0.00     0.000 C 
BRANCH  10  11
HETATM   11  C9  UNL     1      -6.388   8.670  15.197  1.00  0.00     0.000 C 
BRANCH  11  12
HETATM   12  C10 UNL     1      -5.391   8.300  14.094  1.00  0.00     0.009 C 
BRANCH  12  13
HETATM   13  C11 UNL     1      -4.024   8.963  14.256  1.00  0.00     0.103 C 
BRANCH  13  14
HETATM   14  C12 UNL     1      -3.400   8.685  15.612  1.00  0.00     0.218 C 
HETATM   15  O3  UNL     1      -3.017   7.582  15.977  1.00  0.00    -0.274 OA
HETATM   16  N1  UNL     1      -3.328   9.812  16.403  1.00  0.00    -0.349 N 
HETATM   17  H19 UNL     1      -3.382  10.707  15.929  1.00  0.00     0.163 HD
BRANCH  16  18
HETATM   18  C13 UNL     1      -2.611   9.795  17.679  1.00  0.00     0.159 C 
HETATM   19  C14 UNL     1      -3.298  10.643  18.748  1.00  0.00     0.035 C 
HETATM   20  C15 UNL     1      -2.891  12.103  18.609  1.00  0.00     0.022 C 
HETATM   21  C16 UNL     1      -1.381  12.228  18.764  1.00  0.00     0.121 C 
HETATM   22  N2  UNL     1      -0.635  11.372  17.839  1.00  0.00    -0.373 N 
HETATM   23  C17 UNL     1      -1.210  10.313  17.406  1.00  0.00     0.134 C 
ATOM     24  H2  UNL     1       0.313  11.612  17.549  1.00  0.00     0.161 HD
BRANCH  23  25
HETATM   25  O4  UNL     1      -0.512   9.575  16.528  1.00  0.00    -0.348 OA
HETATM   26  H27 UNL     1       0.359  10.002  16.441  1.00  0.00     0.219 HD
ENDBRANCH  23  25
ENDBRANCH  16  18
ENDBRANCH  13  14
ENDBRANCH  12  13
ENDBRANCH  11  12
ENDBRANCH  10  11
ENDBRANCH   9  10
ENDBRANCH   8   9
ENDBRANCH   7   8
ENDBRANCH   6   7
ENDBRANCH   4   6
ENDBRANCH   3   4
BRANCH   2  27
HETATM   27  C18 UNL     1      -3.925   3.988  11.342  1.00  0.00     0.068 C 
BRANCH  27  28
HETATM   28  C19 UNL     1      -2.779   4.413  12.283  1.00  0.00     0.156 C 
HETATM   29  O5  UNL     1      -2.864   5.844  12.459  1.00  0.00    -0.382 OA
HETATM   30  C20 UNL     1      -1.680   6.383  13.041  1.00  0.00     0.175 C 
HETATM   31  C21 UNL     1      -0.545   6.375  12.008  1.00  0.00     0.044 C 
HETATM   32  C29 UNL     1      -0.720   5.195  11.029  1.00  0.00     0.155 C 
HETATM   33  C30 UNL     1      -1.409   4.001  11.702  1.00  0.00     0.176 C 
BRANCH  31  34
HETATM   34  C22 UNL     1      -0.520   7.724  11.252  1.00  0.00     0.036 C 
BRANCH  34  35
HETATM   35  C23 UNL     1       0.561   7.798  10.208  1.00  0.00    -0.030 C 
HETATM   36  C24 UNL     1       1.872   7.777  10.499  1.00  0.00    -0.024 C 
BRANCH  36  37
HETATM   37  C25 UNL     1       3.036   7.916   9.531  1.00  0.00     0.032 C 
HETATM   38  C26 UNL     1       4.409   7.936  10.214  1.00  0.00     0.017 C 
BRANCH  37  39
HETATM   39  C27 UNL     1       2.938   6.812   8.444  1.00  0.00     0.121 C 
HETATM   40  C28 UNL     1       1.874   7.077   7.386  1.00  0.00     0.040 C 
BRANCH  39  41
HETATM   41  O6  UNL     1       2.634   5.545   9.048  1.00  0.00    -0.395 OA
HETATM   42  H46 UNL     1       1.767   5.628   9.484  1.00  0.00     0.210 HD
ENDBRANCH  39  41
ENDBRANCH  37  39
ENDBRANCH  36  37
ENDBRANCH  34  35
ENDBRANCH  31  34
BRANCH  32  43
HETATM   43  O7  UNL     1       0.575   4.754  10.586  1.00  0.00    -0.392 OA
HETATM   44  H48 UNL     1       0.496   4.562   9.633  1.00  0.00     0.210 HD
ENDBRANCH  32  43
BRANCH  33  45
HETATM   45  O8  UNL     1      -0.552   3.533  12.763  1.00  0.00    -0.390 OA
HETATM   46  H50 UNL     1       0.347   3.538  12.379  1.00  0.00     0.210 HD
ENDBRANCH  33  45
ENDBRANCH  27  28
ENDBRANCH   2  27
TORSDOF 21
ENDMDL
MODEL 5
REMARK minimizedAffinity -7.88070536
REMARK CNNscore 0.441356868
REMARK CNNaffinity 6.94941092
REMARK  21 active torsions:
REMARK  status: ('A' for Active; 'I' for Inactive)
REMARK    1  A    between atoms: C2_2  and  C18_25 
REMARK    2  A    between atoms: C3_3  and  C4_4 
REMARK    3  A    between atoms: C4_4  and  O2_6 
REMARK    4  A    between atoms: O2_6  and  C5_7 
REMARK    5  A    between atoms: C5_7  and  C6_8 
REMARK    6  A    between atoms: C6_8  and  C7_9 
REMARK    7  A    between atoms: C7_9  and  C8_10 
REMARK    8  A    between atoms: C8_10  and  C9_11 
REMARK    9  A    between atoms: C9_11  and  C10_12 
REMARK   10  A    between atoms: C10_12  and  C11_13 
REMARK   11  A    between atoms: C11_13  and  C12_14 
REMARK       I    between atoms: C12_14  and  N1_16 
REMARK   12  A    between atoms: N1_16  and  C13_17 
REMARK   13  A    between atoms: C17_23  and  O4_24 
REMARK   14  A    between atoms: C18_25  and  C19_26 
REMARK   15  A    between atoms: C21_29  and  C22_30 
REMARK   16  A    between atoms: C22_30  and  C23_31 
REMARK   17  A    between atoms: C24_32  and  C25_33 
REMARK   18  A    between atoms: C25_33  and  C27_35 
REMARK   19  A    between atoms: C27_35  and  O6_37 
REMARK   20  A    between atoms: C29_38  and  O7_39 
REMARK   21  A    between atoms: C30_40  and  O8_41 
ROOT
HETATM    1  C1  UNL     1      -3.699   2.222  11.886  1.00  0.00     0.043 C 
HETATM    2  C2  UNL     1      -3.850   3.625  12.412  1.00  0.00    -0.075 C 
HETATM    3  C3  UNL     1      -5.036   4.219  12.672  1.00  0.00     0.084 C 
ENDROOT
BRANCH   3   4
HETATM    4  C4  UNL     1      -6.372   3.635  12.402  1.00  0.00     0.283 C 
HETATM    5  O1  UNL     1      -6.616   2.462  12.184  1.00  0.00    -0.260 OA
BRANCH   4   6
HETATM    6  O2  UNL     1      -7.271   4.653  12.418  1.00  0.00    -0.318 OA
BRANCH   6   7
HETATM    7  C5  UNL     1      -7.026   5.664  13.408  1.00  0.00     0.179 C 
BRANCH   7   8
HETATM    8  C6  UNL     1      -7.714   5.304  14.723  1.00  0.00     0.027 C 
BRANCH   8   9
HETATM    9  C7  UNL     1      -7.212   6.132  15.908  1.00  0.00     0.002 C 
BRANCH   9  10
HETATM   10  C8  UNL     1      -8.244   7.153  16.394  1.00  0.00     0.000 C 
BRANCH  10  11
HETATM   11  C9  UNL     1      -8.726   8.105  15.297  1.00  0.00     0.000 C 
BRANCH  11  12
HETATM   12  C10 UNL     1      -9.829   9.088  15.706  1.00  0.00     0.009 C 
BRANCH  12  13
HETATM   13  C11 UNL     1      -9.543  10.534  15.301  1.00  0.00     0.103 C 
BRANCH  13  14
HETATM   14  C12 UNL     1     -10.746  11.209  14.669  1.00  0.00     0.218 C 
HETATM   15  O3  UNL     1     -10.796  12.400  14.390  1.00  0.00    -0.274 OA
HETATM   16  N1  UNL     1     -11.794  10.338  14.459  1.00  0.00    -0.349 N 
HETATM   17  H19 UNL     1     -11.569   9.350  14.436  1.00  0.00     0.163 HD
BRANCH  16  18
HETATM   18  C13 UNL     1     -12.982  10.752  13.709  1.00  0.00     0.159 C 
HETATM   19  C14 UNL     1     -14.255  10.695  14.552  1.00  0.00     0.035 C 
HETATM   20  C15 UNL     1     -14.825   9.284  14.557  1.00  0.00     0.022 C 
HETATM   21  C16 UNL     1     -15.148   8.860  13.131  1.00  0.00     0.121 C 
HETATM   22  N2  UNL     1     -14.004   8.974  12.222  1.00  0.00    -0.373 N 
HETATM   23  C17 UNL     1     -13.093   9.826  12.511  1.00  0.00     0.134 C 
ATOM     24  H2  UNL     1     -13.937   8.394  11.387  1.00  0.00     0.161 HD
BRANCH  23  25
HETATM   25  O4  UNL     1     -12.041   9.874  11.680  1.00  0.00    -0.348 OA
HETATM   26  H27 UNL     1     -12.230   9.246  10.959  1.00  0.00     0.219 HD
ENDBRANCH  23  25
ENDBRANCH  16  18
ENDBRANCH  13  14
ENDBRANCH  12  13
ENDBRANCH  11  12
ENDBRANCH  10  11
ENDBRANCH   9  10
ENDBRANCH   8   9
ENDBRANCH   7   8
ENDBRANCH   6   7
ENDBRANCH   4   6
ENDBRANCH   3   4
BRANCH   2  27
HETATM   27  C18 UNL     1      -2.553   4.380  12.656  1.00  0.00     0.068 C 
BRANCH  27  28
HETATM   28  C19 UNL     1      -2.758   5.689  13.446  1.00  0.00     0.156 C 
HETATM   29  O5  UNL     1      -2.364   6.784  12.591  1.00  0.00    -0.382 OA
HETATM   30  C20 UNL     1      -2.208   8.000  13.317  1.00  0.00     0.175 C 
HETATM   31  C21 UNL     1      -0.928   7.937  14.163  1.00  0.00     0.044 C 
HETATM   32  C29 UNL     1      -0.640   6.482  14.591  1.00  0.00     0.155 C 
HETATM   33  C30 UNL     1      -1.934   5.676  14.753  1.00  0.00     0.176 C 
BRANCH  31  34
HETATM   34  C22 UNL     1       0.256   8.524  13.360  1.00  0.00     0.036 C 
BRANCH  34  35
HETATM   35  C23 UNL     1       0.058   8.446  11.870  1.00  0.00    -0.030 C 
HETATM   36  C24 UNL     1       0.681   7.549  11.088  1.00  0.00    -0.024 C 
BRANCH  36  37
HETATM   37  C25 UNL     1       0.604   7.431   9.575  1.00  0.00     0.032 C 
HETATM   38  C26 UNL     1      -0.139   8.591   8.900  1.00  0.00     0.017 C 
BRANCH  37  39
HETATM   39  C27 UNL     1       2.033   7.237   8.999  1.00  0.00     0.121 C 
HETATM   40  C28 UNL     1       2.314   8.064   7.749  1.00  0.00     0.040 C 
BRANCH  39  41
HETATM   41  O6  UNL     1       2.248   5.859   8.658  1.00  0.00    -0.395 OA
HETATM   42  H46 UNL     1       1.602   5.623   7.969  1.00  0.00     0.210 HD
ENDBRANCH  39  41
ENDBRANCH  37  39
ENDBRANCH  36  37
ENDBRANCH  34  35
ENDBRANCH  31  34
BRANCH  32  43
HETATM   43  O7  UNL     1       0.027   6.490  15.865  1.00  0.00    -0.392 OA
HETATM   44  H48 UNL     1       0.723   5.808  15.821  1.00  0.00     0.210 HD
ENDBRANCH  32  43
BRANCH  33  45
HETATM   45  O8  UNL     1      -2.702   6.274  15.817  1.00  0.00    -0.390 OA
HETATM   46  H50 UNL     1      -2.050   6.464  16.519  1.00  0.00     0.210 HD
ENDBRANCH  33  45
ENDBRANCH  27  28
ENDBRANCH   2  27
TORSDOF 21
ENDMDL
MODEL 6
REMARK minimizedAffinity -7.57174778
REMARK CNNscore 0.394584835
REMARK CNNaffinity 6.73100424
REMARK  21 active torsions:
REMARK  status: ('A' for Active; 'I' for Inactive)
REMARK    1  A    between atoms: C2_2  and  C18_25 
REMARK    2  A    between atoms: C3_3  and  C4_4 
REMARK    3  A    between atoms: C4_4  and  O2_6 
REMARK    4  A    between atoms: O2_6  and  C5_7 
REMARK    5  A    between atoms: C5_7  and  C6_8 
REMARK    6  A    between atoms: C6_8  and  C7_9 
REMARK    7  A    between atoms: C7_9  and  C8_10 
REMARK    8  A    between atoms: C8_10  and  C9_11 
REMARK    9  A    between atoms: C9_11  and  C10_12 
REMARK   10  A    between atoms: C10_12  and  C11_13 
REMARK   11  A    between atoms: C11_13  and  C12_14 
REMARK       I    between atoms: C12_14  and  N1_16 
REMARK   12  A    between atoms: N1_16  and  C13_17 
REMARK   13  A    between atoms: C17_23  and  O4_24 
REMARK   14  A    between atoms: C18_25  and  C19_26 
REMARK   15  A    between atoms: C21_29  and  C22_30 
REMARK   16  A    between atoms: C22_30  and  C23_31 
REMARK   17  A    between atoms: C24_32  and  C25_33 
REMARK   18  A    between atoms: C25_33  and  C27_35 
REMARK   19  A    between atoms: C27_35  and  O6_37 
REMARK   20  A    between atoms: C29_38  and  O7_39 
REMARK   21  A    between atoms: C30_40  and  O8_41 
ROOT
HETATM    1  C1  UNL     1      -4.788   2.936  11.449  1.00  0.00     0.043 C 
HETATM    2  C2  UNL     1      -5.160   3.854  12.583  1.00  0.00    -0.075 C 
HETATM    3  C3  UNL     1      -6.343   3.821  13.234  1.00  0.00     0.084 C 
ENDROOT
BRANCH   3   4
HETATM    4  C4  UNL     1      -7.495   2.953  12.889  1.00  0.00     0.283 C 
HETATM    5  O1  UNL     1      -7.451   1.761  12.640  1.00  0.00    -0.260 OA
BRANCH   4   6
HETATM    6  O2  UNL     1      -8.606   3.735  12.879  1.00  0.00    -0.318 OA
BRANCH   6   7
HETATM    7  C5  UNL     1      -8.389   5.090  12.457  1.00  0.00     0.179 C 
BRANCH   7   8
HETATM    8  C6  UNL     1      -9.088   6.065  13.402  1.00  0.00     0.027 C 
BRANCH   8   9
HETATM    9  C7  UNL     1      -8.393   6.187  14.760  1.00  0.00     0.002 C 
BRANCH   9  10
HETATM   10  C8  UNL     1      -8.966   7.320  15.616  1.00  0.00     0.000 C 
BRANCH  10  11
HETATM   11  C9  UNL     1      -9.881   8.271  14.841  1.00  0.00     0.000 C 
BRANCH  11  12
HETATM   12  C10 UNL     1      -9.570   9.764  14.991  1.00  0.00     0.009 C 
BRANCH  12  13
HETATM   13  C11 UNL     1     -10.641  10.539  15.758  1.00  0.00     0.103 C 
BRANCH  13  14
HETATM   14  C12 UNL     1     -11.523  11.371  14.844  1.00  0.00     0.218 C 
HETATM   15  O3  UNL     1     -11.299  12.537  14.551  1.00  0.00    -0.274 OA
HETATM   16  N1  UNL     1     -12.623  10.674  14.391  1.00  0.00    -0.349 N 
HETATM   17  H19 UNL     1     -12.573   9.662  14.432  1.00  0.00     0.163 HD
BRANCH  16  18
HETATM   18  C13 UNL     1     -13.507  11.239  13.370  1.00  0.00     0.159 C 
HETATM   19  C14 UNL     1     -14.909  11.527  13.903  1.00  0.00     0.035 C 
HETATM   20  C15 UNL     1     -15.763  10.268  13.857  1.00  0.00     0.022 C 
HETATM   21  C16 UNL     1     -15.864   9.772  12.420  1.00  0.00     0.121 C 
HETATM   22  N2  UNL     1     -14.559   9.561  11.790  1.00  0.00    -0.373 N 
HETATM   23  C17 UNL     1     -13.564  10.237  12.230  1.00  0.00     0.134 C 
ATOM     24  H2  UNL     1     -14.446   8.896  11.025  1.00  0.00     0.161 HD
BRANCH  23  25
HETATM   25  O4  UNL     1     -12.376   9.986  11.658  1.00  0.00    -0.348 OA
HETATM   26  H27 UNL     1     -12.543   9.339  10.950  1.00  0.00     0.219 HD
ENDBRANCH  23  25
ENDBRANCH  16  18
ENDBRANCH  13  14
ENDBRANCH  12  13
ENDBRANCH  11  12
ENDBRANCH  10  11
ENDBRANCH   9  10
ENDBRANCH   8   9
ENDBRANCH   7   8
ENDBRANCH   6   7
ENDBRANCH   4   6
ENDBRANCH   3   4
BRANCH   2  27
HETATM   27  C18 UNL     1      -4.097   4.863  12.990  1.00  0.00     0.068 C 
BRANCH  27  28
HETATM   28  C19 UNL     1      -4.681   6.093  13.715  1.00  0.00     0.156 C 
HETATM   29  O5  UNL     1      -4.361   7.260  12.926  1.00  0.00    -0.382 OA
HETATM   30  C20 UNL     1      -4.567   8.468  13.652  1.00  0.00     0.175 C 
HETATM   31  C21 UNL     1      -3.464   8.632  14.708  1.00  0.00     0.044 C 
HETATM   32  C29 UNL     1      -2.983   7.250  15.199  1.00  0.00     0.155 C 
HETATM   33  C30 UNL     1      -4.108   6.210  15.144  1.00  0.00     0.176 C 
BRANCH  31  34
HETATM   34  C22 UNL     1      -2.293   9.450  14.115  1.00  0.00     0.036 C 
BRANCH  34  35
HETATM   35  C23 UNL     1      -1.292   8.601  13.378  1.00  0.00    -0.030 C 
HETATM   36  C24 UNL     1      -1.164   8.602  12.041  1.00  0.00    -0.024 C 
BRANCH  36  37
HETATM   37  C25 UNL     1      -0.239   7.738  11.200  1.00  0.00     0.032 C 
HETATM   38  C26 UNL     1       1.155   8.342  10.994  1.00  0.00     0.017 C 
BRANCH  37  39
HETATM   39  C27 UNL     1      -0.175   6.309  11.805  1.00  0.00     0.121 C 
HETATM   40  C28 UNL     1       1.018   6.081  12.727  1.00  0.00     0.040 C 
BRANCH  39  41
HETATM   41  O6  UNL     1      -0.101   5.330  10.759  1.00  0.00    -0.395 OA
HETATM   42  H46 UNL     1       0.720   5.492  10.262  1.00  0.00     0.210 HD
ENDBRANCH  39  41
ENDBRANCH  37  39
ENDBRANCH  36  37
ENDBRANCH  34  35
ENDBRANCH  31  34
BRANCH  32  43
HETATM   43  O7  UNL     1      -2.560   7.359  16.569  1.00  0.00    -0.392 OA
HETATM   44  H48 UNL     1      -1.750   6.822  16.656  1.00  0.00     0.210 HD
ENDBRANCH  32  43
BRANCH  33  45
HETATM   45  O8  UNL     1      -5.149   6.630  16.051  1.00  0.00    -0.390 OA
HETATM   46  H50 UNL     1      -4.675   6.926  16.853  1.00  0.00     0.210 HD
ENDBRANCH  33  45
ENDBRANCH  27  28
ENDBRANCH   2  27
TORSDOF 21
ENDMDL
MODEL 7
REMARK minimizedAffinity -7.17648506
REMARK CNNscore 0.38874352
REMARK CNNaffinity 6.73879766
REMARK  21 active torsions:
REMARK  status: ('A' for Active; 'I' for Inactive)
REMARK    1  A    between atoms: C2_2  and  C18_25 
REMARK    2  A    between atoms: C3_3  and  C4_4 
REMARK    3  A    between atoms: C4_4  and  O2_6 
REMARK    4  A    between atoms: O2_6  and  C5_7 
REMARK    5  A    between atoms: C5_7  and  C6_8 
REMARK    6  A    between atoms: C6_8  and  C7_9 
REMARK    7  A    between atoms: C7_9  and  C8_10 
REMARK    8  A    between atoms: C8_10  and  C9_11 
REMARK    9  A    between atoms: C9_11  and  C10_12 
REMARK   10  A    between atoms: C10_12  and  C11_13 
REMARK   11  A    between atoms: C11_13  and  C12_14 
REMARK       I    between atoms: C12_14  and  N1_16 
REMARK   12  A    between atoms: N1_16  and  C13_17 
REMARK   13  A    between atoms: C17_23  and  O4_24 
REMARK   14  A    between atoms: C18_25  and  C19_26 
REMARK   15  A    between atoms: C21_29  and  C22_30 
REMARK   16  A    between atoms: C22_30  and  C23_31 
REMARK   17  A    between atoms: C24_32  and  C25_33 
REMARK   18  A    between atoms: C25_33  and  C27_35 
REMARK   19  A    between atoms: C27_35  and  O6_37 
REMARK   20  A    between atoms: C29_38  and  O7_39 
REMARK   21  A    between atoms: C30_40  and  O8_41 
ROOT
HETATM    1  C1  UNL     1      -7.263   3.168  13.596  1.00  0.00     0.043 C 
HETATM    2  C2  UNL     1      -6.870   4.544  13.128  1.00  0.00    -0.075 C 
HETATM    3  C3  UNL     1      -5.677   4.849  12.570  1.00  0.00     0.084 C 
ENDROOT
BRANCH   3   4
HETATM    4  C4  UNL     1      -4.535   3.917  12.410  1.00  0.00     0.283 C 
HETATM    5  O1  UNL     1      -4.321   3.196  11.452  1.00  0.00    -0.260 OA
BRANCH   4   6
HETATM    6  O2  UNL     1      -3.784   3.996  13.540  1.00  0.00    -0.318 OA
BRANCH   6   7
HETATM    7  C5  UNL     1      -2.814   5.054  13.550  1.00  0.00     0.179 C 
BRANCH   7   8
HETATM    8  C6  UNL     1      -1.744   4.811  12.487  1.00  0.00     0.027 C 
BRANCH   8   9
HETATM    9  C7  UNL     1      -0.349   4.598  13.079  1.00  0.00     0.002 C 
BRANCH   9  10
HETATM   10  C8  UNL     1       0.524   5.854  12.999  1.00  0.00     0.000 C 
BRANCH  10  11
HETATM   11  C9  UNL     1      -0.196   7.128  13.450  1.00  0.00     0.000 C 
BRANCH  11  12
HETATM   12  C10 UNL     1       0.062   8.375  12.595  1.00  0.00     0.009 C 
BRANCH  12  13
HETATM   13  C11 UNL     1      -0.429   8.241  11.154  1.00  0.00     0.103 C 
BRANCH  13  14
HETATM   14  C12 UNL     1       0.712   8.194  10.153  1.00  0.00     0.218 C 
HETATM   15  O3  UNL     1       0.726   8.818   9.101  1.00  0.00    -0.274 OA
HETATM   16  N1  UNL     1       1.729   7.351  10.548  1.00  0.00    -0.349 N 
HETATM   17  H19 UNL     1       1.775   7.121  11.535  1.00  0.00     0.163 HD
BRANCH  16  18
HETATM   18  C13 UNL     1       2.991   7.291   9.808  1.00  0.00     0.159 C 
HETATM   19  C14 UNL     1       2.789   6.954   8.333  1.00  0.00     0.035 C 
HETATM   20  C15 UNL     1       2.677   5.448   8.143  1.00  0.00     0.022 C 
HETATM   21  C16 UNL     1       3.950   4.776   8.642  1.00  0.00     0.121 C 
HETATM   22  N2  UNL     1       4.279   5.121  10.027  1.00  0.00    -0.373 N 
HETATM   23  C17 UNL     1       3.850   6.238  10.484  1.00  0.00     0.134 C 
ATOM     24  H2  UNL     1       4.832   4.492  10.608  1.00  0.00     0.161 HD
BRANCH  23  25
HETATM   25  O4  UNL     1       4.135   6.502  11.769  1.00  0.00    -0.348 OA
HETATM   26  H27 UNL     1       4.686   5.764  12.086  1.00  0.00     0.219 HD
ENDBRANCH  23  25
ENDBRANCH  16  18
ENDBRANCH  13  14
ENDBRANCH  12  13
ENDBRANCH  11  12
ENDBRANCH  10  11
ENDBRANCH   9  10
ENDBRANCH   8   9
ENDBRANCH   7   8
ENDBRANCH   6   7
ENDBRANCH   4   6
ENDBRANCH   3   4
BRANCH   2  27
HETATM   27  C18 UNL     1      -7.921   5.628  13.311  1.00  0.00     0.068 C 
BRANCH  27  28
HETATM   28  C19 UNL     1      -7.754   6.413  14.629  1.00  0.00     0.156 C 
HETATM   29  O5  UNL     1      -7.593   7.807  14.292  1.00  0.00    -0.382 OA
HETATM   30  C20 UNL     1      -7.116   8.572  15.395  1.00  0.00     0.175 C 
HETATM   31  C21 UNL     1      -5.635   8.254  15.644  1.00  0.00     0.044 C 
HETATM   32  C29 UNL     1      -5.325   6.797  15.239  1.00  0.00     0.155 C 
HETATM   33  C30 UNL     1      -6.544   5.887  15.431  1.00  0.00     0.176 C 
BRANCH  31  34
HETATM   34  C22 UNL     1      -4.749   9.249  14.858  1.00  0.00     0.036 C 
BRANCH  34  35
HETATM   35  C23 UNL     1      -3.552   9.720  15.638  1.00  0.00    -0.030 C 
HETATM   36  C24 UNL     1      -3.532   9.812  16.978  1.00  0.00    -0.024 C 
BRANCH  36  37
HETATM   37  C25 UNL     1      -2.406  10.338  17.852  1.00  0.00     0.032 C 
HETATM   38  C26 UNL     1      -1.013  10.178  17.230  1.00  0.00     0.017 C 
BRANCH  37  39
HETATM   39  C27 UNL     1      -2.704  11.809  18.250  1.00  0.00     0.121 C 
HETATM   40  C28 UNL     1      -4.010  11.990  19.016  1.00  0.00     0.040 C 
BRANCH  39  41
HETATM   41  O6  UNL     1      -2.777  12.636  17.079  1.00  0.00    -0.395 OA
HETATM   42  H46 UNL     1      -3.513  12.307  16.532  1.00  0.00     0.210 HD
ENDBRANCH  39  41
ENDBRANCH  37  39
ENDBRANCH  36  37
ENDBRANCH  34  35
ENDBRANCH  31  34
BRANCH  32  43
HETATM   43  O7  UNL     1      -4.270   6.291  16.076  1.00  0.00    -0.392 OA
HETATM   44  H48 UNL     1      -3.680   5.770  15.499  1.00  0.00     0.210 HD
ENDBRANCH  32  43
BRANCH  33  45
HETATM   45  O8  UNL     1      -6.866   5.865  16.837  1.00  0.00    -0.390 OA
HETATM   46  H50 UNL     1      -6.004   5.777  17.289  1.00  0.00     0.210 HD
ENDBRANCH  33  45
ENDBRANCH  27  28
ENDBRANCH   2  27
TORSDOF 21
ENDMDL
MODEL 8
REMARK minimizedAffinity -7.63144779
REMARK CNNscore 0.361609846
REMARK CNNaffinity 6.45479727
REMARK  21 active torsions:
REMARK  status: ('A' for Active; 'I' for Inactive)
REMARK    1  A    between atoms: C2_2  and  C18_25 
REMARK    2  A    between atoms: C3_3  and  C4_4 
REMARK    3  A    between atoms: C4_4  and  O2_6 
REMARK    4  A    between atoms: O2_6  and  C5_7 
REMARK    5  A    between atoms: C5_7  and  C6_8 
REMARK    6  A    between atoms: C6_8  and  C7_9 
REMARK    7  A    between atoms: C7_9  and  C8_10 
REMARK    8  A    between atoms: C8_10  and  C9_11 
REMARK    9  A    between atoms: C9_11  and  C10_12 
REMARK   10  A    between atoms: C10_12  and  C11_13 
REMARK   11  A    between atoms: C11_13  and  C12_14 
REMARK       I    between atoms: C12_14  and  N1_16 
REMARK   12  A    between atoms: N1_16  and  C13_17 
REMARK   13  A    between atoms: C17_23  and  O4_24 
REMARK   14  A    between atoms: C18_25  and  C19_26 
REMARK   15  A    between atoms: C21_29  and  C22_30 
REMARK   16  A    between atoms: C22_30  and  C23_31 
REMARK   17  A    between atoms: C24_32  and  C25_33 
REMARK   18  A    between atoms: C25_33  and  C27_35 
REMARK   19  A    between atoms: C27_35  and  O6_37 
REMARK   20  A    between atoms: C29_38  and  O7_39 
REMARK   21  A    between atoms: C30_40  and  O8_41 
ROOT
HETATM    1  C1  UNL     1      -5.174   2.888  11.534  1.00  0.00     0.043 C 
HETATM    2  C2  UNL     1      -5.285   3.854  12.683  1.00  0.00    -0.075 C 
HETATM    3  C3  UNL     1      -6.441   4.162  13.312  1.00  0.00     0.084 C 
ENDROOT
BRANCH   3   4
HETATM    4  C4  UNL     1      -7.789   3.682  12.925  1.00  0.00     0.283 C 
HETATM    5  O1  UNL     1      -8.218   2.550  13.058  1.00  0.00    -0.260 OA
BRANCH   4   6
HETATM    6  O2  UNL     1      -8.452   4.732  12.372  1.00  0.00    -0.318 OA
BRANCH   6   7
HETATM    7  C5  UNL     1      -8.338   5.968  13.092  1.00  0.00     0.179 C 
BRANCH   7   8
HETATM    8  C6  UNL     1      -9.721   6.525  13.424  1.00  0.00     0.027 C 
BRANCH   8   9
HETATM    9  C7  UNL     1      -9.838   7.018  14.868  1.00  0.00     0.002 C 
BRANCH   9  10
HETATM   10  C8  UNL     1      -9.853   8.546  14.971  1.00  0.00     0.000 C 
BRANCH  10  11
HETATM   11  C9  UNL     1     -11.107   9.187  14.371  1.00  0.00     0.000 C 
BRANCH  11  12
HETATM   12  C10 UNL     1     -12.368   8.315  14.379  1.00  0.00     0.009 C 
BRANCH  12  13
HETATM   13  C11 UNL     1     -13.668   9.118  14.413  1.00  0.00     0.103 C 
BRANCH  13  14
HETATM   14  C12 UNL     1     -14.108   9.570  13.032  1.00  0.00     0.218 C 
HETATM   15  O3  UNL     1     -13.392   9.539  12.041  1.00  0.00    -0.274 OA
HETATM   16  N1  UNL     1     -15.403  10.042  13.017  1.00  0.00    -0.349 N 
HETATM   17  H19 UNL     1     -16.002   9.759  13.785  1.00  0.00     0.163 HD
BRANCH  16  18
HETATM   18  C13 UNL     1     -16.073  10.369  11.757  1.00  0.00     0.159 C 
HETATM   19  C14 UNL     1     -17.072  11.516  11.906  1.00  0.00     0.035 C 
HETATM   20  C15 UNL     1     -18.409  10.992  12.409  1.00  0.00     0.022 C 
HETATM   21  C16 UNL     1     -18.961   9.971  11.423  1.00  0.00     0.121 C 
HETATM   22  N2  UNL     1     -18.027   8.878  11.143  1.00  0.00    -0.373 N 
HETATM   23  C17 UNL     1     -16.775   9.107  11.288  1.00  0.00     0.134 C 
ATOM     24  H2  UNL     1     -18.362   7.964  10.841  1.00  0.00     0.161 HD
BRANCH  23  25
HETATM   25  O4  UNL     1     -15.952   8.071  11.063  1.00  0.00    -0.348 OA
HETATM   26  H27 UNL     1     -16.513   7.332  10.769  1.00  0.00     0.219 HD
ENDBRANCH  23  25
ENDBRANCH  16  18
ENDBRANCH  13  14
ENDBRANCH  12  13
ENDBRANCH  11  12
ENDBRANCH  10  11
ENDBRANCH   9  10
ENDBRANCH   8   9
ENDBRANCH   7   8
ENDBRANCH   6   7
ENDBRANCH   4   6
ENDBRANCH   3   4
BRANCH   2  27
HETATM   27  C18 UNL     1      -3.982   4.493  13.135  1.00  0.00     0.068 C 
BRANCH  27  28
HETATM   28  C19 UNL     1      -4.196   5.711  14.057  1.00  0.00     0.156 C 
HETATM   29  O5  UNL     1      -4.279   6.886  13.222  1.00  0.00    -0.382 OA
HETATM   30  C20 UNL     1      -4.154   8.088  13.976  1.00  0.00     0.175 C 
HETATM   31  C21 UNL     1      -2.698   8.267  14.429  1.00  0.00     0.044 C 
HETATM   32  C29 UNL     1      -2.029   6.892  14.638  1.00  0.00     0.155 C 
HETATM   33  C30 UNL     1      -3.046   5.832  15.081  1.00  0.00     0.176 C 
BRANCH  31  34
HETATM   34  C22 UNL     1      -1.928   9.106  13.383  1.00  0.00     0.036 C 
BRANCH  34  35
HETATM   35  C23 UNL     1      -1.457   8.298  12.205  1.00  0.00    -0.030 C 
HETATM   36  C24 UNL     1      -0.397   8.635  11.453  1.00  0.00    -0.024 C 
BRANCH  36  37
HETATM   37  C25 UNL     1       0.116   7.929  10.208  1.00  0.00     0.032 C 
HETATM   38  C26 UNL     1      -0.239   8.646   8.900  1.00  0.00     0.017 C 
BRANCH  37  39
HETATM   39  C27 UNL     1       1.643   7.684  10.346  1.00  0.00     0.121 C 
HETATM   40  C28 UNL     1       2.010   6.245  10.694  1.00  0.00     0.040 C 
BRANCH  39  41
HETATM   41  O6  UNL     1       2.191   8.525  11.372  1.00  0.00    -0.395 OA
HETATM   42  H46 UNL     1       1.762   8.282  12.212  1.00  0.00     0.210 HD
ENDBRANCH  39  41
ENDBRANCH  37  39
ENDBRANCH  36  37
ENDBRANCH  34  35
ENDBRANCH  31  34
BRANCH  32  43
HETATM   43  O7  UNL     1      -1.039   7.003  15.675  1.00  0.00    -0.392 OA
HETATM   44  H48 UNL     1      -0.269   6.480  15.384  1.00  0.00     0.210 HD
ENDBRANCH  32  43
BRANCH  33  45
HETATM   45  O8  UNL     1      -3.576   6.232  16.362  1.00  0.00    -0.390 OA
HETATM   46  H50 UNL     1      -2.797   6.533  16.871  1.00  0.00     0.210 HD
ENDBRANCH  33  45
ENDBRANCH  27  28
ENDBRANCH   2  27
TORSDOF 21
ENDMDL
MODEL 9
REMARK minimizedAffinity -7.50318861
REMARK CNNscore 0.351336807
REMARK CNNaffinity 6.76128387
REMARK  21 active torsions:
REMARK  status: ('A' for Active; 'I' for Inactive)
REMARK    1  A    between atoms: C2_2  and  C18_25 
REMARK    2  A    between atoms: C3_3  and  C4_4 
REMARK    3  A    between atoms: C4_4  and  O2_6 
REMARK    4  A    between atoms: O2_6  and  C5_7 
REMARK    5  A    between atoms: C5_7  and  C6_8 
REMARK    6  A    between atoms: C6_8  and  C7_9 
REMARK    7  A    between atoms: C7_9  and  C8_10 
REMARK    8  A    between atoms: C8_10  and  C9_11 
REMARK    9  A    between atoms: C9_11  and  C10_12 
REMARK   10  A    between atoms: C10_12  and  C11_13 
REMARK   11  A    between atoms: C11_13  and  C12_14 
REMARK       I    between atoms: C12_14  and  N1_16 
REMARK   12  A    between atoms: N1_16  and  C13_17 
REMARK   13  A    between atoms: C17_23  and  O4_24 
REMARK   14  A    between atoms: C18_25  and  C19_26 
REMARK   15  A    between atoms: C21_29  and  C22_30 
REMARK   16  A    between atoms: C22_30  and  C23_31 
REMARK   17  A    between atoms: C24_32  and  C25_33 
REMARK   18  A    between atoms: C25_33  and  C27_35 
REMARK   19  A    between atoms: C27_35  and  O6_37 
REMARK   20  A    between atoms: C29_38  and  O7_39 
REMARK   21  A    between atoms: C30_40  and  O8_41 
ROOT
HETATM    1  C1  UNL     1       0.430   7.468  10.680  1.00  0.00     0.043 C 
HETATM    2  C2  UNL     1      -0.238   6.640  11.746  1.00  0.00    -0.075 C 
HETATM    3  C3  UNL     1       0.035   5.339  11.985  1.00  0.00     0.084 C 
ENDROOT
BRANCH   3   4
HETATM    4  C4  UNL     1       0.957   4.490  11.191  1.00  0.00     0.283 C 
HETATM    5  O1  UNL     1       1.947   4.867  10.589  1.00  0.00    -0.260 OA
BRANCH   4   6
HETATM    6  O2  UNL     1       0.482   3.218  11.239  1.00  0.00    -0.318 OA
BRANCH   6   7
HETATM    7  C5  UNL     1      -0.831   3.082  11.804  1.00  0.00     0.179 C 
BRANCH   7   8
HETATM    8  C6  UNL     1      -1.652   2.063  11.016  1.00  0.00     0.027 C 
BRANCH   8   9
HETATM    9  C7  UNL     1      -3.008   1.762  11.657  1.00  0.00     0.002 C 
BRANCH   9  10
HETATM   10  C8  UNL     1      -3.789   3.031  12.011  1.00  0.00     0.000 C 
BRANCH  10  11
HETATM   11  C9  UNL     1      -5.129   3.148  11.280  1.00  0.00     0.000 C 
BRANCH  11  12
HETATM   12  C10 UNL     1      -6.045   1.923  11.372  1.00  0.00     0.009 C 
BRANCH  12  13
HETATM   13  C11 UNL     1      -6.862   1.864  12.662  1.00  0.00     0.103 C 
BRANCH  13  14
HETATM   14  C12 UNL     1      -7.646   3.140  12.913  1.00  0.00     0.218 C 
HETATM   15  O3  UNL     1      -8.794   3.324  12.535  1.00  0.00    -0.274 OA
HETATM   16  N1  UNL     1      -6.913   4.086  13.599  1.00  0.00    -0.349 N 
HETATM   17  H19 UNL     1      -6.110   3.752  14.120  1.00  0.00     0.163 HD
BRANCH  16  18
HETATM   18  C13 UNL     1      -7.536   5.318  14.085  1.00  0.00     0.159 C 
HETATM   19  C14 UNL     1      -6.897   6.571  13.490  1.00  0.00     0.035 C 
HETATM   20  C15 UNL     1      -5.657   6.960  14.281  1.00  0.00     0.022 C 
HETATM   21  C16 UNL     1      -6.040   7.232  15.729  1.00  0.00     0.121 C 
HETATM   22  N2  UNL     1      -6.749   6.114  16.357  1.00  0.00    -0.373 N 
HETATM   23  C17 UNL     1      -7.401   5.315  15.597  1.00  0.00     0.134 C 
ATOM     24  H2  UNL     1      -6.724   5.976  17.367  1.00  0.00     0.161 HD
BRANCH  23  25
HETATM   25  O4  UNL     1      -8.003   4.279  16.202  1.00  0.00    -0.348 OA
HETATM   26  H27 UNL     1      -7.849   4.391  17.157  1.00  0.00     0.219 HD
ENDBRANCH  23  25
ENDBRANCH  16  18
ENDBRANCH  13  14
ENDBRANCH  12  13
ENDBRANCH  11  12
ENDBRANCH  10  11
ENDBRANCH   9  10
ENDBRANCH   8   9
ENDBRANCH   7   8
ENDBRANCH   6   7
ENDBRANCH   4   6
ENDBRANCH   3   4
BRANCH   2  27
HETATM   27  C18 UNL     1      -1.277   7.364  12.588  1.00  0.00     0.068 C 
BRANCH  27  28
HETATM   28  C19 UNL     1      -1.091   7.136  14.102  1.00  0.00     0.156 C 
HETATM   29  O5  UNL     1      -2.247   7.683  14.773  1.00  0.00    -0.382 OA
HETATM   30  C20 UNL     1      -2.037   7.815  16.177  1.00  0.00     0.175 C 
HETATM   31  C21 UNL     1      -1.076   8.981  16.449  1.00  0.00     0.044 C 
HETATM   32  C29 UNL     1      -0.082   9.141  15.279  1.00  0.00     0.155 C 
HETATM   33  C30 UNL     1       0.212   7.797  14.601  1.00  0.00     0.176 C 
BRANCH  31  34
HETATM   34  C22 UNL     1      -1.884  10.280  16.673  1.00  0.00     0.036 C 
BRANCH  34  35
HETATM   35  C23 UNL     1      -1.437  11.055  17.883  1.00  0.00    -0.030 C 
HETATM   36  C24 UNL     1      -0.229  10.907  18.451  1.00  0.00    -0.024 C 
BRANCH  36  37
HETATM   37  C25 UNL     1       0.292  11.585  19.707  1.00  0.00     0.032 C 
HETATM   38  C26 UNL     1       1.150  10.672  20.593  1.00  0.00     0.017 C 
BRANCH  37  39
HETATM   39  C27 UNL     1       1.035  12.891  19.319  1.00  0.00     0.121 C 
HETATM   40  C28 UNL     1       0.639  14.102  20.158  1.00  0.00     0.040 C 
BRANCH  39  41
HETATM   41  O6  UNL     1       0.778  13.220  17.945  1.00  0.00    -0.395 OA
HETATM   42  H46 UNL     1      -0.180  13.370  17.854  1.00  0.00     0.210 HD
ENDBRANCH  39  41
ENDBRANCH  37  39
ENDBRANCH  36  37
ENDBRANCH  34  35
ENDBRANCH  31  34
BRANCH  32  43
HETATM   43  O7  UNL     1       1.162   9.653  15.785  1.00  0.00    -0.392 OA
HETATM   44  H48 UNL     1       1.478  10.313  15.140  1.00  0.00     0.210 HD
ENDBRANCH  32  43
BRANCH  33  45
HETATM   45  O8  UNL     1       0.851   6.940  15.570  1.00  0.00    -0.390 OA
HETATM   46  H50 UNL     1       1.502   7.515  16.020  1.00  0.00     0.210 HD
ENDBRANCH  33  45
ENDBRANCH  27  28
ENDBRANCH   2  27
TORSDOF 21
ENDMDL
