MODEL 1
REMARK minimizedAffinity -6.04950714
REMARK CNNscore 0.383317977
REMARK CNNaffinity 5.80409813
REMARK  14 active torsions:
REMARK  status: ('A' for Active; 'I' for Inactive)
REMARK    1  A    between atoms: C2_2  and  C3_3 
REMARK    2  A    between atoms: C2_2  and  C26_30 
REMARK    3  A    between atoms: C4_4  and  C5_5 
REMARK    4  A    between atoms: C6_6  and  C7_7 
REMARK    5  A    between atoms: C6_6  and  C9_9 
REMARK    6  A    between atoms: C13_13  and  C14_14 
REMARK    7  A    between atoms: C14_14  and  C15_15 
REMARK    8  A    between atoms: C15_15  and  C16_16 
REMARK    9  A    between atoms: C16_16  and  O1_17 
REMARK   10  A    between atoms: C18_19  and  C20_21 
REMARK   11  A    between atoms: C23_25  and  O3_27 
REMARK   12  A    between atoms: C25_28  and  O4_29 
REMARK   13  A    between atoms: C26_30  and  C27_31 
REMARK   14  A    between atoms: C27_31  and  C28_32 
ROOT
HETATM    1  C9  UNL     1     -10.997 -10.034  14.834  1.00  0.00     0.044 C 
HETATM    2  C10 UNL     1     -10.870 -11.557  14.863  1.00  0.00     0.013 C 
HETATM    3  C11 UNL     1     -10.597 -11.940  13.409  1.00  0.00     0.017 C 
HETATM    4  C12 UNL     1      -9.935 -10.696  12.703  1.00  0.00     0.024 C 
HETATM    5  C13 UNL     1      -8.541 -11.198  12.093  1.00  0.00     0.029 C 
HETATM    6  C17 UNL     1      -8.128 -10.352  10.887  1.00  0.00    -0.066 C 
HETATM    7  C18 UNL     1      -7.171  -9.402  10.794  1.00  0.00    -0.021 C 
HETATM    8  C19 UNL     1      -6.769  -8.683   9.537  1.00  0.00     0.052 C 
HETATM    9  C21 UNL     1      -9.057 -10.652   9.714  1.00  0.00     0.038 C 
HETATM   10  C22 UNL     1     -10.508 -10.903  10.173  1.00  0.00     0.042 C 
HETATM   11  C23 UNL     1     -10.856 -10.153  11.481  1.00  0.00     0.065 C 
HETATM   12  C24 UNL     1     -12.383 -10.195  11.657  1.00  0.00     0.047 C 
HETATM   13  C25 UNL     1      -9.857  -9.641  13.867  1.00  0.00     0.138 C 
ENDROOT
BRANCH   5  14
HETATM   14  C14 UNL     1      -7.421 -11.679  13.057  1.00  0.00     0.012 C 
BRANCH  14  15
HETATM   15  C15 UNL     1      -6.365 -12.605  12.421  1.00  0.00     0.027 C 
BRANCH  15  16
HETATM   16  C16 UNL     1      -6.309 -14.020  12.985  1.00  0.00     0.164 C 
BRANCH  16  17
HETATM   17  O1  UNL     1      -5.894 -14.018  14.342  1.00  0.00    -0.401 OA
HETATM   18  H23 UNL     1      -5.045 -13.548  14.388  1.00  0.00     0.209 HD
ENDBRANCH  16  17
ENDBRANCH  15  16
ENDBRANCH  14  15
ENDBRANCH   5  14
BRANCH  11  19
HETATM   19  O3  UNL     1     -10.560  -8.770  11.199  1.00  0.00    -0.389 OA
HETATM   20  H35 UNL     1     -10.996  -8.211  11.863  1.00  0.00     0.210 HD
ENDBRANCH  11  19
BRANCH  13  21
HETATM   21  O4  UNL     1      -8.633  -9.700  14.588  1.00  0.00    -0.394 OA
HETATM   22  H37 UNL     1      -8.015  -9.090  14.124  1.00  0.00     0.210 HD
ENDBRANCH  13  21
BRANCH   1  23
HETATM   23  C6  UNL     1     -11.014  -9.300  16.178  1.00  0.00    -0.074 C 
HETATM   24  C5  UNL     1     -11.453  -8.026  16.303  1.00  0.00     0.003 C 
BRANCH  24  25
HETATM   25  C4  UNL     1     -11.915  -7.144  15.245  1.00  0.00     0.001 C 
HETATM   26  C3  UNL     1     -12.353  -5.901  15.493  1.00  0.00     0.006 C 
BRANCH  26  27
HETATM   27  C2  UNL     1     -12.837  -4.918  14.531  1.00  0.00    -0.067 C 
HETATM   28  C1  UNL     1     -12.934  -5.276  13.236  1.00  0.00     0.019 C 
BRANCH  27  29
HETATM   29  C26 UNL     1     -13.205  -3.504  14.942  1.00  0.00     0.041 C 
BRANCH  29  30
HETATM   30  C27 UNL     1     -14.712  -3.298  15.167  1.00  0.00     0.032 C 
BRANCH  30  31
HETATM   31  C28 UNL     1     -15.090  -1.894  15.551  1.00  0.00    -0.024 C 
HETATM   32  C29 UNL     1     -15.864  -1.498  16.581  1.00  0.00    -0.091 C 
HETATM   33  C30 UNL     1     -16.483  -2.415  17.601  1.00  0.00     0.042 C 
HETATM   34  C31 UNL     1     -16.163  -0.038  16.805  1.00  0.00     0.042 C 
ENDBRANCH  30  31
ENDBRANCH  29  30
ENDBRANCH  27  29
ENDBRANCH  26  27
ENDBRANCH  24  25
BRANCH  23  35
HETATM   35  C7  UNL     1     -10.515 -10.102  17.377  1.00  0.00     0.030 C 
HETATM   36  C8  UNL     1      -9.694  -9.374  18.440  1.00  0.00     0.010 C 
ENDBRANCH  23  35
ENDBRANCH   1  23
BRANCH   7  37
HETATM   37  C20 UNL     1      -6.410  -8.911  11.975  1.00  0.00     0.265 C 
HETATM   38  O2  UNL     1      -6.875  -8.112  12.779  1.00  0.00    -0.302 OA
ENDBRANCH   7  37
TORSDOF 14
ENDMDL
MODEL 2
REMARK minimizedAffinity -5.76848936
REMARK CNNscore 0.362217575
REMARK CNNaffinity 5.8840065
REMARK  14 active torsions:
REMARK  status: ('A' for Active; 'I' for Inactive)
REMARK    1  A    between atoms: C2_2  and  C3_3 
REMARK    2  A    between atoms: C2_2  and  C26_30 
REMARK    3  A    between atoms: C4_4  and  C5_5 
REMARK    4  A    between atoms: C6_6  and  C7_7 
REMARK    5  A    between atoms: C6_6  and  C9_9 
REMARK    6  A    between atoms: C13_13  and  C14_14 
REMARK    7  A    between atoms: C14_14  and  C15_15 
REMARK    8  A    between atoms: C15_15  and  C16_16 
REMARK    9  A    between atoms: C16_16  and  O1_17 
REMARK   10  A    between atoms: C18_19  and  C20_21 
REMARK   11  A    between atoms: C23_25  and  O3_27 
REMARK   12  A    between atoms: C25_28  and  O4_29 
REMARK   13  A    between atoms: C26_30  and  C27_31 
REMARK   14  A    between atoms: C27_31  and  C28_32 
ROOT
HETATM    1  C9  UNL     1     -15.085  -3.308  14.737  1.00  0.00     0.044 C 
HETATM    2  C10 UNL     1     -16.336  -3.669  13.936  1.00  0.00     0.013 C 
HETATM    3  C11 UNL     1     -17.461  -2.902  14.630  1.00  0.00     0.017 C 
HETATM    4  C12 UNL     1     -16.818  -1.658  15.349  1.00  0.00     0.024 C 
HETATM    5  C13 UNL     1     -17.574  -0.359  14.793  1.00  0.00     0.029 C 
HETATM    6  C17 UNL     1     -17.540   0.782  15.811  1.00  0.00    -0.066 C 
HETATM    7  C18 UNL     1     -16.801   1.914  15.805  1.00  0.00    -0.021 C 
HETATM    8  C19 UNL     1     -16.900   3.030  16.807  1.00  0.00     0.052 C 
HETATM    9  C21 UNL     1     -18.440   0.434  16.994  1.00  0.00     0.038 C 
HETATM   10  C22 UNL     1     -18.394  -1.069  17.336  1.00  0.00     0.042 C 
HETATM   11  C23 UNL     1     -17.044  -1.723  16.956  1.00  0.00     0.065 C 
HETATM   12  C24 UNL     1     -16.981  -3.102  17.635  1.00  0.00     0.047 C 
HETATM   13  C25 UNL     1     -15.295  -1.797  14.985  1.00  0.00     0.138 C 
ENDROOT
BRANCH   5  14
HETATM   14  C14 UNL     1     -17.440   0.009  13.288  1.00  0.00     0.012 C 
BRANCH  14  15
HETATM   15  C15 UNL     1     -18.765   0.032  12.500  1.00  0.00     0.027 C 
BRANCH  15  16
HETATM   16  C16 UNL     1     -18.694  -0.528  11.084  1.00  0.00     0.164 C 
BRANCH  16  17
HETATM   17  O1  UNL     1     -17.358  -0.834  10.717  1.00  0.00    -0.401 OA
HETATM   18  H23 UNL     1     -16.828  -0.030  10.844  1.00  0.00     0.209 HD
ENDBRANCH  16  17
ENDBRANCH  15  16
ENDBRANCH  14  15
ENDBRANCH   5  14
BRANCH  11  19
HETATM   19  O3  UNL     1     -16.049  -0.935  17.641  1.00  0.00    -0.389 OA
HETATM   20  H35 UNL     1     -15.216  -1.433  17.671  1.00  0.00     0.210 HD
ENDBRANCH  11  19
BRANCH  13  21
HETATM   21  O4  UNL     1     -14.944  -1.106  13.793  1.00  0.00    -0.394 OA
HETATM   22  H37 UNL     1     -14.693  -0.196  14.071  1.00  0.00     0.210 HD
ENDBRANCH  13  21
BRANCH   1  23
HETATM   23  C6  UNL     1     -13.728  -3.706  14.147  1.00  0.00    -0.074 C 
HETATM   24  C5  UNL     1     -13.545  -3.909  12.822  1.00  0.00     0.003 C 
BRANCH  24  25
HETATM   25  C4  UNL     1     -14.548  -3.846  11.773  1.00  0.00     0.001 C 
HETATM   26  C3  UNL     1     -14.539  -4.686  10.727  1.00  0.00     0.006 C 
BRANCH  26  27
HETATM   27  C2  UNL     1     -15.482  -4.733   9.615  1.00  0.00    -0.067 C 
HETATM   28  C1  UNL     1     -16.719  -5.216   9.837  1.00  0.00     0.019 C 
BRANCH  27  29
HETATM   29  C26 UNL     1     -15.099  -4.280   8.218  1.00  0.00     0.041 C 
BRANCH  29  30
HETATM   30  C27 UNL     1     -13.801  -4.919   7.695  1.00  0.00     0.032 C 
BRANCH  30  31
HETATM   31  C28 UNL     1     -13.438  -4.514   6.292  1.00  0.00    -0.024 C 
HETATM   32  C29 UNL     1     -12.856  -5.268   5.339  1.00  0.00    -0.091 C 
HETATM   33  C30 UNL     1     -12.485  -6.718   5.487  1.00  0.00     0.042 C 
HETATM   34  C31 UNL     1     -12.539  -4.687   3.985  1.00  0.00     0.042 C 
ENDBRANCH  30  31
ENDBRANCH  29  30
ENDBRANCH  27  29
ENDBRANCH  26  27
ENDBRANCH  24  25
BRANCH  23  35
HETATM   35  C7  UNL     1     -12.586  -3.846  15.150  1.00  0.00     0.030 C 
HETATM   36  C8  UNL     1     -11.943  -5.222  15.321  1.00  0.00     0.010 C 
ENDBRANCH  23  35
ENDBRANCH   1  23
BRANCH   7  37
HETATM   37  C20 UNL     1     -15.737   2.174  14.797  1.00  0.00     0.265 C 
HETATM   38  O2  UNL     1     -14.591   1.759  14.920  1.00  0.00    -0.302 OA
ENDBRANCH   7  37
TORSDOF 14
ENDMDL
MODEL 3
REMARK minimizedAffinity -6.38662958
REMARK CNNscore 0.304757059
REMARK CNNaffinity 5.81664896
REMARK  14 active torsions:
REMARK  status: ('A' for Active; 'I' for Inactive)
REMARK    1  A    between atoms: C2_2  and  C3_3 
REMARK    2  A    between atoms: C2_2  and  C26_30 
REMARK    3  A    between atoms: C4_4  and  C5_5 
REMARK    4  A    between atoms: C6_6  and  C7_7 
REMARK    5  A    between atoms: C6_6  and  C9_9 
REMARK    6  A    between atoms: C13_13  and  C14_14 
REMARK    7  A    between atoms: C14_14  and  C15_15 
REMARK    8  A    between atoms: C15_15  and  C16_16 
REMARK    9  A    between atoms: C16_16  and  O1_17 
REMARK   10  A    between atoms: C18_19  and  C20_21 
REMARK   11  A    between atoms: C23_25  and  O3_27 
REMARK   12  A    between atoms: C25_28  and  O4_29 
REMARK   13  A    between atoms: C26_30  and  C27_31 
REMARK   14  A    between atoms: C27_31  and  C28_32 
ROOT
HETATM    1  C9  UNL     1      -0.555  12.290  17.877  1.00  0.00     0.044 C 
HETATM    2  C10 UNL     1      -0.723  11.181  18.915  1.00  0.00     0.013 C 
HETATM    3  C11 UNL     1      -1.848  10.310  18.357  1.00  0.00     0.017 C 
HETATM    4  C12 UNL     1      -1.868  10.499  16.794  1.00  0.00     0.024 C 
HETATM    5  C13 UNL     1      -1.716   9.041  16.149  1.00  0.00     0.029 C 
HETATM    6  C17 UNL     1      -2.352   8.980  14.758  1.00  0.00    -0.066 C 
HETATM    7  C18 UNL     1      -1.757   8.952  13.544  1.00  0.00    -0.021 C 
HETATM    8  C19 UNL     1      -2.462   8.799  12.226  1.00  0.00     0.052 C 
HETATM    9  C21 UNL     1      -3.871   9.059  14.890  1.00  0.00     0.038 C 
HETATM   10  C22 UNL     1      -4.306  10.001  16.030  1.00  0.00     0.042 C 
HETATM   11  C23 UNL     1      -3.279  11.128  16.294  1.00  0.00     0.065 C 
HETATM   12  C24 UNL     1      -3.954  12.182  17.189  1.00  0.00     0.047 C 
HETATM   13  C25 UNL     1      -0.682  11.504  16.552  1.00  0.00     0.138 C 
ENDROOT
BRANCH   5  14
HETATM   14  C14 UNL     1      -0.402   8.243  16.379  1.00  0.00     0.012 C 
BRANCH  14  15
HETATM   15  C15 UNL     1       0.825   8.768  15.607  1.00  0.00     0.027 C 
BRANCH  15  16
HETATM   16  C16 UNL     1       2.091   7.929  15.739  1.00  0.00     0.164 C 
BRANCH  16  17
HETATM   17  O1  UNL     1       1.976   6.986  16.793  1.00  0.00    -0.401 OA
HETATM   18  H23 UNL     1       1.748   7.475  17.601  1.00  0.00     0.209 HD
ENDBRANCH  16  17
ENDBRANCH  15  16
ENDBRANCH  14  15
ENDBRANCH   5  14
BRANCH  11  19
HETATM   19  O3  UNL     1      -3.119  11.784  15.019  1.00  0.00    -0.389 OA
HETATM   20  H35 UNL     1      -2.706  12.652  15.159  1.00  0.00     0.210 HD
ENDBRANCH  11  19
BRANCH  13  21
HETATM   21  O4  UNL     1       0.558  10.851  16.311  1.00  0.00    -0.394 OA
HETATM   22  H37 UNL     1       0.607  10.712  15.338  1.00  0.00     0.210 HD
ENDBRANCH  13  21
BRANCH   1  23
HETATM   23  C6  UNL     1       0.675  13.195  18.000  1.00  0.00    -0.074 C 
HETATM   24  C5  UNL     1       1.721  12.891  18.801  1.00  0.00     0.003 C 
BRANCH  24  25
HETATM   25  C4  UNL     1       1.852  11.746  19.686  1.00  0.00     0.001 C 
HETATM   26  C3  UNL     1       2.659  11.760  20.757  1.00  0.00     0.006 C 
BRANCH  26  27
HETATM   27  C2  UNL     1       2.878  10.689  21.721  1.00  0.00    -0.067 C 
HETATM   28  C1  UNL     1       2.434   9.453  21.425  1.00  0.00     0.019 C 
BRANCH  27  29
HETATM   29  C26 UNL     1       3.566  10.934  23.052  1.00  0.00     0.041 C 
BRANCH  29  30
HETATM   30  C27 UNL     1       5.097  11.037  22.947  1.00  0.00     0.032 C 
BRANCH  30  31
HETATM   31  C28 UNL     1       5.621  12.447  22.975  1.00  0.00    -0.024 C 
HETATM   32  C29 UNL     1       6.903  12.851  23.079  1.00  0.00    -0.091 C 
HETATM   33  C30 UNL     1       8.096  11.937  23.144  1.00  0.00     0.042 C 
HETATM   34  C31 UNL     1       7.249  14.317  23.117  1.00  0.00     0.042 C 
ENDBRANCH  30  31
ENDBRANCH  29  30
ENDBRANCH  27  29
ENDBRANCH  26  27
ENDBRANCH  24  25
BRANCH  23  35
HETATM   35  C7  UNL     1       0.653  14.462  17.148  1.00  0.00     0.030 C 
HETATM   36  C8  UNL     1      -0.529  14.674  16.204  1.00  0.00     0.010 C 
ENDBRANCH  23  35
ENDBRANCH   1  23
BRANCH   7  37
HETATM   37  C20 UNL     1      -0.289   9.119  13.365  1.00  0.00     0.265 C 
HETATM   38  O2  UNL     1       0.280   8.893  12.305  1.00  0.00    -0.302 OA
ENDBRANCH   7  37
TORSDOF 14
ENDMDL
MODEL 4
REMARK minimizedAffinity -6.46124125
REMARK CNNscore 0.303947985
REMARK CNNaffinity 5.62123346
REMARK  14 active torsions:
REMARK  status: ('A' for Active; 'I' for Inactive)
REMARK    1  A    between atoms: C2_2  and  C3_3 
REMARK    2  A    between atoms: C2_2  and  C26_30 
REMARK    3  A    between atoms: C4_4  and  C5_5 
REMARK    4  A    between atoms: C6_6  and  C7_7 
REMARK    5  A    between atoms: C6_6  and  C9_9 
REMARK    6  A    between atoms: C13_13  and  C14_14 
REMARK    7  A    between atoms: C14_14  and  C15_15 
REMARK    8  A    between atoms: C15_15  and  C16_16 
REMARK    9  A    between atoms: C16_16  and  O1_17 
REMARK   10  A    between atoms: C18_19  and  C20_21 
REMARK   11  A    between atoms: C23_25  and  O3_27 
REMARK   12  A    between atoms: C25_28  and  O4_29 
REMARK   13  A    between atoms: C26_30  and  C27_31 
REMARK   14  A    between atoms: C27_31  and  C28_32 
ROOT
HETATM    1  C9  UNL     1       2.382  11.162  20.691  1.00  0.00     0.044 C 
HETATM    2  C10 UNL     1       0.869  11.301  20.530  1.00  0.00     0.013 C 
HETATM    3  C11 UNL     1       0.700  12.138  19.263  1.00  0.00     0.017 C 
HETATM    4  C12 UNL     1       1.983  11.924  18.375  1.00  0.00     0.024 C 
HETATM    5  C13 UNL     1       1.477  11.404  16.947  1.00  0.00     0.029 C 
HETATM    6  C17 UNL     1       2.468  11.770  15.840  1.00  0.00    -0.066 C 
HETATM    7  C18 UNL     1       3.343  10.981  15.177  1.00  0.00    -0.021 C 
HETATM    8  C19 UNL     1       4.218  11.412  14.033  1.00  0.00     0.052 C 
HETATM    9  C21 UNL     1       2.431  13.278  15.604  1.00  0.00     0.038 C 
HETATM   10  C22 UNL     1       2.224  14.065  16.914  1.00  0.00     0.042 C 
HETATM   11  C23 UNL     1       2.783  13.319  18.149  1.00  0.00     0.065 C 
HETATM   12  C24 UNL     1       2.834  14.316  19.320  1.00  0.00     0.047 C 
HETATM   13  C25 UNL     1       2.832  10.916  19.233  1.00  0.00     0.138 C 
ENDROOT
BRANCH   5  14
HETATM   14  C14 UNL     1       0.763  10.026  16.851  1.00  0.00     0.012 C 
BRANCH  14  15
HETATM   15  C15 UNL     1      -0.700  10.080  16.371  1.00  0.00     0.027 C 
BRANCH  15  16
HETATM   16  C16 UNL     1      -1.754  10.020  17.472  1.00  0.00     0.164 C 
BRANCH  16  17
HETATM   17  O1  UNL     1      -2.681   8.971  17.241  1.00  0.00    -0.401 OA
HETATM   18  H23 UNL     1      -3.054   9.099  16.353  1.00  0.00     0.209 HD
ENDBRANCH  16  17
ENDBRANCH  15  16
ENDBRANCH  14  15
ENDBRANCH   5  14
BRANCH  11  19
HETATM   19  O3  UNL     1       4.166  13.065  17.829  1.00  0.00    -0.389 OA
HETATM   20  H35 UNL     1       4.645  12.846  18.645  1.00  0.00     0.210 HD
ENDBRANCH  11  19
BRANCH  13  21
HETATM   21  O4  UNL     1       2.565   9.556  18.917  1.00  0.00    -0.394 OA
HETATM   22  H37 UNL     1       3.191   9.317  18.195  1.00  0.00     0.210 HD
ENDBRANCH  13  21
BRANCH   1  23
HETATM   23  C6  UNL     1       2.894  10.155  21.726  1.00  0.00    -0.074 C 
HETATM   24  C5  UNL     1       4.062  10.325  22.386  1.00  0.00     0.003 C 
BRANCH  24  25
HETATM   25  C4  UNL     1       5.024  11.400  22.216  1.00  0.00     0.001 C 
HETATM   26  C3  UNL     1       6.024  11.607  23.086  1.00  0.00     0.006 C 
BRANCH  26  27
HETATM   27  C2  UNL     1       7.053  12.639  23.031  1.00  0.00    -0.067 C 
HETATM   28  C1  UNL     1       8.346  12.263  23.044  1.00  0.00     0.019 C 
BRANCH  27  29
HETATM   29  C26 UNL     1       6.707  14.116  22.988  1.00  0.00     0.041 C 
BRANCH  29  30
HETATM   30  C27 UNL     1       7.936  15.036  22.901  1.00  0.00     0.032 C 
BRANCH  30  31
HETATM   31  C28 UNL     1       8.503  15.433  24.237  1.00  0.00    -0.024 C 
HETATM   32  C29 UNL     1       8.171  16.499  24.992  1.00  0.00    -0.091 C 
HETATM   33  C30 UNL     1       7.105  17.504  24.650  1.00  0.00     0.042 C 
HETATM   34  C31 UNL     1       8.864  16.760  26.304  1.00  0.00     0.042 C 
ENDBRANCH  30  31
ENDBRANCH  29  30
ENDBRANCH  27  29
ENDBRANCH  26  27
ENDBRANCH  24  25
BRANCH  23  35
HETATM   35  C7  UNL     1       1.994   8.948  21.976  1.00  0.00     0.030 C 
HETATM   36  C8  UNL     1       2.267   8.089  23.210  1.00  0.00     0.010 C 
ENDBRANCH  23  35
ENDBRANCH   1  23
BRANCH   7  37
HETATM   37  C20 UNL     1       3.581   9.559  15.545  1.00  0.00     0.265 C 
HETATM   38  O2  UNL     1       3.135   8.622  14.895  1.00  0.00    -0.302 OA
ENDBRANCH   7  37
TORSDOF 14
ENDMDL
MODEL 5
REMARK minimizedAffinity -5.86337566
REMARK CNNscore 0.29855898
REMARK CNNaffinity 5.64679003
REMARK  14 active torsions:
REMARK  status: ('A' for Active; 'I' for Inactive)
REMARK    1  A    between atoms: C2_2  and  C3_3 
REMARK    2  A    between atoms: C2_2  and  C26_30 
REMARK    3  A    between atoms: C4_4  and  C5_5 
REMARK    4  A    between atoms: C6_6  and  C7_7 
REMARK    5  A    between atoms: C6_6  and  C9_9 
REMARK    6  A    between atoms: C13_13  and  C14_14 
REMARK    7  A    between atoms: C14_14  and  C15_15 
REMARK    8  A    between atoms: C15_15  and  C16_16 
REMARK    9  A    between atoms: C16_16  and  O1_17 
REMARK   10  A    between atoms: C18_19  and  C20_21 
REMARK   11  A    between atoms: C23_25  and  O3_27 
REMARK   12  A    between atoms: C25_28  and  O4_29 
REMARK   13  A    between atoms: C26_30  and  C27_31 
REMARK   14  A    between atoms: C27_31  and  C28_32 
ROOT
HETATM    1  C9  UNL     1       2.805  11.538  20.938  1.00  0.00     0.044 C 
HETATM    2  C10 UNL     1       1.301  11.740  20.762  1.00  0.00     0.013 C 
HETATM    3  C11 UNL     1       1.178  12.544  19.468  1.00  0.00     0.017 C 
HETATM    4  C12 UNL     1       2.455  12.246  18.597  1.00  0.00     0.024 C 
HETATM    5  C13 UNL     1       1.935  11.705  17.182  1.00  0.00     0.029 C 
HETATM    6  C17 UNL     1       2.947  11.992  16.071  1.00  0.00    -0.066 C 
HETATM    7  C18 UNL     1       3.790  11.144  15.439  1.00  0.00    -0.021 C 
HETATM    8  C19 UNL     1       4.690  11.499  14.289  1.00  0.00     0.052 C 
HETATM    9  C21 UNL     1       2.981  13.492  15.789  1.00  0.00     0.038 C 
HETATM   10  C22 UNL     1       2.802  14.327  17.073  1.00  0.00     0.042 C 
HETATM   11  C23 UNL     1       3.319  13.595  18.335  1.00  0.00     0.065 C 
HETATM   12  C24 UNL     1       3.408  14.625  19.475  1.00  0.00     0.047 C 
HETATM   13  C25 UNL     1       3.253  11.227  19.491  1.00  0.00     0.138 C 
ENDROOT
BRANCH   5  14
HETATM   14  C14 UNL     1       1.160  10.358  17.123  1.00  0.00     0.012 C 
BRANCH  14  15
HETATM   15  C15 UNL     1       0.948   9.787  15.707  1.00  0.00     0.027 C 
BRANCH  15  16
HETATM   16  C16 UNL     1       0.354   8.384  15.648  1.00  0.00     0.164 C 
BRANCH  16  17
HETATM   17  O1  UNL     1       1.350   7.415  15.367  1.00  0.00    -0.401 OA
HETATM   18  H23 UNL     1       1.797   7.682  14.546  1.00  0.00     0.209 HD
ENDBRANCH  16  17
ENDBRANCH  15  16
ENDBRANCH  14  15
ENDBRANCH   5  14
BRANCH  11  19
HETATM   19  O3  UNL     1       4.691  13.269  18.032  1.00  0.00    -0.389 OA
HETATM   20  H35 UNL     1       5.155  13.054  18.858  1.00  0.00     0.210 HD
ENDBRANCH  11  19
BRANCH  13  21
HETATM   21  O4  UNL     1       2.926   9.872  19.215  1.00  0.00    -0.394 OA
HETATM   22  H37 UNL     1       3.544   9.582  18.506  1.00  0.00     0.210 HD
ENDBRANCH  13  21
BRANCH   1  23
HETATM   23  C6  UNL     1       3.265  10.541  22.007  1.00  0.00    -0.074 C 
HETATM   24  C5  UNL     1       4.411  10.706  22.707  1.00  0.00     0.003 C 
BRANCH  24  25
HETATM   25  C4  UNL     1       5.394  11.765  22.554  1.00  0.00     0.001 C 
HETATM   26  C3  UNL     1       6.646  11.648  23.020  1.00  0.00     0.006 C 
BRANCH  26  27
HETATM   27  C2  UNL     1       7.724  12.625  22.931  1.00  0.00    -0.067 C 
HETATM   28  C1  UNL     1       7.410  13.913  22.696  1.00  0.00     0.019 C 
BRANCH  27  29
HETATM   29  C26 UNL     1       9.183  12.228  23.070  1.00  0.00     0.041 C 
BRANCH  29  30
HETATM   30  C27 UNL     1      10.085  12.790  21.958  1.00  0.00     0.032 C 
BRANCH  30  31
HETATM   31  C28 UNL     1       9.969  12.063  20.646  1.00  0.00    -0.024 C 
HETATM   32  C29 UNL     1      10.943  11.818  19.748  1.00  0.00    -0.091 C 
HETATM   33  C30 UNL     1      12.388  12.200  19.912  1.00  0.00     0.042 C 
HETATM   34  C31 UNL     1      10.642  11.091  18.463  1.00  0.00     0.042 C 
ENDBRANCH  30  31
ENDBRANCH  29  30
ENDBRANCH  27  29
ENDBRANCH  26  27
ENDBRANCH  24  25
BRANCH  23  35
HETATM   35  C7  UNL     1       2.338   9.351  22.244  1.00  0.00     0.030 C 
HETATM   36  C8  UNL     1       2.635   8.432  23.428  1.00  0.00     0.010 C 
ENDBRANCH  23  35
ENDBRANCH   1  23
BRANCH   7  37
HETATM   37  C20 UNL     1       3.961   9.725  15.853  1.00  0.00     0.265 C 
HETATM   38  O2  UNL     1       5.053   9.236  16.113  1.00  0.00    -0.302 OA
ENDBRANCH   7  37
TORSDOF 14
ENDMDL
MODEL 6
REMARK minimizedAffinity -6.33413124
REMARK CNNscore 0.288940907
REMARK CNNaffinity 6.31104279
REMARK  14 active torsions:
REMARK  status: ('A' for Active; 'I' for Inactive)
REMARK    1  A    between atoms: C2_2  and  C3_3 
REMARK    2  A    between atoms: C2_2  and  C26_30 
REMARK    3  A    between atoms: C4_4  and  C5_5 
REMARK    4  A    between atoms: C6_6  and  C7_7 
REMARK    5  A    between atoms: C6_6  and  C9_9 
REMARK    6  A    between atoms: C13_13  and  C14_14 
REMARK    7  A    between atoms: C14_14  and  C15_15 
REMARK    8  A    between atoms: C15_15  and  C16_16 
REMARK    9  A    between atoms: C16_16  and  O1_17 
REMARK   10  A    between atoms: C18_19  and  C20_21 
REMARK   11  A    between atoms: C23_25  and  O3_27 
REMARK   12  A    between atoms: C25_28  and  O4_29 
REMARK   13  A    between atoms: C26_30  and  C27_31 
REMARK   14  A    between atoms: C27_31  and  C28_32 
ROOT
HETATM    1  C9  UNL     1     -11.308   9.921  14.056  1.00  0.00     0.044 C 
HETATM    2  C10 UNL     1     -10.103   9.319  14.779  1.00  0.00     0.013 C 
HETATM    3  C11 UNL     1      -9.737  10.362  15.833  1.00  0.00     0.017 C 
HETATM    4  C12 UNL     1     -11.036  11.191  16.157  1.00  0.00     0.024 C 
HETATM    5  C13 UNL     1     -11.275  11.077  17.738  1.00  0.00     0.029 C 
HETATM    6  C17 UNL     1     -12.044  12.288  18.271  1.00  0.00    -0.066 C 
HETATM    7  C18 UNL     1     -13.336  12.379  18.660  1.00  0.00    -0.021 C 
HETATM    8  C19 UNL     1     -13.986  13.594  19.261  1.00  0.00     0.052 C 
HETATM    9  C21 UNL     1     -11.146  13.522  18.223  1.00  0.00     0.038 C 
HETATM   10  C22 UNL     1     -10.227  13.522  16.985  1.00  0.00     0.042 C 
HETATM   11  C23 UNL     1     -10.843  12.760  15.787  1.00  0.00     0.065 C 
HETATM   12  C24 UNL     1     -10.021  13.107  14.534  1.00  0.00     0.047 C 
HETATM   13  C25 UNL     1     -12.114  10.519  15.231  1.00  0.00     0.138 C 
ENDROOT
BRANCH   5  14
HETATM   14  C14 UNL     1     -11.593   9.688  18.359  1.00  0.00     0.012 C 
BRANCH  14  15
HETATM   15  C15 UNL     1     -11.353   9.581  19.878  1.00  0.00     0.027 C 
BRANCH  15  16
HETATM   16  C16 UNL     1     -12.418   8.819  20.657  1.00  0.00     0.164 C 
BRANCH  16  17
HETATM   17  O1  UNL     1     -13.286   8.112  19.786  1.00  0.00    -0.401 OA
HETATM   18  H23 UNL     1     -13.652   8.751  19.153  1.00  0.00     0.209 HD
ENDBRANCH  16  17
ENDBRANCH  15  16
ENDBRANCH  14  15
ENDBRANCH   5  14
BRANCH  11  19
HETATM   19  O3  UNL     1     -12.121  13.391  15.570  1.00  0.00    -0.389 OA
HETATM   20  H35 UNL     1     -12.445  13.155  14.685  1.00  0.00     0.210 HD
ENDBRANCH  11  19
BRANCH  13  21
HETATM   21  O4  UNL     1     -12.808   9.455  15.869  1.00  0.00    -0.394 OA
HETATM   22  H37 UNL     1     -13.586   9.865  16.311  1.00  0.00     0.210 HD
ENDBRANCH  13  21
BRANCH   1  23
HETATM   23  C6  UNL     1     -12.090   9.010  13.104  1.00  0.00    -0.074 C 
HETATM   24  C5  UNL     1     -11.795   7.699  12.950  1.00  0.00     0.003 C 
BRANCH  24  25
HETATM   25  C4  UNL     1     -10.714   6.958  13.577  1.00  0.00     0.001 C 
HETATM   26  C3  UNL     1      -9.731   6.391  12.862  1.00  0.00     0.006 C 
BRANCH  26  27
HETATM   27  C2  UNL     1      -8.593   5.628  13.362  1.00  0.00    -0.067 C 
HETATM   28  C1  UNL     1      -7.848   6.155  14.353  1.00  0.00     0.019 C 
BRANCH  27  29
HETATM   29  C26 UNL     1      -8.213   4.278  12.782  1.00  0.00     0.041 C 
BRANCH  29  30
HETATM   30  C27 UNL     1      -6.927   3.687  13.384  1.00  0.00     0.032 C 
BRANCH  30  31
HETATM   31  C28 UNL     1      -5.704   3.875  12.527  1.00  0.00    -0.024 C 
HETATM   32  C29 UNL     1      -5.211   3.036  11.595  1.00  0.00    -0.091 C 
HETATM   33  C30 UNL     1      -5.834   1.727  11.192  1.00  0.00     0.042 C 
HETATM   34  C31 UNL     1      -3.950   3.375  10.843  1.00  0.00     0.042 C 
ENDBRANCH  30  31
ENDBRANCH  29  30
ENDBRANCH  27  29
ENDBRANCH  26  27
ENDBRANCH  24  25
BRANCH  23  35
HETATM   35  C7  UNL     1     -13.237   9.674  12.346  1.00  0.00     0.030 C 
HETATM   36  C8  UNL     1     -13.451  11.175  12.535  1.00  0.00     0.010 C 
ENDBRANCH  23  35
ENDBRANCH   1  23
BRANCH   7  37
HETATM   37  C20 UNL     1     -14.306  11.263  18.493  1.00  0.00     0.265 C 
HETATM   38  O2  UNL     1     -14.909  10.762  19.433  1.00  0.00    -0.302 OA
ENDBRANCH   7  37
TORSDOF 14
ENDMDL
MODEL 7
REMARK minimizedAffinity -7.57768822
REMARK CNNscore 0.277633965
REMARK CNNaffinity 6.28376007
REMARK  14 active torsions:
REMARK  status: ('A' for Active; 'I' for Inactive)
REMARK    1  A    between atoms: C2_2  and  C3_3 
REMARK    2  A    between atoms: C2_2  and  C26_30 
REMARK    3  A    between atoms: C4_4  and  C5_5 
REMARK    4  A    between atoms: C6_6  and  C7_7 
REMARK    5  A    between atoms: C6_6  and  C9_9 
REMARK    6  A    between atoms: C13_13  and  C14_14 
REMARK    7  A    between atoms: C14_14  and  C15_15 
REMARK    8  A    between atoms: C15_15  and  C16_16 
REMARK    9  A    between atoms: C16_16  and  O1_17 
REMARK   10  A    between atoms: C18_19  and  C20_21 
REMARK   11  A    between atoms: C23_25  and  O3_27 
REMARK   12  A    between atoms: C25_28  and  O4_29 
REMARK   13  A    between atoms: C26_30  and  C27_31 
REMARK   14  A    between atoms: C27_31  and  C28_32 
ROOT
HETATM    1  C9  UNL     1      -0.833   7.341  13.063  1.00  0.00     0.044 C 
HETATM    2  C10 UNL     1      -1.186   8.416  12.035  1.00  0.00     0.013 C 
HETATM    3  C11 UNL     1      -2.454   9.064  12.588  1.00  0.00     0.017 C 
HETATM    4  C12 UNL     1      -2.457   8.854  14.149  1.00  0.00     0.024 C 
HETATM    5  C13 UNL     1      -2.576  10.308  14.811  1.00  0.00     0.029 C 
HETATM    6  C17 UNL     1      -3.227  10.236  16.194  1.00  0.00    -0.066 C 
HETATM    7  C18 UNL     1      -2.660  10.355  17.415  1.00  0.00    -0.021 C 
HETATM    8  C19 UNL     1      -3.396  10.363  18.726  1.00  0.00     0.052 C 
HETATM    9  C21 UNL     1      -4.706   9.889  16.042  1.00  0.00     0.038 C 
HETATM   10  C22 UNL     1      -4.953   8.899  14.886  1.00  0.00     0.042 C 
HETATM   11  C23 UNL     1      -3.738   7.977  14.623  1.00  0.00     0.065 C 
HETATM   12  C24 UNL     1      -4.204   6.831  13.708  1.00  0.00     0.047 C 
HETATM   13  C25 UNL     1      -1.114   8.075  14.394  1.00  0.00     0.138 C 
ENDROOT
BRANCH   5  14
HETATM   14  C14 UNL     1      -1.423  11.332  14.606  1.00  0.00     0.012 C 
BRANCH  14  15
HETATM   15  C15 UNL     1      -1.858  12.810  14.587  1.00  0.00     0.027 C 
BRANCH  15  16
HETATM   16  C16 UNL     1      -0.766  13.810  14.224  1.00  0.00     0.164 C 
BRANCH  16  17
HETATM   17  O1  UNL     1      -0.969  14.346  12.926  1.00  0.00    -0.401 OA
HETATM   18  H23 UNL     1      -1.033  13.600  12.308  1.00  0.00     0.209 HD
ENDBRANCH  16  17
ENDBRANCH  15  16
ENDBRANCH  14  15
ENDBRANCH   5  14
BRANCH  11  19
HETATM   19  O3  UNL     1      -3.477   7.344  15.893  1.00  0.00    -0.389 OA
HETATM   20  H35 UNL     1      -2.914   6.566  15.749  1.00  0.00     0.210 HD
ENDBRANCH  11  19
BRANCH  13  21
HETATM   21  O4  UNL     1      -0.013   8.936  14.658  1.00  0.00    -0.394 OA
HETATM   22  H37 UNL     1      -0.000   9.069  15.633  1.00  0.00     0.210 HD
ENDBRANCH  13  21
BRANCH   1  23
HETATM   23  C6  UNL     1       0.540   6.673  12.946  1.00  0.00    -0.074 C 
HETATM   24  C5  UNL     1       0.684   5.354  12.682  1.00  0.00     0.003 C 
BRANCH  24  25
HETATM   25  C4  UNL     1      -0.369   4.366  12.519  1.00  0.00     0.001 C 
HETATM   26  C3  UNL     1      -1.022   4.204  11.359  1.00  0.00     0.006 C 
BRANCH  26  27
HETATM   27  C2  UNL     1      -2.088   3.255  11.062  1.00  0.00    -0.067 C 
HETATM   28  C1  UNL     1      -1.809   1.938  11.100  1.00  0.00     0.019 C 
BRANCH  27  29
HETATM   29  C26 UNL     1      -3.487   3.709  10.688  1.00  0.00     0.041 C 
BRANCH  29  30
HETATM   30  C27 UNL     1      -4.602   2.930  11.406  1.00  0.00     0.032 C 
BRANCH  30  31
HETATM   31  C28 UNL     1      -5.350   3.734  12.435  1.00  0.00    -0.024 C 
HETATM   32  C29 UNL     1      -6.569   3.486  12.952  1.00  0.00    -0.091 C 
HETATM   33  C30 UNL     1      -7.425   2.294  12.619  1.00  0.00     0.042 C 
HETATM   34  C31 UNL     1      -7.183   4.420  13.963  1.00  0.00     0.042 C 
ENDBRANCH  30  31
ENDBRANCH  29  30
ENDBRANCH  27  29
ENDBRANCH  26  27
ENDBRANCH  24  25
BRANCH  23  35
HETATM   35  C7  UNL     1       1.743   7.594  13.135  1.00  0.00     0.030 C 
HETATM   36  C8  UNL     1       2.869   7.527  12.105  1.00  0.00     0.010 C 
ENDBRANCH  23  35
ENDBRANCH   1  23
BRANCH   7  37
HETATM   37  C20 UNL     1      -1.188  10.451  17.611  1.00  0.00     0.265 C 
HETATM   38  O2  UNL     1      -0.412  10.710  16.700  1.00  0.00    -0.302 OA
ENDBRANCH   7  37
TORSDOF 14
ENDMDL
MODEL 8
REMARK minimizedAffinity -6.74501085
REMARK CNNscore 0.274977952
REMARK CNNaffinity 6.16572618
REMARK  14 active torsions:
REMARK  status: ('A' for Active; 'I' for Inactive)
REMARK    1  A    between atoms: C2_2  and  C3_3 
REMARK    2  A    between atoms: C2_2  and  C26_30 
REMARK    3  A    between atoms: C4_4  and  C5_5 
REMARK    4  A    between atoms: C6_6  and  C7_7 
REMARK    5  A    between atoms: C6_6  and  C9_9 
REMARK    6  A    between atoms: C13_13  and  C14_14 
REMARK    7  A    between atoms: C14_14  and  C15_15 
REMARK    8  A    between atoms: C15_15  and  C16_16 
REMARK    9  A    between atoms: C16_16  and  O1_17 
REMARK   10  A    between atoms: C18_19  and  C20_21 
REMARK   11  A    between atoms: C23_25  and  O3_27 
REMARK   12  A    between atoms: C25_28  and  O4_29 
REMARK   13  A    between atoms: C26_30  and  C27_31 
REMARK   14  A    between atoms: C27_31  and  C28_32 
ROOT
HETATM    1  C9  UNL     1       0.814   7.725  10.945  1.00  0.00     0.044 C 
HETATM    2  C10 UNL     1       0.729   6.933  12.250  1.00  0.00     0.013 C 
HETATM    3  C11 UNL     1       2.170   6.506  12.526  1.00  0.00     0.017 C 
HETATM    4  C12 UNL     1       3.119   7.540  11.814  1.00  0.00     0.024 C 
HETATM    5  C13 UNL     1       4.091   8.130  12.943  1.00  0.00     0.029 C 
HETATM    6  C17 UNL     1       5.417   8.602  12.342  1.00  0.00    -0.066 C 
HETATM    7  C18 UNL     1       5.856   9.861  12.116  1.00  0.00    -0.021 C 
HETATM    8  C19 UNL     1       7.219  10.234  11.604  1.00  0.00     0.052 C 
HETATM    9  C21 UNL     1       6.231   7.391  11.893  1.00  0.00     0.038 C 
HETATM   10  C22 UNL     1       5.338   6.272  11.319  1.00  0.00     0.042 C 
HETATM   11  C23 UNL     1       4.036   6.819  10.684  1.00  0.00     0.065 C 
HETATM   12  C24 UNL     1       3.402   5.686   9.859  1.00  0.00     0.047 C 
HETATM   13  C25 UNL     1       2.104   8.548  11.160  1.00  0.00     0.138 C 
ENDROOT
BRANCH   5  14
HETATM   14  C14 UNL     1       3.485   8.967  14.104  1.00  0.00     0.012 C 
BRANCH  14  15
HETATM   15  C15 UNL     1       3.608   8.330  15.502  1.00  0.00     0.027 C 
BRANCH  15  16
HETATM   16  C16 UNL     1       2.702   7.131  15.757  1.00  0.00     0.164 C 
BRANCH  16  17
HETATM   17  O1  UNL     1       1.734   7.419  16.754  1.00  0.00    -0.401 OA
HETATM   18  H23 UNL     1       2.209   7.722  17.545  1.00  0.00     0.209 HD
ENDBRANCH  16  17
ENDBRANCH  15  16
ENDBRANCH  14  15
ENDBRANCH   5  14
BRANCH  11  19
HETATM   19  O3  UNL     1       4.481   7.778   9.703  1.00  0.00    -0.389 OA
HETATM   20  H35 UNL     1       3.753   7.962   9.088  1.00  0.00     0.210 HD
ENDBRANCH  11  19
BRANCH  13  21
HETATM   21  O4  UNL     1       1.787   9.644  12.009  1.00  0.00    -0.394 OA
HETATM   22  H37 UNL     1       2.453  10.341  11.813  1.00  0.00     0.210 HD
ENDBRANCH  13  21
BRANCH   1  23
HETATM   23  C6  UNL     1      -0.423   8.522  10.520  1.00  0.00    -0.074 C 
HETATM   24  C5  UNL     1      -1.317   9.006  11.412  1.00  0.00     0.003 C 
BRANCH  24  25
HETATM   25  C4  UNL     1      -1.307   8.830  12.854  1.00  0.00     0.001 C 
HETATM   26  C3  UNL     1      -2.432   8.619  13.555  1.00  0.00     0.006 C 
BRANCH  26  27
HETATM   27  C2  UNL     1      -2.562   8.424  14.994  1.00  0.00    -0.067 C 
HETATM   28  C1  UNL     1      -1.701   7.594  15.613  1.00  0.00     0.019 C 
BRANCH  27  29
HETATM   29  C26 UNL     1      -3.650   9.107  15.802  1.00  0.00     0.041 C 
BRANCH  29  30
HETATM   30  C27 UNL     1      -3.734  10.624  15.567  1.00  0.00     0.032 C 
BRANCH  30  31
HETATM   31  C28 UNL     1      -4.064  11.420  16.801  1.00  0.00    -0.024 C 
HETATM   32  C29 UNL     1      -3.539  11.287  18.035  1.00  0.00    -0.091 C 
HETATM   33  C30 UNL     1      -2.457  10.313  18.416  1.00  0.00     0.042 C 
HETATM   34  C31 UNL     1      -4.009  12.160  19.171  1.00  0.00     0.042 C 
ENDBRANCH  30  31
ENDBRANCH  29  30
ENDBRANCH  27  29
ENDBRANCH  26  27
ENDBRANCH  24  25
BRANCH  23  35
HETATM   35  C7  UNL     1      -0.579   8.749   9.018  1.00  0.00     0.030 C 
HETATM   36  C8  UNL     1       0.402   8.050   8.078  1.00  0.00     0.010 C 
ENDBRANCH  23  35
ENDBRANCH   1  23
BRANCH   7  37
HETATM   37  C20 UNL     1       4.996  11.059  12.314  1.00  0.00     0.265 C 
HETATM   38  O2  UNL     1       5.255  12.150  11.821  1.00  0.00    -0.302 OA
ENDBRANCH   7  37
TORSDOF 14
ENDMDL
MODEL 9
REMARK minimizedAffinity -6.99983263
REMARK CNNscore 0.263165206
REMARK CNNaffinity 6.57456779
REMARK  14 active torsions:
REMARK  status: ('A' for Active; 'I' for Inactive)
REMARK    1  A    between atoms: C2_2  and  C3_3 
REMARK    2  A    between atoms: C2_2  and  C26_30 
REMARK    3  A    between atoms: C4_4  and  C5_5 
REMARK    4  A    between atoms: C6_6  and  C7_7 
REMARK    5  A    between atoms: C6_6  and  C9_9 
REMARK    6  A    between atoms: C13_13  and  C14_14 
REMARK    7  A    between atoms: C14_14  and  C15_15 
REMARK    8  A    between atoms: C15_15  and  C16_16 
REMARK    9  A    between atoms: C16_16  and  O1_17 
REMARK   10  A    between atoms: C18_19  and  C20_21 
REMARK   11  A    between atoms: C23_25  and  O3_27 
REMARK   12  A    between atoms: C25_28  and  O4_29 
REMARK   13  A    between atoms: C26_30  and  C27_31 
REMARK   14  A    between atoms: C27_31  and  C28_32 
ROOT
HETATM    1  C9  UNL     1      -1.467   5.938  12.254  1.00  0.00     0.044 C 
HETATM    2  C10 UNL     1      -0.852   6.615  11.030  1.00  0.00     0.013 C 
HETATM    3  C11 UNL     1      -0.600   8.053  11.481  1.00  0.00     0.017 C 
HETATM    4  C12 UNL     1      -0.443   8.041  13.048  1.00  0.00     0.024 C 
HETATM    5  C13 UNL     1       0.978   8.705  13.376  1.00  0.00     0.029 C 
HETATM    6  C17 UNL     1       0.986   9.340  14.768  1.00  0.00    -0.066 C 
HETATM    7  C18 UNL     1       1.572   8.903  15.905  1.00  0.00    -0.021 C 
HETATM    8  C19 UNL     1       1.605   9.642  17.214  1.00  0.00     0.052 C 
HETATM    9  C21 UNL     1       0.103  10.585  14.764  1.00  0.00     0.038 C 
HETATM   10  C22 UNL     1      -1.141  10.411  13.869  1.00  0.00     0.042 C 
HETATM   11  C23 UNL     1      -1.595   8.935  13.764  1.00  0.00     0.065 C 
HETATM   12  C24 UNL     1      -3.004   8.917  13.148  1.00  0.00     0.047 C 
HETATM   13  C25 UNL     1      -0.607   6.518  13.400  1.00  0.00     0.138 C 
ENDROOT
BRANCH   5  14
HETATM   14  C14 UNL     1       2.276   7.995  12.897  1.00  0.00     0.012 C 
BRANCH  14  15
HETATM   15  C15 UNL     1       2.777   8.421  11.503  1.00  0.00     0.027 C 
BRANCH  15  16
HETATM   16  C16 UNL     1       4.100   7.803  11.066  1.00  0.00     0.164 C 
BRANCH  16  17
HETATM   17  O1  UNL     1       4.449   8.209   9.752  1.00  0.00    -0.401 OA
HETATM   18  H23 UNL     1       3.705   7.986   9.168  1.00  0.00     0.209 HD
ENDBRANCH  16  17
ENDBRANCH  15  16
ENDBRANCH  14  15
ENDBRANCH   5  14
BRANCH  11  19
HETATM   19  O3  UNL     1      -1.789   8.513  15.129  1.00  0.00    -0.389 OA
HETATM   20  H35 UNL     1      -2.322   7.701  15.136  1.00  0.00     0.210 HD
ENDBRANCH  11  19
BRANCH  13  21
HETATM   21  O4  UNL     1       0.629   5.815  13.416  1.00  0.00    -0.394 OA
HETATM   22  H37 UNL     1       0.972   5.890  14.335  1.00  0.00     0.210 HD
ENDBRANCH  13  21
BRANCH   1  23
HETATM   23  C6  UNL     1      -1.602   4.413  12.226  1.00  0.00    -0.074 C 
HETATM   24  C5  UNL     1      -2.751   3.780  12.556  1.00  0.00     0.003 C 
BRANCH  24  25
HETATM   25  C4  UNL     1      -3.987   4.382  13.023  1.00  0.00     0.001 C 
HETATM   26  C3  UNL     1      -5.186   3.836  12.772  1.00  0.00     0.006 C 
BRANCH  26  27
HETATM   27  C2  UNL     1      -6.495   4.332  13.182  1.00  0.00    -0.067 C 
HETATM   28  C1  UNL     1      -7.494   3.446  13.361  1.00  0.00     0.019 C 
BRANCH  27  29
HETATM   29  C26 UNL     1      -6.766   5.811  13.385  1.00  0.00     0.041 C 
BRANCH  29  30
HETATM   30  C27 UNL     1      -7.594   6.121  14.643  1.00  0.00     0.032 C 
BRANCH  30  31
HETATM   31  C28 UNL     1      -8.987   6.614  14.356  1.00  0.00    -0.024 C 
HETATM   32  C29 UNL     1      -9.516   7.816  14.657  1.00  0.00    -0.091 C 
HETATM   33  C30 UNL     1      -8.778   8.946  15.322  1.00  0.00     0.042 C 
HETATM   34  C31 UNL     1     -10.949   8.135  14.315  1.00  0.00     0.042 C 
ENDBRANCH  30  31
ENDBRANCH  29  30
ENDBRANCH  27  29
ENDBRANCH  26  27
ENDBRANCH  24  25
BRANCH  23  35
HETATM   35  C7  UNL     1      -0.356   3.646  11.788  1.00  0.00     0.030 C 
HETATM   36  C8  UNL     1      -0.536   2.231  11.241  1.00  0.00     0.010 C 
ENDBRANCH  23  35
ENDBRANCH   1  23
BRANCH   7  37
HETATM   37  C20 UNL     1       2.235   7.575  16.009  1.00  0.00     0.265 C 
HETATM   38  O2  UNL     1       3.452   7.441  16.035  1.00  0.00    -0.302 OA
ENDBRANCH   7  37
TORSDOF 14
ENDMDL
