MODEL 1
REMARK minimizedAffinity -8.80200291
REMARK CNNscore 0.604573965
REMARK CNNaffinity 7.29464149
REMARK  13 active torsions:
REMARK  status: ('A' for Active; 'I' for Inactive)
REMARK    1  A    between atoms: O1_2  and  C2_3 
REMARK    2  A    between atoms: C2_3  and  C3_4 
REMARK    3  A    between atoms: C2_3  and  C33_42 
REMARK    4  A    between atoms: C3_4  and  C5_6 
REMARK    5  A    between atoms: C8_10  and  O3_11 
REMARK    6  A    between atoms: C12_15  and  C14_17 
REMARK    7  A    between atoms: C17_20  and  C19_22 
REMARK    8  A    between atoms: C20_24  and  C21_25 
REMARK    9  A    between atoms: C22_27  and  O6_28 
REMARK   10  A    between atoms: C22_27  and  C23_29 
REMARK   11  A    between atoms: C23_29  and  O7_30 
REMARK   12  A    between atoms: C33_42  and  C35_44 
REMARK   13  A    between atoms: C35_44  and  O11_46 
ROOT
HETATM    1  C5  UNL     1     -12.022  46.851 -25.029  1.00  0.00     0.137 C 
HETATM    2  O2  UNL     1     -10.773  46.257 -24.632  1.00  0.00    -0.349 OA
HETATM    3  C6  UNL     1      -9.715  46.231 -25.581  1.00  0.00     0.167 C 
HETATM    4  C7  UNL     1     -10.143  45.516 -26.865  1.00  0.00     0.100 C 
HETATM    5  C8  UNL     1     -11.564  45.847 -27.313  1.00  0.00     0.129 C 
HETATM    6  C9  UNL     1     -12.160  47.031 -26.555  1.00  0.00     0.040 C 
HETATM    7  C10 UNL     1     -13.536  47.442 -27.066  1.00  0.00     0.015 C 
HETATM    8  C11 UNL     1      -9.128  47.644 -25.784  1.00  0.00     0.082 C 
HETATM    9  C12 UNL     1      -7.651  47.528 -25.396  1.00  0.00     0.009 C 
HETATM   10  C13 UNL     1      -6.806  47.169 -26.637  1.00  0.00     0.020 C 
HETATM   11  C32 UNL     1      -7.709  46.346 -24.436  1.00  0.00     0.183 C 
HETATM   12  O9  UNL     1      -8.642  45.438 -25.026  1.00  0.00    -0.354 OA
ENDROOT
BRANCH   9  13
HETATM   13  C14 UNL     1      -7.079  48.777 -24.706  1.00  0.00     0.133 C 
HETATM   14  C15 UNL     1      -7.903  49.350 -23.564  1.00  0.00     0.036 C 
HETATM   15  C16 UNL     1      -6.869  50.179 -22.835  1.00  0.00     0.043 C 
HETATM   16  C17 UNL     1      -5.585  49.346 -22.980  1.00  0.00     0.084 C 
HETATM   17  C18 UNL     1      -5.407  48.426 -21.768  1.00  0.00     0.049 C 
HETATM   18  O8  UNL     1      -5.793  48.495 -24.127  1.00  0.00    -0.372 OA
BRANCH  16  19
HETATM   19  C19 UNL     1      -4.357  50.248 -23.240  1.00  0.00     0.160 C 
HETATM   20  O4  UNL     1      -4.075  50.382 -24.653  1.00  0.00    -0.375 OA
HETATM   21  C20 UNL     1      -3.520  51.689 -24.880  1.00  0.00     0.152 C 
HETATM   22  C29 UNL     1      -3.299  52.318 -23.506  1.00  0.00     0.041 C 
HETATM   23  C30 UNL     1      -4.410  51.678 -22.695  1.00  0.00     0.016 C 
HETATM   24  C31 UNL     1      -4.201  51.812 -21.196  1.00  0.00     0.012 C 
BRANCH  21  25
HETATM   25  C21 UNL     1      -2.277  51.708 -25.803  1.00  0.00     0.158 C 
HETATM   26  O5  UNL     1      -1.440  52.766 -25.305  1.00  0.00    -0.345 OA
HETATM   27  C22 UNL     1      -0.245  53.031 -26.035  1.00  0.00     0.187 C 
HETATM   28  C24 UNL     1       0.630  51.768 -26.042  1.00  0.00     0.046 C 
HETATM   29  C25 UNL     1       1.982  51.926 -26.738  1.00  0.00     0.015 C 
HETATM   30  C26 UNL     1      -0.151  50.590 -26.625  1.00  0.00     0.016 C 
HETATM   31  C27 UNL     1      -1.487  50.377 -25.889  1.00  0.00     0.014 C 
HETATM   32  C28 UNL     1      -2.250  49.258 -26.604  1.00  0.00     0.012 C 
BRANCH  27  33
HETATM   33  O6  UNL     1       0.442  54.035 -25.277  1.00  0.00    -0.363 OA
HETATM   34  H34 UNL     1       0.257  53.790 -24.353  1.00  0.00     0.213 HD
ENDBRANCH  27  33
BRANCH  27  35
HETATM   35  C23 UNL     1      -0.557  53.676 -27.406  1.00  0.00     0.232 C 
BRANCH  35  36
HETATM   36  O7  UNL     1      -0.517  52.726 -28.469  1.00  0.00    -0.396 OA
HETATM   37  H37 UNL     1       0.278  52.182 -28.290  1.00  0.00     0.209 HD
ENDBRANCH  35  36
ENDBRANCH  27  35
ENDBRANCH  21  25
ENDBRANCH  16  19
ENDBRANCH   9  13
BRANCH   1  38
HETATM   38  C3  UNL     1     -13.134  46.161 -24.168  1.00  0.00     0.041 C 
HETATM   39  C4  UNL     1     -12.632  45.546 -22.862  1.00  0.00     0.015 C 
BRANCH  38  40
HETATM   40  C2  UNL     1     -14.572  46.784 -24.071  1.00  0.00     0.141 C 
BRANCH  40  41
HETATM   41  O1  UNL     1     -14.713  47.668 -22.955  1.00  0.00    -0.389 OA
HETATM   42  C1  UNL     1     -14.170  47.135 -21.751  1.00  0.00     0.202 C 
ENDBRANCH  40  41
BRANCH  40  43
HETATM   43  C33 UNL     1     -15.811  45.862 -24.182  1.00  0.00     0.109 C 
HETATM   44  C34 UNL     1     -17.023  46.455 -23.447  1.00  0.00     0.024 C 
BRANCH  43  45
HETATM   45  C35 UNL     1     -15.616  44.444 -23.716  1.00  0.00     0.145 C 
HETATM   46  O10 UNL     1     -15.261  43.508 -24.420  1.00  0.00    -0.650 OA
BRANCH  45  47
HETATM   47  O11 UNL     1     -15.925  44.220 -22.430  1.00  0.00    -0.776 OA
HETATM   48  H60 UNL     1     -15.757  43.266 -22.294  1.00  0.00     0.167 HD
ENDBRANCH  45  47
ENDBRANCH  43  45
ENDBRANCH  40  43
ENDBRANCH  38  40
ENDBRANCH   1  38
BRANCH   5  49
HETATM   49  O3  UNL     1     -11.549  46.130 -28.716  1.00  0.00    -0.395 OA
HETATM   50  H13 UNL     1     -11.281  45.309 -29.164  1.00  0.00     0.210 HD
ENDBRANCH   5  49
TORSDOF 13
ENDMDL
MODEL 2
REMARK minimizedAffinity -8.59532356
REMARK CNNscore 0.46586737
REMARK CNNaffinity 6.85542536
REMARK  13 active torsions:
REMARK  status: ('A' for Active; 'I' for Inactive)
REMARK    1  A    between atoms: O1_2  and  C2_3 
REMARK    2  A    between atoms: C2_3  and  C3_4 
REMARK    3  A    between atoms: C2_3  and  C33_42 
REMARK    4  A    between atoms: C3_4  and  C5_6 
REMARK    5  A    between atoms: C8_10  and  O3_11 
REMARK    6  A    between atoms: C12_15  and  C14_17 
REMARK    7  A    between atoms: C17_20  and  C19_22 
REMARK    8  A    between atoms: C20_24  and  C21_25 
REMARK    9  A    between atoms: C22_27  and  O6_28 
REMARK   10  A    between atoms: C22_27  and  C23_29 
REMARK   11  A    between atoms: C23_29  and  O7_30 
REMARK   12  A    between atoms: C33_42  and  C35_44 
REMARK   13  A    between atoms: C35_44  and  O11_46 
ROOT
HETATM    1  C5  UNL     1      -7.434  45.826 -22.260  1.00  0.00     0.137 C 
HETATM    2  O2  UNL     1      -7.523  46.795 -21.201  1.00  0.00    -0.349 OA
HETATM    3  C6  UNL     1      -6.989  46.448 -19.931  1.00  0.00     0.167 C 
HETATM    4  C7  UNL     1      -7.629  45.165 -19.395  1.00  0.00     0.100 C 
HETATM    5  C8  UNL     1      -7.840  44.089 -20.456  1.00  0.00     0.129 C 
HETATM    6  C9  UNL     1      -7.114  44.401 -21.763  1.00  0.00     0.040 C 
HETATM    7  C10 UNL     1      -7.224  43.284 -22.795  1.00  0.00     0.015 C 
HETATM    8  C11 UNL     1      -5.446  46.442 -19.970  1.00  0.00     0.082 C 
HETATM    9  C12 UNL     1      -5.011  47.476 -18.927  1.00  0.00     0.009 C 
HETATM   10  C13 UNL     1      -4.823  46.795 -17.555  1.00  0.00     0.020 C 
HETATM   11  C32 UNL     1      -6.237  48.380 -18.905  1.00  0.00     0.183 C 
HETATM   12  O9  UNL     1      -7.352  47.490 -18.998  1.00  0.00    -0.354 OA
ENDROOT
BRANCH   9  13
HETATM   13  C14 UNL     1      -3.746  48.264 -19.308  1.00  0.00     0.133 C 
HETATM   14  C15 UNL     1      -2.428  47.704 -18.798  1.00  0.00     0.036 C 
HETATM   15  C16 UNL     1      -1.440  48.373 -19.729  1.00  0.00     0.043 C 
HETATM   16  C17 UNL     1      -2.193  48.418 -21.068  1.00  0.00     0.084 C 
HETATM   17  C18 UNL     1      -1.848  47.189 -21.915  1.00  0.00     0.049 C 
HETATM   18  O8  UNL     1      -3.594  48.322 -20.737  1.00  0.00    -0.372 OA
BRANCH  16  19
HETATM   19  C19 UNL     1      -1.942  49.751 -21.808  1.00  0.00     0.160 C 
HETATM   20  O4  UNL     1      -2.050  49.601 -23.244  1.00  0.00    -0.375 OA
HETATM   21  C20 UNL     1      -2.554  50.832 -23.789  1.00  0.00     0.152 C 
HETATM   22  C29 UNL     1      -2.596  51.838 -22.642  1.00  0.00     0.041 C 
HETATM   23  C30 UNL     1      -2.849  50.933 -21.451  1.00  0.00     0.016 C 
HETATM   24  C31 UNL     1      -2.551  51.605 -20.121  1.00  0.00     0.012 C 
BRANCH  21  25
HETATM   25  C21 UNL     1      -1.807  51.329 -25.052  1.00  0.00     0.158 C 
HETATM   26  O5  UNL     1      -0.575  51.895 -24.575  1.00  0.00    -0.345 OA
HETATM   27  C22 UNL     1       0.275  52.487 -25.555  1.00  0.00     0.187 C 
HETATM   28  C24 UNL     1       0.672  51.421 -26.587  1.00  0.00     0.046 C 
HETATM   29  C25 UNL     1       1.641  51.901 -27.668  1.00  0.00     0.015 C 
HETATM   30  C26 UNL     1      -0.579  50.802 -27.211  1.00  0.00     0.016 C 
HETATM   31  C27 UNL     1      -1.535  50.254 -26.135  1.00  0.00     0.014 C 
HETATM   32  C28 UNL     1      -2.803  49.757 -26.836  1.00  0.00     0.012 C 
BRANCH  27  33
HETATM   33  O6  UNL     1       1.460  52.867 -24.841  1.00  0.00    -0.363 OA
HETATM   34  H34 UNL     1       1.576  52.151 -24.193  1.00  0.00     0.213 HD
ENDBRANCH  27  33
BRANCH  27  35
HETATM   35  C23 UNL     1      -0.329  53.803 -26.100  1.00  0.00     0.232 C 
BRANCH  35  36
HETATM   36  O7  UNL     1       0.274  54.955 -25.514  1.00  0.00    -0.396 OA
HETATM   37  H37 UNL     1       0.349  54.742 -24.561  1.00  0.00     0.209 HD
ENDBRANCH  35  36
ENDBRANCH  27  35
ENDBRANCH  21  25
ENDBRANCH  16  19
ENDBRANCH   9  13
BRANCH   1  38
HETATM   38  C3  UNL     1      -8.626  46.120 -23.233  1.00  0.00     0.041 C 
HETATM   39  C4  UNL     1      -9.767  46.925 -22.610  1.00  0.00     0.015 C 
BRANCH  38  40
HETATM   40  C2  UNL     1      -8.361  46.451 -24.745  1.00  0.00     0.141 C 
BRANCH  40  41
HETATM   41  O1  UNL     1      -7.790  45.349 -25.456  1.00  0.00    -0.389 OA
HETATM   42  C1  UNL     1      -8.286  45.226 -26.785  1.00  0.00     0.202 C 
ENDBRANCH  40  41
BRANCH  40  43
HETATM   43  C33 UNL     1      -7.633  47.764 -25.120  1.00  0.00     0.109 C 
HETATM   44  C34 UNL     1      -6.279  47.884 -24.404  1.00  0.00     0.024 C 
BRANCH  43  45
HETATM   45  C35 UNL     1      -8.410  49.033 -24.890  1.00  0.00     0.145 C 
HETATM   46  O10 UNL     1      -9.503  49.293 -25.374  1.00  0.00    -0.650 OA
BRANCH  45  47
HETATM   47  O11 UNL     1      -7.788  49.951 -24.135  1.00  0.00    -0.776 OA
HETATM   48  H60 UNL     1      -8.412  50.704 -24.093  1.00  0.00     0.167 HD
ENDBRANCH  45  47
ENDBRANCH  43  45
ENDBRANCH  40  43
ENDBRANCH  38  40
ENDBRANCH   1  38
BRANCH   5  49
HETATM   49  O3  UNL     1      -7.382  42.836 -19.936  1.00  0.00    -0.395 OA
HETATM   50  H13 UNL     1      -7.955  42.622 -19.180  1.00  0.00     0.210 HD
ENDBRANCH   5  49
TORSDOF 13
ENDMDL
MODEL 3
REMARK minimizedAffinity -8.57304859
REMARK CNNscore 0.426852345
REMARK CNNaffinity 6.32782221
REMARK  13 active torsions:
REMARK  status: ('A' for Active; 'I' for Inactive)
REMARK    1  A    between atoms: O1_2  and  C2_3 
REMARK    2  A    between atoms: C2_3  and  C3_4 
REMARK    3  A    between atoms: C2_3  and  C33_42 
REMARK    4  A    between atoms: C3_4  and  C5_6 
REMARK    5  A    between atoms: C8_10  and  O3_11 
REMARK    6  A    between atoms: C12_15  and  C14_17 
REMARK    7  A    between atoms: C17_20  and  C19_22 
REMARK    8  A    between atoms: C20_24  and  C21_25 
REMARK    9  A    between atoms: C22_27  and  O6_28 
REMARK   10  A    between atoms: C22_27  and  C23_29 
REMARK   11  A    between atoms: C23_29  and  O7_30 
REMARK   12  A    between atoms: C33_42  and  C35_44 
REMARK   13  A    between atoms: C35_44  and  O11_46 
ROOT
HETATM    1  C5  UNL     1     -11.751  47.727 -20.190  1.00  0.00     0.137 C 
HETATM    2  O2  UNL     1     -10.472  47.577 -19.549  1.00  0.00    -0.349 OA
HETATM    3  C6  UNL     1      -9.616  46.537 -20.004  1.00  0.00     0.167 C 
HETATM    4  C7  UNL     1     -10.305  45.174 -19.913  1.00  0.00     0.100 C 
HETATM    5  C8  UNL     1     -11.773  45.195 -20.333  1.00  0.00     0.129 C 
HETATM    6  C9  UNL     1     -12.170  46.498 -21.022  1.00  0.00     0.040 C 
HETATM    7  C10 UNL     1     -13.602  46.490 -21.544  1.00  0.00     0.015 C 
HETATM    8  C11 UNL     1      -9.027  46.882 -21.389  1.00  0.00     0.082 C 
HETATM    9  C12 UNL     1      -7.508  46.893 -21.190  1.00  0.00     0.009 C 
HETATM   10  C13 UNL     1      -6.928  45.490 -21.466  1.00  0.00     0.020 C 
HETATM   11  C32 UNL     1      -7.425  47.217 -19.704  1.00  0.00     0.183 C 
HETATM   12  O9  UNL     1      -8.486  46.469 -19.104  1.00  0.00    -0.354 OA
ENDROOT
BRANCH   9  13
HETATM   13  C14 UNL     1      -6.770  47.949 -22.031  1.00  0.00     0.133 C 
HETATM   14  C15 UNL     1      -7.479  49.282 -22.208  1.00  0.00     0.036 C 
HETATM   15  C16 UNL     1      -6.329  50.182 -22.603  1.00  0.00     0.043 C 
HETATM   16  C17 UNL     1      -5.156  49.641 -21.770  1.00  0.00     0.084 C 
HETATM   17  C18 UNL     1      -5.040  50.411 -20.450  1.00  0.00     0.049 C 
HETATM   18  O8  UNL     1      -5.505  48.281 -21.434  1.00  0.00    -0.372 OA
BRANCH  16  19
HETATM   19  C19 UNL     1      -3.844  49.637 -22.584  1.00  0.00     0.160 C 
HETATM   20  O4  UNL     1      -3.672  50.860 -23.339  1.00  0.00    -0.375 OA
HETATM   21  C20 UNL     1      -2.264  51.141 -23.427  1.00  0.00     0.152 C 
HETATM   22  C29 UNL     1      -1.536  49.934 -22.839  1.00  0.00     0.041 C 
HETATM   23  C30 UNL     1      -2.537  49.447 -21.808  1.00  0.00     0.016 C 
HETATM   24  C31 UNL     1      -2.259  48.029 -21.336  1.00  0.00     0.012 C 
BRANCH  21  25
HETATM   25  C21 UNL     1      -1.780  51.558 -24.838  1.00  0.00     0.158 C 
HETATM   26  O5  UNL     1      -0.398  51.920 -24.682  1.00  0.00    -0.345 OA
HETATM   27  C22 UNL     1       0.269  52.408 -25.844  1.00  0.00     0.187 C 
HETATM   28  C24 UNL     1       0.236  51.326 -26.934  1.00  0.00     0.046 C 
HETATM   29  C25 UNL     1       0.975  51.688 -28.222  1.00  0.00     0.015 C 
HETATM   30  C26 UNL     1      -1.208  50.918 -27.228  1.00  0.00     0.016 C 
HETATM   31  C27 UNL     1      -1.945  50.486 -25.946  1.00  0.00     0.014 C 
HETATM   32  C28 UNL     1      -3.406  50.204 -26.312  1.00  0.00     0.012 C 
BRANCH  27  33
HETATM   33  O6  UNL     1       1.634  52.587 -25.446  1.00  0.00    -0.363 OA
HETATM   34  H34 UNL     1       1.794  51.842 -24.840  1.00  0.00     0.213 HD
ENDBRANCH  27  33
BRANCH  27  35
HETATM   35  C23 UNL     1      -0.244  53.815 -26.235  1.00  0.00     0.232 C 
BRANCH  35  36
HETATM   36  O7  UNL     1       0.224  54.825 -25.344  1.00  0.00    -0.396 OA
HETATM   37  H37 UNL     1       0.125  54.436 -24.450  1.00  0.00     0.209 HD
ENDBRANCH  35  36
ENDBRANCH  27  35
ENDBRANCH  21  25
ENDBRANCH  16  19
ENDBRANCH   9  13
BRANCH   1  38
HETATM   38  C3  UNL     1     -12.704  48.379 -19.131  1.00  0.00     0.041 C 
HETATM   39  C4  UNL     1     -13.901  49.120 -19.729  1.00  0.00     0.015 C 
BRANCH  38  40
HETATM   40  C2  UNL     1     -13.015  47.647 -17.777  1.00  0.00     0.141 C 
BRANCH  40  41
HETATM   41  O1  UNL     1     -11.874  47.575 -16.918  1.00  0.00    -0.389 OA
HETATM   42  C1  UNL     1     -11.336  46.261 -16.815  1.00  0.00     0.202 C 
ENDBRANCH  40  41
BRANCH  40  43
HETATM   43  C33 UNL     1     -13.754  46.288 -17.799  1.00  0.00     0.109 C 
HETATM   44  C34 UNL     1     -15.021  46.348 -18.666  1.00  0.00     0.024 C 
BRANCH  43  45
HETATM   45  C35 UNL     1     -14.122  45.720 -16.454  1.00  0.00     0.145 C 
HETATM   46  O10 UNL     1     -14.250  44.530 -16.197  1.00  0.00    -0.650 OA
BRANCH  45  47
HETATM   47  O11 UNL     1     -14.381  46.631 -15.504  1.00  0.00    -0.776 OA
HETATM   48  H60 UNL     1     -14.610  46.106 -14.710  1.00  0.00     0.167 HD
ENDBRANCH  45  47
ENDBRANCH  43  45
ENDBRANCH  40  43
ENDBRANCH  38  40
ENDBRANCH   1  38
BRANCH   5  49
HETATM   49  O3  UNL     1     -12.014  44.090 -21.211  1.00  0.00    -0.395 OA
HETATM   50  H13 UNL     1     -11.867  43.282 -20.690  1.00  0.00     0.210 HD
ENDBRANCH   5  49
TORSDOF 13
ENDMDL
MODEL 4
REMARK minimizedAffinity -8.39927006
REMARK CNNscore 0.384233117
REMARK CNNaffinity 6.57267523
REMARK  13 active torsions:
REMARK  status: ('A' for Active; 'I' for Inactive)
REMARK    1  A    between atoms: O1_2  and  C2_3 
REMARK    2  A    between atoms: C2_3  and  C3_4 
REMARK    3  A    between atoms: C2_3  and  C33_42 
REMARK    4  A    between atoms: C3_4  and  C5_6 
REMARK    5  A    between atoms: C8_10  and  O3_11 
REMARK    6  A    between atoms: C12_15  and  C14_17 
REMARK    7  A    between atoms: C17_20  and  C19_22 
REMARK    8  A    between atoms: C20_24  and  C21_25 
REMARK    9  A    between atoms: C22_27  and  O6_28 
REMARK   10  A    between atoms: C22_27  and  C23_29 
REMARK   11  A    between atoms: C23_29  and  O7_30 
REMARK   12  A    between atoms: C33_42  and  C35_44 
REMARK   13  A    between atoms: C35_44  and  O11_46 
ROOT
HETATM    1  C5  UNL     1      -7.663  46.287 -25.758  1.00  0.00     0.137 C 
HETATM    2  O2  UNL     1      -7.582  47.674 -25.385  1.00  0.00    -0.349 OA
HETATM    3  C6  UNL     1      -7.729  48.005 -24.011  1.00  0.00     0.167 C 
HETATM    4  C7  UNL     1      -9.059  47.487 -23.457  1.00  0.00     0.100 C 
HETATM    5  C8  UNL     1      -9.433  46.093 -23.952  1.00  0.00     0.129 C 
HETATM    6  C9  UNL     1      -8.279  45.391 -24.664  1.00  0.00     0.040 C 
HETATM    7  C10 UNL     1      -8.602  43.957 -25.066  1.00  0.00     0.015 C 
HETATM    8  C11 UNL     1      -6.479  47.584 -23.211  1.00  0.00     0.082 C 
HETATM    9  C12 UNL     1      -5.939  48.878 -22.593  1.00  0.00     0.009 C 
HETATM   10  C13 UNL     1      -6.564  49.099 -21.200  1.00  0.00     0.020 C 
HETATM   11  C32 UNL     1      -6.478  49.903 -23.583  1.00  0.00     0.183 C 
HETATM   12  O9  UNL     1      -7.793  49.446 -23.908  1.00  0.00    -0.354 OA
ENDROOT
BRANCH   9  13
HETATM   13  C14 UNL     1      -4.404  48.944 -22.505  1.00  0.00     0.133 C 
HETATM   14  C15 UNL     1      -3.671  49.260 -23.799  1.00  0.00     0.036 C 
HETATM   15  C16 UNL     1      -2.332  49.731 -23.275  1.00  0.00     0.043 C 
HETATM   16  C17 UNL     1      -2.703  50.483 -21.987  1.00  0.00     0.084 C 
HETATM   17  C18 UNL     1      -2.888  51.976 -22.275  1.00  0.00     0.049 C 
HETATM   18  O8  UNL     1      -3.991  49.969 -21.587  1.00  0.00    -0.372 OA
BRANCH  16  19
HETATM   19  C19 UNL     1      -1.681  50.206 -20.862  1.00  0.00     0.160 C 
HETATM   20  O4  UNL     1      -1.811  51.148 -19.770  1.00  0.00    -0.375 OA
HETATM   21  C20 UNL     1      -1.460  50.473 -18.549  1.00  0.00     0.152 C 
HETATM   22  C29 UNL     1      -0.927  49.098 -18.943  1.00  0.00     0.041 C 
HETATM   23  C30 UNL     1      -1.710  48.819 -20.212  1.00  0.00     0.016 C 
HETATM   24  C31 UNL     1      -1.111  47.698 -21.044  1.00  0.00     0.012 C 
BRANCH  21  25
HETATM   25  C21 UNL     1      -0.525  51.281 -17.615  1.00  0.00     0.158 C 
HETATM   26  O5  UNL     1       0.019  50.325 -16.690  1.00  0.00    -0.345 OA
HETATM   27  C22 UNL     1       0.875  50.838 -15.672  1.00  0.00     0.187 C 
HETATM   28  C24 UNL     1       2.082  51.524 -16.329  1.00  0.00     0.046 C 
HETATM   29  C25 UNL     1       3.124  52.068 -15.350  1.00  0.00     0.015 C 
HETATM   30  C26 UNL     1       1.609  52.618 -17.287  1.00  0.00     0.016 C 
HETATM   31  C27 UNL     1       0.609  52.068 -18.321  1.00  0.00     0.014 C 
HETATM   32  C28 UNL     1       0.104  53.244 -19.164  1.00  0.00     0.012 C 
BRANCH  27  33
HETATM   33  O6  UNL     1       1.356  49.684 -14.970  1.00  0.00    -0.363 OA
HETATM   34  H34 UNL     1       1.468  49.020 -15.673  1.00  0.00     0.213 HD
ENDBRANCH  27  33
BRANCH  27  35
HETATM   35  C23 UNL     1       0.078  51.662 -14.633  1.00  0.00     0.232 C 
BRANCH  35  36
HETATM   36  O7  UNL     1      -1.289  51.260 -14.562  1.00  0.00    -0.396 OA
HETATM   37  H37 UNL     1      -1.565  51.143 -15.495  1.00  0.00     0.209 HD
ENDBRANCH  35  36
ENDBRANCH  27  35
ENDBRANCH  21  25
ENDBRANCH  16  19
ENDBRANCH   9  13
BRANCH   1  38
HETATM   38  C3  UNL     1      -8.166  46.255 -27.241  1.00  0.00     0.041 C 
HETATM   39  C4  UNL     1      -9.593  45.733 -27.413  1.00  0.00     0.015 C 
BRANCH  38  40
HETATM   40  C2  UNL     1      -7.778  47.400 -28.242  1.00  0.00     0.141 C 
BRANCH  40  41
HETATM   41  O1  UNL     1      -8.692  48.499 -28.199  1.00  0.00    -0.389 OA
HETATM   42  C1  UNL     1      -9.891  48.199 -27.491  1.00  0.00     0.202 C 
ENDBRANCH  40  41
BRANCH  40  43
HETATM   43  C33 UNL     1      -7.437  47.046 -29.710  1.00  0.00     0.109 C 
HETATM   44  C34 UNL     1      -6.798  45.653 -29.820  1.00  0.00     0.024 C 
BRANCH  43  45
HETATM   45  C35 UNL     1      -6.561  48.032 -30.436  1.00  0.00     0.145 C 
HETATM   46  O10 UNL     1      -5.392  47.849 -30.746  1.00  0.00    -0.650 OA
BRANCH  45  47
HETATM   47  O11 UNL     1      -7.133  49.219 -30.692  1.00  0.00    -0.776 OA
HETATM   48  H60 UNL     1      -6.439  49.737 -31.149  1.00  0.00     0.167 HD
ENDBRANCH  45  47
ENDBRANCH  43  45
ENDBRANCH  40  43
ENDBRANCH  38  40
ENDBRANCH   1  38
BRANCH   5  49
HETATM   49  O3  UNL     1      -9.859  45.308 -22.832  1.00  0.00    -0.395 OA
HETATM   50  H13 UNL     1     -10.667  45.727 -22.489  1.00  0.00     0.210 HD
ENDBRANCH   5  49
TORSDOF 13
ENDMDL
MODEL 5
REMARK minimizedAffinity -8.35015678
REMARK CNNscore 0.365891069
REMARK CNNaffinity 6.73652124
REMARK  13 active torsions:
REMARK  status: ('A' for Active; 'I' for Inactive)
REMARK    1  A    between atoms: O1_2  and  C2_3 
REMARK    2  A    between atoms: C2_3  and  C3_4 
REMARK    3  A    between atoms: C2_3  and  C33_42 
REMARK    4  A    between atoms: C3_4  and  C5_6 
REMARK    5  A    between atoms: C8_10  and  O3_11 
REMARK    6  A    between atoms: C12_15  and  C14_17 
REMARK    7  A    between atoms: C17_20  and  C19_22 
REMARK    8  A    between atoms: C20_24  and  C21_25 
REMARK    9  A    between atoms: C22_27  and  O6_28 
REMARK   10  A    between atoms: C22_27  and  C23_29 
REMARK   11  A    between atoms: C23_29  and  O7_30 
REMARK   12  A    between atoms: C33_42  and  C35_44 
REMARK   13  A    between atoms: C35_44  and  O11_46 
ROOT
HETATM    1  C5  UNL     1     -11.767  46.915 -26.386  1.00  0.00     0.137 C 
HETATM    2  O2  UNL     1     -10.599  46.251 -25.874  1.00  0.00    -0.349 OA
HETATM    3  C6  UNL     1      -9.397  46.336 -26.629  1.00  0.00     0.167 C 
HETATM    4  C7  UNL     1      -9.601  45.811 -28.051  1.00  0.00     0.100 C 
HETATM    5  C8  UNL     1     -10.930  46.224 -28.679  1.00  0.00     0.129 C 
HETATM    6  C9  UNL     1     -11.650  47.304 -27.874  1.00  0.00     0.040 C 
HETATM    7  C10 UNL     1     -12.924  47.805 -28.545  1.00  0.00     0.015 C 
HETATM    8  C11 UNL     1      -8.793  47.753 -26.535  1.00  0.00     0.082 C 
HETATM    9  C12 UNL     1      -7.400  47.559 -25.928  1.00  0.00     0.009 C 
HETATM   10  C13 UNL     1      -6.358  47.358 -27.048  1.00  0.00     0.020 C 
HETATM   11  C32 UNL     1      -7.610  46.258 -25.163  1.00  0.00     0.183 C 
HETATM   12  O9  UNL     1      -8.427  45.455 -26.018  1.00  0.00    -0.354 OA
ENDROOT
BRANCH   9  13
HETATM   13  C14 UNL     1      -6.957  48.692 -24.986  1.00  0.00     0.133 C 
HETATM   14  C15 UNL     1      -7.840  48.940 -23.773  1.00  0.00     0.036 C 
HETATM   15  C16 UNL     1      -6.896  49.700 -22.868  1.00  0.00     0.043 C 
HETATM   16  C17 UNL     1      -5.535  49.041 -23.146  1.00  0.00     0.084 C 
HETATM   17  C18 UNL     1      -5.272  47.917 -22.139  1.00  0.00     0.049 C 
HETATM   18  O8  UNL     1      -5.653  48.424 -24.445  1.00  0.00    -0.372 OA
BRANCH  16  19
HETATM   19  C19 UNL     1      -4.402  50.091 -23.190  1.00  0.00     0.160 C 
HETATM   20  O4  UNL     1      -4.028  50.427 -24.547  1.00  0.00    -0.375 OA
HETATM   21  C20 UNL     1      -3.610  51.803 -24.572  1.00  0.00     0.152 C 
HETATM   22  C29 UNL     1      -3.569  52.277 -23.122  1.00  0.00     0.041 C 
HETATM   23  C30 UNL     1      -4.659  51.430 -22.492  1.00  0.00     0.016 C 
HETATM   24  C31 UNL     1      -4.584  51.400 -20.975  1.00  0.00     0.012 C 
BRANCH  21  25
HETATM   25  C21 UNL     1      -2.310  52.064 -25.371  1.00  0.00     0.158 C 
HETATM   26  O5  UNL     1      -1.262  52.142 -24.390  1.00  0.00    -0.345 OA
HETATM   27  C22 UNL     1       0.044  52.444 -24.875  1.00  0.00     0.187 C 
HETATM   28  C24 UNL     1       0.476  51.355 -25.868  1.00  0.00     0.046 C 
HETATM   29  C25 UNL     1       1.892  51.515 -26.423  1.00  0.00     0.015 C 
HETATM   30  C26 UNL     1      -0.545  51.240 -27.000  1.00  0.00     0.016 C 
HETATM   31  C27 UNL     1      -1.968  51.012 -26.457  1.00  0.00     0.014 C 
HETATM   32  C28 UNL     1      -2.936  51.021 -27.644  1.00  0.00     0.012 C 
BRANCH  27  33
HETATM   33  O6  UNL     1       0.900  52.354 -23.727  1.00  0.00    -0.363 OA
HETATM   34  H34 UNL     1       0.524  51.614 -23.220  1.00  0.00     0.213 HD
ENDBRANCH  27  33
BRANCH  27  35
HETATM   35  C23 UNL     1       0.138  53.911 -25.357  1.00  0.00     0.232 C 
BRANCH  35  36
HETATM   36  O7  UNL     1      -0.224  54.050 -26.730  1.00  0.00    -0.396 OA
HETATM   37  H37 UNL     1       0.213  53.297 -27.181  1.00  0.00     0.209 HD
ENDBRANCH  35  36
ENDBRANCH  27  35
ENDBRANCH  21  25
ENDBRANCH  16  19
ENDBRANCH   9  13
BRANCH   1  38
HETATM   38  C3  UNL     1     -13.003  46.133 -25.825  1.00  0.00     0.041 C 
HETATM   39  C4  UNL     1     -14.269  46.977 -25.672  1.00  0.00     0.015 C 
BRANCH  38  40
HETATM   40  C2  UNL     1     -13.274  44.647 -26.257  1.00  0.00     0.141 C 
BRANCH  40  41
HETATM   41  O1  UNL     1     -12.494  43.709 -25.511  1.00  0.00    -0.389 OA
HETATM   42  C1  UNL     1     -11.249  43.402 -26.130  1.00  0.00     0.202 C 
ENDBRANCH  40  41
BRANCH  40  43
HETATM   43  C33 UNL     1     -13.261  44.277 -27.760  1.00  0.00     0.109 C 
HETATM   44  C34 UNL     1     -14.401  44.971 -28.522  1.00  0.00     0.024 C 
BRANCH  43  45
HETATM   45  C35 UNL     1     -13.303  42.805 -28.073  1.00  0.00     0.145 C 
HETATM   46  O10 UNL     1     -12.635  42.242 -28.930  1.00  0.00    -0.650 OA
BRANCH  45  47
HETATM   47  O11 UNL     1     -14.205  42.101 -27.372  1.00  0.00    -0.776 OA
HETATM   48  H60 UNL     1     -14.113  41.183 -27.698  1.00  0.00     0.167 HD
ENDBRANCH  45  47
ENDBRANCH  43  45
ENDBRANCH  40  43
ENDBRANCH  38  40
ENDBRANCH   1  38
BRANCH   5  49
HETATM   49  O3  UNL     1     -10.682  46.696 -30.008  1.00  0.00    -0.395 OA
HETATM   50  H13 UNL     1     -10.339  45.940 -30.514  1.00  0.00     0.210 HD
ENDBRANCH   5  49
TORSDOF 13
ENDMDL
MODEL 6
REMARK minimizedAffinity -9.79054546
REMARK CNNscore 0.346084744
REMARK CNNaffinity 6.91355515
REMARK  13 active torsions:
REMARK  status: ('A' for Active; 'I' for Inactive)
REMARK    1  A    between atoms: O1_2  and  C2_3 
REMARK    2  A    between atoms: C2_3  and  C3_4 
REMARK    3  A    between atoms: C2_3  and  C33_42 
REMARK    4  A    between atoms: C3_4  and  C5_6 
REMARK    5  A    between atoms: C8_10  and  O3_11 
REMARK    6  A    between atoms: C12_15  and  C14_17 
REMARK    7  A    between atoms: C17_20  and  C19_22 
REMARK    8  A    between atoms: C20_24  and  C21_25 
REMARK    9  A    between atoms: C22_27  and  O6_28 
REMARK   10  A    between atoms: C22_27  and  C23_29 
REMARK   11  A    between atoms: C23_29  and  O7_30 
REMARK   12  A    between atoms: C33_42  and  C35_44 
REMARK   13  A    between atoms: C35_44  and  O11_46 
ROOT
HETATM    1  C5  UNL     1      -7.713  46.617 -28.835  1.00  0.00     0.137 C 
HETATM    2  O2  UNL     1      -8.465  47.621 -28.133  1.00  0.00    -0.349 OA
HETATM    3  C6  UNL     1      -9.012  47.281 -26.865  1.00  0.00     0.167 C 
HETATM    4  C7  UNL     1      -9.921  46.055 -26.968  1.00  0.00     0.100 C 
HETATM    5  C8  UNL     1      -9.384  44.961 -27.887  1.00  0.00     0.129 C 
HETATM    6  C9  UNL     1      -7.928  45.191 -28.287  1.00  0.00     0.040 C 
HETATM    7  C10 UNL     1      -7.345  44.053 -29.115  1.00  0.00     0.015 C 
HETATM    8  C11 UNL     1      -7.900  47.184 -25.800  1.00  0.00     0.082 C 
HETATM    9  C12 UNL     1      -8.269  48.222 -24.735  1.00  0.00     0.009 C 
HETATM   10  C13 UNL     1      -9.151  47.573 -23.648  1.00  0.00     0.020 C 
HETATM   11  C32 UNL     1      -9.090  49.196 -25.570  1.00  0.00     0.183 C 
HETATM   12  O9  UNL     1      -9.864  48.371 -26.444  1.00  0.00    -0.354 OA
ENDROOT
BRANCH   9  13
HETATM   13  C14 UNL     1      -7.060  48.923 -24.091  1.00  0.00     0.133 C 
HETATM   14  C15 UNL     1      -7.263  49.447 -22.678  1.00  0.00     0.036 C 
HETATM   15  C16 UNL     1      -5.833  49.588 -22.204  1.00  0.00     0.043 C 
HETATM   16  C17 UNL     1      -5.125  48.394 -22.864  1.00  0.00     0.084 C 
HETATM   17  C18 UNL     1      -5.108  47.193 -21.913  1.00  0.00     0.049 C 
HETATM   18  O8  UNL     1      -5.943  48.025 -23.995  1.00  0.00    -0.372 OA
BRANCH  16  19
HETATM   19  C19 UNL     1      -3.718  48.785 -23.369  1.00  0.00     0.160 C 
HETATM   20  O4  UNL     1      -3.727  50.053 -24.068  1.00  0.00    -0.375 OA
HETATM   21  C20 UNL     1      -2.463  50.701 -23.843  1.00  0.00     0.152 C 
HETATM   22  C29 UNL     1      -1.578  49.697 -23.108  1.00  0.00     0.041 C 
HETATM   23  C30 UNL     1      -2.605  48.902 -22.323  1.00  0.00     0.016 C 
HETATM   24  C31 UNL     1      -2.060  47.583 -21.801  1.00  0.00     0.012 C 
BRANCH  21  25
HETATM   25  C21 UNL     1      -1.821  51.314 -25.112  1.00  0.00     0.158 C 
HETATM   26  O5  UNL     1      -0.457  51.596 -24.759  1.00  0.00    -0.345 OA
HETATM   27  C22 UNL     1       0.340  52.234 -25.754  1.00  0.00     0.187 C 
HETATM   28  C24 UNL     1       0.403  51.336 -26.999  1.00  0.00     0.046 C 
HETATM   29  C25 UNL     1       1.284  51.867 -28.130  1.00  0.00     0.015 C 
HETATM   30  C26 UNL     1      -1.008  51.033 -27.501  1.00  0.00     0.016 C 
HETATM   31  C27 UNL     1      -1.888  50.435 -26.387  1.00  0.00     0.014 C 
HETATM   32  C28 UNL     1      -3.306  50.267 -26.942  1.00  0.00     0.012 C 
BRANCH  27  33
HETATM   33  O6  UNL     1       1.659  52.298 -25.193  1.00  0.00    -0.363 OA
HETATM   34  H34 UNL     1       1.737  51.463 -24.700  1.00  0.00     0.213 HD
ENDBRANCH  27  33
BRANCH  27  35
HETATM   35  C23 UNL     1      -0.099  53.702 -25.968  1.00  0.00     0.232 C 
BRANCH  35  36
HETATM   36  O7  UNL     1      -0.846  53.869 -27.171  1.00  0.00    -0.396 OA
HETATM   37  H37 UNL     1      -0.366  53.339 -27.841  1.00  0.00     0.209 HD
ENDBRANCH  35  36
ENDBRANCH  27  35
ENDBRANCH  21  25
ENDBRANCH  16  19
ENDBRANCH   9  13
BRANCH   1  38
HETATM   38  C3  UNL     1      -7.843  46.951 -30.361  1.00  0.00     0.041 C 
HETATM   39  C4  UNL     1      -8.845  48.060 -30.681  1.00  0.00     0.015 C 
BRANCH  38  40
HETATM   40  C2  UNL     1      -6.578  46.941 -31.292  1.00  0.00     0.141 C 
BRANCH  40  41
HETATM   41  O1  UNL     1      -5.698  45.850 -31.010  1.00  0.00    -0.389 OA
HETATM   42  C1  UNL     1      -5.541  44.962 -32.113  1.00  0.00     0.202 C 
ENDBRANCH  40  41
BRANCH  40  43
HETATM   43  C33 UNL     1      -5.768  48.245 -31.488  1.00  0.00     0.109 C 
HETATM   44  C34 UNL     1      -4.862  48.166 -32.726  1.00  0.00     0.024 C 
BRANCH  43  45
HETATM   45  C35 UNL     1      -4.934  48.682 -30.313  1.00  0.00     0.145 C 
HETATM   46  O10 UNL     1      -4.699  48.007 -29.320  1.00  0.00    -0.650 OA
BRANCH  45  47
HETATM   47  O11 UNL     1      -4.480  49.943 -30.375  1.00  0.00    -0.776 OA
HETATM   48  H60 UNL     1      -3.976  50.068 -29.546  1.00  0.00     0.167 HD
ENDBRANCH  45  47
ENDBRANCH  43  45
ENDBRANCH  40  43
ENDBRANCH  38  40
ENDBRANCH   1  38
BRANCH   5  49
HETATM   49  O3  UNL     1      -9.508  43.700 -27.221  1.00  0.00    -0.395 OA
HETATM   50  H13 UNL     1     -10.460  43.542 -27.098  1.00  0.00     0.210 HD
ENDBRANCH   5  49
TORSDOF 13
ENDMDL
MODEL 7
REMARK minimizedAffinity -8.92343044
REMARK CNNscore 0.327762723
REMARK CNNaffinity 7.2921176
REMARK  13 active torsions:
REMARK  status: ('A' for Active; 'I' for Inactive)
REMARK    1  A    between atoms: O1_2  and  C2_3 
REMARK    2  A    between atoms: C2_3  and  C3_4 
REMARK    3  A    between atoms: C2_3  and  C33_42 
REMARK    4  A    between atoms: C3_4  and  C5_6 
REMARK    5  A    between atoms: C8_10  and  O3_11 
REMARK    6  A    between atoms: C12_15  and  C14_17 
REMARK    7  A    between atoms: C17_20  and  C19_22 
REMARK    8  A    between atoms: C20_24  and  C21_25 
REMARK    9  A    between atoms: C22_27  and  O6_28 
REMARK   10  A    between atoms: C22_27  and  C23_29 
REMARK   11  A    between atoms: C23_29  and  O7_30 
REMARK   12  A    between atoms: C33_42  and  C35_44 
REMARK   13  A    between atoms: C35_44  and  O11_46 
ROOT
HETATM    1  C5  UNL     1      -2.283  50.322 -24.050  1.00  0.00     0.137 C 
HETATM    2  O2  UNL     1      -2.795  51.125 -22.972  1.00  0.00    -0.349 OA
HETATM    3  C6  UNL     1      -3.871  50.603 -22.204  1.00  0.00     0.167 C 
HETATM    4  C7  UNL     1      -5.069  50.261 -23.093  1.00  0.00     0.100 C 
HETATM    5  C8  UNL     1      -4.688  49.608 -24.419  1.00  0.00     0.129 C 
HETATM    6  C9  UNL     1      -3.225  49.173 -24.463  1.00  0.00     0.040 C 
HETATM    7  C10 UNL     1      -2.859  48.422 -25.737  1.00  0.00     0.015 C 
HETATM    8  C11 UNL     1      -3.385  49.456 -21.292  1.00  0.00     0.082 C 
HETATM    9  C12 UNL     1      -3.701  49.914 -19.864  1.00  0.00     0.009 C 
HETATM   10  C13 UNL     1      -5.109  49.432 -19.455  1.00  0.00     0.020 C 
HETATM   11  C32 UNL     1      -3.693  51.426 -20.049  1.00  0.00     0.183 C 
HETATM   12  O9  UNL     1      -4.326  51.646 -21.312  1.00  0.00    -0.354 OA
ENDROOT
BRANCH   9  13
HETATM   13  C14 UNL     1      -2.664  49.476 -18.816  1.00  0.00     0.133 C 
HETATM   14  C15 UNL     1      -1.372  48.885 -19.358  1.00  0.00     0.036 C 
HETATM   15  C16 UNL     1      -0.449  49.047 -18.169  1.00  0.00     0.043 C 
HETATM   16  C17 UNL     1      -0.897  50.383 -17.555  1.00  0.00     0.084 C 
HETATM   17  C18 UNL     1      -0.053  51.535 -18.111  1.00  0.00     0.049 C 
HETATM   18  O8  UNL     1      -2.250  50.594 -18.013  1.00  0.00    -0.372 OA
BRANCH  16  19
HETATM   19  C19 UNL     1      -0.893  50.321 -16.012  1.00  0.00     0.160 C 
HETATM   20  O4  UNL     1       0.398  50.669 -15.460  1.00  0.00    -0.375 OA
HETATM   21  C20 UNL     1       0.188  51.312 -14.190  1.00  0.00     0.152 C 
HETATM   22  C29 UNL     1      -1.302  51.195 -13.880  1.00  0.00     0.041 C 
HETATM   23  C30 UNL     1      -1.906  51.200 -15.271  1.00  0.00     0.016 C 
HETATM   24  C31 UNL     1      -3.342  50.703 -15.296  1.00  0.00     0.012 C 
BRANCH  21  25
HETATM   25  C21 UNL     1       1.121  50.817 -13.058  1.00  0.00     0.158 C 
HETATM   26  O5  UNL     1       2.155  50.060 -13.710  1.00  0.00    -0.345 OA
HETATM   27  C22 UNL     1       3.119  49.436 -12.865  1.00  0.00     0.187 C 
HETATM   28  C24 UNL     1       3.839  50.515 -12.042  1.00  0.00     0.046 C 
HETATM   29  C25 UNL     1       4.952  49.994 -11.133  1.00  0.00     0.015 C 
HETATM   30  C26 UNL     1       2.824  51.337 -11.248  1.00  0.00     0.016 C 
HETATM   31  C27 UNL     1       1.732  51.924 -12.162  1.00  0.00     0.014 C 
HETATM   32  C28 UNL     1       0.703  52.633 -11.277  1.00  0.00     0.012 C 
BRANCH  27  33
HETATM   33  O6  UNL     1       4.078  48.853 -13.757  1.00  0.00    -0.363 OA
HETATM   34  H34 UNL     1       4.136  49.499 -14.483  1.00  0.00     0.213 HD
ENDBRANCH  27  33
BRANCH  27  35
HETATM   35  C23 UNL     1       2.497  48.255 -12.083  1.00  0.00     0.232 C 
BRANCH  35  36
HETATM   36  O7  UNL     1       3.249  47.053 -12.237  1.00  0.00    -0.396 OA
HETATM   37  H37 UNL     1       3.475  47.019 -13.190  1.00  0.00     0.209 HD
ENDBRANCH  35  36
ENDBRANCH  27  35
ENDBRANCH  21  25
ENDBRANCH  16  19
ENDBRANCH   9  13
BRANCH   1  38
HETATM   38  C3  UNL     1      -1.678  51.319 -25.096  1.00  0.00     0.041 C 
HETATM   39  C4  UNL     1      -2.552  52.540 -25.386  1.00  0.00     0.015 C 
BRANCH  38  40
HETATM   40  C2  UNL     1      -0.136  51.617 -25.119  1.00  0.00     0.141 C 
BRANCH  40  41
HETATM   41  O1  UNL     1       0.212  52.767 -24.343  1.00  0.00    -0.389 OA
HETATM   42  C1  UNL     1       0.579  52.447 -23.005  1.00  0.00     0.202 C 
ENDBRANCH  40  41
BRANCH  40  43
HETATM   43  C33 UNL     1       0.616  51.636 -26.471  1.00  0.00     0.109 C 
HETATM   44  C34 UNL     1       2.128  51.447 -26.279  1.00  0.00     0.024 C 
BRANCH  43  45
HETATM   45  C35 UNL     1       0.391  52.853 -27.329  1.00  0.00     0.145 C 
HETATM   46  O10 UNL     1       0.236  52.847 -28.543  1.00  0.00    -0.650 OA
BRANCH  45  47
HETATM   47  O11 UNL     1       0.431  54.024 -26.675  1.00  0.00    -0.776 OA
HETATM   48  H60 UNL     1       0.281  54.701 -27.366  1.00  0.00     0.167 HD
ENDBRANCH  45  47
ENDBRANCH  43  45
ENDBRANCH  40  43
ENDBRANCH  38  40
ENDBRANCH   1  38
BRANCH   5  49
HETATM   49  O3  UNL     1      -5.536  48.474 -24.632  1.00  0.00    -0.395 OA
HETATM   50  H13 UNL     1      -6.443  48.816 -24.720  1.00  0.00     0.210 HD
ENDBRANCH   5  49
TORSDOF 13
ENDMDL
MODEL 8
REMARK minimizedAffinity -8.89986324
REMARK CNNscore 0.324096471
REMARK CNNaffinity 6.2665081
REMARK  13 active torsions:
REMARK  status: ('A' for Active; 'I' for Inactive)
REMARK    1  A    between atoms: O1_2  and  C2_3 
REMARK    2  A    between atoms: C2_3  and  C3_4 
REMARK    3  A    between atoms: C2_3  and  C33_42 
REMARK    4  A    between atoms: C3_4  and  C5_6 
REMARK    5  A    between atoms: C8_10  and  O3_11 
REMARK    6  A    between atoms: C12_15  and  C14_17 
REMARK    7  A    between atoms: C17_20  and  C19_22 
REMARK    8  A    between atoms: C20_24  and  C21_25 
REMARK    9  A    between atoms: C22_27  and  O6_28 
REMARK   10  A    between atoms: C22_27  and  C23_29 
REMARK   11  A    between atoms: C23_29  and  O7_30 
REMARK   12  A    between atoms: C33_42  and  C35_44 
REMARK   13  A    between atoms: C35_44  and  O11_46 
ROOT
HETATM    1  C5  UNL     1      -7.751  46.216 -26.074  1.00  0.00     0.137 C 
HETATM    2  O2  UNL     1      -7.707  47.583 -25.628  1.00  0.00    -0.349 OA
HETATM    3  C6  UNL     1      -7.866  47.837 -24.238  1.00  0.00     0.167 C 
HETATM    4  C7  UNL     1      -9.183  47.257 -23.718  1.00  0.00     0.100 C 
HETATM    5  C8  UNL     1      -9.521  45.882 -24.288  1.00  0.00     0.129 C 
HETATM    6  C9  UNL     1      -8.348  45.248 -25.032  1.00  0.00     0.040 C 
HETATM    7  C10 UNL     1      -8.634  43.831 -25.511  1.00  0.00     0.015 C 
HETATM    8  C11 UNL     1      -6.607  47.405 -23.456  1.00  0.00     0.082 C 
HETATM    9  C12 UNL     1      -6.102  48.677 -22.768  1.00  0.00     0.009 C 
HETATM   10  C13 UNL     1      -6.736  48.808 -21.368  1.00  0.00     0.020 C 
HETATM   11  C32 UNL     1      -6.664  49.740 -23.704  1.00  0.00     0.183 C 
HETATM   12  O9  UNL     1      -7.966  49.268 -24.058  1.00  0.00    -0.354 OA
ENDROOT
BRANCH   9  13
HETATM   13  C14 UNL     1      -4.570  48.776 -22.671  1.00  0.00     0.133 C 
HETATM   14  C15 UNL     1      -3.836  49.110 -23.959  1.00  0.00     0.036 C 
HETATM   15  C16 UNL     1      -2.511  49.610 -23.427  1.00  0.00     0.043 C 
HETATM   16  C17 UNL     1      -2.906  50.351 -22.139  1.00  0.00     0.084 C 
HETATM   17  C18 UNL     1      -3.121  51.841 -22.428  1.00  0.00     0.049 C 
HETATM   18  O8  UNL     1      -4.185  49.809 -21.748  1.00  0.00    -0.372 OA
BRANCH  16  19
HETATM   19  C19 UNL     1      -1.885  50.096 -21.008  1.00  0.00     0.160 C 
HETATM   20  O4  UNL     1      -2.056  51.019 -19.907  1.00  0.00    -0.375 OA
HETATM   21  C20 UNL     1      -1.693  50.342 -18.691  1.00  0.00     0.152 C 
HETATM   22  C29 UNL     1      -1.112  48.990 -19.096  1.00  0.00     0.041 C 
HETATM   23  C30 UNL     1      -1.874  48.701 -20.376  1.00  0.00     0.016 C 
HETATM   24  C31 UNL     1      -1.231  47.610 -21.215  1.00  0.00     0.012 C 
BRANCH  21  25
HETATM   25  C21 UNL     1      -0.793  51.169 -17.740  1.00  0.00     0.158 C 
HETATM   26  O5  UNL     1      -0.246  50.224 -16.805  1.00  0.00    -0.345 OA
HETATM   27  C22 UNL     1       0.579  50.755 -15.770  1.00  0.00     0.187 C 
HETATM   28  C24 UNL     1       1.783  51.469 -16.404  1.00  0.00     0.046 C 
HETATM   29  C25 UNL     1       2.794  52.034 -15.406  1.00  0.00     0.015 C 
HETATM   30  C26 UNL     1       1.304  52.552 -17.371  1.00  0.00     0.016 C 
HETATM   31  C27 UNL     1       0.335  51.982 -18.424  1.00  0.00     0.014 C 
HETATM   32  C28 UNL     1      -0.179  53.147 -19.275  1.00  0.00     0.012 C 
BRANCH  27  33
HETATM   33  O6  UNL     1       1.072  49.611 -15.060  1.00  0.00    -0.363 OA
HETATM   34  H34 UNL     1       1.212  48.951 -15.761  1.00  0.00     0.213 HD
ENDBRANCH  27  33
BRANCH  27  35
HETATM   35  C23 UNL     1      -0.255  51.561 -14.746  1.00  0.00     0.232 C 
BRANCH  35  36
HETATM   36  O7  UNL     1      -1.420  50.852 -14.326  1.00  0.00    -0.396 OA
HETATM   37  H37 UNL     1      -1.788  50.465 -15.147  1.00  0.00     0.209 HD
ENDBRANCH  35  36
ENDBRANCH  27  35
ENDBRANCH  21  25
ENDBRANCH  16  19
ENDBRANCH   9  13
BRANCH   1  38
HETATM   38  C3  UNL     1      -8.249  46.251 -27.559  1.00  0.00     0.041 C 
HETATM   39  C4  UNL     1      -8.006  44.957 -28.337  1.00  0.00     0.015 C 
BRANCH  38  40
HETATM   40  C2  UNL     1      -9.585  46.984 -27.937  1.00  0.00     0.141 C 
BRANCH  40  41
HETATM   41  O1  UNL     1      -9.369  48.331 -28.368  1.00  0.00    -0.389 OA
HETATM   42  C1  UNL     1      -8.232  48.469 -29.214  1.00  0.00     0.202 C 
ENDBRANCH  40  41
BRANCH  40  43
HETATM   43  C33 UNL     1     -10.790  46.920 -26.968  1.00  0.00     0.109 C 
HETATM   44  C34 UNL     1     -11.747  45.774 -27.332  1.00  0.00     0.024 C 
BRANCH  43  45
HETATM   45  C35 UNL     1     -11.592  48.187 -26.833  1.00  0.00     0.145 C 
HETATM   46  O10 UNL     1     -12.735  48.350 -27.236  1.00  0.00    -0.650 OA
BRANCH  45  47
HETATM   47  O11 UNL     1     -10.938  49.216 -26.272  1.00  0.00    -0.776 OA
HETATM   48  H60 UNL     1     -11.584  49.951 -26.269  1.00  0.00     0.167 HD
ENDBRANCH  45  47
ENDBRANCH  43  45
ENDBRANCH  40  43
ENDBRANCH  38  40
ENDBRANCH   1  38
BRANCH   5  49
HETATM   49  O3  UNL     1      -9.931  45.029 -23.214  1.00  0.00    -0.395 OA
HETATM   50  H13 UNL     1     -10.750  45.408 -22.852  1.00  0.00     0.210 HD
ENDBRANCH   5  49
TORSDOF 13
ENDMDL
MODEL 9
REMARK minimizedAffinity -9.32320213
REMARK CNNscore 0.322650373
REMARK CNNaffinity 6.65681028
REMARK  13 active torsions:
REMARK  status: ('A' for Active; 'I' for Inactive)
REMARK    1  A    between atoms: O1_2  and  C2_3 
REMARK    2  A    between atoms: C2_3  and  C3_4 
REMARK    3  A    between atoms: C2_3  and  C33_42 
REMARK    4  A    between atoms: C3_4  and  C5_6 
REMARK    5  A    between atoms: C8_10  and  O3_11 
REMARK    6  A    between atoms: C12_15  and  C14_17 
REMARK    7  A    between atoms: C17_20  and  C19_22 
REMARK    8  A    between atoms: C20_24  and  C21_25 
REMARK    9  A    between atoms: C22_27  and  O6_28 
REMARK   10  A    between atoms: C22_27  and  C23_29 
REMARK   11  A    between atoms: C23_29  and  O7_30 
REMARK   12  A    between atoms: C33_42  and  C35_44 
REMARK   13  A    between atoms: C35_44  and  O11_46 
ROOT
HETATM    1  C5  UNL     1      -3.627  49.912 -22.698  1.00  0.00     0.137 C 
HETATM    2  O2  UNL     1      -2.380  49.553 -22.078  1.00  0.00    -0.349 OA
HETATM    3  C6  UNL     1      -1.440  50.589 -21.820  1.00  0.00     0.167 C 
HETATM    4  C7  UNL     1      -1.082  51.341 -23.103  1.00  0.00     0.100 C 
HETATM    5  C8  UNL     1      -2.274  51.600 -24.021  1.00  0.00     0.129 C 
HETATM    6  C9  UNL     1      -3.612  51.312 -23.345  1.00  0.00     0.040 C 
HETATM    7  C10 UNL     1      -4.814  51.670 -24.211  1.00  0.00     0.015 C 
HETATM    8  C11 UNL     1      -1.915  51.478 -20.651  1.00  0.00     0.082 C 
HETATM    9  C12 UNL     1      -0.815  51.373 -19.591  1.00  0.00     0.009 C 
HETATM   10  C13 UNL     1       0.234  52.485 -19.805  1.00  0.00     0.020 C 
HETATM   11  C32 UNL     1      -0.222  50.014 -19.940  1.00  0.00     0.183 C 
HETATM   12  O9  UNL     1      -0.214  49.971 -21.368  1.00  0.00    -0.354 OA
ENDROOT
BRANCH   9  13
HETATM   13  C14 UNL     1      -1.330  51.400 -18.141  1.00  0.00     0.133 C 
HETATM   14  C15 UNL     1      -2.823  51.183 -17.956  1.00  0.00     0.036 C 
HETATM   15  C16 UNL     1      -2.887  50.775 -16.500  1.00  0.00     0.043 C 
HETATM   16  C17 UNL     1      -1.604  49.950 -16.310  1.00  0.00     0.084 C 
HETATM   17  C18 UNL     1      -1.892  48.461 -16.530  1.00  0.00     0.049 C 
HETATM   18  O8  UNL     1      -0.707  50.365 -17.361  1.00  0.00    -0.372 OA
BRANCH  16  19
HETATM   19  C19 UNL     1      -0.946  50.243 -14.943  1.00  0.00     0.160 C 
HETATM   20  O4  UNL     1      -1.899  50.760 -13.984  1.00  0.00    -0.375 OA
HETATM   21  C20 UNL     1      -1.506  50.315 -12.674  1.00  0.00     0.152 C 
HETATM   22  C29 UNL     1      -0.149  49.633 -12.829  1.00  0.00     0.041 C 
HETATM   23  C30 UNL     1      -0.245  49.078 -14.238  1.00  0.00     0.016 C 
HETATM   24  C31 UNL     1       1.105  48.684 -14.813  1.00  0.00     0.012 C 
BRANCH  21  25
HETATM   25  C21 UNL     1      -1.552  51.413 -11.583  1.00  0.00     0.158 C 
HETATM   26  O5  UNL     1      -0.440  52.282 -11.860  1.00  0.00    -0.345 OA
HETATM   27  C22 UNL     1      -0.225  53.353 -10.944  1.00  0.00     0.187 C 
HETATM   28  C24 UNL     1      -1.469  54.253 -10.922  1.00  0.00     0.046 C 
HETATM   29  C25 UNL     1      -1.354  55.487 -10.027  1.00  0.00     0.015 C 
HETATM   30  C26 UNL     1      -2.707  53.431 -10.563  1.00  0.00     0.016 C 
HETATM   31  C27 UNL     1      -2.873  52.220 -11.500  1.00  0.00     0.014 C 
HETATM   32  C28 UNL     1      -4.064  51.395 -11.003  1.00  0.00     0.012 C 
BRANCH  27  33
HETATM   33  O6  UNL     1       0.855  54.113 -11.505  1.00  0.00    -0.363 OA
HETATM   34  H34 UNL     1       0.692  54.068 -12.463  1.00  0.00     0.213 HD
ENDBRANCH  27  33
BRANCH  27  35
HETATM   35  C23 UNL     1       0.289  52.831  -9.582  1.00  0.00     0.232 C 
BRANCH  35  36
HETATM   36  O7  UNL     1       1.414  53.572  -9.111  1.00  0.00    -0.396 OA
HETATM   37  H37 UNL     1       1.982  53.693  -9.900  1.00  0.00     0.209 HD
ENDBRANCH  35  36
ENDBRANCH  27  35
ENDBRANCH  21  25
ENDBRANCH  16  19
ENDBRANCH   9  13
BRANCH   1  38
HETATM   38  C3  UNL     1      -4.117  48.642 -23.473  1.00  0.00     0.041 C 
HETATM   39  C4  UNL     1      -4.739  47.561 -22.588  1.00  0.00     0.015 C 
BRANCH  38  40
HETATM   40  C2  UNL     1      -4.791  48.778 -24.886  1.00  0.00     0.141 C 
BRANCH  40  41
HETATM   41  O1  UNL     1      -6.140  48.303 -24.898  1.00  0.00    -0.389 OA
HETATM   42  C1  UNL     1      -7.040  49.163 -24.206  1.00  0.00     0.202 C 
ENDBRANCH  40  41
BRANCH  40  43
HETATM   43  C33 UNL     1      -4.036  48.276 -26.140  1.00  0.00     0.109 C 
HETATM   44  C34 UNL     1      -2.630  48.887 -26.235  1.00  0.00     0.024 C 
BRANCH  43  45
HETATM   45  C35 UNL     1      -4.738  48.487 -27.455  1.00  0.00     0.145 C 
HETATM   46  O10 UNL     1      -5.637  47.786 -27.900  1.00  0.00    -0.650 OA
BRANCH  45  47
HETATM   47  O11 UNL     1      -4.267  49.502 -28.195  1.00  0.00    -0.776 OA
HETATM   48  H60 UNL     1      -4.814  49.495 -29.006  1.00  0.00     0.167 HD
ENDBRANCH  45  47
ENDBRANCH  43  45
ENDBRANCH  40  43
ENDBRANCH  38  40
ENDBRANCH   1  38
BRANCH   5  49
HETATM   49  O3  UNL     1      -2.233  52.966 -24.451  1.00  0.00    -0.395 OA
HETATM   50  H13 UNL     1      -1.424  53.068 -24.980  1.00  0.00     0.210 HD
ENDBRANCH   5  49
TORSDOF 13
ENDMDL
