MODEL 1
REMARK minimizedAffinity -8.26627636
REMARK CNNscore 0.536406219
REMARK CNNaffinity 6.82160711
REMARK  11 active torsions:
REMARK  status: ('A' for Active; 'I' for Inactive)
REMARK    1  A    between atoms: C3_4  and  O2_5 
REMARK    2  A    between atoms: O2_5  and  C4_6 
REMARK    3  A    between atoms: C7_9  and  C8_10 
REMARK    4  A    between atoms: N1_11  and  C9_13 
REMARK    5  A    between atoms: C9_13  and  C10_14 
REMARK    6  A    between atoms: C10_14  and  C11_15 
REMARK    7  A    between atoms: C22_26  and  C23_27 
REMARK    8  A    between atoms: C29_35  and  O5_36 
REMARK    9  A    between atoms: C33_40  and  O6_41 
REMARK   10  A    between atoms: C36_44  and  O7_45 
REMARK   11  A    between atoms: C37_46  and  O8_47 
ROOT
HETATM    1  C4  UNL     1      -0.433  56.174  -5.274  1.00  0.00     0.127 C 
HETATM    2  C5  UNL     1       0.125  57.075  -6.381  1.00  0.00     0.033 C 
HETATM    3  C6  UNL     1      -0.214  56.543  -7.766  1.00  0.00     0.021 C 
HETATM    4  C7  UNL     1       0.351  55.110  -8.059  1.00  0.00     0.026 C 
HETATM    5  C17 UNL     1      -0.741  54.317  -8.893  1.00  0.00     0.009 C 
HETATM    6  C18 UNL     1      -1.053  54.957 -10.262  1.00  0.00     0.007 C 
HETATM    7  C19 UNL     1      -2.168  54.217 -10.996  1.00  0.00     0.013 C 
HETATM    8  C20 UNL     1      -1.843  52.718 -11.247  1.00  0.00    -0.005 C 
HETATM    9  C21 UNL     1      -0.726  52.622 -12.309  1.00  0.00     0.019 C 
HETATM   10  C22 UNL     1      -3.173  51.996 -11.668  1.00  0.00     0.028 C 
HETATM   11  C27 UNL     1      -3.822  51.558 -10.338  1.00  0.00     0.013 C 
HETATM   12  C28 UNL     1      -2.817  51.833  -9.218  1.00  0.00     0.040 C 
HETATM   13  C29 UNL     1      -1.462  52.034  -9.906  1.00  0.00     0.070 C 
HETATM   14  C30 UNL     1      -0.420  52.813  -9.055  1.00  0.00     0.026 C 
HETATM   15  C31 UNL     1      -0.241  52.163  -7.672  1.00  0.00     0.011 C 
HETATM   16  C32 UNL     1       0.875  52.837  -6.891  1.00  0.00     0.039 C 
HETATM   17  C33 UNL     1       0.701  54.361  -6.713  1.00  0.00     0.073 C 
HETATM   18  C34 UNL     1      -0.372  54.677  -5.643  1.00  0.00     0.071 C 
ENDROOT
BRANCH   1  19
HETATM   19  O2  UNL     1       0.324  56.446  -4.095  1.00  0.00    -0.356 OA
BRANCH  19  20
HETATM   20  C3  UNL     1      -0.446  56.862  -2.974  1.00  0.00     0.263 C 
HETATM   21  O1  UNL     1      -1.801  57.043  -3.378  1.00  0.00    -0.354 OA
HETATM   22  C2  UNL     1      -2.693  57.365  -2.300  1.00  0.00     0.151 C 
HETATM   23  C1  UNL     1      -3.354  56.088  -1.789  1.00  0.00     0.042 C 
HETATM   24  C37 UNL     1      -2.013  58.151  -1.157  1.00  0.00     0.175 C 
HETATM   25  C36 UNL     1      -0.891  59.028  -1.722  1.00  0.00     0.154 C 
HETATM   26  C35 UNL     1       0.132  58.203  -2.500  1.00  0.00     0.095 C 
BRANCH  24  27
HETATM   27  O8  UNL     1      -2.969  58.973  -0.478  1.00  0.00    -0.390 OA
HETATM   28  H51 UNL     1      -3.008  59.809  -0.991  1.00  0.00     0.210 HD
ENDBRANCH  24  27
BRANCH  25  29
HETATM   29  O7  UNL     1      -1.482  60.036  -2.566  1.00  0.00    -0.393 OA
HETATM   30  H49 UNL     1      -1.610  59.642  -3.456  1.00  0.00     0.210 HD
ENDBRANCH  25  29
ENDBRANCH  19  20
ENDBRANCH   1  19
BRANCH  17  31
HETATM   31  O6  UNL     1       1.937  54.848  -6.164  1.00  0.00    -0.389 OA
HETATM   32  H43 UNL     1       2.667  54.227  -6.332  1.00  0.00     0.210 HD
ENDBRANCH  17  31
BRANCH   4  33
HETATM   33  C8  UNL     1       1.646  55.195  -8.879  1.00  0.00     0.068 C 
HETATM   34  N1  UNL     1       1.713  54.911 -10.137  1.00  0.00    -0.401 N 
ATOM     35  H1  UNL     1       0.916  54.597 -10.690  1.00  0.00     0.158 HD
BRANCH  34  36
HETATM   36  C9  UNL     1       3.068  55.092 -10.684  1.00  0.00     0.123 C 
BRANCH  36  37
HETATM   37  C10 UNL     1       3.715  56.314 -10.025  1.00  0.00     0.058 C 
BRANCH  37  38
HETATM   38  C11 UNL     1       4.889  55.905  -9.172  1.00  0.00    -0.057 A 
HETATM   39  C12 UNL     1       5.068  56.454  -7.896  1.00  0.00     0.007 A 
HETATM   40  C13 UNL     1       6.185  56.113  -7.132  1.00  0.00     0.001 A 
HETATM   41  C14 UNL     1       7.125  55.216  -7.633  1.00  0.00     0.000 A 
HETATM   42  C15 UNL     1       6.956  54.664  -8.902  1.00  0.00     0.001 A 
HETATM   43  C16 UNL     1       5.847  55.011  -9.672  1.00  0.00     0.007 A 
ENDBRANCH  37  38
ENDBRANCH  36  37
ENDBRANCH  34  36
ENDBRANCH   4  33
BRANCH  13  44
HETATM   44  O5  UNL     1      -0.946  50.720 -10.146  1.00  0.00    -0.389 OA
HETATM   45  H37 UNL     1      -0.046  50.800 -10.504  1.00  0.00     0.210 HD
ENDBRANCH  13  44
BRANCH  10  46
HETATM   46  C23 UNL     1      -3.062  50.873 -12.669  1.00  0.00    -0.045 A 
HETATM   47  C24 UNL     1      -2.821  50.926 -13.979  1.00  0.00     0.087 A 
HETATM   48  C25 UNL     1      -2.825  49.551 -14.475  1.00  0.00     0.283 A 
HETATM   49  O3  UNL     1      -2.663  49.228 -15.636  1.00  0.00    -0.260 OA
HETATM   50  O4  UNL     1      -3.039  48.703 -13.436  1.00  0.00    -0.314 OA
HETATM   51  C26 UNL     1      -3.199  49.460 -12.240  1.00  0.00     0.213 A 
ENDBRANCH  10  46
TORSDOF 11
ENDMDL
MODEL 2
REMARK minimizedAffinity -8.22522354
REMARK CNNscore 0.424034983
REMARK CNNaffinity 6.65094757
REMARK  11 active torsions:
REMARK  status: ('A' for Active; 'I' for Inactive)
REMARK    1  A    between atoms: C3_4  and  O2_5 
REMARK    2  A    between atoms: O2_5  and  C4_6 
REMARK    3  A    between atoms: C7_9  and  C8_10 
REMARK    4  A    between atoms: N1_11  and  C9_13 
REMARK    5  A    between atoms: C9_13  and  C10_14 
REMARK    6  A    between atoms: C10_14  and  C11_15 
REMARK    7  A    between atoms: C22_26  and  C23_27 
REMARK    8  A    between atoms: C29_35  and  O5_36 
REMARK    9  A    between atoms: C33_40  and  O6_41 
REMARK   10  A    between atoms: C36_44  and  O7_45 
REMARK   11  A    between atoms: C37_46  and  O8_47 
ROOT
HETATM    1  C4  UNL     1      -6.169  47.228 -27.004  1.00  0.00     0.127 C 
HETATM    2  C5  UNL     1      -7.617  46.868 -26.652  1.00  0.00     0.033 C 
HETATM    3  C6  UNL     1      -8.191  45.835 -27.610  1.00  0.00     0.021 C 
HETATM    4  C7  UNL     1      -8.222  46.298 -29.107  1.00  0.00     0.026 C 
HETATM    5  C17 UNL     1      -7.855  45.047 -30.012  1.00  0.00     0.009 C 
HETATM    6  C18 UNL     1      -8.860  43.883 -29.889  1.00  0.00     0.007 C 
HETATM    7  C19 UNL     1      -8.427  42.667 -30.704  1.00  0.00     0.013 C 
HETATM    8  C20 UNL     1      -8.258  42.977 -32.218  1.00  0.00    -0.005 C 
HETATM    9  C21 UNL     1      -9.653  43.219 -32.835  1.00  0.00     0.019 C 
HETATM   10  C22 UNL     1      -7.480  41.781 -32.875  1.00  0.00     0.028 C 
HETATM   11  C27 UNL     1      -5.988  42.142 -32.708  1.00  0.00     0.013 C 
HETATM   12  C28 UNL     1      -5.914  43.571 -32.166  1.00  0.00     0.040 C 
HETATM   13  C29 UNL     1      -7.299  44.184 -32.401  1.00  0.00     0.070 C 
HETATM   14  C30 UNL     1      -7.619  45.409 -31.497  1.00  0.00     0.026 C 
HETATM   15  C31 UNL     1      -6.519  46.478 -31.608  1.00  0.00     0.011 C 
HETATM   16  C32 UNL     1      -6.896  47.732 -30.836  1.00  0.00     0.039 C 
HETATM   17  C33 UNL     1      -7.217  47.493 -29.345  1.00  0.00     0.073 C 
HETATM   18  C34 UNL     1      -5.924  47.259 -28.528  1.00  0.00     0.071 C 
ENDROOT
BRANCH   1  19
HETATM   19  O2  UNL     1      -5.901  48.499 -26.413  1.00  0.00    -0.356 OA
BRANCH  19  20
HETATM   20  C3  UNL     1      -4.870  48.494 -25.433  1.00  0.00     0.263 C 
HETATM   21  O1  UNL     1      -5.232  49.369 -24.368  1.00  0.00    -0.354 OA
HETATM   22  C2  UNL     1      -4.308  49.365 -23.270  1.00  0.00     0.151 C 
HETATM   23  C1  UNL     1      -4.793  48.388 -22.202  1.00  0.00     0.042 C 
HETATM   24  C37 UNL     1      -2.853  49.067 -23.695  1.00  0.00     0.175 C 
HETATM   25  C36 UNL     1      -2.604  49.599 -25.110  1.00  0.00     0.154 C 
HETATM   26  C35 UNL     1      -3.596  49.015 -26.114  1.00  0.00     0.095 C 
BRANCH  24  27
HETATM   27  O8  UNL     1      -1.932  49.678 -22.784  1.00  0.00    -0.390 OA
HETATM   28  H51 UNL     1      -1.809  50.596 -23.110  1.00  0.00     0.210 HD
ENDBRANCH  24  27
BRANCH  25  29
HETATM   29  O7  UNL     1      -2.696  51.036 -25.080  1.00  0.00    -0.393 OA
HETATM   30  H49 UNL     1      -3.644  51.277 -25.166  1.00  0.00     0.210 HD
ENDBRANCH  25  29
ENDBRANCH  19  20
ENDBRANCH   1  19
BRANCH  17  31
HETATM   31  O6  UNL     1      -7.762  48.725 -28.846  1.00  0.00    -0.389 OA
HETATM   32  H43 UNL     1      -8.101  49.281 -29.569  1.00  0.00     0.210 HD
ENDBRANCH  17  31
BRANCH   4  33
HETATM   33  C8  UNL     1      -9.621  46.802 -29.491  1.00  0.00     0.068 C 
HETATM   34  N1  UNL     1     -10.704  46.129 -29.281  1.00  0.00    -0.401 N 
ATOM     35  H1  UNL     1     -10.721  45.203 -28.854  1.00  0.00     0.158 HD
BRANCH  34  36
HETATM   36  C9  UNL     1     -11.909  46.846 -29.727  1.00  0.00     0.123 C 
BRANCH  36  37
HETATM   37  C10 UNL     1     -12.510  47.602 -28.538  1.00  0.00     0.058 C 
BRANCH  37  38
HETATM   38  C11 UNL     1     -13.602  46.793 -27.885  1.00  0.00    -0.057 A 
HETATM   39  C12 UNL     1     -14.357  45.880 -28.633  1.00  0.00     0.007 A 
HETATM   40  C13 UNL     1     -15.402  45.174 -28.037  1.00  0.00     0.001 A 
HETATM   41  C14 UNL     1     -15.695  45.367 -26.689  1.00  0.00     0.000 A 
HETATM   42  C15 UNL     1     -14.950  46.273 -25.936  1.00  0.00     0.001 A 
HETATM   43  C16 UNL     1     -13.912  46.988 -26.531  1.00  0.00     0.007 A 
ENDBRANCH  37  38
ENDBRANCH  36  37
ENDBRANCH  34  36
ENDBRANCH   4  33
BRANCH  13  44
HETATM   44  O5  UNL     1      -7.306  44.625 -33.763  1.00  0.00    -0.389 OA
HETATM   45  H37 UNL     1      -8.137  45.100 -33.932  1.00  0.00     0.210 HD
ENDBRANCH  13  44
BRANCH  10  46
HETATM   46  C23 UNL     1      -7.845  41.416 -34.292  1.00  0.00    -0.045 A 
HETATM   47  C24 UNL     1      -7.193  41.669 -35.428  1.00  0.00     0.087 A 
HETATM   48  C25 UNL     1      -7.986  41.100 -36.516  1.00  0.00     0.283 A 
HETATM   49  O3  UNL     1      -7.700  41.169 -37.696  1.00  0.00    -0.260 OA
HETATM   50  O4  UNL     1      -9.083  40.490 -35.998  1.00  0.00    -0.314 OA
HETATM   51  C26 UNL     1      -9.074  40.638 -34.581  1.00  0.00     0.213 A 
ENDBRANCH  10  46
TORSDOF 11
ENDMDL
MODEL 3
REMARK minimizedAffinity -9.9532299
REMARK CNNscore 0.364024043
REMARK CNNaffinity 6.83989573
REMARK  11 active torsions:
REMARK  status: ('A' for Active; 'I' for Inactive)
REMARK    1  A    between atoms: C3_4  and  O2_5 
REMARK    2  A    between atoms: O2_5  and  C4_6 
REMARK    3  A    between atoms: C7_9  and  C8_10 
REMARK    4  A    between atoms: N1_11  and  C9_13 
REMARK    5  A    between atoms: C9_13  and  C10_14 
REMARK    6  A    between atoms: C10_14  and  C11_15 
REMARK    7  A    between atoms: C22_26  and  C23_27 
REMARK    8  A    between atoms: C29_35  and  O5_36 
REMARK    9  A    between atoms: C33_40  and  O6_41 
REMARK   10  A    between atoms: C36_44  and  O7_45 
REMARK   11  A    between atoms: C37_46  and  O8_47 
ROOT
HETATM    1  C4  UNL     1      -8.534  46.873 -20.941  1.00  0.00     0.127 C 
HETATM    2  C5  UNL     1      -7.683  45.919 -21.787  1.00  0.00     0.033 C 
HETATM    3  C6  UNL     1      -6.238  46.384 -21.882  1.00  0.00     0.021 C 
HETATM    4  C7  UNL     1      -6.061  47.800 -22.532  1.00  0.00     0.026 C 
HETATM    5  C17 UNL     1      -4.906  48.555 -21.750  1.00  0.00     0.009 C 
HETATM    6  C18 UNL     1      -3.537  47.852 -21.847  1.00  0.00     0.007 C 
HETATM    7  C19 UNL     1      -2.472  48.558 -21.011  1.00  0.00     0.013 C 
HETATM    8  C20 UNL     1      -2.262  50.042 -21.422  1.00  0.00    -0.005 C 
HETATM    9  C21 UNL     1      -1.576  50.085 -22.805  1.00  0.00     0.019 C 
HETATM   10  C22 UNL     1      -1.434  50.748 -20.288  1.00  0.00     0.028 C 
HETATM   11  C27 UNL     1      -2.490  51.251 -19.282  1.00  0.00     0.013 C 
HETATM   12  C28 UNL     1      -3.869  51.027 -19.906  1.00  0.00     0.040 C 
HETATM   13  C29 UNL     1      -3.623  50.790 -21.400  1.00  0.00     0.070 C 
HETATM   14  C30 UNL     1      -4.780  50.049 -22.130  1.00  0.00     0.026 C 
HETATM   15  C31 UNL     1      -6.122  50.764 -21.903  1.00  0.00     0.011 C 
HETATM   16  C32 UNL     1      -7.228  50.125 -22.726  1.00  0.00     0.039 C 
HETATM   17  C33 UNL     1      -7.415  48.612 -22.481  1.00  0.00     0.073 C 
HETATM   18  C34 UNL     1      -8.132  48.351 -21.134  1.00  0.00     0.071 C 
ENDROOT
BRANCH   1  19
HETATM   19  O2  UNL     1      -9.895  46.656 -21.310  1.00  0.00    -0.356 OA
BRANCH  19  20
HETATM   20  C3  UNL     1     -10.814  46.652 -20.225  1.00  0.00     0.263 C 
HETATM   21  O1  UNL     1     -11.333  47.967 -20.047  1.00  0.00    -0.354 OA
HETATM   22  C2  UNL     1     -12.352  48.060 -19.040  1.00  0.00     0.151 C 
HETATM   23  C1  UNL     1     -13.726  47.957 -19.697  1.00  0.00     0.042 C 
HETATM   24  C37 UNL     1     -12.185  47.029 -17.902  1.00  0.00     0.175 C 
HETATM   25  C36 UNL     1     -10.699  46.724 -17.688  1.00  0.00     0.154 C 
HETATM   26  C35 UNL     1     -10.033  46.233 -18.971  1.00  0.00     0.095 C 
BRANCH  24  27
HETATM   27  O8  UNL     1     -12.753  47.529 -16.687  1.00  0.00    -0.390 OA
HETATM   28  H51 UNL     1     -12.046  48.064 -16.266  1.00  0.00     0.210 HD
ENDBRANCH  24  27
BRANCH  25  29
HETATM   29  O7  UNL     1     -10.055  47.919 -17.204  1.00  0.00    -0.393 OA
HETATM   30  H49 UNL     1      -9.820  48.468 -17.982  1.00  0.00     0.210 HD
ENDBRANCH  25  29
ENDBRANCH  19  20
ENDBRANCH   1  19
BRANCH  17  31
HETATM   31  O6  UNL     1      -8.327  48.148 -23.490  1.00  0.00    -0.389 OA
HETATM   32  H43 UNL     1      -8.356  48.758 -24.248  1.00  0.00     0.210 HD
ENDBRANCH  17  31
BRANCH   4  33
HETATM   33  C8  UNL     1      -5.667  47.672 -24.011  1.00  0.00     0.068 C 
HETATM   34  N1  UNL     1      -6.026  48.517 -24.919  1.00  0.00    -0.401 N 
ATOM     35  H1  UNL     1      -6.608  49.333 -24.735  1.00  0.00     0.158 HD
BRANCH  34  36
HETATM   36  C9  UNL     1      -5.499  48.171 -26.250  1.00  0.00     0.123 C 
BRANCH  36  37
HETATM   37  C10 UNL     1      -3.972  48.293 -26.232  1.00  0.00     0.058 C 
BRANCH  37  38
HETATM   38  C11 UNL     1      -3.548  49.731 -26.395  1.00  0.00    -0.057 A 
HETATM   39  C12 UNL     1      -2.857  50.144 -27.541  1.00  0.00     0.007 A 
HETATM   40  C13 UNL     1      -2.419  51.463 -27.662  1.00  0.00     0.001 A 
HETATM   41  C14 UNL     1      -2.674  52.380 -26.645  1.00  0.00     0.000 A 
HETATM   42  C15 UNL     1      -3.360  51.978 -25.501  1.00  0.00     0.001 A 
HETATM   43  C16 UNL     1      -3.791  50.659 -25.371  1.00  0.00     0.007 A 
ENDBRANCH  37  38
ENDBRANCH  36  37
ENDBRANCH  34  36
ENDBRANCH   4  33
BRANCH  13  44
HETATM   44  O5  UNL     1      -3.488  52.088 -21.987  1.00  0.00    -0.389 OA
HETATM   45  H37 UNL     1      -3.417  51.989 -22.951  1.00  0.00     0.210 HD
ENDBRANCH  13  44
BRANCH  10  46
HETATM   46  C23 UNL     1      -0.461  51.821 -20.710  1.00  0.00    -0.045 A 
HETATM   47  C24 UNL     1       0.242  52.670 -19.959  1.00  0.00     0.087 A 
HETATM   48  C25 UNL     1       1.024  53.504 -20.870  1.00  0.00     0.283 A 
HETATM   49  O3  UNL     1       1.763  54.407 -20.526  1.00  0.00    -0.260 OA
HETATM   50  O4  UNL     1       0.791  53.110 -22.149  1.00  0.00    -0.314 OA
HETATM   51  C26 UNL     1      -0.145  52.036 -22.142  1.00  0.00     0.213 A 
ENDBRANCH  10  46
TORSDOF 11
ENDMDL
MODEL 4
REMARK minimizedAffinity -9.10032463
REMARK CNNscore 0.353990316
REMARK CNNaffinity 6.64805841
REMARK  11 active torsions:
REMARK  status: ('A' for Active; 'I' for Inactive)
REMARK    1  A    between atoms: C3_4  and  O2_5 
REMARK    2  A    between atoms: O2_5  and  C4_6 
REMARK    3  A    between atoms: C7_9  and  C8_10 
REMARK    4  A    between atoms: N1_11  and  C9_13 
REMARK    5  A    between atoms: C9_13  and  C10_14 
REMARK    6  A    between atoms: C10_14  and  C11_15 
REMARK    7  A    between atoms: C22_26  and  C23_27 
REMARK    8  A    between atoms: C29_35  and  O5_36 
REMARK    9  A    between atoms: C33_40  and  O6_41 
REMARK   10  A    between atoms: C36_44  and  O7_45 
REMARK   11  A    between atoms: C37_46  and  O8_47 
ROOT
HETATM    1  C4  UNL     1      -7.892  46.017 -20.045  1.00  0.00     0.127 C 
HETATM    2  C5  UNL     1      -7.256  45.362 -21.277  1.00  0.00     0.033 C 
HETATM    3  C6  UNL     1      -5.888  45.950 -21.585  1.00  0.00     0.021 C 
HETATM    4  C7  UNL     1      -5.903  47.489 -21.883  1.00  0.00     0.026 C 
HETATM    5  C17 UNL     1      -4.607  48.126 -21.228  1.00  0.00     0.009 C 
HETATM    6  C18 UNL     1      -3.289  47.577 -21.813  1.00  0.00     0.007 C 
HETATM    7  C19 UNL     1      -2.066  48.146 -21.098  1.00  0.00     0.013 C 
HETATM    8  C20 UNL     1      -1.991  49.698 -21.162  1.00  0.00    -0.005 C 
HETATM    9  C21 UNL     1      -1.666  50.122 -22.610  1.00  0.00     0.019 C 
HETATM   10  C22 UNL     1      -0.925  50.176 -20.112  1.00  0.00     0.028 C 
HETATM   11  C27 UNL     1      -1.713  50.340 -18.795  1.00  0.00     0.013 C 
HETATM   12  C28 UNL     1      -3.198  50.162 -19.117  1.00  0.00     0.040 C 
HETATM   13  C29 UNL     1      -3.320  50.308 -20.638  1.00  0.00     0.070 C 
HETATM   14  C30 UNL     1      -4.606  49.672 -21.240  1.00  0.00     0.026 C 
HETATM   15  C31 UNL     1      -5.866  50.204 -20.536  1.00  0.00     0.011 C 
HETATM   16  C32 UNL     1      -7.127  49.693 -21.212  1.00  0.00     0.039 C 
HETATM   17  C33 UNL     1      -7.219  48.155 -21.317  1.00  0.00     0.073 C 
HETATM   18  C34 UNL     1      -7.579  47.525 -19.950  1.00  0.00     0.071 C 
ENDROOT
BRANCH   1  19
HETATM   19  O2  UNL     1      -9.298  45.786 -20.130  1.00  0.00    -0.356 OA
BRANCH  19  20
HETATM   20  C3  UNL     1     -10.068  46.416 -19.113  1.00  0.00     0.263 C 
HETATM   21  O1  UNL     1     -10.613  45.418 -18.254  1.00  0.00    -0.354 OA
HETATM   22  C2  UNL     1     -11.328  45.947 -17.127  1.00  0.00     0.151 C 
HETATM   23  C1  UNL     1     -10.394  46.016 -15.921  1.00  0.00     0.042 C 
HETATM   24  C37 UNL     1     -11.995  47.311 -17.410  1.00  0.00     0.175 C 
HETATM   25  C36 UNL     1     -12.400  47.398 -18.884  1.00  0.00     0.154 C 
HETATM   26  C35 UNL     1     -11.208  47.171 -19.811  1.00  0.00     0.095 C 
BRANCH  24  27
HETATM   27  O8  UNL     1     -13.151  47.483 -16.583  1.00  0.00    -0.390 OA
HETATM   28  H51 UNL     1     -13.888  47.054 -17.069  1.00  0.00     0.210 HD
ENDBRANCH  24  27
BRANCH  25  29
HETATM   29  O7  UNL     1     -13.431  46.422 -19.131  1.00  0.00    -0.393 OA
HETATM   30  H49 UNL     1     -12.992  45.563 -19.312  1.00  0.00     0.210 HD
ENDBRANCH  25  29
ENDBRANCH  19  20
ENDBRANCH   1  19
BRANCH  17  31
HETATM   31  O6  UNL     1      -8.341  47.874 -22.170  1.00  0.00    -0.389 OA
HETATM   32  H43 UNL     1      -8.566  48.643 -22.723  1.00  0.00     0.210 HD
ENDBRANCH  17  31
BRANCH   4  33
HETATM   33  C8  UNL     1      -5.881  47.749 -23.397  1.00  0.00     0.068 C 
HETATM   34  N1  UNL     1      -5.019  48.518 -23.975  1.00  0.00    -0.401 N 
ATOM     35  H1  UNL     1      -4.289  49.025 -23.477  1.00  0.00     0.158 HD
BRANCH  34  36
HETATM   36  C9  UNL     1      -5.209  48.580 -25.434  1.00  0.00     0.123 C 
BRANCH  36  37
HETATM   37  C10 UNL     1      -6.402  47.700 -25.821  1.00  0.00     0.058 C 
BRANCH  37  38
HETATM   38  C11 UNL     1      -6.472  47.520 -27.316  1.00  0.00    -0.057 A 
HETATM   39  C12 UNL     1      -7.593  46.927 -27.911  1.00  0.00     0.007 A 
HETATM   40  C13 UNL     1      -7.630  46.715 -29.289  1.00  0.00     0.001 A 
HETATM   41  C14 UNL     1      -6.553  47.100 -30.085  1.00  0.00     0.000 A 
HETATM   42  C15 UNL     1      -5.433  47.690 -29.502  1.00  0.00     0.001 A 
HETATM   43  C16 UNL     1      -5.388  47.895 -28.124  1.00  0.00     0.007 A 
ENDBRANCH  37  38
ENDBRANCH  36  37
ENDBRANCH  34  36
ENDBRANCH   4  33
BRANCH  13  44
HETATM   44  O5  UNL     1      -3.359  51.715 -20.896  1.00  0.00    -0.389 OA
HETATM   45  H37 UNL     1      -3.524  51.854 -21.843  1.00  0.00     0.210 HD
ENDBRANCH  13  44
BRANCH  10  46
HETATM   46  C23 UNL     1      -0.106  51.393 -20.466  1.00  0.00    -0.045 A 
HETATM   47  C24 UNL     1      -0.110  52.607 -19.915  1.00  0.00     0.087 A 
HETATM   48  C25 UNL     1       0.869  53.414 -20.641  1.00  0.00     0.283 A 
HETATM   49  O3  UNL     1       1.108  54.585 -20.420  1.00  0.00    -0.260 OA
HETATM   50  O4  UNL     1       1.461  52.647 -21.593  1.00  0.00    -0.314 OA
HETATM   51  C26 UNL     1       0.902  51.337 -21.552  1.00  0.00     0.213 A 
ENDBRANCH  10  46
TORSDOF 11
ENDMDL
MODEL 5
REMARK minimizedAffinity -9.07478428
REMARK CNNscore 0.319076508
REMARK CNNaffinity 6.97740221
REMARK  11 active torsions:
REMARK  status: ('A' for Active; 'I' for Inactive)
REMARK    1  A    between atoms: C3_4  and  O2_5 
REMARK    2  A    between atoms: O2_5  and  C4_6 
REMARK    3  A    between atoms: C7_9  and  C8_10 
REMARK    4  A    between atoms: N1_11  and  C9_13 
REMARK    5  A    between atoms: C9_13  and  C10_14 
REMARK    6  A    between atoms: C10_14  and  C11_15 
REMARK    7  A    between atoms: C22_26  and  C23_27 
REMARK    8  A    between atoms: C29_35  and  O5_36 
REMARK    9  A    between atoms: C33_40  and  O6_41 
REMARK   10  A    between atoms: C36_44  and  O7_45 
REMARK   11  A    between atoms: C37_46  and  O8_47 
ROOT
HETATM    1  C4  UNL     1       0.520  51.399 -15.354  1.00  0.00     0.127 C 
HETATM    2  C5  UNL     1      -0.773  51.384 -14.531  1.00  0.00     0.033 C 
HETATM    3  C6  UNL     1      -0.647  52.222 -13.268  1.00  0.00     0.021 C 
HETATM    4  C7  UNL     1       0.483  51.744 -12.291  1.00  0.00     0.026 C 
HETATM    5  C17 UNL     1       1.171  53.033 -11.674  1.00  0.00     0.009 C 
HETATM    6  C18 UNL     1       0.208  53.904 -10.841  1.00  0.00     0.007 C 
HETATM    7  C19 UNL     1       0.882  55.178 -10.337  1.00  0.00     0.013 C 
HETATM    8  C20 UNL     1       2.134  54.898  -9.458  1.00  0.00    -0.005 C 
HETATM    9  C21 UNL     1       1.673  54.299  -8.111  1.00  0.00     0.019 C 
HETATM   10  C22 UNL     1       2.932  56.242  -9.307  1.00  0.00     0.028 C 
HETATM   11  C27 UNL     1       3.883  56.276 -10.522  1.00  0.00     0.013 C 
HETATM   12  C28 UNL     1       3.783  54.921 -11.227  1.00  0.00     0.040 C 
HETATM   13  C29 UNL     1       3.116  53.972 -10.226  1.00  0.00     0.070 C 
HETATM   14  C30 UNL     1       2.456  52.721 -10.871  1.00  0.00     0.026 C 
HETATM   15  C31 UNL     1       3.459  51.964 -11.759  1.00  0.00     0.011 C 
HETATM   16  C32 UNL     1       2.860  50.668 -12.279  1.00  0.00     0.039 C 
HETATM   17  C33 UNL     1       1.533  50.841 -13.050  1.00  0.00     0.073 C 
HETATM   18  C34 UNL     1       1.784  51.408 -14.468  1.00  0.00     0.071 C 
ENDROOT
BRANCH   1  19
HETATM   19  O2  UNL     1       0.490  50.248 -16.198  1.00  0.00    -0.356 OA
BRANCH  19  20
HETATM   20  C3  UNL     1       0.113  50.505 -17.544  1.00  0.00     0.263 C 
HETATM   21  O1  UNL     1      -0.001  51.912 -17.739  1.00  0.00    -0.354 OA
HETATM   22  C2  UNL     1      -0.279  52.293 -19.094  1.00  0.00     0.151 C 
HETATM   23  C1  UNL     1       1.030  52.627 -19.806  1.00  0.00     0.042 C 
HETATM   24  C37 UNL     1      -1.097  51.238 -19.872  1.00  0.00     0.175 C 
HETATM   25  C36 UNL     1      -2.028  50.490 -18.913  1.00  0.00     0.154 C 
HETATM   26  C35 UNL     1      -1.255  49.843 -17.766  1.00  0.00     0.095 C 
BRANCH  24  27
HETATM   27  O8  UNL     1      -1.870  51.865 -20.901  1.00  0.00    -0.390 OA
HETATM   28  H51 UNL     1      -2.704  52.150 -20.468  1.00  0.00     0.210 HD
ENDBRANCH  24  27
BRANCH  25  29
HETATM   29  O7  UNL     1      -3.006  51.421 -18.409  1.00  0.00    -0.393 OA
HETATM   30  H49 UNL     1      -2.607  51.887 -17.642  1.00  0.00     0.210 HD
ENDBRANCH  25  29
ENDBRANCH  19  20
ENDBRANCH   1  19
BRANCH  17  31
HETATM   31  O6  UNL     1       1.012  49.518 -13.260  1.00  0.00    -0.389 OA
HETATM   32  H43 UNL     1       1.394  48.883 -12.628  1.00  0.00     0.210 HD
ENDBRANCH  17  31
BRANCH   4  33
HETATM   33  C8  UNL     1      -0.105  50.894 -11.155  1.00  0.00     0.068 C 
HETATM   34  N1  UNL     1       0.050  51.173  -9.903  1.00  0.00    -0.401 N 
ATOM     35  H1  UNL     1       0.585  51.971  -9.563  1.00  0.00     0.158 HD
BRANCH  34  36
HETATM   36  C9  UNL     1      -0.629  50.208  -9.023  1.00  0.00     0.123 C 
BRANCH  36  37
HETATM   37  C10 UNL     1      -1.757  50.924  -8.272  1.00  0.00     0.058 C 
BRANCH  37  38
HETATM   38  C11 UNL     1      -2.636  51.689  -9.229  1.00  0.00    -0.057 A 
HETATM   39  C12 UNL     1      -3.466  51.012 -10.132  1.00  0.00     0.007 A 
HETATM   40  C13 UNL     1      -4.236  51.724 -11.051  1.00  0.00     0.001 A 
HETATM   41  C14 UNL     1      -4.191  53.116 -11.070  1.00  0.00     0.000 A 
HETATM   42  C15 UNL     1      -3.368  53.799 -10.176  1.00  0.00     0.001 A 
HETATM   43  C16 UNL     1      -2.589  53.090  -9.263  1.00  0.00     0.007 A 
ENDBRANCH  37  38
ENDBRANCH  36  37
ENDBRANCH  34  36
ENDBRANCH   4  33
BRANCH  13  44
HETATM   44  O5  UNL     1       4.161  53.523  -9.356  1.00  0.00    -0.389 OA
HETATM   45  H37 UNL     1       3.799  52.850  -8.756  1.00  0.00     0.210 HD
ENDBRANCH  13  44
BRANCH  10  46
HETATM   46  C23 UNL     1       3.640  56.481  -7.996  1.00  0.00    -0.045 A 
HETATM   47  C24 UNL     1       4.865  56.116  -7.615  1.00  0.00     0.087 A 
HETATM   48  C25 UNL     1       5.051  56.593  -6.246  1.00  0.00     0.283 A 
HETATM   49  O3  UNL     1       6.049  56.412  -5.575  1.00  0.00    -0.260 OA
HETATM   50  O4  UNL     1       3.938  57.264  -5.852  1.00  0.00    -0.314 OA
HETATM   51  C26 UNL     1       2.983  57.246  -6.909  1.00  0.00     0.213 A 
ENDBRANCH  10  46
TORSDOF 11
ENDMDL
MODEL 6
REMARK minimizedAffinity -9.36032391
REMARK CNNscore 0.31705761
REMARK CNNaffinity 6.56661797
REMARK  11 active torsions:
REMARK  status: ('A' for Active; 'I' for Inactive)
REMARK    1  A    between atoms: C3_4  and  O2_5 
REMARK    2  A    between atoms: O2_5  and  C4_6 
REMARK    3  A    between atoms: C7_9  and  C8_10 
REMARK    4  A    between atoms: N1_11  and  C9_13 
REMARK    5  A    between atoms: C9_13  and  C10_14 
REMARK    6  A    between atoms: C10_14  and  C11_15 
REMARK    7  A    between atoms: C22_26  and  C23_27 
REMARK    8  A    between atoms: C29_35  and  O5_36 
REMARK    9  A    between atoms: C33_40  and  O6_41 
REMARK   10  A    between atoms: C36_44  and  O7_45 
REMARK   11  A    between atoms: C37_46  and  O8_47 
ROOT
HETATM    1  C4  UNL     1      -7.176  46.283 -19.572  1.00  0.00     0.127 C 
HETATM    2  C5  UNL     1      -6.913  45.575 -20.907  1.00  0.00     0.033 C 
HETATM    3  C6  UNL     1      -5.723  46.176 -21.639  1.00  0.00     0.021 C 
HETATM    4  C7  UNL     1      -5.886  47.696 -21.989  1.00  0.00     0.026 C 
HETATM    5  C17 UNL     1      -4.479  48.398 -21.784  1.00  0.00     0.009 C 
HETATM    6  C18 UNL     1      -3.376  47.848 -22.711  1.00  0.00     0.007 C 
HETATM    7  C19 UNL     1      -2.019  48.485 -22.424  1.00  0.00     0.013 C 
HETATM    8  C20 UNL     1      -2.026  50.032 -22.579  1.00  0.00    -0.005 C 
HETATM    9  C21 UNL     1      -2.165  50.382 -24.076  1.00  0.00     0.019 C 
HETATM   10  C22 UNL     1      -0.714  50.593 -21.921  1.00  0.00     0.028 C 
HETATM   11  C27 UNL     1      -1.079  50.811 -20.437  1.00  0.00     0.013 C 
HETATM   12  C28 UNL     1      -2.584  50.581 -20.290  1.00  0.00     0.040 C 
HETATM   13  C29 UNL     1      -3.161  50.639 -21.709  1.00  0.00     0.070 C 
HETATM   14  C30 UNL     1      -4.542  49.941 -21.868  1.00  0.00     0.026 C 
HETATM   15  C31 UNL     1      -5.553  50.482 -20.843  1.00  0.00     0.011 C 
HETATM   16  C32 UNL     1      -6.938  49.905 -21.085  1.00  0.00     0.039 C 
HETATM   17  C33 UNL     1      -6.997  48.362 -21.086  1.00  0.00     0.073 C 
HETATM   18  C34 UNL     1      -6.908  47.801 -19.646  1.00  0.00     0.071 C 
ENDROOT
BRANCH   1  19
HETATM   19  O2  UNL     1      -8.533  46.015 -19.221  1.00  0.00    -0.356 OA
BRANCH  19  20
HETATM   20  C3  UNL     1      -8.802  46.032 -17.825  1.00  0.00     0.263 C 
HETATM   21  O1  UNL     1      -9.643  44.930 -17.496  1.00  0.00    -0.354 OA
HETATM   22  C2  UNL     1      -9.897  44.788 -16.090  1.00  0.00     0.151 C 
HETATM   23  C1  UNL     1      -8.906  43.792 -15.494  1.00  0.00     0.042 C 
HETATM   24  C37 UNL     1      -9.885  46.131 -15.328  1.00  0.00     0.175 C 
HETATM   25  C36 UNL     1     -10.371  47.257 -16.245  1.00  0.00     0.154 C 
HETATM   26  C35 UNL     1      -9.535  47.347 -17.520  1.00  0.00     0.095 C 
BRANCH  24  27
HETATM   27  O8  UNL     1     -10.727  46.057 -14.172  1.00  0.00    -0.390 OA
HETATM   28  H51 UNL     1     -11.629  46.278 -14.488  1.00  0.00     0.210 HD
ENDBRANCH  24  27
BRANCH  25  29
HETATM   29  O7  UNL     1     -11.757  47.021 -16.561  1.00  0.00    -0.393 OA
HETATM   30  H49 UNL     1     -11.790  46.401 -17.320  1.00  0.00     0.210 HD
ENDBRANCH  25  29
ENDBRANCH  19  20
ENDBRANCH   1  19
BRANCH  17  31
HETATM   31  O6  UNL     1      -8.311  48.008 -21.548  1.00  0.00    -0.389 OA
HETATM   32  H43 UNL     1      -8.721  48.739 -22.043  1.00  0.00     0.210 HD
ENDBRANCH  17  31
BRANCH   4  33
HETATM   33  C8  UNL     1      -6.327  47.871 -23.450  1.00  0.00     0.068 C 
HETATM   34  N1  UNL     1      -7.144  47.070 -24.049  1.00  0.00    -0.401 N 
ATOM     35  H1  UNL     1      -7.556  46.248 -23.608  1.00  0.00     0.158 HD
BRANCH  34  36
HETATM   36  C9  UNL     1      -7.412  47.474 -25.439  1.00  0.00     0.123 C 
BRANCH  36  37
HETATM   37  C10 UNL     1      -6.097  47.900 -26.099  1.00  0.00     0.058 C 
BRANCH  37  38
HETATM   38  C11 UNL     1      -6.106  47.573 -27.571  1.00  0.00    -0.057 A 
HETATM   39  C12 UNL     1      -5.208  48.199 -28.446  1.00  0.00     0.007 A 
HETATM   40  C13 UNL     1      -5.257  47.933 -29.814  1.00  0.00     0.001 A 
HETATM   41  C14 UNL     1      -6.194  47.034 -30.318  1.00  0.00     0.000 A 
HETATM   42  C15 UNL     1      -7.092  46.406 -29.456  1.00  0.00     0.001 A 
HETATM   43  C16 UNL     1      -7.053  46.678 -28.089  1.00  0.00     0.007 A 
ENDBRANCH  37  38
ENDBRANCH  36  37
ENDBRANCH  34  36
ENDBRANCH   4  33
BRANCH  13  44
HETATM   44  O5  UNL     1      -3.329  52.029 -22.008  1.00  0.00    -0.389 OA
HETATM   45  H37 UNL     1      -3.775  52.110 -22.868  1.00  0.00     0.210 HD
ENDBRANCH  13  44
BRANCH  10  46
HETATM   46  C23 UNL     1      -0.086  51.806 -22.560  1.00  0.00    -0.045 A 
HETATM   47  C24 UNL     1       0.015  52.128 -23.850  1.00  0.00     0.087 A 
HETATM   48  C25 UNL     1       0.720  53.407 -23.921  1.00  0.00     0.283 A 
HETATM   49  O3  UNL     1       1.009  53.987 -24.950  1.00  0.00    -0.260 OA
HETATM   50  O4  UNL     1       0.996  53.835 -22.662  1.00  0.00    -0.314 OA
HETATM   51  C26 UNL     1       0.514  52.875 -21.726  1.00  0.00     0.213 A 
ENDBRANCH  10  46
TORSDOF 11
ENDMDL
MODEL 7
REMARK minimizedAffinity -8.24198341
REMARK CNNscore 0.290693343
REMARK CNNaffinity 6.36344147
REMARK  11 active torsions:
REMARK  status: ('A' for Active; 'I' for Inactive)
REMARK    1  A    between atoms: C3_4  and  O2_5 
REMARK    2  A    between atoms: O2_5  and  C4_6 
REMARK    3  A    between atoms: C7_9  and  C8_10 
REMARK    4  A    between atoms: N1_11  and  C9_13 
REMARK    5  A    between atoms: C9_13  and  C10_14 
REMARK    6  A    between atoms: C10_14  and  C11_15 
REMARK    7  A    between atoms: C22_26  and  C23_27 
REMARK    8  A    between atoms: C29_35  and  O5_36 
REMARK    9  A    between atoms: C33_40  and  O6_41 
REMARK   10  A    between atoms: C36_44  and  O7_45 
REMARK   11  A    between atoms: C37_46  and  O8_47 
ROOT
HETATM    1  C4  UNL     1      -9.756  46.117 -31.285  1.00  0.00     0.127 C 
HETATM    2  C5  UNL     1      -8.396  45.778 -31.906  1.00  0.00     0.033 C 
HETATM    3  C6  UNL     1      -8.377  46.045 -33.404  1.00  0.00     0.021 C 
HETATM    4  C7  UNL     1      -9.432  45.217 -34.216  1.00  0.00     0.026 C 
HETATM    5  C17 UNL     1     -10.014  46.154 -35.356  1.00  0.00     0.009 C 
HETATM    6  C18 UNL     1      -8.949  46.624 -36.369  1.00  0.00     0.007 C 
HETATM    7  C19 UNL     1      -9.528  47.592 -37.397  1.00  0.00     0.013 C 
HETATM    8  C20 UNL     1     -10.705  46.985 -38.211  1.00  0.00    -0.005 C 
HETATM    9  C21 UNL     1     -10.148  45.901 -39.160  1.00  0.00     0.019 C 
HETATM   10  C22 UNL     1     -11.436  48.157 -38.958  1.00  0.00     0.028 C 
HETATM   11  C27 UNL     1     -12.490  48.669 -37.952  1.00  0.00     0.013 C 
HETATM   12  C28 UNL     1     -12.504  47.706 -36.763  1.00  0.00     0.040 C 
HETATM   13  C29 UNL     1     -11.786  46.438 -37.239  1.00  0.00     0.070 C 
HETATM   14  C30 UNL     1     -11.233  45.547 -36.090  1.00  0.00     0.026 C 
HETATM   15  C31 UNL     1     -12.338  45.204 -35.077  1.00  0.00     0.011 C 
HETATM   16  C32 UNL     1     -11.837  44.222 -34.032  1.00  0.00     0.039 C 
HETATM   17  C33 UNL     1     -10.579  44.688 -33.267  1.00  0.00     0.073 C 
HETATM   18  C34 UNL     1     -10.935  45.771 -32.221  1.00  0.00     0.071 C 
ENDROOT
BRANCH   1  19
HETATM   19  O2  UNL     1      -9.844  45.395 -30.057  1.00  0.00    -0.356 OA
BRANCH  19  20
HETATM   20  C3  UNL     1     -10.083  46.199 -28.909  1.00  0.00     0.263 C 
HETATM   21  O1  UNL     1     -11.003  47.234 -29.244  1.00  0.00    -0.354 OA
HETATM   22  C2  UNL     1     -11.397  48.048 -28.130  1.00  0.00     0.151 C 
HETATM   23  C1  UNL     1     -12.706  47.516 -27.550  1.00  0.00     0.042 C 
HETATM   24  C37 UNL     1     -10.303  48.174 -27.047  1.00  0.00     0.175 C 
HETATM   25  C36 UNL     1      -8.917  48.103 -27.694  1.00  0.00     0.154 C 
HETATM   26  C35 UNL     1      -8.738  46.820 -28.503  1.00  0.00     0.095 C 
BRANCH  24  27
HETATM   27  O8  UNL     1     -10.440  49.412 -26.340  1.00  0.00    -0.390 OA
HETATM   28  H51 UNL     1      -9.949  50.075 -26.872  1.00  0.00     0.210 HD
ENDBRANCH  24  27
BRANCH  25  29
HETATM   29  O7  UNL     1      -8.746  49.262 -28.533  1.00  0.00    -0.393 OA
HETATM   30  H49 UNL     1      -9.152  49.064 -29.404  1.00  0.00     0.210 HD
ENDBRANCH  25  29
ENDBRANCH  19  20
ENDBRANCH   1  19
BRANCH  17  31
HETATM   31  O6  UNL     1     -10.128  43.558 -32.503  1.00  0.00    -0.389 OA
HETATM   32  H43 UNL     1     -10.475  42.724 -32.866  1.00  0.00     0.210 HD
ENDBRANCH  17  31
BRANCH   4  33
HETATM   33  C8  UNL     1      -8.777  43.987 -34.861  1.00  0.00     0.068 C 
HETATM   34  N1  UNL     1      -7.837  43.303 -34.298  1.00  0.00    -0.401 N 
ATOM     35  H1  UNL     1      -7.443  43.527 -33.385  1.00  0.00     0.158 HD
BRANCH  34  36
HETATM   36  C9  UNL     1      -7.397  42.165 -35.122  1.00  0.00     0.123 C 
BRANCH  36  37
HETATM   37  C10 UNL     1      -6.216  41.475 -34.433  1.00  0.00     0.058 C 
BRANCH  37  38
HETATM   38  C11 UNL     1      -5.540  40.506 -35.370  1.00  0.00    -0.057 A 
HETATM   39  C12 UNL     1      -6.202  39.348 -35.797  1.00  0.00     0.007 A 
HETATM   40  C13 UNL     1      -5.551  38.428 -36.621  1.00  0.00     0.001 A 
HETATM   41  C14 UNL     1      -4.241  38.662 -37.031  1.00  0.00     0.000 A 
HETATM   42  C15 UNL     1      -3.574  39.812 -36.610  1.00  0.00     0.001 A 
HETATM   43  C16 UNL     1      -4.217  40.728 -35.779  1.00  0.00     0.007 A 
ENDBRANCH  37  38
ENDBRANCH  36  37
ENDBRANCH  34  36
ENDBRANCH   4  33
BRANCH  13  44
HETATM   44  O5  UNL     1     -12.765  45.680 -37.957  1.00  0.00    -0.389 OA
HETATM   45  H37 UNL     1     -12.376  44.824 -38.203  1.00  0.00     0.210 HD
ENDBRANCH  13  44
BRANCH  10  46
HETATM   46  C23 UNL     1     -12.015  47.855 -40.318  1.00  0.00    -0.045 A 
HETATM   47  C24 UNL     1     -11.403  47.766 -41.499  1.00  0.00     0.087 A 
HETATM   48  C25 UNL     1     -12.429  47.459 -42.494  1.00  0.00     0.283 A 
HETATM   49  O3  UNL     1     -12.227  47.333 -43.686  1.00  0.00    -0.260 OA
HETATM   50  O4  UNL     1     -13.631  47.340 -41.874  1.00  0.00    -0.314 OA
HETATM   51  C26 UNL     1     -13.462  47.575 -40.479  1.00  0.00     0.213 A 
ENDBRANCH  10  46
TORSDOF 11
ENDMDL
MODEL 8
REMARK minimizedAffinity -11.1753817
REMARK CNNscore 0.269359022
REMARK CNNaffinity 7.40458298
REMARK  11 active torsions:
REMARK  status: ('A' for Active; 'I' for Inactive)
REMARK    1  A    between atoms: C3_4  and  O2_5 
REMARK    2  A    between atoms: O2_5  and  C4_6 
REMARK    3  A    between atoms: C7_9  and  C8_10 
REMARK    4  A    between atoms: N1_11  and  C9_13 
REMARK    5  A    between atoms: C9_13  and  C10_14 
REMARK    6  A    between atoms: C10_14  and  C11_15 
REMARK    7  A    between atoms: C22_26  and  C23_27 
REMARK    8  A    between atoms: C29_35  and  O5_36 
REMARK    9  A    between atoms: C33_40  and  O6_41 
REMARK   10  A    between atoms: C36_44  and  O7_45 
REMARK   11  A    between atoms: C37_46  and  O8_47 
ROOT
HETATM    1  C4  UNL     1      -5.898  48.055 -24.115  1.00  0.00     0.127 C 
HETATM    2  C5  UNL     1      -4.696  48.332 -25.025  1.00  0.00     0.033 C 
HETATM    3  C6  UNL     1      -3.461  48.719 -24.226  1.00  0.00     0.021 C 
HETATM    4  C7  UNL     1      -3.639  50.010 -23.355  1.00  0.00     0.026 C 
HETATM    5  C17 UNL     1      -2.880  49.780 -21.981  1.00  0.00     0.009 C 
HETATM    6  C18 UNL     1      -1.361  49.566 -22.146  1.00  0.00     0.007 C 
HETATM    7  C19 UNL     1      -0.679  49.261 -20.815  1.00  0.00     0.013 C 
HETATM    8  C20 UNL     1      -0.877  50.384 -19.758  1.00  0.00    -0.005 C 
HETATM    9  C21 UNL     1      -0.063  51.623 -20.188  1.00  0.00     0.019 C 
HETATM   10  C22 UNL     1      -0.457  49.812 -18.357  1.00  0.00     0.028 C 
HETATM   11  C27 UNL     1      -1.738  49.157 -17.797  1.00  0.00     0.013 C 
HETATM   12  C28 UNL     1      -2.891  49.514 -18.738  1.00  0.00     0.040 C 
HETATM   13  C29 UNL     1      -2.392  50.685 -19.592  1.00  0.00     0.070 C 
HETATM   14  C30 UNL     1      -3.164  50.877 -20.928  1.00  0.00     0.026 C 
HETATM   15  C31 UNL     1      -4.678  50.986 -20.680  1.00  0.00     0.011 C 
HETATM   16  C32 UNL     1      -5.421  51.313 -21.964  1.00  0.00     0.039 C 
HETATM   17  C33 UNL     1      -5.170  50.319 -23.119  1.00  0.00     0.073 C 
HETATM   18  C34 UNL     1      -5.942  48.997 -22.893  1.00  0.00     0.071 C 
ENDROOT
BRANCH   1  19
HETATM   19  O2  UNL     1      -7.069  48.198 -24.918  1.00  0.00    -0.356 OA
BRANCH  19  20
HETATM   20  C3  UNL     1      -7.993  47.121 -24.821  1.00  0.00     0.263 C 
HETATM   21  O1  UNL     1      -8.145  46.517 -26.103  1.00  0.00    -0.354 OA
HETATM   22  C2  UNL     1      -8.981  45.350 -26.103  1.00  0.00     0.151 C 
HETATM   23  C1  UNL     1      -8.109  44.103 -25.977  1.00  0.00     0.042 C 
HETATM   24  C37 UNL     1     -10.083  45.387 -25.022  1.00  0.00     0.175 C 
HETATM   25  C36 UNL     1     -10.518  46.834 -24.768  1.00  0.00     0.154 C 
HETATM   26  C35 UNL     1      -9.336  47.716 -24.371  1.00  0.00     0.095 C 
BRANCH  24  27
HETATM   27  O8  UNL     1     -11.214  44.612 -25.436  1.00  0.00    -0.390 OA
HETATM   28  H51 UNL     1     -11.765  45.218 -25.977  1.00  0.00     0.210 HD
ENDBRANCH  24  27
BRANCH  25  29
HETATM   29  O7  UNL     1     -11.150  47.336 -25.962  1.00  0.00    -0.393 OA
HETATM   30  H49 UNL     1     -10.443  47.662 -26.560  1.00  0.00     0.210 HD
ENDBRANCH  25  29
ENDBRANCH  19  20
ENDBRANCH   1  19
BRANCH  17  31
HETATM   31  O6  UNL     1      -5.759  50.905 -24.292  1.00  0.00    -0.389 OA
HETATM   32  H43 UNL     1      -5.872  51.866 -24.189  1.00  0.00     0.210 HD
ENDBRANCH  17  31
BRANCH   4  33
HETATM   33  C8  UNL     1      -3.036  51.231 -24.064  1.00  0.00     0.068 C 
HETATM   34  N1  UNL     1      -2.939  51.333 -25.348  1.00  0.00    -0.401 N 
ATOM     35  H1  UNL     1      -3.243  50.609 -25.998  1.00  0.00     0.158 HD
BRANCH  34  36
HETATM   36  C9  UNL     1      -2.339  52.610 -25.768  1.00  0.00     0.123 C 
BRANCH  36  37
HETATM   37  C10 UNL     1      -0.960  52.754 -25.117  1.00  0.00     0.058 C 
BRANCH  37  38
HETATM   38  C11 UNL     1       0.127  52.302 -26.059  1.00  0.00    -0.057 A 
HETATM   39  C12 UNL     1       1.383  51.922 -25.568  1.00  0.00     0.007 A 
HETATM   40  C13 UNL     1       2.402  51.557 -26.447  1.00  0.00     0.001 A 
HETATM   41  C14 UNL     1       2.174  51.560 -27.821  1.00  0.00     0.000 A 
HETATM   42  C15 UNL     1       0.928  51.937 -28.319  1.00  0.00     0.001 A 
HETATM   43  C16 UNL     1      -0.090  52.313 -27.444  1.00  0.00     0.007 A 
ENDBRANCH  37  38
ENDBRANCH  36  37
ENDBRANCH  34  36
ENDBRANCH   4  33
BRANCH  13  44
HETATM   44  O5  UNL     1      -2.582  51.860 -18.796  1.00  0.00    -0.389 OA
HETATM   45  H37 UNL     1      -2.359  52.638 -19.333  1.00  0.00     0.210 HD
ENDBRANCH  13  44
BRANCH  10  46
HETATM   46  C23 UNL     1       0.190  50.768 -17.386  1.00  0.00    -0.045 A 
HETATM   47  C24 UNL     1       0.450  50.612 -16.088  1.00  0.00     0.087 A 
HETATM   48  C25 UNL     1       1.080  51.847 -15.622  1.00  0.00     0.283 A 
HETATM   49  O3  UNL     1       1.427  52.062 -14.477  1.00  0.00    -0.260 OA
HETATM   50  O4  UNL     1       1.211  52.703 -16.668  1.00  0.00    -0.314 OA
HETATM   51  C26 UNL     1       0.671  52.096 -17.839  1.00  0.00     0.213 A 
ENDBRANCH  10  46
TORSDOF 11
ENDMDL
MODEL 9
REMARK minimizedAffinity -9.10091877
REMARK CNNscore 0.236306161
REMARK CNNaffinity 6.26407623
REMARK  11 active torsions:
REMARK  status: ('A' for Active; 'I' for Inactive)
REMARK    1  A    between atoms: C3_4  and  O2_5 
REMARK    2  A    between atoms: O2_5  and  C4_6 
REMARK    3  A    between atoms: C7_9  and  C8_10 
REMARK    4  A    between atoms: N1_11  and  C9_13 
REMARK    5  A    between atoms: C9_13  and  C10_14 
REMARK    6  A    between atoms: C10_14  and  C11_15 
REMARK    7  A    between atoms: C22_26  and  C23_27 
REMARK    8  A    between atoms: C29_35  and  O5_36 
REMARK    9  A    between atoms: C33_40  and  O6_41 
REMARK   10  A    between atoms: C36_44  and  O7_45 
REMARK   11  A    between atoms: C37_46  and  O8_47 
ROOT
HETATM    1  C4  UNL     1      -3.049  48.803 -23.332  1.00  0.00     0.127 C 
HETATM    2  C5  UNL     1      -2.314  47.974 -22.272  1.00  0.00     0.033 C 
HETATM    3  C6  UNL     1      -3.280  47.324 -21.294  1.00  0.00     0.021 C 
HETATM    4  C7  UNL     1      -4.167  48.342 -20.497  1.00  0.00     0.026 C 
HETATM    5  C17 UNL     1      -5.619  47.717 -20.356  1.00  0.00     0.009 C 
HETATM    6  C18 UNL     1      -5.644  46.394 -19.563  1.00  0.00     0.007 C 
HETATM    7  C19 UNL     1      -7.041  45.779 -19.524  1.00  0.00     0.013 C 
HETATM    8  C20 UNL     1      -8.104  46.721 -18.891  1.00  0.00    -0.005 C 
HETATM    9  C21 UNL     1      -7.829  46.835 -17.376  1.00  0.00     0.019 C 
HETATM   10  C22 UNL     1      -9.526  46.146 -19.229  1.00  0.00     0.028 C 
HETATM   11  C27 UNL     1      -9.890  46.770 -20.593  1.00  0.00     0.013 C 
HETATM   12  C28 UNL     1      -8.821  47.813 -20.927  1.00  0.00     0.040 C 
HETATM   13  C29 UNL     1      -8.082  48.095 -19.614  1.00  0.00     0.070 C 
HETATM   14  C30 UNL     1      -6.665  48.709 -19.795  1.00  0.00     0.026 C 
HETATM   15  C31 UNL     1      -6.719  49.969 -20.676  1.00  0.00     0.011 C 
HETATM   16  C32 UNL     1      -5.361  50.648 -20.741  1.00  0.00     0.039 C 
HETATM   17  C33 UNL     1      -4.213  49.739 -21.231  1.00  0.00     0.073 C 
HETATM   18  C34 UNL     1      -4.289  49.524 -22.762  1.00  0.00     0.071 C 
ENDROOT
BRANCH   1  19
HETATM   19  O2  UNL     1      -2.106  49.736 -23.859  1.00  0.00    -0.356 OA
BRANCH  19  20
HETATM   20  C3  UNL     1      -2.192  49.942 -25.263  1.00  0.00     0.263 C 
HETATM   21  O1  UNL     1      -3.106  51.004 -25.526  1.00  0.00    -0.354 OA
HETATM   22  C2  UNL     1      -3.194  51.368 -26.911  1.00  0.00     0.151 C 
HETATM   23  C1  UNL     1      -2.256  52.541 -27.188  1.00  0.00     0.042 C 
HETATM   24  C37 UNL     1      -2.931  50.189 -27.873  1.00  0.00     0.175 C 
HETATM   25  C36 UNL     1      -3.397  48.878 -27.231  1.00  0.00     0.154 C 
HETATM   26  C35 UNL     1      -2.724  48.641 -25.881  1.00  0.00     0.095 C 
BRANCH  24  27
HETATM   27  O8  UNL     1      -3.623  50.389 -29.110  1.00  0.00    -0.390 OA
HETATM   28  H51 UNL     1      -4.526  50.034 -28.968  1.00  0.00     0.210 HD
ENDBRANCH  24  27
BRANCH  25  29
HETATM   29  O7  UNL     1      -4.830  48.927 -27.085  1.00  0.00    -0.393 OA
HETATM   30  H49 UNL     1      -5.030  49.397 -26.247  1.00  0.00     0.210 HD
ENDBRANCH  25  29
ENDBRANCH  19  20
ENDBRANCH   1  19
BRANCH  17  31
HETATM   31  O6  UNL     1      -2.996  50.471 -21.012  1.00  0.00    -0.389 OA
HETATM   32  H43 UNL     1      -3.119  51.171 -20.347  1.00  0.00     0.210 HD
ENDBRANCH  17  31
BRANCH   4  33
HETATM   33  C8  UNL     1      -3.587  48.586 -19.096  1.00  0.00     0.068 C 
HETATM   34  N1  UNL     1      -2.322  48.693 -18.857  1.00  0.00    -0.401 N 
ATOM     35  H1  UNL     1      -1.602  48.614 -19.575  1.00  0.00     0.158 HD
BRANCH  34  36
HETATM   36  C9  UNL     1      -2.037  48.942 -17.435  1.00  0.00     0.123 C 
BRANCH  36  37
HETATM   37  C10 UNL     1      -0.798  49.837 -17.323  1.00  0.00     0.058 C 
BRANCH  37  38
HETATM   38  C11 UNL     1      -0.745  50.513 -15.976  1.00  0.00    -0.057 A 
HETATM   39  C12 UNL     1      -1.876  50.545 -15.150  1.00  0.00     0.007 A 
HETATM   40  C13 UNL     1      -1.837  51.218 -13.928  1.00  0.00     0.001 A 
HETATM   41  C14 UNL     1      -0.669  51.856 -13.519  1.00  0.00     0.000 A 
HETATM   42  C15 UNL     1       0.462  51.830 -14.334  1.00  0.00     0.001 A 
HETATM   43  C16 UNL     1       0.424  51.167 -15.560  1.00  0.00     0.007 A 
ENDBRANCH  37  38
ENDBRANCH  36  37
ENDBRANCH  34  36
ENDBRANCH   4  33
BRANCH  13  44
HETATM   44  O5  UNL     1      -8.889  49.043 -18.906  1.00  0.00    -0.389 OA
HETATM   45  H37 UNL     1      -8.415  49.318 -18.104  1.00  0.00     0.210 HD
ENDBRANCH  13  44
BRANCH  10  46
HETATM   46  C23 UNL     1     -10.607  46.322 -18.191  1.00  0.00    -0.045 A 
HETATM   47  C24 UNL     1     -11.625  47.182 -18.166  1.00  0.00     0.087 A 
HETATM   48  C25 UNL     1     -12.368  46.934 -16.931  1.00  0.00     0.283 A 
HETATM   49  O3  UNL     1     -13.348  47.557 -16.571  1.00  0.00    -0.260 OA
HETATM   50  O4  UNL     1     -11.789  45.904 -16.261  1.00  0.00    -0.314 OA
HETATM   51  C26 UNL     1     -10.656  45.447 -16.995  1.00  0.00     0.213 A 
ENDBRANCH  10  46
TORSDOF 11
ENDMDL
