MODEL 1
REMARK minimizedAffinity -7.18305969
REMARK CNNscore 0.842336416
REMARK CNNaffinity 7.28558588
REMARK  6 active torsions:
REMARK  status: ('A' for Active; 'I' for Inactive)
REMARK    1  A    between atoms: C2_2  and  C3_3 
REMARK    2  A    between atoms: C4_5  and  C5_6 
REMARK    3  A    between atoms: C5_6  and  C6_7 
REMARK    4  A    between atoms: C6_7  and  C7_8 
REMARK    5  A    between atoms: C7_8  and  C9_10 
REMARK    6  A    between atoms: C30_32  and  O3_33 
ROOT
HETATM    1  C9  UNL     1      -1.176  51.666  -9.908  1.00  0.00    -0.002 C 
HETATM    2  C10 UNL     1      -0.356  50.673 -10.777  1.00  0.00     0.007 C 
HETATM    3  C11 UNL     1       1.105  51.158 -10.780  1.00  0.00     0.015 C 
HETATM    4  C12 UNL     1       1.186  52.215  -9.663  1.00  0.00    -0.010 C 
HETATM    5  C13 UNL     1       1.387  51.452  -8.316  1.00  0.00     0.021 C 
HETATM    6  C14 UNL     1       2.292  53.273  -9.686  1.00  0.00    -0.039 C 
HETATM    7  C15 UNL     1       2.066  54.502  -9.145  1.00  0.00    -0.066 C 
HETATM    8  C16 UNL     1       0.710  54.880  -8.545  1.00  0.00     0.036 C 
HETATM    9  C17 UNL     1      -0.428  53.845  -8.642  1.00  0.00     0.015 C 
HETATM   10  C18 UNL     1      -0.229  52.902  -9.833  1.00  0.00    -0.029 C 
HETATM   11  C19 UNL     1      -0.361  53.729 -11.152  1.00  0.00     0.016 C 
HETATM   12  C20 UNL     1       3.125  55.622  -9.265  1.00  0.00    -0.015 C 
HETATM   13  C21 UNL     1       2.934  56.232 -10.690  1.00  0.00     0.020 C 
HETATM   14  C22 UNL     1       2.889  56.783  -8.255  1.00  0.00     0.021 C 
HETATM   15  C23 UNL     1       4.103  57.680  -8.092  1.00  0.00     0.080 C 
HETATM   16  C24 UNL     1       5.240  56.903  -7.484  1.00  0.00     0.135 C 
HETATM   17  O2  UNL     1       6.064  57.479  -6.771  1.00  0.00    -0.297 OA
HETATM   18  C25 UNL     1       5.334  55.399  -7.793  1.00  0.00     0.018 C 
HETATM   19  C26 UNL     1       6.840  55.061  -7.908  1.00  0.00     0.023 C 
HETATM   20  C27 UNL     1       4.759  54.632  -6.587  1.00  0.00     0.023 C 
HETATM   21  C28 UNL     1       4.607  55.084  -9.155  1.00  0.00     0.016 C 
HETATM   22  C29 UNL     1       4.770  53.598  -9.543  1.00  0.00     0.043 C 
HETATM   23  C30 UNL     1       3.625  52.964 -10.324  1.00  0.00     0.148 C 
ENDROOT
BRANCH   1  24
HETATM   24  C7  UNL     1      -2.631  51.835 -10.435  1.00  0.00    -0.014 C 
HETATM   25  C8  UNL     1      -3.209  53.224 -10.148  1.00  0.00     0.010 C 
BRANCH  24  26
HETATM   26  C6  UNL     1      -3.598  50.746  -9.898  1.00  0.00     0.008 C 
BRANCH  26  27
HETATM   27  C5  UNL     1      -4.667  50.274 -10.891  1.00  0.00     0.028 C 
BRANCH  27  28
HETATM   28  C4  UNL     1      -6.008  50.161 -10.222  1.00  0.00    -0.017 C 
HETATM   29  C2  UNL     1      -6.955  49.231 -10.447  1.00  0.00    -0.028 C 
HETATM   30  C1  UNL     1      -6.870  48.069 -11.384  1.00  0.00     0.051 C 
BRANCH  29  31
HETATM   31  C3  UNL     1      -8.231  49.331  -9.675  1.00  0.00     0.265 C 
HETATM   32  O1  UNL     1      -8.357  49.968  -8.636  1.00  0.00    -0.302 OA
ENDBRANCH  29  31
ENDBRANCH  27  28
ENDBRANCH  26  27
ENDBRANCH  24  26
ENDBRANCH   1  24
BRANCH  23  33
HETATM   33  O3  UNL     1       3.878  51.564 -10.339  1.00  0.00    -0.391 OA
HETATM   34  H46 UNL     1       4.706  51.424 -10.825  1.00  0.00     0.210 HD
ENDBRANCH  23  33
TORSDOF 6
ENDMDL
MODEL 2
REMARK minimizedAffinity -7.14855766
REMARK CNNscore 0.706574619
REMARK CNNaffinity 7.29882812
REMARK  6 active torsions:
REMARK  status: ('A' for Active; 'I' for Inactive)
REMARK    1  A    between atoms: C2_2  and  C3_3 
REMARK    2  A    between atoms: C4_5  and  C5_6 
REMARK    3  A    between atoms: C5_6  and  C6_7 
REMARK    4  A    between atoms: C6_7  and  C7_8 
REMARK    5  A    between atoms: C7_8  and  C9_10 
REMARK    6  A    between atoms: C30_32  and  O3_33 
ROOT
HETATM    1  C9  UNL     1       4.916  54.376  -9.736  1.00  0.00    -0.002 C 
HETATM    2  C10 UNL     1       5.306  52.941  -9.286  1.00  0.00     0.007 C 
HETATM    3  C11 UNL     1       4.031  52.079  -9.331  1.00  0.00     0.015 C 
HETATM    4  C12 UNL     1       3.000  52.916 -10.111  1.00  0.00    -0.010 C 
HETATM    5  C13 UNL     1       3.271  52.687 -11.632  1.00  0.00     0.021 C 
HETATM    6  C14 UNL     1       1.503  52.651  -9.933  1.00  0.00    -0.039 C 
HETATM    7  C15 UNL     1       0.612  53.670 -10.078  1.00  0.00    -0.066 C 
HETATM    8  C16 UNL     1       1.068  55.100 -10.377  1.00  0.00     0.036 C 
HETATM    9  C17 UNL     1       2.584  55.371 -10.430  1.00  0.00     0.015 C 
HETATM   10  C18 UNL     1       3.365  54.362  -9.582  1.00  0.00    -0.029 C 
HETATM   11  C19 UNL     1       2.997  54.581  -8.079  1.00  0.00     0.016 C 
HETATM   12  C20 UNL     1      -0.890  53.451  -9.785  1.00  0.00    -0.015 C 
HETATM   13  C21 UNL     1      -1.037  53.565  -8.235  1.00  0.00     0.020 C 
HETATM   14  C22 UNL     1      -1.791  54.565 -10.395  1.00  0.00     0.021 C 
HETATM   15  C23 UNL     1      -3.256  54.174 -10.452  1.00  0.00     0.080 C 
HETATM   16  C24 UNL     1      -3.443  53.010 -11.389  1.00  0.00     0.135 C 
HETATM   17  O2  UNL     1      -4.501  52.887 -12.011  1.00  0.00    -0.297 OA
HETATM   18  C25 UNL     1      -2.291  52.000 -11.525  1.00  0.00     0.018 C 
HETATM   19  C26 UNL     1      -2.940  50.605 -11.697  1.00  0.00     0.023 C 
HETATM   20  C27 UNL     1      -1.519  52.333 -12.815  1.00  0.00     0.023 C 
HETATM   21  C28 UNL     1      -1.402  52.021 -10.224  1.00  0.00     0.016 C 
HETATM   22  C29 UNL     1      -0.295  50.946 -10.288  1.00  0.00     0.043 C 
HETATM   23  C30 UNL     1       1.015  51.268  -9.578  1.00  0.00     0.148 C 
ENDROOT
BRANCH   1  24
HETATM   24  C7  UNL     1       5.758  55.463  -9.006  1.00  0.00    -0.014 C 
HETATM   25  C8  UNL     1       6.907  54.871  -8.183  1.00  0.00     0.010 C 
BRANCH  24  26
HETATM   26  C6  UNL     1       4.897  56.391  -8.108  1.00  0.00     0.008 C 
BRANCH  26  27
HETATM   27  C5  UNL     1       5.665  57.126  -7.003  1.00  0.00     0.028 C 
BRANCH  27  28
HETATM   28  C4  UNL     1       4.816  57.279  -5.771  1.00  0.00    -0.017 C 
HETATM   29  C2  UNL     1       3.592  57.831  -5.689  1.00  0.00    -0.028 C 
HETATM   30  C1  UNL     1       2.774  58.380  -6.814  1.00  0.00     0.051 C 
BRANCH  29  31
HETATM   31  C3  UNL     1       2.943  57.896  -4.343  1.00  0.00     0.265 C 
HETATM   32  O1  UNL     1       1.897  57.325  -4.057  1.00  0.00    -0.302 OA
ENDBRANCH  29  31
ENDBRANCH  27  28
ENDBRANCH  26  27
ENDBRANCH  24  26
ENDBRANCH   1  24
BRANCH  23  33
HETATM   33  O3  UNL     1       1.945  50.271  -9.984  1.00  0.00    -0.391 OA
HETATM   34  H46 UNL     1       1.614  49.416  -9.663  1.00  0.00     0.210 HD
ENDBRANCH  23  33
TORSDOF 6
ENDMDL
MODEL 3
REMARK minimizedAffinity -9.13359547
REMARK CNNscore 0.620385826
REMARK CNNaffinity 7.55960417
REMARK  6 active torsions:
REMARK  status: ('A' for Active; 'I' for Inactive)
REMARK    1  A    between atoms: C2_2  and  C3_3 
REMARK    2  A    between atoms: C4_5  and  C5_6 
REMARK    3  A    between atoms: C5_6  and  C6_7 
REMARK    4  A    between atoms: C6_7  and  C7_8 
REMARK    5  A    between atoms: C7_8  and  C9_10 
REMARK    6  A    between atoms: C30_32  and  O3_33 
ROOT
HETATM    1  C9  UNL     1      -1.316  49.237 -19.258  1.00  0.00    -0.002 C 
HETATM    2  C10 UNL     1      -2.524  48.358 -18.832  1.00  0.00     0.007 C 
HETATM    3  C11 UNL     1      -3.434  48.193 -20.064  1.00  0.00     0.015 C 
HETATM    4  C12 UNL     1      -2.597  48.686 -21.259  1.00  0.00    -0.010 C 
HETATM    5  C13 UNL     1      -1.687  47.501 -21.708  1.00  0.00     0.021 C 
HETATM    6  C14 UNL     1      -3.290  49.159 -22.539  1.00  0.00    -0.039 C 
HETATM    7  C15 UNL     1      -2.706  50.116 -23.312  1.00  0.00    -0.066 C 
HETATM    8  C16 UNL     1      -1.382  50.772 -22.917  1.00  0.00     0.036 C 
HETATM    9  C17 UNL     1      -0.762  50.372 -21.564  1.00  0.00     0.015 C 
HETATM   10  C18 UNL     1      -1.831  49.892 -20.577  1.00  0.00    -0.029 C 
HETATM   11  C19 UNL     1      -2.761  51.095 -20.222  1.00  0.00     0.016 C 
HETATM   12  C20 UNL     1      -3.444  50.693 -24.542  1.00  0.00    -0.015 C 
HETATM   13  C21 UNL     1      -4.423  51.770 -23.979  1.00  0.00     0.020 C 
HETATM   14  C22 UNL     1      -2.490  51.436 -25.522  1.00  0.00     0.021 C 
HETATM   15  C23 UNL     1      -3.109  51.666 -26.889  1.00  0.00     0.080 C 
HETATM   16  C24 UNL     1      -3.361  50.346 -27.568  1.00  0.00     0.135 C 
HETATM   17  O2  UNL     1      -3.313  50.270 -28.798  1.00  0.00    -0.297 OA
HETATM   18  C25 UNL     1      -3.686  49.130 -26.686  1.00  0.00     0.018 C 
HETATM   19  C26 UNL     1      -4.726  48.282 -27.459  1.00  0.00     0.023 C 
HETATM   20  C27 UNL     1      -2.400  48.295 -26.539  1.00  0.00     0.023 C 
HETATM   21  C28 UNL     1      -4.297  49.608 -25.314  1.00  0.00     0.016 C 
HETATM   22  C29 UNL     1      -4.727  48.406 -24.445  1.00  0.00     0.043 C 
HETATM   23  C30 UNL     1      -4.628  48.583 -22.934  1.00  0.00     0.148 C 
ENDROOT
BRANCH   1  24
HETATM   24  C7  UNL     1      -0.811  50.136 -18.092  1.00  0.00    -0.014 C 
HETATM   25  C8  UNL     1      -1.580  49.903 -16.787  1.00  0.00     0.010 C 
BRANCH  24  26
HETATM   26  C6  UNL     1      -0.826  51.647 -18.445  1.00  0.00     0.008 C 
BRANCH  26  27
HETATM   27  C5  UNL     1       0.554  52.307 -18.546  1.00  0.00     0.028 C 
BRANCH  27  28
HETATM   28  C4  UNL     1       0.602  53.276 -19.695  1.00  0.00    -0.017 C 
HETATM   29  C2  UNL     1       1.266  53.128 -20.857  1.00  0.00    -0.028 C 
HETATM   30  C1  UNL     1       2.071  51.946 -21.290  1.00  0.00     0.051 C 
BRANCH  29  31
HETATM   31  C3  UNL     1       1.188  54.242 -21.852  1.00  0.00     0.265 C 
HETATM   32  O1  UNL     1       1.958  55.194 -21.878  1.00  0.00    -0.302 OA
ENDBRANCH  29  31
ENDBRANCH  27  28
ENDBRANCH  26  27
ENDBRANCH  24  26
ENDBRANCH   1  24
BRANCH  23  33
HETATM   33  O3  UNL     1      -4.822  47.292 -22.367  1.00  0.00    -0.391 OA
HETATM   34  H46 UNL     1      -5.723  47.009 -22.593  1.00  0.00     0.210 HD
ENDBRANCH  23  33
TORSDOF 6
ENDMDL
MODEL 4
REMARK minimizedAffinity -7.8945241
REMARK CNNscore 0.613256216
REMARK CNNaffinity 6.00474882
REMARK  6 active torsions:
REMARK  status: ('A' for Active; 'I' for Inactive)
REMARK    1  A    between atoms: C2_2  and  C3_3 
REMARK    2  A    between atoms: C4_5  and  C5_6 
REMARK    3  A    between atoms: C5_6  and  C6_7 
REMARK    4  A    between atoms: C6_7  and  C7_8 
REMARK    5  A    between atoms: C7_8  and  C9_10 
REMARK    6  A    between atoms: C30_32  and  O3_33 
ROOT
HETATM    1  C9  UNL     1     -13.381  46.319 -28.074  1.00  0.00    -0.002 C 
HETATM    2  C10 UNL     1     -13.075  47.470 -27.076  1.00  0.00     0.007 C 
HETATM    3  C11 UNL     1     -11.600  47.868 -27.269  1.00  0.00     0.015 C 
HETATM    4  C12 UNL     1     -11.162  47.191 -28.581  1.00  0.00    -0.010 C 
HETATM    5  C13 UNL     1     -11.618  48.114 -29.754  1.00  0.00     0.021 C 
HETATM    6  C14 UNL     1      -9.679  46.918 -28.846  1.00  0.00    -0.039 C 
HETATM    7  C15 UNL     1      -9.312  45.853 -29.610  1.00  0.00    -0.066 C 
HETATM    8  C16 UNL     1     -10.345  44.881 -30.185  1.00  0.00     0.036 C 
HETATM    9  C17 UNL     1     -11.822  45.100 -29.805  1.00  0.00     0.015 C 
HETATM   10  C18 UNL     1     -11.954  45.826 -28.461  1.00  0.00    -0.029 C 
HETATM   11  C19 UNL     1     -11.411  44.892 -27.333  1.00  0.00     0.016 C 
HETATM   12  C20 UNL     1      -7.820  45.491 -29.791  1.00  0.00    -0.015 C 
HETATM   13  C21 UNL     1      -7.423  44.689 -28.512  1.00  0.00     0.020 C 
HETATM   14  C22 UNL     1      -7.574  44.540 -30.999  1.00  0.00     0.021 C 
HETATM   15  C23 UNL     1      -6.117  44.485 -31.421  1.00  0.00     0.080 C 
HETATM   16  C24 UNL     1      -5.677  45.832 -31.931  1.00  0.00     0.135 C 
HETATM   17  O2  UNL     1      -4.804  45.903 -32.799  1.00  0.00    -0.297 OA
HETATM   18  C25 UNL     1      -6.338  47.083 -31.329  1.00  0.00     0.018 C 
HETATM   19  C26 UNL     1      -5.239  48.171 -31.246  1.00  0.00     0.023 C 
HETATM   20  C27 UNL     1      -7.420  47.566 -32.313  1.00  0.00     0.023 C 
HETATM   21  C28 UNL     1      -6.884  46.761 -29.887  1.00  0.00     0.016 C 
HETATM   22  C29 UNL     1      -7.464  48.025 -29.215  1.00  0.00     0.043 C 
HETATM   23  C30 UNL     1      -8.624  47.816 -28.248  1.00  0.00     0.148 C 
ENDROOT
BRANCH   1  24
HETATM   24  C7  UNL     1     -14.419  45.312 -27.498  1.00  0.00    -0.014 C 
HETATM   25  C8  UNL     1     -15.468  44.885 -28.531  1.00  0.00     0.010 C 
BRANCH  24  26
HETATM   26  C6  UNL     1     -15.128  45.839 -26.222  1.00  0.00     0.008 C 
BRANCH  26  27
HETATM   27  C5  UNL     1     -16.080  44.845 -25.546  1.00  0.00     0.028 C 
BRANCH  27  28
HETATM   28  C4  UNL     1     -17.420  45.477 -25.288  1.00  0.00    -0.017 C 
HETATM   29  C2  UNL     1     -18.629  44.984 -25.616  1.00  0.00    -0.028 C 
HETATM   30  C1  UNL     1     -18.919  43.671 -26.272  1.00  0.00     0.051 C 
BRANCH  29  31
HETATM   31  C3  UNL     1     -19.833  45.804 -25.278  1.00  0.00     0.265 C 
HETATM   32  O1  UNL     1     -19.796  46.999 -25.010  1.00  0.00    -0.302 OA
ENDBRANCH  29  31
ENDBRANCH  27  28
ENDBRANCH  26  27
ENDBRANCH  24  26
ENDBRANCH   1  24
BRANCH  23  33
HETATM   33  O3  UNL     1      -9.146  49.109 -27.964  1.00  0.00    -0.391 OA
HETATM   34  H46 UNL     1      -8.447  49.612 -27.515  1.00  0.00     0.210 HD
ENDBRANCH  23  33
TORSDOF 6
ENDMDL
MODEL 5
REMARK minimizedAffinity -9.8988905
REMARK CNNscore 0.542240381
REMARK CNNaffinity 7.21477461
REMARK  6 active torsions:
REMARK  status: ('A' for Active; 'I' for Inactive)
REMARK    1  A    between atoms: C2_2  and  C3_3 
REMARK    2  A    between atoms: C4_5  and  C5_6 
REMARK    3  A    between atoms: C5_6  and  C6_7 
REMARK    4  A    between atoms: C6_7  and  C7_8 
REMARK    5  A    between atoms: C7_8  and  C9_10 
REMARK    6  A    between atoms: C30_32  and  O3_33 
ROOT
HETATM    1  C9  UNL     1      -0.795  49.572 -18.937  1.00  0.00    -0.002 C 
HETATM    2  C10 UNL     1      -1.923  48.618 -18.456  1.00  0.00     0.007 C 
HETATM    3  C11 UNL     1      -2.873  48.387 -19.647  1.00  0.00     0.015 C 
HETATM    4  C12 UNL     1      -2.122  48.926 -20.879  1.00  0.00    -0.010 C 
HETATM    5  C13 UNL     1      -1.155  47.800 -21.363  1.00  0.00     0.021 C 
HETATM    6  C14 UNL     1      -2.899  49.345 -22.129  1.00  0.00    -0.039 C 
HETATM    7  C15 UNL     1      -2.413  50.332 -22.931  1.00  0.00    -0.066 C 
HETATM    8  C16 UNL     1      -1.118  51.077 -22.594  1.00  0.00     0.036 C 
HETATM    9  C17 UNL     1      -0.416  50.727 -21.269  1.00  0.00     0.015 C 
HETATM   10  C18 UNL     1      -1.408  50.183 -20.234  1.00  0.00    -0.029 C 
HETATM   11  C19 UNL     1      -2.399  51.325 -19.844  1.00  0.00     0.016 C 
HETATM   12  C20 UNL     1      -3.239  50.852 -24.129  1.00  0.00    -0.015 C 
HETATM   13  C21 UNL     1      -4.262  51.866 -23.528  1.00  0.00     0.020 C 
HETATM   14  C22 UNL     1      -2.379  51.650 -25.152  1.00  0.00     0.021 C 
HETATM   15  C23 UNL     1      -3.069  51.830 -26.492  1.00  0.00     0.080 C 
HETATM   16  C24 UNL     1      -3.263  50.492 -27.155  1.00  0.00     0.135 C 
HETATM   17  O2  UNL     1      -3.263  50.413 -28.386  1.00  0.00    -0.297 OA
HETATM   18  C25 UNL     1      -3.469  49.263 -26.255  1.00  0.00     0.018 C 
HETATM   19  C26 UNL     1      -4.483  48.345 -26.980  1.00  0.00     0.023 C 
HETATM   20  C27 UNL     1      -2.126  48.515 -26.161  1.00  0.00     0.023 C 
HETATM   21  C28 UNL     1      -4.051  49.709 -24.860  1.00  0.00     0.016 C 
HETATM   22  C29 UNL     1      -4.363  48.487 -23.969  1.00  0.00     0.043 C 
HETATM   23  C30 UNL     1      -4.211  48.679 -22.465  1.00  0.00     0.148 C 
ENDROOT
BRANCH   1  24
HETATM   24  C7  UNL     1      -0.301  50.509 -17.797  1.00  0.00    -0.014 C 
HETATM   25  C8  UNL     1      -1.302  50.617 -16.642  1.00  0.00     0.010 C 
BRANCH  24  26
HETATM   26  C6  UNL     1       0.071  51.929 -18.301  1.00  0.00     0.008 C 
BRANCH  26  27
HETATM   27  C5  UNL     1       1.318  52.545 -17.655  1.00  0.00     0.028 C 
BRANCH  27  28
HETATM   28  C4  UNL     1       1.649  51.853 -16.362  1.00  0.00    -0.017 C 
HETATM   29  C2  UNL     1       2.821  51.884 -15.700  1.00  0.00    -0.028 C 
HETATM   30  C1  UNL     1       4.049  52.650 -16.076  1.00  0.00     0.051 C 
BRANCH  29  31
HETATM   31  C3  UNL     1       2.929  51.094 -14.434  1.00  0.00     0.265 C 
HETATM   32  O1  UNL     1       3.906  50.423 -14.125  1.00  0.00    -0.302 OA
ENDBRANCH  29  31
ENDBRANCH  27  28
ENDBRANCH  26  27
ENDBRANCH  24  26
ENDBRANCH   1  24
BRANCH  23  33
HETATM   33  O3  UNL     1      -4.296  47.382 -21.885  1.00  0.00    -0.391 OA
HETATM   34  H46 UNL     1      -5.185  47.039 -22.071  1.00  0.00     0.210 HD
ENDBRANCH  23  33
TORSDOF 6
ENDMDL
MODEL 6
REMARK minimizedAffinity -7.05580139
REMARK CNNscore 0.356258392
REMARK CNNaffinity 6.39334726
REMARK  6 active torsions:
REMARK  status: ('A' for Active; 'I' for Inactive)
REMARK    1  A    between atoms: C2_2  and  C3_3 
REMARK    2  A    between atoms: C4_5  and  C5_6 
REMARK    3  A    between atoms: C5_6  and  C6_7 
REMARK    4  A    between atoms: C6_7  and  C7_8 
REMARK    5  A    between atoms: C7_8  and  C9_10 
REMARK    6  A    between atoms: C30_32  and  O3_33 
ROOT
HETATM    1  C9  UNL     1       1.395  53.742 -10.201  1.00  0.00    -0.002 C 
HETATM    2  C10 UNL     1       0.526  55.029 -10.172  1.00  0.00     0.007 C 
HETATM    3  C11 UNL     1      -0.938  54.604 -10.394  1.00  0.00     0.015 C 
HETATM    4  C12 UNL     1      -0.950  53.074 -10.219  1.00  0.00    -0.010 C 
HETATM    5  C13 UNL     1      -1.043  52.782  -8.689  1.00  0.00     0.021 C 
HETATM    6  C14 UNL     1      -2.066  52.238 -10.849  1.00  0.00    -0.039 C 
HETATM    7  C15 UNL     1      -1.816  50.959 -11.244  1.00  0.00    -0.066 C 
HETATM    8  C16 UNL     1      -0.424  50.336 -11.115  1.00  0.00     0.036 C 
HETATM    9  C17 UNL     1       0.716  51.232 -10.593  1.00  0.00     0.015 C 
HETATM   10  C18 UNL     1       0.442  52.712 -10.881  1.00  0.00    -0.029 C 
HETATM   11  C19 UNL     1       0.468  52.934 -12.427  1.00  0.00     0.016 C 
HETATM   12  C20 UNL     1      -2.893  50.140 -11.990  1.00  0.00    -0.015 C 
HETATM   13  C21 UNL     1      -2.813  50.597 -13.481  1.00  0.00     0.020 C 
HETATM   14  C22 UNL     1      -2.598  48.611 -11.984  1.00  0.00     0.021 C 
HETATM   15  C23 UNL     1      -3.807  47.774 -12.362  1.00  0.00     0.080 C 
HETATM   16  C24 UNL     1      -4.888  47.934 -11.325  1.00  0.00     0.135 C 
HETATM   17  O2  UNL     1      -5.665  47.003 -11.102  1.00  0.00    -0.297 OA
HETATM   18  C25 UNL     1      -4.986  49.278 -10.586  1.00  0.00     0.018 C 
HETATM   19  C26 UNL     1      -6.493  49.554 -10.360  1.00  0.00     0.023 C 
HETATM   20  C27 UNL     1      -4.317  49.111  -9.208  1.00  0.00     0.023 C 
HETATM   21  C28 UNL     1      -4.357  50.424 -11.466  1.00  0.00     0.016 C 
HETATM   22  C29 UNL     1      -4.531  51.804 -10.794  1.00  0.00     0.043 C 
HETATM   23  C30 UNL     1      -3.438  52.834 -11.052  1.00  0.00     0.148 C 
ENDROOT
BRANCH   1  24
HETATM   24  C7  UNL     1       2.806  54.007 -10.803  1.00  0.00    -0.014 C 
HETATM   25  C8  UNL     1       3.917  53.251 -10.068  1.00  0.00     0.010 C 
BRANCH  24  26
HETATM   26  C6  UNL     1       3.159  55.517 -10.872  1.00  0.00     0.008 C 
BRANCH  26  27
HETATM   27  C5  UNL     1       4.241  55.980  -9.890  1.00  0.00     0.028 C 
BRANCH  27  28
HETATM   28  C4  UNL     1       3.639  56.776  -8.765  1.00  0.00    -0.017 C 
HETATM   29  C2  UNL     1       4.212  57.080  -7.585  1.00  0.00    -0.028 C 
HETATM   30  C1  UNL     1       5.597  56.732  -7.140  1.00  0.00     0.051 C 
BRANCH  29  31
HETATM   31  C3  UNL     1       3.409  57.869  -6.601  1.00  0.00     0.265 C 
HETATM   32  O1  UNL     1       2.252  58.225  -6.788  1.00  0.00    -0.302 OA
ENDBRANCH  29  31
ENDBRANCH  27  28
ENDBRANCH  26  27
ENDBRANCH  24  26
ENDBRANCH   1  24
BRANCH  23  33
HETATM   33  O3  UNL     1      -3.675  53.905 -10.145  1.00  0.00    -0.391 OA
HETATM   34  H46 UNL     1      -4.536  54.293 -10.373  1.00  0.00     0.210 HD
ENDBRANCH  23  33
TORSDOF 6
ENDMDL
MODEL 7
REMARK minimizedAffinity -7.74639559
REMARK CNNscore 0.342481405
REMARK CNNaffinity 6.56843805
REMARK  6 active torsions:
REMARK  status: ('A' for Active; 'I' for Inactive)
REMARK    1  A    between atoms: C2_2  and  C3_3 
REMARK    2  A    between atoms: C4_5  and  C5_6 
REMARK    3  A    between atoms: C5_6  and  C6_7 
REMARK    4  A    between atoms: C6_7  and  C7_8 
REMARK    5  A    between atoms: C7_8  and  C9_10 
REMARK    6  A    between atoms: C30_32  and  O3_33 
ROOT
HETATM    1  C9  UNL     1      -4.265  50.329 -24.236  1.00  0.00    -0.002 C 
HETATM    2  C10 UNL     1      -4.496  49.185 -25.262  1.00  0.00     0.007 C 
HETATM    3  C11 UNL     1      -5.319  48.090 -24.556  1.00  0.00     0.015 C 
HETATM    4  C12 UNL     1      -5.836  48.740 -23.259  1.00  0.00    -0.010 C 
HETATM    5  C13 UNL     1      -7.123  49.545 -23.624  1.00  0.00     0.021 C 
HETATM    6  C14 UNL     1      -6.241  47.866 -22.070  1.00  0.00    -0.039 C 
HETATM    7  C15 UNL     1      -6.106  48.340 -20.802  1.00  0.00    -0.066 C 
HETATM    8  C16 UNL     1      -5.515  49.724 -20.519  1.00  0.00     0.036 C 
HETATM    9  C17 UNL     1      -4.999  50.539 -21.720  1.00  0.00     0.015 C 
HETATM   10  C18 UNL     1      -4.582  49.628 -22.880  1.00  0.00    -0.029 C 
HETATM   11  C19 UNL     1      -3.341  48.789 -22.436  1.00  0.00     0.016 C 
HETATM   12  C20 UNL     1      -6.395  47.432 -19.585  1.00  0.00    -0.015 C 
HETATM   13  C21 UNL     1      -5.106  46.574 -19.384  1.00  0.00     0.020 C 
HETATM   14  C22 UNL     1      -6.599  48.236 -18.268  1.00  0.00     0.021 C 
HETATM   15  C23 UNL     1      -7.251  47.416 -17.170  1.00  0.00     0.080 C 
HETATM   16  C24 UNL     1      -8.650  47.034 -17.575  1.00  0.00     0.135 C 
HETATM   17  O2  UNL     1      -9.519  46.887 -16.712  1.00  0.00    -0.297 OA
HETATM   18  C25 UNL     1      -8.938  46.826 -19.070  1.00  0.00     0.018 C 
HETATM   19  C26 UNL     1      -9.953  45.661 -19.172  1.00  0.00     0.023 C 
HETATM   20  C27 UNL     1      -9.617  48.102 -19.603  1.00  0.00     0.023 C 
HETATM   21  C28 UNL     1      -7.609  46.447 -19.826  1.00  0.00     0.016 C 
HETATM   22  C29 UNL     1      -7.882  46.133 -21.314  1.00  0.00     0.043 C 
HETATM   23  C30 UNL     1      -6.771  46.471 -22.301  1.00  0.00     0.148 C 
ENDROOT
BRANCH   1  24
HETATM   24  C7  UNL     1      -2.891  51.028 -24.446  1.00  0.00    -0.014 C 
HETATM   25  C8  UNL     1      -2.802  52.388 -23.745  1.00  0.00     0.010 C 
BRANCH  24  26
HETATM   26  C6  UNL     1      -2.516  51.186 -25.944  1.00  0.00     0.008 C 
BRANCH  26  27
HETATM   27  C5  UNL     1      -1.477  50.188 -26.466  1.00  0.00     0.028 C 
BRANCH  27  28
HETATM   28  C4  UNL     1      -0.082  50.646 -26.142  1.00  0.00    -0.017 C 
HETATM   29  C2  UNL     1       0.720  51.414 -26.903  1.00  0.00    -0.028 C 
HETATM   30  C1  UNL     1       0.390  52.025 -28.228  1.00  0.00     0.051 C 
BRANCH  29  31
HETATM   31  C3  UNL     1       2.088  51.727 -26.384  1.00  0.00     0.265 C 
HETATM   32  O1  UNL     1       3.023  50.936 -26.395  1.00  0.00    -0.302 OA
ENDBRANCH  29  31
ENDBRANCH  27  28
ENDBRANCH  26  27
ENDBRANCH  24  26
ENDBRANCH   1  24
BRANCH  23  33
HETATM   33  O3  UNL     1      -7.337  46.341 -23.600  1.00  0.00    -0.391 OA
HETATM   34  H46 UNL     1      -7.589  45.411 -23.715  1.00  0.00     0.210 HD
ENDBRANCH  23  33
TORSDOF 6
ENDMDL
MODEL 8
REMARK minimizedAffinity -7.20899725
REMARK CNNscore 0.3291291
REMARK CNNaffinity 6.61017466
REMARK  6 active torsions:
REMARK  status: ('A' for Active; 'I' for Inactive)
REMARK    1  A    between atoms: C2_2  and  C3_3 
REMARK    2  A    between atoms: C4_5  and  C5_6 
REMARK    3  A    between atoms: C5_6  and  C6_7 
REMARK    4  A    between atoms: C6_7  and  C7_8 
REMARK    5  A    between atoms: C7_8  and  C9_10 
REMARK    6  A    between atoms: C30_32  and  O3_33 
ROOT
HETATM    1  C9  UNL     1      -1.175  50.395 -20.858  1.00  0.00    -0.002 C 
HETATM    2  C10 UNL     1      -0.490  49.481 -19.805  1.00  0.00     0.007 C 
HETATM    3  C11 UNL     1      -1.515  48.413 -19.380  1.00  0.00     0.015 C 
HETATM    4  C12 UNL     1      -2.653  48.507 -20.414  1.00  0.00    -0.010 C 
HETATM    5  C13 UNL     1      -2.218  47.670 -21.659  1.00  0.00     0.021 C 
HETATM    6  C14 UNL     1      -4.052  47.996 -20.064  1.00  0.00    -0.039 C 
HETATM    7  C15 UNL     1      -5.147  48.574 -20.631  1.00  0.00    -0.066 C 
HETATM    8  C16 UNL     1      -5.024  49.763 -21.587  1.00  0.00     0.036 C 
HETATM    9  C17 UNL     1      -3.617  50.342 -21.831  1.00  0.00     0.015 C 
HETATM   10  C18 UNL     1      -2.686  50.072 -20.644  1.00  0.00    -0.029 C 
HETATM   11  C19 UNL     1      -3.209  50.868 -19.406  1.00  0.00     0.016 C 
HETATM   12  C20 UNL     1      -6.571  48.155 -20.200  1.00  0.00    -0.015 C 
HETATM   13  C21 UNL     1      -6.861  48.938 -18.881  1.00  0.00     0.020 C 
HETATM   14  C22 UNL     1      -7.662  48.595 -21.220  1.00  0.00     0.021 C 
HETATM   15  C23 UNL     1      -8.983  47.875 -21.020  1.00  0.00     0.080 C 
HETATM   16  C24 UNL     1      -8.814  46.403 -21.290  1.00  0.00     0.135 C 
HETATM   17  O2  UNL     1      -9.761  45.748 -21.732  1.00  0.00    -0.297 OA
HETATM   18  C25 UNL     1      -7.448  45.766 -20.987  1.00  0.00     0.018 C 
HETATM   19  C26 UNL     1      -7.730  44.340 -20.453  1.00  0.00     0.023 C 
HETATM   20  C27 UNL     1      -6.680  45.638 -22.316  1.00  0.00     0.023 C 
HETATM   21  C28 UNL     1      -6.692  46.609 -19.892  1.00  0.00     0.016 C 
HETATM   22  C29 UNL     1      -5.359  45.939 -19.492  1.00  0.00     0.043 C 
HETATM   23  C30 UNL     1      -4.223  46.866 -19.078  1.00  0.00     0.148 C 
ENDROOT
BRANCH   1  24
HETATM   24  C7  UNL     1      -0.676  51.866 -20.764  1.00  0.00    -0.014 C 
HETATM   25  C8  UNL     1       0.709  52.064 -21.389  1.00  0.00     0.010 C 
BRANCH  24  26
HETATM   26  C6  UNL     1      -0.677  52.413 -19.311  1.00  0.00     0.008 C 
BRANCH  26  27
HETATM   27  C5  UNL     1       0.710  52.633 -18.696  1.00  0.00     0.028 C 
BRANCH  27  28
HETATM   28  C4  UNL     1       0.833  51.915 -17.381  1.00  0.00    -0.017 C 
HETATM   29  C2  UNL     1       1.838  52.014 -16.490  1.00  0.00    -0.028 C 
HETATM   30  C1  UNL     1       3.042  52.896 -16.585  1.00  0.00     0.051 C 
BRANCH  29  31
HETATM   31  C3  UNL     1       1.758  51.180 -15.251  1.00  0.00     0.265 C 
HETATM   32  O1  UNL     1       1.001  50.227 -15.112  1.00  0.00    -0.302 OA
ENDBRANCH  29  31
ENDBRANCH  27  28
ENDBRANCH  26  27
ENDBRANCH  24  26
ENDBRANCH   1  24
BRANCH  23  33
HETATM   33  O3  UNL     1      -3.053  46.059 -19.010  1.00  0.00    -0.391 OA
HETATM   34  H46 UNL     1      -3.194  45.401 -18.310  1.00  0.00     0.210 HD
ENDBRANCH  23  33
TORSDOF 6
ENDMDL
MODEL 9
REMARK minimizedAffinity -8.29525661
REMARK CNNscore 0.322572857
REMARK CNNaffinity 6.98731184
REMARK  6 active torsions:
REMARK  status: ('A' for Active; 'I' for Inactive)
REMARK    1  A    between atoms: C2_2  and  C3_3 
REMARK    2  A    between atoms: C4_5  and  C5_6 
REMARK    3  A    between atoms: C5_6  and  C6_7 
REMARK    4  A    between atoms: C6_7  and  C7_8 
REMARK    5  A    between atoms: C7_8  and  C9_10 
REMARK    6  A    between atoms: C30_32  and  O3_33 
ROOT
HETATM    1  C9  UNL     1      -1.814  50.843 -21.880  1.00  0.00    -0.002 C 
HETATM    2  C10 UNL     1      -2.681  49.566 -22.057  1.00  0.00     0.007 C 
HETATM    3  C11 UNL     1      -2.923  48.972 -20.657  1.00  0.00     0.015 C 
HETATM    4  C12 UNL     1      -2.488  50.069 -19.668  1.00  0.00    -0.010 C 
HETATM    5  C13 UNL     1      -3.687  51.056 -19.513  1.00  0.00     0.021 C 
HETATM    6  C14 UNL     1      -2.093  49.699 -18.236  1.00  0.00    -0.039 C 
HETATM    7  C15 UNL     1      -1.175  50.452 -17.569  1.00  0.00    -0.066 C 
HETATM    8  C16 UNL     1      -0.484  51.648 -18.230  1.00  0.00     0.036 C 
HETATM    9  C17 UNL     1      -0.802  51.929 -19.710  1.00  0.00     0.015 C 
HETATM   10  C18 UNL     1      -1.239  50.656 -20.443  1.00  0.00    -0.029 C 
HETATM   11  C19 UNL     1      -0.028  49.671 -20.500  1.00  0.00     0.016 C 
HETATM   12  C20 UNL     1      -0.674  50.028 -16.170  1.00  0.00    -0.015 C 
HETATM   13  C21 UNL     1       0.422  48.946 -16.425  1.00  0.00     0.020 C 
HETATM   14  C22 UNL     1       0.024  51.189 -15.403  1.00  0.00     0.021 C 
HETATM   15  C23 UNL     1       0.172  50.911 -13.918  1.00  0.00     0.080 C 
HETATM   16  C24 UNL     1      -1.186  50.822 -13.273  1.00  0.00     0.135 C 
HETATM   17  O2  UNL     1      -1.329  51.160 -12.096  1.00  0.00    -0.297 OA
HETATM   18  C25 UNL     1      -2.355  50.294 -14.121  1.00  0.00     0.018 C 
HETATM   19  C26 UNL     1      -3.255  49.464 -13.172  1.00  0.00     0.023 C 
HETATM   20  C27 UNL     1      -3.168  51.507 -14.614  1.00  0.00     0.023 C 
HETATM   21  C28 UNL     1      -1.808  49.379 -15.280  1.00  0.00     0.016 C 
HETATM   22  C29 UNL     1      -2.965  48.752 -16.089  1.00  0.00     0.043 C 
HETATM   23  C30 UNL     1      -2.704  48.492 -17.568  1.00  0.00     0.148 C 
ENDROOT
BRANCH   1  24
HETATM   24  C7  UNL     1      -0.848  51.060 -23.080  1.00  0.00    -0.014 C 
HETATM   25  C8  UNL     1      -0.203  52.450 -23.079  1.00  0.00     0.010 C 
BRANCH  24  26
HETATM   26  C6  UNL     1      -1.522  50.797 -24.453  1.00  0.00     0.008 C 
BRANCH  26  27
HETATM   27  C5  UNL     1      -0.578  50.833 -25.661  1.00  0.00     0.028 C 
BRANCH  27  28
HETATM   28  C4  UNL     1      -0.753  52.105 -26.441  1.00  0.00    -0.017 C 
HETATM   29  C2  UNL     1      -0.037  52.513 -27.506  1.00  0.00    -0.028 C 
HETATM   30  C1  UNL     1       1.069  51.770 -28.186  1.00  0.00     0.051 C 
BRANCH  29  31
HETATM   31  C3  UNL     1      -0.377  53.837 -28.112  1.00  0.00     0.265 C 
HETATM   32  O1  UNL     1      -0.378  54.895 -27.494  1.00  0.00    -0.302 OA
ENDBRANCH  29  31
ENDBRANCH  27  28
ENDBRANCH  26  27
ENDBRANCH  24  26
ENDBRANCH   1  24
BRANCH  23  33
HETATM   33  O3  UNL     1      -3.964  48.165 -18.145  1.00  0.00    -0.391 OA
HETATM   34  H46 UNL     1      -4.269  47.342 -17.729  1.00  0.00     0.210 HD
ENDBRANCH  23  33
TORSDOF 6
ENDMDL
