MODEL 1
REMARK minimizedAffinity -6.42355871
REMARK CNNscore 0.47949934
REMARK CNNaffinity 6.44153261
REMARK  13 active torsions:
REMARK  status: ('A' for Active; 'I' for Inactive)
REMARK    1  A    between atoms: C2_2  and  C3_3 
REMARK    2  A    between atoms: C3_3  and  C4_4 
REMARK    3  A    between atoms: C4_4  and  C5_5 
REMARK    4  A    between atoms: C5_5  and  C6_6 
REMARK    5  A    between atoms: C6_6  and  C7_7 
REMARK    6  A    between atoms: C7_7  and  C8_8 
REMARK    7  A    between atoms: C8_8  and  C9_9 
REMARK    8  A    between atoms: C9_9  and  C10_10 
REMARK    9  A    between atoms: C10_10  and  C11_11 
REMARK   10  A    between atoms: C11_11  and  C12_12 
REMARK   11  A    between atoms: C12_12  and  C13_13 
REMARK   12  A    between atoms: C13_13  and  O2_15 
REMARK   13  A    between atoms: O2_15  and  C14_16 
ROOT
HETATM    1  C14 UNL     1      -7.114  47.928 -29.674  1.00  0.00     0.140 C 
HETATM    2  C15 UNL     1      -7.787  48.875 -30.694  1.00  0.00     0.034 C 
HETATM    3  C16 UNL     1      -8.478  47.974 -31.733  1.00  0.00     0.008 C 
HETATM    4  C17 UNL     1      -8.349  46.571 -31.148  1.00  0.00     0.001 C 
HETATM    5  C18 UNL     1      -8.514  45.362 -32.074  1.00  0.00    -0.004 C 
HETATM    6  C19 UNL     1      -9.883  45.365 -32.782  1.00  0.00     0.010 C 
HETATM    7  C20 UNL     1     -10.100  44.138 -33.678  1.00  0.00     0.035 C 
HETATM    8  C21 UNL     1      -8.977  43.141 -33.521  1.00  0.00    -0.068 C 
HETATM    9  C22 UNL     1      -8.274  42.760 -34.603  1.00  0.00     0.053 C 
HETATM   10  C23 UNL     1      -7.007  42.007 -34.466  1.00  0.00     0.149 C 
HETATM   11  O3  UNL     1      -6.445  41.573 -35.466  1.00  0.00    -0.293 OA
HETATM   12  C24 UNL     1      -6.406  41.911 -33.089  1.00  0.00     0.084 C 
HETATM   13  C25 UNL     1      -7.507  41.670 -32.069  1.00  0.00     0.022 C 
HETATM   14  C26 UNL     1      -8.634  42.744 -32.080  1.00  0.00    -0.016 C 
HETATM   15  C27 UNL     1      -9.869  42.037 -31.450  1.00  0.00     0.020 C 
HETATM   16  C28 UNL     1      -8.354  44.053 -31.229  1.00  0.00     0.002 C 
HETATM   17  C29 UNL     1      -7.060  44.056 -30.375  1.00  0.00     0.007 C 
HETATM   18  C30 UNL     1      -6.864  45.351 -29.563  1.00  0.00     0.012 C 
HETATM   19  C31 UNL     1      -6.976  46.599 -30.449  1.00  0.00    -0.013 C 
HETATM   20  C32 UNL     1      -5.760  46.657 -31.411  1.00  0.00     0.018 C 
ENDROOT
BRANCH   1  21
HETATM   21  O2  UNL     1      -5.845  48.418 -29.236  1.00  0.00    -0.315 OA
BRANCH  21  22
HETATM   22  C13 UNL     1      -5.473  48.040 -27.981  1.00  0.00     0.259 C 
HETATM   23  O1  UNL     1      -6.234  47.675 -27.096  1.00  0.00    -0.265 OA
BRANCH  22  24
HETATM   24  C12 UNL     1      -3.976  48.156 -27.824  1.00  0.00     0.111 C 
BRANCH  24  25
HETATM   25  C11 UNL     1      -3.578  48.532 -26.400  1.00  0.00     0.010 C 
BRANCH  25  26
HETATM   26  C10 UNL     1      -4.739  48.555 -25.397  1.00  0.00     0.000 C 
BRANCH  26  27
HETATM   27  C9  UNL     1      -4.337  48.577 -23.918  1.00  0.00     0.000 C 
BRANCH  27  28
HETATM   28  C8  UNL     1      -2.854  48.840 -23.636  1.00  0.00     0.000 C 
BRANCH  28  29
HETATM   29  C7  UNL     1      -2.455  50.315 -23.510  1.00  0.00     0.000 C 
BRANCH  29  30
HETATM   30  C6  UNL     1      -3.069  51.003 -22.289  1.00  0.00     0.000 C 
BRANCH  30  31
HETATM   31  C5  UNL     1      -2.251  50.803 -21.008  1.00  0.00     0.000 C 
BRANCH  31  32
HETATM   32  C4  UNL     1      -0.983  51.660 -20.963  1.00  0.00     0.000 C 
BRANCH  32  33
HETATM   33  C3  UNL     1      -0.194  51.415 -19.674  1.00  0.00    -0.000 C 
BRANCH  33  34
HETATM   34  C2  UNL     1       0.112  52.700 -18.899  1.00  0.00    -0.005 C 
HETATM   35  C1  UNL     1       1.028  52.482 -17.704  1.00  0.00     0.005 C 
ENDBRANCH  33  34
ENDBRANCH  32  33
ENDBRANCH  31  32
ENDBRANCH  30  31
ENDBRANCH  29  30
ENDBRANCH  28  29
ENDBRANCH  27  28
ENDBRANCH  26  27
ENDBRANCH  25  26
ENDBRANCH  24  25
ENDBRANCH  22  24
ENDBRANCH  21  22
ENDBRANCH   1  21
TORSDOF 13
ENDMDL
MODEL 2
REMARK minimizedAffinity -6.59783268
REMARK CNNscore 0.364711225
REMARK CNNaffinity 6.54027939
REMARK  13 active torsions:
REMARK  status: ('A' for Active; 'I' for Inactive)
REMARK    1  A    between atoms: C2_2  and  C3_3 
REMARK    2  A    between atoms: C3_3  and  C4_4 
REMARK    3  A    between atoms: C4_4  and  C5_5 
REMARK    4  A    between atoms: C5_5  and  C6_6 
REMARK    5  A    between atoms: C6_6  and  C7_7 
REMARK    6  A    between atoms: C7_7  and  C8_8 
REMARK    7  A    between atoms: C8_8  and  C9_9 
REMARK    8  A    between atoms: C9_9  and  C10_10 
REMARK    9  A    between atoms: C10_10  and  C11_11 
REMARK   10  A    between atoms: C11_11  and  C12_12 
REMARK   11  A    between atoms: C12_12  and  C13_13 
REMARK   12  A    between atoms: C13_13  and  O2_15 
REMARK   13  A    between atoms: O2_15  and  C14_16 
ROOT
HETATM    1  C14 UNL     1      -6.599  47.807 -29.852  1.00  0.00     0.140 C 
HETATM    2  C15 UNL     1      -7.016  48.817 -30.945  1.00  0.00     0.034 C 
HETATM    3  C16 UNL     1      -7.752  48.009 -32.028  1.00  0.00     0.008 C 
HETATM    4  C17 UNL     1      -7.906  46.622 -31.411  1.00  0.00     0.001 C 
HETATM    5  C18 UNL     1      -8.186  45.428 -32.327  1.00  0.00    -0.004 C 
HETATM    6  C19 UNL     1      -9.468  45.630 -33.158  1.00  0.00     0.010 C 
HETATM    7  C20 UNL     1      -9.804  44.427 -34.050  1.00  0.00     0.035 C 
HETATM    8  C21 UNL     1      -8.879  43.266 -33.774  1.00  0.00    -0.068 C 
HETATM    9  C22 UNL     1      -8.155  42.742 -34.780  1.00  0.00     0.053 C 
HETATM   10  C23 UNL     1      -7.046  41.799 -34.515  1.00  0.00     0.149 C 
HETATM   11  O3  UNL     1      -6.478  41.248 -35.452  1.00  0.00    -0.293 OA
HETATM   12  C24 UNL     1      -6.592  41.651 -33.088  1.00  0.00     0.084 C 
HETATM   13  C25 UNL     1      -7.803  41.623 -32.168  1.00  0.00     0.022 C 
HETATM   14  C26 UNL     1      -8.733  42.864 -32.300  1.00  0.00    -0.016 C 
HETATM   15  C27 UNL     1     -10.118  42.387 -31.775  1.00  0.00     0.020 C 
HETATM   16  C28 UNL     1      -8.317  44.137 -31.449  1.00  0.00     0.002 C 
HETATM   17  C29 UNL     1      -7.121  43.958 -30.481  1.00  0.00     0.007 C 
HETATM   18  C30 UNL     1      -6.787  45.228 -29.676  1.00  0.00     0.012 C 
HETATM   19  C31 UNL     1      -6.614  46.449 -30.589  1.00  0.00    -0.013 C 
HETATM   20  C32 UNL     1      -5.325  46.279 -31.436  1.00  0.00     0.018 C 
ENDROOT
BRANCH   1  21
HETATM   21  O2  UNL     1      -5.310  48.098 -29.308  1.00  0.00    -0.315 OA
BRANCH  21  22
HETATM   22  C13 UNL     1      -5.206  47.982 -27.955  1.00  0.00     0.259 C 
HETATM   23  O1  UNL     1      -6.121  47.692 -27.196  1.00  0.00    -0.265 OA
BRANCH  22  24
HETATM   24  C12 UNL     1      -3.796  48.287 -27.512  1.00  0.00     0.111 C 
BRANCH  24  25
HETATM   25  C11 UNL     1      -3.407  49.734 -27.799  1.00  0.00     0.010 C 
BRANCH  25  26
HETATM   26  C10 UNL     1      -2.290  50.286 -26.904  1.00  0.00     0.000 C 
BRANCH  26  27
HETATM   27  C9  UNL     1      -1.374  51.330 -27.554  1.00  0.00     0.000 C 
BRANCH  27  28
HETATM   28  C8  UNL     1      -0.087  51.652 -26.788  1.00  0.00     0.000 C 
BRANCH  28  29
HETATM   29  C7  UNL     1       0.322  53.129 -26.773  1.00  0.00     0.000 C 
BRANCH  29  30
HETATM   30  C6  UNL     1       0.090  53.806 -25.420  1.00  0.00     0.000 C 
BRANCH  30  31
HETATM   31  C5  UNL     1      -0.493  52.861 -24.363  1.00  0.00     0.000 C 
BRANCH  31  32
HETATM   32  C4  UNL     1       0.568  52.283 -23.422  1.00  0.00     0.000 C 
BRANCH  32  33
HETATM   33  C3  UNL     1       0.800  53.201 -22.219  1.00  0.00    -0.000 C 
BRANCH  33  34
HETATM   34  C2  UNL     1       0.781  52.458 -20.880  1.00  0.00    -0.005 C 
HETATM   35  C1  UNL     1      -0.617  52.073 -20.421  1.00  0.00     0.005 C 
ENDBRANCH  33  34
ENDBRANCH  32  33
ENDBRANCH  31  32
ENDBRANCH  30  31
ENDBRANCH  29  30
ENDBRANCH  28  29
ENDBRANCH  27  28
ENDBRANCH  26  27
ENDBRANCH  25  26
ENDBRANCH  24  25
ENDBRANCH  22  24
ENDBRANCH  21  22
ENDBRANCH   1  21
TORSDOF 13
ENDMDL
MODEL 3
REMARK minimizedAffinity -7.91117668
REMARK CNNscore 0.302365303
REMARK CNNaffinity 7.33802366
REMARK  13 active torsions:
REMARK  status: ('A' for Active; 'I' for Inactive)
REMARK    1  A    between atoms: C2_2  and  C3_3 
REMARK    2  A    between atoms: C3_3  and  C4_4 
REMARK    3  A    between atoms: C4_4  and  C5_5 
REMARK    4  A    between atoms: C5_5  and  C6_6 
REMARK    5  A    between atoms: C6_6  and  C7_7 
REMARK    6  A    between atoms: C7_7  and  C8_8 
REMARK    7  A    between atoms: C8_8  and  C9_9 
REMARK    8  A    between atoms: C9_9  and  C10_10 
REMARK    9  A    between atoms: C10_10  and  C11_11 
REMARK   10  A    between atoms: C11_11  and  C12_12 
REMARK   11  A    between atoms: C12_12  and  C13_13 
REMARK   12  A    between atoms: C13_13  and  O2_15 
REMARK   13  A    between atoms: O2_15  and  C14_16 
ROOT
HETATM    1  C14 UNL     1      -2.280  49.183 -18.962  1.00  0.00     0.140 C 
HETATM    2  C15 UNL     1      -2.673  50.629 -18.586  1.00  0.00     0.034 C 
HETATM    3  C16 UNL     1      -3.346  51.236 -19.830  1.00  0.00     0.008 C 
HETATM    4  C17 UNL     1      -3.495  50.053 -20.781  1.00  0.00     0.001 C 
HETATM    5  C18 UNL     1      -3.710  50.321 -22.273  1.00  0.00    -0.004 C 
HETATM    6  C19 UNL     1      -4.962  51.185 -22.526  1.00  0.00     0.010 C 
HETATM    7  C20 UNL     1      -5.234  51.429 -24.016  1.00  0.00     0.035 C 
HETATM    8  C21 UNL     1      -4.296  50.625 -24.883  1.00  0.00    -0.068 C 
HETATM    9  C22 UNL     1      -3.520  51.255 -25.783  1.00  0.00     0.053 C 
HETATM   10  C23 UNL     1      -2.403  50.556 -26.455  1.00  0.00     0.149 C 
HETATM   11  O3  UNL     1      -1.784  51.118 -27.353  1.00  0.00    -0.293 OA
HETATM   12  C24 UNL     1      -2.005  49.210 -25.912  1.00  0.00     0.084 C 
HETATM   13  C25 UNL     1      -3.251  48.414 -25.560  1.00  0.00     0.022 C 
HETATM   14  C26 UNL     1      -4.202  49.129 -24.555  1.00  0.00    -0.016 C 
HETATM   15  C27 UNL     1      -5.597  48.479 -24.790  1.00  0.00     0.020 C 
HETATM   16  C28 UNL     1      -3.850  48.950 -23.018  1.00  0.00     0.002 C 
HETATM   17  C29 UNL     1      -2.691  47.978 -22.686  1.00  0.00     0.007 C 
HETATM   18  C30 UNL     1      -2.418  47.842 -21.175  1.00  0.00     0.012 C 
HETATM   19  C31 UNL     1      -2.234  49.210 -20.507  1.00  0.00    -0.013 C 
HETATM   20  C32 UNL     1      -0.909  49.848 -20.998  1.00  0.00     0.018 C 
ENDROOT
BRANCH   1  21
HETATM   21  O2  UNL     1      -1.021  48.800 -18.404  1.00  0.00    -0.315 OA
BRANCH  21  22
HETATM   22  C13 UNL     1      -0.831  49.144 -17.100  1.00  0.00     0.259 C 
HETATM   23  O1  UNL     1      -0.876  48.375 -16.150  1.00  0.00    -0.265 OA
BRANCH  22  24
HETATM   24  C12 UNL     1      -0.575  50.628 -16.984  1.00  0.00     0.111 C 
BRANCH  24  25
HETATM   25  C11 UNL     1       0.722  51.039 -17.676  1.00  0.00     0.010 C 
BRANCH  25  26
HETATM   26  C10 UNL     1       0.814  52.529 -18.028  1.00  0.00     0.000 C 
BRANCH  26  27
HETATM   27  C9  UNL     1       0.076  52.957 -19.302  1.00  0.00     0.000 C 
BRANCH  27  28
HETATM   28  C8  UNL     1       0.740  54.077 -20.109  1.00  0.00     0.000 C 
BRANCH  28  29
HETATM   29  C7  UNL     1       1.513  53.627 -21.353  1.00  0.00     0.000 C 
BRANCH  29  30
HETATM   30  C6  UNL     1       0.941  52.360 -21.994  1.00  0.00     0.000 C 
BRANCH  30  31
HETATM   31  C5  UNL     1      -0.229  52.639 -22.944  1.00  0.00     0.000 C 
BRANCH  31  32
HETATM   32  C4  UNL     1      -0.110  51.899 -24.280  1.00  0.00     0.000 C 
BRANCH  32  33
HETATM   33  C3  UNL     1       0.740  52.691 -25.277  1.00  0.00    -0.000 C 
BRANCH  33  34
HETATM   34  C2  UNL     1       1.803  51.839 -25.976  1.00  0.00    -0.005 C 
HETATM   35  C1  UNL     1       1.556  51.666 -27.467  1.00  0.00     0.005 C 
ENDBRANCH  33  34
ENDBRANCH  32  33
ENDBRANCH  31  32
ENDBRANCH  30  31
ENDBRANCH  29  30
ENDBRANCH  28  29
ENDBRANCH  27  28
ENDBRANCH  26  27
ENDBRANCH  25  26
ENDBRANCH  24  25
ENDBRANCH  22  24
ENDBRANCH  21  22
ENDBRANCH   1  21
TORSDOF 13
ENDMDL
MODEL 4
REMARK minimizedAffinity -7.48882103
REMARK CNNscore 0.287989348
REMARK CNNaffinity 6.84738302
REMARK  13 active torsions:
REMARK  status: ('A' for Active; 'I' for Inactive)
REMARK    1  A    between atoms: C2_2  and  C3_3 
REMARK    2  A    between atoms: C3_3  and  C4_4 
REMARK    3  A    between atoms: C4_4  and  C5_5 
REMARK    4  A    between atoms: C5_5  and  C6_6 
REMARK    5  A    between atoms: C6_6  and  C7_7 
REMARK    6  A    between atoms: C7_7  and  C8_8 
REMARK    7  A    between atoms: C8_8  and  C9_9 
REMARK    8  A    between atoms: C9_9  and  C10_10 
REMARK    9  A    between atoms: C10_10  and  C11_11 
REMARK   10  A    between atoms: C11_11  and  C12_12 
REMARK   11  A    between atoms: C12_12  and  C13_13 
REMARK   12  A    between atoms: C13_13  and  O2_15 
REMARK   13  A    between atoms: O2_15  and  C14_16 
ROOT
HETATM    1  C14 UNL     1      -3.099  50.716 -25.547  1.00  0.00     0.140 C 
HETATM    2  C15 UNL     1      -3.265  49.472 -26.448  1.00  0.00     0.034 C 
HETATM    3  C16 UNL     1      -4.116  48.467 -25.649  1.00  0.00     0.008 C 
HETATM    4  C17 UNL     1      -4.569  49.259 -24.426  1.00  0.00     0.001 C 
HETATM    5  C18 UNL     1      -5.056  48.500 -23.189  1.00  0.00    -0.004 C 
HETATM    6  C19 UNL     1      -6.243  47.573 -23.515  1.00  0.00     0.010 C 
HETATM    7  C20 UNL     1      -6.788  46.836 -22.284  1.00  0.00     0.035 C 
HETATM    8  C21 UNL     1      -6.127  47.324 -21.017  1.00  0.00    -0.068 C 
HETATM    9  C22 UNL     1      -5.494  46.446 -20.219  1.00  0.00     0.053 C 
HETATM   10  C23 UNL     1      -4.609  46.905 -19.125  1.00  0.00     0.149 C 
HETATM   11  O3  UNL     1      -4.134  46.089 -18.342  1.00  0.00    -0.293 OA
HETATM   12  C24 UNL     1      -4.241  48.365 -19.102  1.00  0.00     0.084 C 
HETATM   13  C25 UNL     1      -5.460  49.203 -19.448  1.00  0.00     0.022 C 
HETATM   14  C26 UNL     1      -6.114  48.845 -20.815  1.00  0.00    -0.016 C 
HETATM   15  C27 UNL     1      -7.583  49.346 -20.702  1.00  0.00     0.020 C 
HETATM   16  C28 UNL     1      -5.475  49.537 -22.093  1.00  0.00     0.002 C 
HETATM   17  C29 UNL     1      -4.372  50.592 -21.825  1.00  0.00     0.007 C 
HETATM   18  C30 UNL     1      -3.812  51.233 -23.110  1.00  0.00     0.012 C 
HETATM   19  C31 UNL     1      -3.365  50.174 -24.125  1.00  0.00    -0.013 C 
HETATM   20  C32 UNL     1      -2.112  49.438 -23.582  1.00  0.00     0.018 C 
ENDROOT
BRANCH   1  21
HETATM   21  O2  UNL     1      -1.796  51.293 -25.656  1.00  0.00    -0.315 OA
BRANCH  21  22
HETATM   22  C13 UNL     1      -1.737  52.487 -26.307  1.00  0.00     0.259 C 
HETATM   23  O1  UNL     1      -2.650  52.993 -26.944  1.00  0.00    -0.265 OA
BRANCH  22  24
HETATM   24  C12 UNL     1      -0.365  53.098 -26.153  1.00  0.00     0.111 C 
BRANCH  24  25
HETATM   25  C11 UNL     1       0.563  52.217 -25.323  1.00  0.00     0.010 C 
BRANCH  25  26
HETATM   26  C10 UNL     1       0.959  52.807 -23.963  1.00  0.00     0.000 C 
BRANCH  26  27
HETATM   27  C9  UNL     1       0.096  52.370 -22.774  1.00  0.00     0.000 C 
BRANCH  27  28
HETATM   28  C8  UNL     1       0.816  52.298 -21.423  1.00  0.00     0.000 C 
BRANCH  28  29
HETATM   29  C7  UNL     1       0.724  53.559 -20.556  1.00  0.00     0.000 C 
BRANCH  29  30
HETATM   30  C6  UNL     1      -0.063  53.345 -19.261  1.00  0.00     0.000 C 
BRANCH  30  31
HETATM   31  C5  UNL     1       0.474  52.187 -18.411  1.00  0.00     0.000 C 
BRANCH  31  32
HETATM   32  C4  UNL     1       1.560  52.621 -17.422  1.00  0.00     0.000 C 
BRANCH  32  33
HETATM   33  C3  UNL     1       1.625  51.673 -16.221  1.00  0.00    -0.000 C 
BRANCH  33  34
HETATM   34  C2  UNL     1       2.893  51.847 -15.382  1.00  0.00    -0.005 C 
HETATM   35  C1  UNL     1       4.057  52.443 -16.159  1.00  0.00     0.005 C 
ENDBRANCH  33  34
ENDBRANCH  32  33
ENDBRANCH  31  32
ENDBRANCH  30  31
ENDBRANCH  29  30
ENDBRANCH  28  29
ENDBRANCH  27  28
ENDBRANCH  26  27
ENDBRANCH  25  26
ENDBRANCH  24  25
ENDBRANCH  22  24
ENDBRANCH  21  22
ENDBRANCH   1  21
TORSDOF 13
ENDMDL
MODEL 5
REMARK minimizedAffinity -6.27309227
REMARK CNNscore 0.281937927
REMARK CNNaffinity 6.12308073
REMARK  13 active torsions:
REMARK  status: ('A' for Active; 'I' for Inactive)
REMARK    1  A    between atoms: C2_2  and  C3_3 
REMARK    2  A    between atoms: C3_3  and  C4_4 
REMARK    3  A    between atoms: C4_4  and  C5_5 
REMARK    4  A    between atoms: C5_5  and  C6_6 
REMARK    5  A    between atoms: C6_6  and  C7_7 
REMARK    6  A    between atoms: C7_7  and  C8_8 
REMARK    7  A    between atoms: C8_8  and  C9_9 
REMARK    8  A    between atoms: C9_9  and  C10_10 
REMARK    9  A    between atoms: C10_10  and  C11_11 
REMARK   10  A    between atoms: C11_11  and  C12_12 
REMARK   11  A    between atoms: C12_12  and  C13_13 
REMARK   12  A    between atoms: C13_13  and  O2_15 
REMARK   13  A    between atoms: O2_15  and  C14_16 
ROOT
HETATM    1  C14 UNL     1       0.102  53.253 -11.072  1.00  0.00     0.140 C 
HETATM    2  C15 UNL     1      -0.452  52.221 -10.064  1.00  0.00     0.034 C 
HETATM    3  C16 UNL     1       0.085  52.632  -8.681  1.00  0.00     0.008 C 
HETATM    4  C17 UNL     1       0.742  53.986  -8.929  1.00  0.00     0.001 C 
HETATM    5  C18 UNL     1       1.763  54.513  -7.917  1.00  0.00    -0.004 C 
HETATM    6  C19 UNL     1       1.163  54.624  -6.501  1.00  0.00     0.010 C 
HETATM    7  C20 UNL     1       2.147  55.198  -5.473  1.00  0.00     0.035 C 
HETATM    8  C21 UNL     1       3.420  55.668  -6.137  1.00  0.00    -0.068 C 
HETATM    9  C22 UNL     1       4.601  55.163  -5.737  1.00  0.00     0.053 C 
HETATM   10  C23 UNL     1       5.834  55.381  -6.526  1.00  0.00     0.149 C 
HETATM   11  O3  UNL     1       6.915  55.009  -6.083  1.00  0.00    -0.293 OA
HETATM   12  C24 UNL     1       5.675  55.955  -7.909  1.00  0.00     0.084 C 
HETATM   13  C25 UNL     1       4.625  57.055  -7.886  1.00  0.00     0.022 C 
HETATM   14  C26 UNL     1       3.239  56.602  -7.340  1.00  0.00    -0.016 C 
HETATM   15  C27 UNL     1       2.550  57.911  -6.857  1.00  0.00     0.020 C 
HETATM   16  C28 UNL     1       2.268  55.917  -8.393  1.00  0.00     0.002 C 
HETATM   17  C29 UNL     1       2.749  55.903  -9.866  1.00  0.00     0.007 C 
HETATM   18  C30 UNL     1       1.748  55.240 -10.832  1.00  0.00     0.012 C 
HETATM   19  C31 UNL     1       1.331  53.846 -10.346  1.00  0.00    -0.013 C 
HETATM   20  C32 UNL     1       2.540  52.881 -10.453  1.00  0.00     0.018 C 
ENDROOT
BRANCH   1  21
HETATM   21  O2  UNL     1       0.464  52.653 -12.318  1.00  0.00    -0.315 OA
BRANCH  21  22
HETATM   22  C13 UNL     1      -0.576  52.215 -13.080  1.00  0.00     0.259 C 
HETATM   23  O1  UNL     1      -1.756  52.466 -12.881  1.00  0.00    -0.265 OA
BRANCH  22  24
HETATM   24  C12 UNL     1      -0.067  51.348 -14.207  1.00  0.00     0.111 C 
BRANCH  24  25
HETATM   25  C11 UNL     1       0.927  52.091 -15.095  1.00  0.00     0.010 C 
BRANCH  25  26
HETATM   26  C10 UNL     1       1.376  51.316 -16.340  1.00  0.00     0.000 C 
BRANCH  26  27
HETATM   27  C9  UNL     1       0.681  51.705 -17.650  1.00  0.00     0.000 C 
BRANCH  27  28
HETATM   28  C8  UNL     1       1.226  52.958 -18.344  1.00  0.00     0.000 C 
BRANCH  28  29
HETATM   29  C7  UNL     1       0.545  53.332 -19.665  1.00  0.00     0.000 C 
BRANCH  29  30
HETATM   30  C6  UNL     1       1.424  53.072 -20.891  1.00  0.00     0.000 C 
BRANCH  30  31
HETATM   31  C5  UNL     1       0.667  52.409 -22.048  1.00  0.00     0.000 C 
BRANCH  31  32
HETATM   32  C4  UNL     1      -0.318  51.332 -21.583  1.00  0.00     0.000 C 
BRANCH  32  33
HETATM   33  C3  UNL     1      -1.323  50.989 -22.686  1.00  0.00    -0.000 C 
BRANCH  33  34
HETATM   34  C2  UNL     1      -2.001  52.221 -23.291  1.00  0.00    -0.005 C 
HETATM   35  C1  UNL     1      -3.519  52.134 -23.300  1.00  0.00     0.005 C 
ENDBRANCH  33  34
ENDBRANCH  32  33
ENDBRANCH  31  32
ENDBRANCH  30  31
ENDBRANCH  29  30
ENDBRANCH  28  29
ENDBRANCH  27  28
ENDBRANCH  26  27
ENDBRANCH  25  26
ENDBRANCH  24  25
ENDBRANCH  22  24
ENDBRANCH  21  22
ENDBRANCH   1  21
TORSDOF 13
ENDMDL
MODEL 6
REMARK minimizedAffinity -6.49335861
REMARK CNNscore 0.278295666
REMARK CNNaffinity 6.36924982
REMARK  13 active torsions:
REMARK  status: ('A' for Active; 'I' for Inactive)
REMARK    1  A    between atoms: C2_2  and  C3_3 
REMARK    2  A    between atoms: C3_3  and  C4_4 
REMARK    3  A    between atoms: C4_4  and  C5_5 
REMARK    4  A    between atoms: C5_5  and  C6_6 
REMARK    5  A    between atoms: C6_6  and  C7_7 
REMARK    6  A    between atoms: C7_7  and  C8_8 
REMARK    7  A    between atoms: C8_8  and  C9_9 
REMARK    8  A    between atoms: C9_9  and  C10_10 
REMARK    9  A    between atoms: C10_10  and  C11_11 
REMARK   10  A    between atoms: C11_11  and  C12_12 
REMARK   11  A    between atoms: C12_12  and  C13_13 
REMARK   12  A    between atoms: C13_13  and  O2_15 
REMARK   13  A    between atoms: O2_15  and  C14_16 
ROOT
HETATM    1  C14 UNL     1      -6.873  47.230 -29.676  1.00  0.00     0.140 C 
HETATM    2  C15 UNL     1      -5.751  47.703 -30.628  1.00  0.00     0.034 C 
HETATM    3  C16 UNL     1      -6.204  47.334 -32.052  1.00  0.00     0.008 C 
HETATM    4  C17 UNL     1      -7.643  46.863 -31.870  1.00  0.00     0.001 C 
HETATM    5  C18 UNL     1      -8.288  46.006 -32.963  1.00  0.00    -0.004 C 
HETATM    6  C19 UNL     1      -8.281  46.719 -34.329  1.00  0.00     0.010 C 
HETATM    7  C20 UNL     1      -8.968  45.906 -35.436  1.00  0.00     0.035 C 
HETATM    8  C21 UNL     1      -9.629  44.669 -34.877  1.00  0.00    -0.068 C 
HETATM    9  C22 UNL     1      -9.289  43.461 -35.360  1.00  0.00     0.053 C 
HETATM   10  C23 UNL     1      -9.698  42.217 -34.670  1.00  0.00     0.149 C 
HETATM   11  O3  UNL     1      -9.475  41.129 -35.191  1.00  0.00    -0.293 OA
HETATM   12  C24 UNL     1     -10.274  42.354 -33.286  1.00  0.00     0.084 C 
HETATM   13  C25 UNL     1     -11.211  43.550 -33.240  1.00  0.00     0.022 C 
HETATM   14  C26 UNL     1     -10.553  44.893 -33.673  1.00  0.00    -0.016 C 
HETATM   15  C27 UNL     1     -11.739  45.797 -34.117  1.00  0.00     0.020 C 
HETATM   16  C28 UNL     1      -9.760  45.674 -32.542  1.00  0.00     0.002 C 
HETATM   17  C29 UNL     1      -9.847  45.089 -31.110  1.00  0.00     0.007 C 
HETATM   18  C30 UNL     1      -9.069  45.909 -30.064  1.00  0.00     0.012 C 
HETATM   19  C31 UNL     1      -7.619  46.156 -30.500  1.00  0.00    -0.013 C 
HETATM   20  C32 UNL     1      -6.839  44.816 -30.476  1.00  0.00     0.018 C 
ENDROOT
BRANCH   1  21
HETATM   21  O2  UNL     1      -6.357  46.694 -28.456  1.00  0.00    -0.315 OA
BRANCH  21  22
HETATM   22  C13 UNL     1      -6.346  47.551 -27.398  1.00  0.00     0.259 C 
HETATM   23  O1  UNL     1      -7.301  47.794 -26.673  1.00  0.00    -0.265 OA
BRANCH  22  24
HETATM   24  C12 UNL     1      -4.984  48.186 -27.256  1.00  0.00     0.111 C 
BRANCH  24  25
HETATM   25  C11 UNL     1      -4.588  48.366 -25.793  1.00  0.00     0.010 C 
BRANCH  25  26
HETATM   26  C10 UNL     1      -3.503  49.422 -25.549  1.00  0.00     0.000 C 
BRANCH  26  27
HETATM   27  C9  UNL     1      -2.420  49.523 -26.629  1.00  0.00     0.000 C 
BRANCH  27  28
HETATM   28  C8  UNL     1      -2.537  50.722 -27.576  1.00  0.00     0.000 C 
BRANCH  28  29
HETATM   29  C7  UNL     1      -1.584  51.888 -27.289  1.00  0.00     0.000 C 
BRANCH  29  30
HETATM   30  C6  UNL     1      -0.189  51.689 -27.886  1.00  0.00     0.000 C 
BRANCH  30  31
HETATM   31  C5  UNL     1       0.929  52.286 -27.024  1.00  0.00     0.000 C 
BRANCH  31  32
HETATM   32  C4  UNL     1       0.925  51.759 -25.586  1.00  0.00     0.000 C 
BRANCH  32  33
HETATM   33  C3  UNL     1       0.704  52.894 -24.582  1.00  0.00    -0.000 C 
BRANCH  33  34
HETATM   34  C2  UNL     1      -0.035  52.448 -23.318  1.00  0.00    -0.005 C 
HETATM   35  C1  UNL     1      -0.962  51.264 -23.545  1.00  0.00     0.005 C 
ENDBRANCH  33  34
ENDBRANCH  32  33
ENDBRANCH  31  32
ENDBRANCH  30  31
ENDBRANCH  29  30
ENDBRANCH  28  29
ENDBRANCH  27  28
ENDBRANCH  26  27
ENDBRANCH  25  26
ENDBRANCH  24  25
ENDBRANCH  22  24
ENDBRANCH  21  22
ENDBRANCH   1  21
TORSDOF 13
ENDMDL
MODEL 7
REMARK minimizedAffinity -7.87122631
REMARK CNNscore 0.25059092
REMARK CNNaffinity 6.9965806
REMARK  13 active torsions:
REMARK  status: ('A' for Active; 'I' for Inactive)
REMARK    1  A    between atoms: C2_2  and  C3_3 
REMARK    2  A    between atoms: C3_3  and  C4_4 
REMARK    3  A    between atoms: C4_4  and  C5_5 
REMARK    4  A    between atoms: C5_5  and  C6_6 
REMARK    5  A    between atoms: C6_6  and  C7_7 
REMARK    6  A    between atoms: C7_7  and  C8_8 
REMARK    7  A    between atoms: C8_8  and  C9_9 
REMARK    8  A    between atoms: C9_9  and  C10_10 
REMARK    9  A    between atoms: C10_10  and  C11_11 
REMARK   10  A    between atoms: C11_11  and  C12_12 
REMARK   11  A    between atoms: C12_12  and  C13_13 
REMARK   12  A    between atoms: C13_13  and  O2_15 
REMARK   13  A    between atoms: O2_15  and  C14_16 
ROOT
HETATM    1  C14 UNL     1      -3.757  49.510 -22.515  1.00  0.00     0.140 C 
HETATM    2  C15 UNL     1      -4.715  49.145 -23.671  1.00  0.00     0.034 C 
HETATM    3  C16 UNL     1      -4.027  49.606 -24.968  1.00  0.00     0.008 C 
HETATM    4  C17 UNL     1      -2.629  50.018 -24.518  1.00  0.00     0.001 C 
HETATM    5  C18 UNL     1      -1.797  50.935 -25.419  1.00  0.00    -0.004 C 
HETATM    6  C19 UNL     1      -1.592  50.328 -26.821  1.00  0.00     0.010 C 
HETATM    7  C20 UNL     1      -0.718  51.200 -27.733  1.00  0.00     0.035 C 
HETATM    8  C21 UNL     1      -0.136  52.370 -26.977  1.00  0.00    -0.068 C 
HETATM    9  C22 UNL     1      -0.369  53.622 -27.411  1.00  0.00     0.053 C 
HETATM   10  C23 UNL     1      -0.058  54.796 -26.566  1.00  0.00     0.149 C 
HETATM   11  O3  UNL     1      -0.172  55.927 -27.028  1.00  0.00    -0.293 OA
HETATM   12  C24 UNL     1       0.280  54.538 -25.122  1.00  0.00     0.084 C 
HETATM   13  C25 UNL     1       1.175  53.313 -25.020  1.00  0.00     0.022 C 
HETATM   14  C26 UNL     1       0.573  52.027 -25.660  1.00  0.00    -0.016 C 
HETATM   15  C27 UNL     1       1.800  51.123 -25.976  1.00  0.00     0.020 C 
HETATM   16  C28 UNL     1      -0.409  51.188 -24.739  1.00  0.00     0.002 C 
HETATM   17  C29 UNL     1      -0.549  51.660 -23.271  1.00  0.00     0.007 C 
HETATM   18  C30 UNL     1      -1.503  50.787 -22.433  1.00  0.00     0.012 C 
HETATM   19  C31 UNL     1      -2.866  50.619 -23.118  1.00  0.00    -0.013 C 
HETATM   20  C32 UNL     1      -3.615  51.977 -23.114  1.00  0.00     0.018 C 
ENDROOT
BRANCH   1  21
HETATM   21  O2  UNL     1      -4.456  49.968 -21.356  1.00  0.00    -0.315 OA
BRANCH  21  22
HETATM   22  C13 UNL     1      -3.799  49.807 -20.174  1.00  0.00     0.259 C 
HETATM   23  O1  UNL     1      -3.400  50.714 -19.456  1.00  0.00    -0.265 OA
BRANCH  22  24
HETATM   24  C12 UNL     1      -3.609  48.339 -19.878  1.00  0.00     0.111 C 
BRANCH  24  25
HETATM   25  C11 UNL     1      -2.153  47.909 -20.035  1.00  0.00     0.010 C 
BRANCH  25  26
HETATM   26  C10 UNL     1      -1.127  48.922 -19.513  1.00  0.00     0.000 C 
BRANCH  26  27
HETATM   27  C9  UNL     1      -0.909  48.925 -17.995  1.00  0.00     0.000 C 
BRANCH  27  28
HETATM   28  C8  UNL     1       0.069  49.979 -17.467  1.00  0.00     0.000 C 
BRANCH  28  29
HETATM   29  C7  UNL     1      -0.354  51.437 -17.674  1.00  0.00     0.000 C 
BRANCH  29  30
HETATM   30  C6  UNL     1       0.829  52.408 -17.718  1.00  0.00     0.000 C 
BRANCH  30  31
HETATM   31  C5  UNL     1       1.667  52.399 -16.435  1.00  0.00     0.000 C 
BRANCH  31  32
HETATM   32  C4  UNL     1       3.144  52.721 -16.679  1.00  0.00     0.000 C 
BRANCH  32  33
HETATM   33  C3  UNL     1       4.031  52.116 -15.587  1.00  0.00    -0.000 C 
BRANCH  33  34
HETATM   34  C2  UNL     1       3.235  51.425 -14.476  1.00  0.00    -0.005 C 
HETATM   35  C1  UNL     1       3.924  50.190 -13.916  1.00  0.00     0.005 C 
ENDBRANCH  33  34
ENDBRANCH  32  33
ENDBRANCH  31  32
ENDBRANCH  30  31
ENDBRANCH  29  30
ENDBRANCH  28  29
ENDBRANCH  27  28
ENDBRANCH  26  27
ENDBRANCH  25  26
ENDBRANCH  24  25
ENDBRANCH  22  24
ENDBRANCH  21  22
ENDBRANCH   1  21
TORSDOF 13
ENDMDL
MODEL 8
REMARK minimizedAffinity -7.40684986
REMARK CNNscore 0.241550401
REMARK CNNaffinity 6.18904352
REMARK  13 active torsions:
REMARK  status: ('A' for Active; 'I' for Inactive)
REMARK    1  A    between atoms: C2_2  and  C3_3 
REMARK    2  A    between atoms: C3_3  and  C4_4 
REMARK    3  A    between atoms: C4_4  and  C5_5 
REMARK    4  A    between atoms: C5_5  and  C6_6 
REMARK    5  A    between atoms: C6_6  and  C7_7 
REMARK    6  A    between atoms: C7_7  and  C8_8 
REMARK    7  A    between atoms: C8_8  and  C9_9 
REMARK    8  A    between atoms: C9_9  and  C10_10 
REMARK    9  A    between atoms: C10_10  and  C11_11 
REMARK   10  A    between atoms: C11_11  and  C12_12 
REMARK   11  A    between atoms: C12_12  and  C13_13 
REMARK   12  A    between atoms: C13_13  and  O2_15 
REMARK   13  A    between atoms: O2_15  and  C14_16 
ROOT
HETATM    1  C14 UNL     1      -0.282  51.717 -19.468  1.00  0.00     0.140 C 
HETATM    2  C15 UNL     1       0.842  52.446 -20.238  1.00  0.00     0.034 C 
HETATM    3  C16 UNL     1       0.341  52.614 -21.684  1.00  0.00     0.008 C 
HETATM    4  C17 UNL     1      -1.117  52.167 -21.623  1.00  0.00     0.001 C 
HETATM    5  C18 UNL     1      -1.827  51.769 -22.919  1.00  0.00    -0.004 C 
HETATM    6  C19 UNL     1      -1.813  52.912 -23.954  1.00  0.00     0.010 C 
HETATM    7  C20 UNL     1      -2.563  52.563 -25.247  1.00  0.00     0.035 C 
HETATM    8  C21 UNL     1      -3.274  51.236 -25.126  1.00  0.00    -0.068 C 
HETATM    9  C22 UNL     1      -3.007  50.258 -26.010  1.00  0.00     0.053 C 
HETATM   10  C23 UNL     1      -3.463  48.870 -25.778  1.00  0.00     0.149 C 
HETATM   11  O3  UNL     1      -3.307  48.023 -26.651  1.00  0.00    -0.293 OA
HETATM   12  C24 UNL     1      -4.002  48.540 -24.411  1.00  0.00     0.084 C 
HETATM   13  C25 UNL     1      -4.876  49.683 -23.919  1.00  0.00     0.022 C 
HETATM   14  C26 UNL     1      -4.160  51.065 -23.885  1.00  0.00    -0.016 C 
HETATM   15  C27 UNL     1      -5.308  52.114 -23.944  1.00  0.00     0.020 C 
HETATM   16  C28 UNL     1      -3.305  51.372 -22.584  1.00  0.00     0.002 C 
HETATM   17  C29 UNL     1      -3.391  50.330 -21.442  1.00  0.00     0.007 C 
HETATM   18  C30 UNL     1      -2.550  50.703 -20.205  1.00  0.00     0.012 C 
HETATM   19  C31 UNL     1      -1.099  51.028 -20.584  1.00  0.00    -0.013 C 
HETATM   20  C32 UNL     1      -0.388  49.733 -21.054  1.00  0.00     0.018 C 
ENDROOT
BRANCH   1  21
HETATM   21  O2  UNL     1       0.231  50.770 -18.528  1.00  0.00    -0.315 OA
BRANCH  21  22
HETATM   22  C13 UNL     1      -0.163  50.954 -17.238  1.00  0.00     0.259 C 
HETATM   23  O1  UNL     1      -1.319  51.079 -16.861  1.00  0.00    -0.265 OA
BRANCH  22  24
HETATM   24  C12 UNL     1       1.041  51.005 -16.328  1.00  0.00     0.111 C 
BRANCH  24  25
HETATM   25  C11 UNL     1       1.894  52.245 -16.578  1.00  0.00     0.010 C 
BRANCH  25  26
HETATM   26  C10 UNL     1       3.234  52.260 -15.832  1.00  0.00     0.000 C 
BRANCH  26  27
HETATM   27  C9  UNL     1       3.312  51.367 -14.589  1.00  0.00     0.000 C 
BRANCH  27  28
HETATM   28  C8  UNL     1       2.708  51.956 -13.309  1.00  0.00     0.000 C 
BRANCH  28  29
HETATM   29  C7  UNL     1       2.987  51.170 -12.023  1.00  0.00     0.000 C 
BRANCH  29  30
HETATM   30  C6  UNL     1       2.813  52.008 -10.754  1.00  0.00     0.000 C 
BRANCH  30  31
HETATM   31  C5  UNL     1       4.144  52.417 -10.113  1.00  0.00     0.000 C 
BRANCH  31  32
HETATM   32  C4  UNL     1       4.078  53.774  -9.405  1.00  0.00     0.000 C 
BRANCH  32  33
HETATM   33  C3  UNL     1       5.023  54.786 -10.059  1.00  0.00    -0.000 C 
BRANCH  33  34
HETATM   34  C2  UNL     1       4.302  55.790 -10.963  1.00  0.00    -0.005 C 
HETATM   35  C1  UNL     1       2.801  55.849 -10.725  1.00  0.00     0.005 C 
ENDBRANCH  33  34
ENDBRANCH  32  33
ENDBRANCH  31  32
ENDBRANCH  30  31
ENDBRANCH  29  30
ENDBRANCH  28  29
ENDBRANCH  27  28
ENDBRANCH  26  27
ENDBRANCH  25  26
ENDBRANCH  24  25
ENDBRANCH  22  24
ENDBRANCH  21  22
ENDBRANCH   1  21
TORSDOF 13
ENDMDL
MODEL 9
REMARK minimizedAffinity -6.73044395
REMARK CNNscore 0.236657739
REMARK CNNaffinity 6.22950125
REMARK  13 active torsions:
REMARK  status: ('A' for Active; 'I' for Inactive)
REMARK    1  A    between atoms: C2_2  and  C3_3 
REMARK    2  A    between atoms: C3_3  and  C4_4 
REMARK    3  A    between atoms: C4_4  and  C5_5 
REMARK    4  A    between atoms: C5_5  and  C6_6 
REMARK    5  A    between atoms: C6_6  and  C7_7 
REMARK    6  A    between atoms: C7_7  and  C8_8 
REMARK    7  A    between atoms: C8_8  and  C9_9 
REMARK    8  A    between atoms: C9_9  and  C10_10 
REMARK    9  A    between atoms: C10_10  and  C11_11 
REMARK   10  A    between atoms: C11_11  and  C12_12 
REMARK   11  A    between atoms: C12_12  and  C13_13 
REMARK   12  A    between atoms: C13_13  and  O2_15 
REMARK   13  A    between atoms: O2_15  and  C14_16 
ROOT
HETATM    1  C14 UNL     1      -6.717  46.511 -28.843  1.00  0.00     0.140 C 
HETATM    2  C15 UNL     1      -7.718  45.996 -27.784  1.00  0.00     0.034 C 
HETATM    3  C16 UNL     1      -8.738  45.123 -28.537  1.00  0.00     0.008 C 
HETATM    4  C17 UNL     1      -8.158  45.009 -29.943  1.00  0.00     0.001 C 
HETATM    5  C18 UNL     1      -9.078  44.600 -31.097  1.00  0.00    -0.004 C 
HETATM    6  C19 UNL     1      -9.748  43.237 -30.839  1.00  0.00     0.010 C 
HETATM    7  C20 UNL     1     -10.639  42.774 -32.001  1.00  0.00     0.035 C 
HETATM    8  C21 UNL     1     -10.513  43.699 -33.188  1.00  0.00    -0.068 C 
HETATM    9  C22 UNL     1     -11.613  44.291 -33.686  1.00  0.00     0.053 C 
HETATM   10  C23 UNL     1     -11.512  45.402 -34.659  1.00  0.00     0.149 C 
HETATM   11  O3  UNL     1     -12.527  45.847 -35.183  1.00  0.00    -0.293 OA
HETATM   12  C24 UNL     1     -10.152  46.012 -34.870  1.00  0.00     0.084 C 
HETATM   13  C25 UNL     1      -9.101  44.914 -34.911  1.00  0.00     0.022 C 
HETATM   14  C26 UNL     1      -9.081  44.002 -33.649  1.00  0.00    -0.016 C 
HETATM   15  C27 UNL     1      -8.418  42.676 -34.121  1.00  0.00     0.020 C 
HETATM   16  C28 UNL     1      -8.238  44.541 -32.417  1.00  0.00     0.002 C 
HETATM   17  C29 UNL     1      -7.421  45.835 -32.655  1.00  0.00     0.007 C 
HETATM   18  C30 UNL     1      -6.614  46.287 -31.422  1.00  0.00     0.012 C 
HETATM   19  C31 UNL     1      -7.496  46.383 -30.171  1.00  0.00    -0.013 C 
HETATM   20  C32 UNL     1      -8.491  47.562 -30.332  1.00  0.00     0.018 C 
ENDROOT
BRANCH   1  21
HETATM   21  O2  UNL     1      -6.314  47.860 -28.596  1.00  0.00    -0.315 OA
BRANCH  21  22
HETATM   22  C13 UNL     1      -5.113  48.007 -27.972  1.00  0.00     0.259 C 
HETATM   23  O1  UNL     1      -4.031  48.108 -28.532  1.00  0.00    -0.265 OA
BRANCH  22  24
HETATM   24  C12 UNL     1      -5.300  48.005 -26.474  1.00  0.00     0.111 C 
BRANCH  24  25
HETATM   25  C11 UNL     1      -4.113  48.634 -25.749  1.00  0.00     0.010 C 
BRANCH  25  26
HETATM   26  C10 UNL     1      -2.956  49.055 -26.663  1.00  0.00     0.000 C 
BRANCH  26  27
HETATM   27  C9  UNL     1      -2.540  50.528 -26.571  1.00  0.00     0.000 C 
BRANCH  27  28
HETATM   28  C8  UNL     1      -1.722  51.062 -27.752  1.00  0.00     0.000 C 
BRANCH  28  29
HETATM   29  C7  UNL     1      -0.406  51.755 -27.386  1.00  0.00     0.000 C 
BRANCH  29  30
HETATM   30  C6  UNL     1       0.328  51.081 -26.224  1.00  0.00     0.000 C 
BRANCH  30  31
HETATM   31  C5  UNL     1       1.341  52.001 -25.534  1.00  0.00     0.000 C 
BRANCH  31  32
HETATM   32  C4  UNL     1       0.684  53.051 -24.634  1.00  0.00     0.000 C 
BRANCH  32  33
HETATM   33  C3  UNL     1      -0.597  52.509 -23.994  1.00  0.00    -0.000 C 
BRANCH  33  34
HETATM   34  C2  UNL     1      -0.352  51.797 -22.660  1.00  0.00    -0.005 C 
HETATM   35  C1  UNL     1      -1.623  51.554 -21.862  1.00  0.00     0.005 C 
ENDBRANCH  33  34
ENDBRANCH  32  33
ENDBRANCH  31  32
ENDBRANCH  30  31
ENDBRANCH  29  30
ENDBRANCH  28  29
ENDBRANCH  27  28
ENDBRANCH  26  27
ENDBRANCH  25  26
ENDBRANCH  24  25
ENDBRANCH  22  24
ENDBRANCH  21  22
ENDBRANCH   1  21
TORSDOF 13
ENDMDL
