MODEL 1
REMARK minimizedAffinity -8.07219982
REMARK CNNscore 0.765765667
REMARK CNNaffinity 7.24218512
REMARK  5 active torsions:
REMARK  status: ('A' for Active; 'I' for Inactive)
REMARK    1  A    between atoms: C2_2  and  C3_3 
REMARK    2  A    between atoms: C4_5  and  C5_6 
REMARK    3  A    between atoms: C5_6  and  C6_7 
REMARK    4  A    between atoms: C6_7  and  C7_8 
REMARK    5  A    between atoms: C7_8  and  C9_10 
ROOT
HETATM    1  C9  UNL     1      -0.869  11.317  18.240  1.00  0.00    -0.002 C 
HETATM    2  C10 UNL     1      -2.315  11.820  18.461  1.00  0.00     0.007 C 
HETATM    3  C11 UNL     1      -3.199  11.094  17.419  1.00  0.00     0.015 C 
HETATM    4  C12 UNL     1      -2.324   9.941  16.878  1.00  0.00    -0.005 C 
HETATM    5  C13 UNL     1      -2.441   8.760  17.891  1.00  0.00     0.021 C 
HETATM    6  C14 UNL     1      -2.607   9.303  15.526  1.00  0.00    -0.000 C 
HETATM    7  C15 UNL     1      -1.613   8.765  14.771  1.00  0.00    -0.060 C 
HETATM    8  C16 UNL     1      -0.142   8.876  15.221  1.00  0.00     0.036 C 
HETATM    9  C17 UNL     1       0.151   9.628  16.536  1.00  0.00     0.015 C 
HETATM   10  C18 UNL     1      -0.926  10.675  16.827  1.00  0.00    -0.028 C 
HETATM   11  C19 UNL     1      -0.870  11.761  15.711  1.00  0.00     0.016 C 
HETATM   12  C20 UNL     1      -1.858   8.055  13.417  1.00  0.00    -0.014 C 
HETATM   13  C21 UNL     1      -1.394   9.027  12.296  1.00  0.00     0.020 C 
HETATM   14  C22 UNL     1      -1.003   6.756  13.314  1.00  0.00     0.021 C 
HETATM   15  C23 UNL     1      -1.602   5.723  12.377  1.00  0.00     0.080 C 
HETATM   16  C24 UNL     1      -2.914   5.240  12.949  1.00  0.00     0.135 C 
HETATM   17  O2  UNL     1      -3.229   4.052  12.853  1.00  0.00    -0.297 OA
HETATM   18  C25 UNL     1      -3.824   6.281  13.629  1.00  0.00     0.018 C 
HETATM   19  C26 UNL     1      -5.268   5.984  13.161  1.00  0.00     0.023 C 
HETATM   20  C27 UNL     1      -3.759   6.042  15.144  1.00  0.00     0.023 C 
HETATM   21  C28 UNL     1      -3.376   7.714  13.160  1.00  0.00     0.020 C 
HETATM   22  C29 UNL     1      -4.273   8.866  13.622  1.00  0.00     0.090 C 
HETATM   23  C30 UNL     1      -4.023   9.246  15.053  1.00  0.00     0.157 C 
HETATM   24  O3  UNL     1      -4.958   9.540  15.794  1.00  0.00    -0.293 OA
ENDROOT
BRANCH   1  25
HETATM   25  C7  UNL     1       0.300  12.240  18.677  1.00  0.00    -0.014 C 
HETATM   26  C8  UNL     1       1.471  12.089  17.685  1.00  0.00     0.010 C 
BRANCH  25  27
HETATM   27  C6  UNL     1       0.845  12.229  20.121  1.00  0.00     0.008 C 
BRANCH  27  28
HETATM   28  C5  UNL     1       2.198  11.559  20.369  1.00  0.00     0.028 C 
BRANCH  28  29
HETATM   29  C4  UNL     1       2.026  10.282  21.147  1.00  0.00    -0.017 C 
HETATM   30  C2  UNL     1       2.752   9.864  22.200  1.00  0.00    -0.028 C 
HETATM   31  C1  UNL     1       3.875  10.592  22.868  1.00  0.00     0.051 C 
BRANCH  30  32
HETATM   32  C3  UNL     1       2.407   8.541  22.804  1.00  0.00     0.265 C 
HETATM   33  O1  UNL     1       1.668   7.718  22.278  1.00  0.00    -0.302 OA
ENDBRANCH  30  32
ENDBRANCH  28  29
ENDBRANCH  27  28
ENDBRANCH  25  27
ENDBRANCH   1  25
TORSDOF 5
ENDMDL
MODEL 2
REMARK minimizedAffinity -6.79718685
REMARK CNNscore 0.599677324
REMARK CNNaffinity 6.67572927
REMARK  5 active torsions:
REMARK  status: ('A' for Active; 'I' for Inactive)
REMARK    1  A    between atoms: C2_2  and  C3_3 
REMARK    2  A    between atoms: C4_5  and  C5_6 
REMARK    3  A    between atoms: C5_6  and  C6_7 
REMARK    4  A    between atoms: C6_7  and  C7_8 
REMARK    5  A    between atoms: C7_8  and  C9_10 
ROOT
HETATM    1  C9  UNL     1       0.624  12.423  18.920  1.00  0.00    -0.002 C 
HETATM    2  C10 UNL     1      -0.603  13.286  18.542  1.00  0.00     0.007 C 
HETATM    3  C11 UNL     1      -1.260  12.605  17.317  1.00  0.00     0.015 C 
HETATM    4  C12 UNL     1      -0.626  11.198  17.246  1.00  0.00    -0.005 C 
HETATM    5  C13 UNL     1      -1.408  10.290  18.247  1.00  0.00     0.021 C 
HETATM    6  C14 UNL     1      -0.615  10.402  15.949  1.00  0.00    -0.000 C 
HETATM    7  C15 UNL     1       0.373   9.512  15.669  1.00  0.00    -0.060 C 
HETATM    8  C16 UNL     1       1.577   9.356  16.620  1.00  0.00     0.036 C 
HETATM    9  C17 UNL     1       1.620  10.251  17.876  1.00  0.00     0.015 C 
HETATM   10  C18 UNL     1       0.858  11.558  17.651  1.00  0.00    -0.028 C 
HETATM   11  C19 UNL     1       1.591  12.370  16.541  1.00  0.00     0.016 C 
HETATM   12  C20 UNL     1       0.399   8.638  14.391  1.00  0.00    -0.014 C 
HETATM   13  C21 UNL     1       1.468   9.245  13.439  1.00  0.00     0.020 C 
HETATM   14  C22 UNL     1       0.827   7.179  14.731  1.00  0.00     0.021 C 
HETATM   15  C23 UNL     1       0.302   6.159  13.737  1.00  0.00     0.080 C 
HETATM   16  C24 UNL     1      -1.206   6.115  13.822  1.00  0.00     0.135 C 
HETATM   17  O2  UNL     1      -1.799   5.039  13.725  1.00  0.00    -0.297 OA
HETATM   18  C25 UNL     1      -1.949   7.451  14.019  1.00  0.00     0.018 C 
HETATM   19  C26 UNL     1      -3.176   7.420  13.079  1.00  0.00     0.023 C 
HETATM   20  C27 UNL     1      -2.462   7.493  15.466  1.00  0.00     0.023 C 
HETATM   21  C28 UNL     1      -0.978   8.623  13.622  1.00  0.00     0.020 C 
HETATM   22  C29 UNL     1      -1.606  10.020  13.612  1.00  0.00     0.090 C 
HETATM   23  C30 UNL     1      -1.747  10.593  14.993  1.00  0.00     0.157 C 
HETATM   24  O3  UNL     1      -2.748  11.233  15.304  1.00  0.00    -0.293 OA
ENDROOT
BRANCH   1  25
HETATM   25  C7  UNL     1       1.796  13.110  19.673  1.00  0.00    -0.014 C 
HETATM   26  C8  UNL     1       2.979  13.313  18.705  1.00  0.00     0.010 C 
BRANCH  25  27
HETATM   27  C6  UNL     1       2.320  12.568  21.020  1.00  0.00     0.008 C 
BRANCH  27  28
HETATM   28  C5  UNL     1       3.524  11.624  20.990  1.00  0.00     0.028 C 
BRANCH  28  29
HETATM   29  C4  UNL     1       3.103  10.215  21.309  1.00  0.00    -0.017 C 
HETATM   30  C2  UNL     1       2.893   9.681  22.526  1.00  0.00    -0.028 C 
HETATM   31  C1  UNL     1       2.990  10.378  23.846  1.00  0.00     0.051 C 
BRANCH  30  32
HETATM   32  C3  UNL     1       2.496   8.241  22.598  1.00  0.00     0.265 C 
HETATM   33  O1  UNL     1       1.348   7.839  22.467  1.00  0.00    -0.302 OA
ENDBRANCH  30  32
ENDBRANCH  28  29
ENDBRANCH  27  28
ENDBRANCH  25  27
ENDBRANCH   1  25
TORSDOF 5
ENDMDL
MODEL 3
REMARK minimizedAffinity -8.27297783
REMARK CNNscore 0.458402365
REMARK CNNaffinity 6.97650909
REMARK  5 active torsions:
REMARK  status: ('A' for Active; 'I' for Inactive)
REMARK    1  A    between atoms: C2_2  and  C3_3 
REMARK    2  A    between atoms: C4_5  and  C5_6 
REMARK    3  A    between atoms: C5_6  and  C6_7 
REMARK    4  A    between atoms: C6_7  and  C7_8 
REMARK    5  A    between atoms: C7_8  and  C9_10 
ROOT
HETATM    1  C9  UNL     1      -6.260   7.200  14.396  1.00  0.00    -0.002 C 
HETATM    2  C10 UNL     1      -6.001   8.512  15.174  1.00  0.00     0.007 C 
HETATM    3  C11 UNL     1      -4.493   8.825  15.021  1.00  0.00     0.015 C 
HETATM    4  C12 UNL     1      -4.002   7.908  13.878  1.00  0.00    -0.005 C 
HETATM    5  C13 UNL     1      -4.350   8.620  12.534  1.00  0.00     0.021 C 
HETATM    6  C14 UNL     1      -2.532   7.541  13.738  1.00  0.00    -0.000 C 
HETATM    7  C15 UNL     1      -2.143   6.358  13.192  1.00  0.00    -0.060 C 
HETATM    8  C16 UNL     1      -3.191   5.301  12.790  1.00  0.00     0.036 C 
HETATM    9  C17 UNL     1      -4.677   5.630  13.044  1.00  0.00     0.015 C 
HETATM   10  C18 UNL     1      -4.836   6.607  14.210  1.00  0.00    -0.028 C 
HETATM   11  C19 UNL     1      -4.342   5.905  15.510  1.00  0.00     0.016 C 
HETATM   12  C20 UNL     1      -0.661   5.963  12.976  1.00  0.00    -0.014 C 
HETATM   13  C21 UNL     1      -0.298   4.917  14.067  1.00  0.00     0.020 C 
HETATM   14  C22 UNL     1      -0.469   5.295  11.582  1.00  0.00     0.021 C 
HETATM   15  C23 UNL     1       0.942   5.443  11.042  1.00  0.00     0.080 C 
HETATM   16  C24 UNL     1       1.219   6.904  10.775  1.00  0.00     0.135 C 
HETATM   17  O2  UNL     1       1.871   7.238   9.785  1.00  0.00    -0.297 OA
HETATM   18  C25 UNL     1       0.669   7.931  11.785  1.00  0.00     0.018 C 
HETATM   19  C26 UNL     1       1.788   8.973  12.014  1.00  0.00     0.023 C 
HETATM   20  C27 UNL     1      -0.518   8.648  11.125  1.00  0.00     0.023 C 
HETATM   21  C28 UNL     1       0.333   7.178  13.125  1.00  0.00     0.020 C 
HETATM   22  C29 UNL     1      -0.084   8.076  14.294  1.00  0.00     0.090 C 
HETATM   23  C30 UNL     1      -1.510   8.534  14.183  1.00  0.00     0.157 C 
HETATM   24  O3  UNL     1      -1.822   9.682  14.491  1.00  0.00    -0.293 OA
ENDROOT
BRANCH   1  25
HETATM   25  C7  UNL     1      -7.465   6.321  14.826  1.00  0.00    -0.014 C 
HETATM   26  C8  UNL     1      -7.160   4.842  14.513  1.00  0.00     0.010 C 
BRANCH  25  27
HETATM   27  C6  UNL     1      -8.907   6.654  14.385  1.00  0.00     0.008 C 
BRANCH  27  28
HETATM   28  C5  UNL     1      -9.714   7.622  15.253  1.00  0.00     0.028 C 
BRANCH  28  29
HETATM   29  C4  UNL     1     -10.658   8.434  14.407  1.00  0.00    -0.017 C 
HETATM   30  C2  UNL     1     -11.852   8.049  13.920  1.00  0.00    -0.028 C 
HETATM   31  C1  UNL     1     -12.536   6.737  14.140  1.00  0.00     0.051 C 
BRANCH  30  32
HETATM   32  C3  UNL     1     -12.612   9.027  13.081  1.00  0.00     0.265 C 
HETATM   33  O1  UNL     1     -12.291   9.351  11.945  1.00  0.00    -0.302 OA
ENDBRANCH  30  32
ENDBRANCH  28  29
ENDBRANCH  27  28
ENDBRANCH  25  27
ENDBRANCH   1  25
TORSDOF 5
ENDMDL
MODEL 4
REMARK minimizedAffinity -8.80089569
REMARK CNNscore 0.406268686
REMARK CNNaffinity 7.03929329
REMARK  5 active torsions:
REMARK  status: ('A' for Active; 'I' for Inactive)
REMARK    1  A    between atoms: C2_2  and  C3_3 
REMARK    2  A    between atoms: C4_5  and  C5_6 
REMARK    3  A    between atoms: C5_6  and  C6_7 
REMARK    4  A    between atoms: C6_7  and  C7_8 
REMARK    5  A    between atoms: C7_8  and  C9_10 
ROOT
HETATM    1  C9  UNL     1      -5.931   7.482  14.635  1.00  0.00    -0.002 C 
HETATM    2  C10 UNL     1      -5.579   8.784  15.391  1.00  0.00     0.007 C 
HETATM    3  C11 UNL     1      -4.068   9.031  15.163  1.00  0.00     0.015 C 
HETATM    4  C12 UNL     1      -3.672   8.089  14.005  1.00  0.00    -0.005 C 
HETATM    5  C13 UNL     1      -4.054   8.810  12.674  1.00  0.00     0.021 C 
HETATM    6  C14 UNL     1      -2.228   7.658  13.797  1.00  0.00    -0.000 C 
HETATM    7  C15 UNL     1      -1.917   6.457  13.241  1.00  0.00    -0.060 C 
HETATM    8  C16 UNL     1      -3.027   5.444  12.896  1.00  0.00     0.036 C 
HETATM    9  C17 UNL     1      -4.483   5.839  13.219  1.00  0.00     0.015 C 
HETATM   10  C18 UNL     1      -4.545   6.827  14.385  1.00  0.00    -0.028 C 
HETATM   11  C19 UNL     1      -4.019   6.110  15.664  1.00  0.00     0.016 C 
HETATM   12  C20 UNL     1      -0.465   5.998  12.957  1.00  0.00    -0.014 C 
HETATM   13  C21 UNL     1      -0.095   4.942  14.037  1.00  0.00     0.020 C 
HETATM   14  C22 UNL     1      -0.369   5.316  11.560  1.00  0.00     0.021 C 
HETATM   15  C23 UNL     1       1.020   5.400  10.952  1.00  0.00     0.080 C 
HETATM   16  C24 UNL     1       1.345   6.847  10.663  1.00  0.00     0.135 C 
HETATM   17  O2  UNL     1       1.963   7.148   9.640  1.00  0.00    -0.297 OA
HETATM   18  C25 UNL     1       0.890   7.901  11.691  1.00  0.00     0.018 C 
HETATM   19  C26 UNL     1       2.062   8.895  11.859  1.00  0.00     0.023 C 
HETATM   20  C27 UNL     1      -0.296   8.665  11.084  1.00  0.00     0.023 C 
HETATM   21  C28 UNL     1       0.586   7.170  13.050  1.00  0.00     0.020 C 
HETATM   22  C29 UNL     1       0.265   8.090  14.232  1.00  0.00     0.090 C 
HETATM   23  C30 UNL     1      -1.144   8.609  14.186  1.00  0.00     0.157 C 
HETATM   24  O3  UNL     1      -1.392   9.770  14.501  1.00  0.00    -0.293 OA
ENDROOT
BRANCH   1  25
HETATM   25  C7  UNL     1      -7.151   6.657  15.127  1.00  0.00    -0.014 C 
HETATM   26  C8  UNL     1      -7.399   6.950  16.621  1.00  0.00     0.010 C 
BRANCH  25  27
HETATM   27  C6  UNL     1      -7.256   5.138  14.876  1.00  0.00     0.008 C 
BRANCH  27  28
HETATM   28  C5  UNL     1      -7.918   4.673  13.577  1.00  0.00     0.028 C 
BRANCH  28  29
HETATM   29  C4  UNL     1      -6.880   4.250  12.573  1.00  0.00    -0.017 C 
HETATM   30  C2  UNL     1      -6.608   2.999  12.158  1.00  0.00    -0.028 C 
HETATM   31  C1  UNL     1      -7.303   1.741  12.570  1.00  0.00     0.051 C 
BRANCH  30  32
HETATM   32  C3  UNL     1      -5.510   2.819  11.158  1.00  0.00     0.265 C 
HETATM   33  O1  UNL     1      -5.638   3.012   9.956  1.00  0.00    -0.302 OA
ENDBRANCH  30  32
ENDBRANCH  28  29
ENDBRANCH  27  28
ENDBRANCH  25  27
ENDBRANCH   1  25
TORSDOF 5
ENDMDL
MODEL 5
REMARK minimizedAffinity -7.58540726
REMARK CNNscore 0.351038337
REMARK CNNaffinity 7.07108068
REMARK  5 active torsions:
REMARK  status: ('A' for Active; 'I' for Inactive)
REMARK    1  A    between atoms: C2_2  and  C3_3 
REMARK    2  A    between atoms: C4_5  and  C5_6 
REMARK    3  A    between atoms: C5_6  and  C6_7 
REMARK    4  A    between atoms: C6_7  and  C7_8 
REMARK    5  A    between atoms: C7_8  and  C9_10 
ROOT
HETATM    1  C9  UNL     1      -8.233   7.241  14.559  1.00  0.00    -0.002 C 
HETATM    2  C10 UNL     1      -7.645   7.800  15.875  1.00  0.00     0.007 C 
HETATM    3  C11 UNL     1      -6.148   7.407  15.892  1.00  0.00     0.015 C 
HETATM    4  C12 UNL     1      -5.830   6.960  14.447  1.00  0.00    -0.005 C 
HETATM    5  C13 UNL     1      -5.545   8.251  13.619  1.00  0.00     0.021 C 
HETATM    6  C14 UNL     1      -4.646   6.052  14.145  1.00  0.00    -0.000 C 
HETATM    7  C15 UNL     1      -4.662   5.191  13.093  1.00  0.00    -0.060 C 
HETATM    8  C16 UNL     1      -5.929   5.034  12.229  1.00  0.00     0.036 C 
HETATM    9  C17 UNL     1      -7.167   5.871  12.613  1.00  0.00     0.015 C 
HETATM   10  C18 UNL     1      -7.172   6.200  14.107  1.00  0.00    -0.028 C 
HETATM   11  C19 UNL     1      -7.314   4.867  14.902  1.00  0.00     0.016 C 
HETATM   12  C20 UNL     1      -3.462   4.289  12.711  1.00  0.00    -0.014 C 
HETATM   13  C21 UNL     1      -3.813   2.841  13.157  1.00  0.00     0.020 C 
HETATM   14  C22 UNL     1      -3.250   4.281  11.168  1.00  0.00     0.021 C 
HETATM   15  C23 UNL     1      -1.819   3.971  10.766  1.00  0.00     0.080 C 
HETATM   16  C24 UNL     1      -0.920   5.088  11.242  1.00  0.00     0.135 C 
HETATM   17  O2  UNL     1       0.017   5.468  10.538  1.00  0.00    -0.297 OA
HETATM   18  C25 UNL     1      -1.215   5.703  12.624  1.00  0.00     0.018 C 
HETATM   19  C26 UNL     1       0.148   5.890  13.329  1.00  0.00     0.023 C 
HETATM   20  C27 UNL     1      -1.825   7.094  12.396  1.00  0.00     0.023 C 
HETATM   21  C28 UNL     1      -2.121   4.702  13.430  1.00  0.00     0.020 C 
HETATM   22  C29 UNL     1      -2.387   5.087  14.888  1.00  0.00     0.090 C 
HETATM   23  C30 UNL     1      -3.437   6.153  15.015  1.00  0.00     0.157 C 
HETATM   24  O3  UNL     1      -3.316   7.054  15.841  1.00  0.00    -0.293 OA
ENDROOT
BRANCH   1  25
HETATM   25  C7  UNL     1      -9.755   6.938  14.509  1.00  0.00    -0.014 C 
HETATM   26  C8  UNL     1     -10.153   6.541  13.073  1.00  0.00     0.010 C 
BRANCH  25  27
HETATM   27  C6  UNL     1     -10.796   7.926  15.077  1.00  0.00     0.008 C 
BRANCH  27  28
HETATM   28  C5  UNL     1     -10.706   9.389  14.637  1.00  0.00     0.028 C 
BRANCH  28  29
HETATM   29  C4  UNL     1     -11.758   9.699  13.606  1.00  0.00    -0.017 C 
HETATM   30  C2  UNL     1     -12.916  10.359  13.794  1.00  0.00    -0.028 C 
HETATM   31  C1  UNL     1     -13.407  10.973  15.066  1.00  0.00     0.051 C 
BRANCH  30  32
HETATM   32  C3  UNL     1     -13.820  10.532  12.616  1.00  0.00     0.265 C 
HETATM   33  O1  UNL     1     -14.114   9.634  11.838  1.00  0.00    -0.302 OA
ENDBRANCH  30  32
ENDBRANCH  28  29
ENDBRANCH  27  28
ENDBRANCH  25  27
ENDBRANCH   1  25
TORSDOF 5
ENDMDL
MODEL 6
REMARK minimizedAffinity -6.62370634
REMARK CNNscore 0.340758204
REMARK CNNaffinity 6.36486673
REMARK  5 active torsions:
REMARK  status: ('A' for Active; 'I' for Inactive)
REMARK    1  A    between atoms: C2_2  and  C3_3 
REMARK    2  A    between atoms: C4_5  and  C5_6 
REMARK    3  A    between atoms: C5_6  and  C6_7 
REMARK    4  A    between atoms: C6_7  and  C7_8 
REMARK    5  A    between atoms: C7_8  and  C9_10 
ROOT
HETATM    1  C9  UNL     1      -2.908   8.837  14.692  1.00  0.00    -0.002 C 
HETATM    2  C10 UNL     1      -4.212   9.663  14.788  1.00  0.00     0.007 C 
HETATM    3  C11 UNL     1      -3.902  10.871  15.704  1.00  0.00     0.015 C 
HETATM    4  C12 UNL     1      -2.362  10.912  15.815  1.00  0.00    -0.005 C 
HETATM    5  C13 UNL     1      -1.829  11.656  14.551  1.00  0.00     0.021 C 
HETATM    6  C14 UNL     1      -1.673  11.611  16.979  1.00  0.00    -0.000 C 
HETATM    7  C15 UNL     1      -0.463  11.198  17.440  1.00  0.00    -0.060 C 
HETATM    8  C16 UNL     1       0.206   9.936  16.860  1.00  0.00     0.036 C 
HETATM    9  C17 UNL     1      -0.552   9.163  15.761  1.00  0.00     0.015 C 
HETATM   10  C18 UNL     1      -2.063   9.362  15.885  1.00  0.00    -0.028 C 
HETATM   11  C19 UNL     1      -2.533   8.731  17.231  1.00  0.00     0.016 C 
HETATM   12  C20 UNL     1       0.303  11.910  18.582  1.00  0.00    -0.014 C 
HETATM   13  C21 UNL     1       0.164  11.025  19.853  1.00  0.00     0.020 C 
HETATM   14  C22 UNL     1       1.818  12.026  18.238  1.00  0.00     0.021 C 
HETATM   15  C23 UNL     1       2.499  13.188  18.939  1.00  0.00     0.080 C 
HETATM   16  C24 UNL     1       1.917  14.485  18.425  1.00  0.00     0.135 C 
HETATM   17  O2  UNL     1       2.648  15.461  18.246  1.00  0.00    -0.297 OA
HETATM   18  C25 UNL     1       0.400  14.530  18.156  1.00  0.00     0.018 C 
HETATM   19  C26 UNL     1      -0.108  15.885  18.701  1.00  0.00     0.023 C 
HETATM   20  C27 UNL     1       0.195  14.526  16.634  1.00  0.00     0.023 C 
HETATM   21  C28 UNL     1      -0.276  13.336  18.924  1.00  0.00     0.020 C 
HETATM   22  C29 UNL     1      -1.807  13.319  18.890  1.00  0.00     0.090 C 
HETATM   23  C30 UNL     1      -2.344  12.797  17.588  1.00  0.00     0.157 C 
HETATM   24  O3  UNL     1      -3.331  13.312  17.069  1.00  0.00    -0.293 OA
ENDROOT
BRANCH   1  25
HETATM   25  C7  UNL     1      -3.025   7.322  14.373  1.00  0.00    -0.014 C 
HETATM   26  C8  UNL     1      -2.555   7.064  12.927  1.00  0.00     0.010 C 
BRANCH  25  27
HETATM   27  C6  UNL     1      -4.327   6.537  14.638  1.00  0.00     0.008 C 
BRANCH  27  28
HETATM   28  C5  UNL     1      -5.338   6.423  13.495  1.00  0.00     0.028 C 
BRANCH  28  29
HETATM   29  C4  UNL     1      -5.774   4.995  13.310  1.00  0.00    -0.017 C 
HETATM   30  C2  UNL     1      -6.982   4.556  12.911  1.00  0.00    -0.028 C 
HETATM   31  C1  UNL     1      -8.161   5.389  12.519  1.00  0.00     0.051 C 
BRANCH  30  32
HETATM   32  C3  UNL     1      -7.192   3.078  12.819  1.00  0.00     0.265 C 
HETATM   33  O1  UNL     1      -8.288   2.536  12.873  1.00  0.00    -0.302 OA
ENDBRANCH  30  32
ENDBRANCH  28  29
ENDBRANCH  27  28
ENDBRANCH  25  27
ENDBRANCH   1  25
TORSDOF 5
ENDMDL
MODEL 7
REMARK minimizedAffinity -6.37512636
REMARK CNNscore 0.312874824
REMARK CNNaffinity 6.19702339
REMARK  5 active torsions:
REMARK  status: ('A' for Active; 'I' for Inactive)
REMARK    1  A    between atoms: C2_2  and  C3_3 
REMARK    2  A    between atoms: C4_5  and  C5_6 
REMARK    3  A    between atoms: C5_6  and  C6_7 
REMARK    4  A    between atoms: C6_7  and  C7_8 
REMARK    5  A    between atoms: C7_8  and  C9_10 
ROOT
HETATM    1  C9  UNL     1      -0.544  10.343  17.651  1.00  0.00    -0.002 C 
HETATM    2  C10 UNL     1      -2.041  10.571  17.337  1.00  0.00     0.007 C 
HETATM    3  C11 UNL     1      -2.319   9.873  15.984  1.00  0.00     0.015 C 
HETATM    4  C12 UNL     1      -1.094   8.965  15.737  1.00  0.00    -0.005 C 
HETATM    5  C13 UNL     1      -1.329   7.646  16.536  1.00  0.00     0.021 C 
HETATM    6  C14 UNL     1      -0.731   8.494  14.336  1.00  0.00    -0.000 C 
HETATM    7  C15 UNL     1       0.556   8.237  13.983  1.00  0.00    -0.060 C 
HETATM    8  C16 UNL     1       1.708   8.515  14.970  1.00  0.00     0.036 C 
HETATM    9  C17 UNL     1       1.345   9.104  16.349  1.00  0.00     0.015 C 
HETATM   10  C18 UNL     1       0.048   9.913  16.281  1.00  0.00    -0.028 C 
HETATM   11  C19 UNL     1       0.284  11.144  15.356  1.00  0.00     0.016 C 
HETATM   12  C20 UNL     1       0.969   7.702  12.589  1.00  0.00    -0.014 C 
HETATM   13  C21 UNL     1       1.600   8.889  11.808  1.00  0.00     0.020 C 
HETATM   14  C22 UNL     1       2.046   6.585  12.727  1.00  0.00     0.021 C 
HETATM   15  C23 UNL     1       2.051   5.617  11.557  1.00  0.00     0.080 C 
HETATM   16  C24 UNL     1       0.748   4.853  11.543  1.00  0.00     0.135 C 
HETATM   17  O2  UNL     1       0.737   3.657  11.246  1.00  0.00    -0.297 OA
HETATM   18  C25 UNL     1      -0.538   5.626  11.897  1.00  0.00     0.018 C 
HETATM   19  C26 UNL     1      -1.621   5.174  10.891  1.00  0.00     0.023 C 
HETATM   20  C27 UNL     1      -0.980   5.182  13.300  1.00  0.00     0.023 C 
HETATM   21  C28 UNL     1      -0.250   7.165  11.745  1.00  0.00     0.020 C 
HETATM   22  C29 UNL     1      -1.467   8.079  11.912  1.00  0.00     0.090 C 
HETATM   23  C30 UNL     1      -1.836   8.282  13.353  1.00  0.00     0.157 C 
HETATM   24  O3  UNL     1      -3.015   8.312  13.698  1.00  0.00    -0.293 OA
ENDROOT
BRANCH   1  25
HETATM   25  C7  UNL     1       0.174  11.367  18.571  1.00  0.00    -0.014 C 
HETATM   26  C8  UNL     1      -0.734  12.596  18.778  1.00  0.00     0.010 C 
BRANCH  25  27
HETATM   27  C6  UNL     1       1.618  11.835  18.288  1.00  0.00     0.008 C 
BRANCH  27  28
HETATM   28  C5  UNL     1       2.763  11.040  18.919  1.00  0.00     0.028 C 
BRANCH  28  29
HETATM   29  C4  UNL     1       2.267  10.227  20.084  1.00  0.00    -0.017 C 
HETATM   30  C2  UNL     1       2.939   9.921  21.210  1.00  0.00    -0.028 C 
HETATM   31  C1  UNL     1       4.321  10.354  21.582  1.00  0.00     0.051 C 
BRANCH  30  32
HETATM   32  C3  UNL     1       2.243   9.077  22.230  1.00  0.00     0.265 C 
HETATM   33  O1  UNL     1       2.741   8.094  22.762  1.00  0.00    -0.302 OA
ENDBRANCH  30  32
ENDBRANCH  28  29
ENDBRANCH  27  28
ENDBRANCH  25  27
ENDBRANCH   1  25
TORSDOF 5
ENDMDL
MODEL 8
REMARK minimizedAffinity -6.50849628
REMARK CNNscore 0.279812485
REMARK CNNaffinity 6.48331261
REMARK  5 active torsions:
REMARK  status: ('A' for Active; 'I' for Inactive)
REMARK    1  A    between atoms: C2_2  and  C3_3 
REMARK    2  A    between atoms: C4_5  and  C5_6 
REMARK    3  A    between atoms: C5_6  and  C6_7 
REMARK    4  A    between atoms: C6_7  and  C7_8 
REMARK    5  A    between atoms: C7_8  and  C9_10 
ROOT
HETATM    1  C9  UNL     1      -9.791   7.510  14.430  1.00  0.00    -0.002 C 
HETATM    2  C10 UNL     1     -11.160   6.790  14.411  1.00  0.00     0.007 C 
HETATM    3  C11 UNL     1     -12.210   7.827  14.878  1.00  0.00     0.015 C 
HETATM    4  C12 UNL     1     -11.492   9.193  14.802  1.00  0.00    -0.005 C 
HETATM    5  C13 UNL     1     -11.580   9.678  13.322  1.00  0.00     0.021 C 
HETATM    6  C14 UNL     1     -11.976  10.385  15.616  1.00  0.00    -0.000 C 
HETATM    7  C15 UNL     1     -11.118  11.347  16.046  1.00  0.00    -0.060 C 
HETATM    8  C16 UNL     1      -9.601  11.207  15.807  1.00  0.00     0.036 C 
HETATM    9  C17 UNL     1      -9.103   9.938  15.085  1.00  0.00     0.015 C 
HETATM   10  C18 UNL     1     -10.058   8.763  15.307  1.00  0.00    -0.028 C 
HETATM   11  C19 UNL     1     -10.049   8.404  16.824  1.00  0.00     0.016 C 
HETATM   12  C20 UNL     1     -11.570  12.606  16.827  1.00  0.00    -0.014 C 
HETATM   13  C21 UNL     1     -11.166  12.396  18.314  1.00  0.00     0.020 C 
HETATM   14  C22 UNL     1     -10.833  13.873  16.300  1.00  0.00     0.021 C 
HETATM   15  C23 UNL     1     -11.611  15.155  16.536  1.00  0.00     0.080 C 
HETATM   16  C24 UNL     1     -12.882  15.119  15.719  1.00  0.00     0.135 C 
HETATM   17  O2  UNL     1     -13.294  16.144  15.173  1.00  0.00    -0.297 OA
HETATM   18  C25 UNL     1     -13.627  13.773  15.617  1.00  0.00     0.018 C 
HETATM   19  C26 UNL     1     -15.133  14.085  15.777  1.00  0.00     0.023 C 
HETATM   20  C27 UNL     1     -13.406  13.223  14.200  1.00  0.00     0.023 C 
HETATM   21  C28 UNL     1     -13.129  12.840  16.780  1.00  0.00     0.020 C 
HETATM   22  C29 UNL     1     -13.878  11.511  16.921  1.00  0.00     0.090 C 
HETATM   23  C30 UNL     1     -13.437  10.496  15.906  1.00  0.00     0.157 C 
HETATM   24  O3  UNL     1     -14.256   9.757  15.366  1.00  0.00    -0.293 OA
ENDROOT
BRANCH   1  25
HETATM   25  C7  UNL     1      -8.513   6.645  14.600  1.00  0.00    -0.014 C 
HETATM   26  C8  UNL     1      -7.275   7.562  14.650  1.00  0.00     0.010 C 
BRANCH  25  27
HETATM   27  C6  UNL     1      -8.223   5.438  13.681  1.00  0.00     0.008 C 
BRANCH  27  28
HETATM   28  C5  UNL     1      -7.077   4.503  14.071  1.00  0.00     0.028 C 
BRANCH  28  29
HETATM   29  C4  UNL     1      -6.587   3.734  12.873  1.00  0.00    -0.017 C 
HETATM   30  C2  UNL     1      -5.326   3.666  12.407  1.00  0.00    -0.028 C 
HETATM   31  C1  UNL     1      -4.110   4.307  12.997  1.00  0.00     0.051 C 
BRANCH  30  32
HETATM   32  C3  UNL     1      -5.080   2.848  11.179  1.00  0.00     0.265 C 
HETATM   33  O1  UNL     1      -5.521   3.124  10.071  1.00  0.00    -0.302 OA
ENDBRANCH  30  32
ENDBRANCH  28  29
ENDBRANCH  27  28
ENDBRANCH  25  27
ENDBRANCH   1  25
TORSDOF 5
ENDMDL
MODEL 9
REMARK minimizedAffinity -6.2730298
REMARK CNNscore 0.265351117
REMARK CNNaffinity 6.1422677
REMARK  5 active torsions:
REMARK  status: ('A' for Active; 'I' for Inactive)
REMARK    1  A    between atoms: C2_2  and  C3_3 
REMARK    2  A    between atoms: C4_5  and  C5_6 
REMARK    3  A    between atoms: C5_6  and  C6_7 
REMARK    4  A    between atoms: C6_7  and  C7_8 
REMARK    5  A    between atoms: C7_8  and  C9_10 
ROOT
HETATM    1  C9  UNL     1     -15.313   7.198  22.852  1.00  0.00    -0.002 C 
HETATM    2  C10 UNL     1     -16.716   7.457  23.448  1.00  0.00     0.007 C 
HETATM    3  C11 UNL     1     -16.884   6.468  24.626  1.00  0.00     0.015 C 
HETATM    4  C12 UNL     1     -15.464   5.928  24.909  1.00  0.00    -0.005 C 
HETATM    5  C13 UNL     1     -14.744   6.978  25.811  1.00  0.00     0.021 C 
HETATM    6  C14 UNL     1     -15.252   4.605  25.631  1.00  0.00    -0.000 C 
HETATM    7  C15 UNL     1     -14.161   3.831  25.390  1.00  0.00    -0.060 C 
HETATM    8  C16 UNL     1     -13.150   4.224  24.295  1.00  0.00     0.036 C 
HETATM    9  C17 UNL     1     -13.432   5.505  23.484  1.00  0.00     0.015 C 
HETATM   10  C18 UNL     1     -14.931   5.806  23.426  1.00  0.00    -0.028 C 
HETATM   11  C19 UNL     1     -15.632   4.658  22.640  1.00  0.00     0.016 C 
HETATM   12  C20 UNL     1     -13.872   2.507  26.139  1.00  0.00    -0.014 C 
HETATM   13  C21 UNL     1     -14.196   1.343  25.161  1.00  0.00     0.020 C 
HETATM   14  C22 UNL     1     -12.365   2.410  26.523  1.00  0.00     0.021 C 
HETATM   15  C23 UNL     1     -12.115   1.525  27.730  1.00  0.00     0.080 C 
HETATM   16  C24 UNL     1     -12.751   2.157  28.947  1.00  0.00     0.135 C 
HETATM   17  O2  UNL     1     -12.180   2.106  30.038  1.00  0.00    -0.297 OA
HETATM   18  C25 UNL     1     -14.120   2.840  28.763  1.00  0.00     0.018 C 
HETATM   19  C26 UNL     1     -14.986   2.434  29.978  1.00  0.00     0.023 C 
HETATM   20  C27 UNL     1     -13.898   4.358  28.827  1.00  0.00     0.023 C 
HETATM   21  C28 UNL     1     -14.762   2.314  27.427  1.00  0.00     0.020 C 
HETATM   22  C29 UNL     1     -16.198   2.777  27.164  1.00  0.00     0.090 C 
HETATM   23  C30 UNL     1     -16.260   4.187  26.650  1.00  0.00     0.157 C 
HETATM   24  O3  UNL     1     -17.142   4.952  27.032  1.00  0.00    -0.293 OA
ENDROOT
BRANCH   1  25
HETATM   25  C7  UNL     1     -15.072   7.565  21.363  1.00  0.00    -0.014 C 
HETATM   26  C8  UNL     1     -16.093   6.821  20.479  1.00  0.00     0.010 C 
BRANCH  25  27
HETATM   27  C6  UNL     1     -13.670   7.470  20.722  1.00  0.00     0.008 C 
BRANCH  27  28
HETATM   28  C5  UNL     1     -12.689   8.616  20.977  1.00  0.00     0.028 C 
BRANCH  28  29
HETATM   29  C4  UNL     1     -13.029   9.333  22.256  1.00  0.00    -0.017 C 
HETATM   30  C2  UNL     1     -12.393   9.238  23.438  1.00  0.00    -0.028 C 
HETATM   31  C1  UNL     1     -11.174   8.428  23.744  1.00  0.00     0.051 C 
BRANCH  30  32
HETATM   32  C3  UNL     1     -12.927  10.037  24.584  1.00  0.00     0.265 C 
HETATM   33  O1  UNL     1     -12.588   9.877  25.749  1.00  0.00    -0.302 OA
ENDBRANCH  30  32
ENDBRANCH  28  29
ENDBRANCH  27  28
ENDBRANCH  25  27
ENDBRANCH   1  25
TORSDOF 5
ENDMDL
