MODEL 1
REMARK minimizedAffinity -7.58424234
REMARK CNNscore 0.474291503
REMARK CNNaffinity 6.4738059
REMARK  7 active torsions:
REMARK  status: ('A' for Active; 'I' for Inactive)
REMARK    1  A    between atoms: C2_2  and  C4_4 
REMARK    2  A    between atoms: C7_7  and  O1_9 
REMARK    3  A    between atoms: C9_10  and  C10_11 
REMARK    4  A    between atoms: C11_12  and  C12_13 
REMARK    5  A    between atoms: C14_15  and  C15_16 
REMARK    6  A    between atoms: C24_26  and  C26_28 
REMARK    7  A    between atoms: C29_32  and  O4_34 
ROOT
HETATM    1  C15 UNL     1       7.425   8.328  13.688  1.00  0.00     0.149 C 
HETATM    2  C16 UNL     1       7.308   9.589  14.527  1.00  0.00     0.054 C 
HETATM    3  C17 UNL     1       8.766  10.084  14.771  1.00  0.00     0.050 C 
HETATM    4  C18 UNL     1       9.522   9.311  13.626  1.00  0.00     0.272 C 
HETATM    5  O2  UNL     1      10.299  10.026  12.687  1.00  0.00    -0.360 OA
HETATM    6  C19 UNL     1      11.473  10.596  13.239  1.00  0.00     0.171 C 
HETATM    7  C20 UNL     1      11.168  11.970  13.808  1.00  0.00     0.027 C 
HETATM    8  C21 UNL     1       9.699  12.349  13.675  1.00  0.00     0.012 C 
HETATM    9  C22 UNL     1       8.772  11.715  14.726  1.00  0.00     0.032 C 
HETATM   10  C23 UNL     1       8.762  12.363  16.153  1.00  0.00    -0.066 C 
HETATM   11  C24 UNL     1       9.358  13.502  16.606  1.00  0.00    -0.021 C 
HETATM   12  C25 UNL     1      10.086  14.555  15.819  1.00  0.00     0.052 C 
HETATM   13  C27 UNL     1       7.854  11.547  17.048  1.00  0.00     0.038 C 
HETATM   14  C28 UNL     1       8.492  10.208  17.373  1.00  0.00     0.042 C 
HETATM   15  C29 UNL     1       9.275   9.576  16.192  1.00  0.00     0.067 C 
HETATM   16  C30 UNL     1       9.256   8.053  16.435  1.00  0.00     0.047 C 
HETATM   17  O5  UNL     1       8.543   8.584  12.862  1.00  0.00    -0.351 OA
ENDROOT
BRANCH   1  18
HETATM   18  C14 UNL     1       6.167   8.050  12.907  1.00  0.00     0.011 C 
HETATM   19  C12 UNL     1       5.958   7.236  11.850  1.00  0.00    -0.064 C 
HETATM   20  C13 UNL     1       7.007   6.314  11.279  1.00  0.00     0.048 C 
BRANCH  19  21
HETATM   21  C11 UNL     1       4.625   7.221  11.245  1.00  0.00     0.003 C 
HETATM   22  C10 UNL     1       3.719   8.213  11.275  1.00  0.00    -0.018 C 
BRANCH  22  23
HETATM   23  C9  UNL     1       2.329   8.182  10.667  1.00  0.00     0.050 C 
HETATM   24  C4  UNL     1       2.111   7.133   9.529  1.00  0.00     0.024 C 
HETATM   25  C5  UNL     1       0.661   6.662   9.707  1.00  0.00     0.013 C 
HETATM   26  C6  UNL     1       0.502   6.631  11.222  1.00  0.00     0.039 C 
HETATM   27  C7  UNL     1       1.155   7.942  11.674  1.00  0.00     0.062 C 
HETATM   28  C8  UNL     1       1.505   7.908  13.159  1.00  0.00     0.046 C 
BRANCH  24  29
HETATM   29  C2  UNL     1       2.455   7.638   8.135  1.00  0.00    -0.088 C 
HETATM   30  C1  UNL     1       3.137   8.784   7.959  1.00  0.00     0.014 C 
HETATM   31  C3  UNL     1       2.004   6.829   6.945  1.00  0.00     0.043 C 
ENDBRANCH  24  29
BRANCH  27  32
HETATM   32  O1  UNL     1       0.184   8.988  11.497  1.00  0.00    -0.390 OA
HETATM   33  H14 UNL     1       0.600   9.822  11.777  1.00  0.00     0.210 HD
ENDBRANCH  27  32
ENDBRANCH  22  23
ENDBRANCH  19  21
ENDBRANCH   1  18
BRANCH  15  34
HETATM   34  O4  UNL     1      10.652   9.974  16.308  1.00  0.00    -0.389 OA
HETATM   35  H44 UNL     1      10.990   9.685  17.174  1.00  0.00     0.210 HD
ENDBRANCH  15  34
BRANCH  11  36
HETATM   36  C26 UNL     1       9.305  13.836  18.073  1.00  0.00     0.265 C 
HETATM   37  O3  UNL     1      10.116  13.426  18.896  1.00  0.00    -0.302 OA
ENDBRANCH  11  36
TORSDOF 7
ENDMDL
MODEL 2
REMARK minimizedAffinity -7.45806074
REMARK CNNscore 0.442682624
REMARK CNNaffinity 6.28368235
REMARK  7 active torsions:
REMARK  status: ('A' for Active; 'I' for Inactive)
REMARK    1  A    between atoms: C2_2  and  C4_4 
REMARK    2  A    between atoms: C7_7  and  O1_9 
REMARK    3  A    between atoms: C9_10  and  C10_11 
REMARK    4  A    between atoms: C11_12  and  C12_13 
REMARK    5  A    between atoms: C14_15  and  C15_16 
REMARK    6  A    between atoms: C24_26  and  C26_28 
REMARK    7  A    between atoms: C29_32  and  O4_34 
ROOT
HETATM    1  C15 UNL     1     -13.019  -9.678  29.180  1.00  0.00     0.149 C 
HETATM    2  C16 UNL     1     -14.119  -8.787  28.629  1.00  0.00     0.054 C 
HETATM    3  C17 UNL     1     -14.215  -7.569  29.597  1.00  0.00     0.050 C 
HETATM    4  C18 UNL     1     -12.819  -7.669  30.317  1.00  0.00     0.272 C 
HETATM    5  O2  UNL     1     -11.941  -6.563  30.310  1.00  0.00    -0.360 OA
HETATM    6  C19 UNL     1     -12.397  -5.471  31.090  1.00  0.00     0.171 C 
HETATM    7  C20 UNL     1     -13.294  -4.574  30.257  1.00  0.00     0.027 C 
HETATM    8  C21 UNL     1     -13.497  -5.096  28.840  1.00  0.00     0.012 C 
HETATM    9  C22 UNL     1     -14.526  -6.232  28.713  1.00  0.00     0.032 C 
HETATM   10  C23 UNL     1     -16.040  -5.829  28.731  1.00  0.00    -0.066 C 
HETATM   11  C24 UNL     1     -16.623  -4.596  28.716  1.00  0.00    -0.021 C 
HETATM   12  C25 UNL     1     -15.972  -3.255  28.528  1.00  0.00     0.052 C 
HETATM   13  C27 UNL     1     -16.876  -7.089  28.676  1.00  0.00     0.038 C 
HETATM   14  C28 UNL     1     -16.790  -7.842  29.992  1.00  0.00     0.042 C 
HETATM   15  C29 UNL     1     -15.386  -7.810  30.649  1.00  0.00     0.067 C 
HETATM   16  C30 UNL     1     -15.291  -9.082  31.516  1.00  0.00     0.047 C 
HETATM   17  O5  UNL     1     -12.092  -8.759  29.723  1.00  0.00    -0.351 OA
ENDROOT
BRANCH   1  18
HETATM   18  C14 UNL     1     -12.420 -10.561  28.116  1.00  0.00     0.011 C 
HETATM   19  C12 UNL     1     -12.233 -11.898  28.095  1.00  0.00    -0.064 C 
HETATM   20  C13 UNL     1     -12.720 -12.831  29.177  1.00  0.00     0.048 C 
BRANCH  19  21
HETATM   21  C11 UNL     1     -11.553 -12.480  26.938  1.00  0.00     0.003 C 
HETATM   22  C10 UNL     1     -10.490 -13.302  26.962  1.00  0.00    -0.018 C 
BRANCH  22  23
HETATM   23  C9  UNL     1      -9.773 -13.884  25.757  1.00  0.00     0.050 C 
HETATM   24  C4  UNL     1      -8.565 -13.049  25.221  1.00  0.00     0.024 C 
HETATM   25  C5  UNL     1      -7.556 -14.097  24.732  1.00  0.00     0.013 C 
HETATM   26  C6  UNL     1      -7.701 -15.210  25.762  1.00  0.00     0.039 C 
HETATM   27  C7  UNL     1      -9.219 -15.336  25.936  1.00  0.00     0.062 C 
HETATM   28  C8  UNL     1      -9.574 -16.065  27.230  1.00  0.00     0.046 C 
BRANCH  24  29
HETATM   29  C2  UNL     1      -8.940 -11.991  24.193  1.00  0.00    -0.088 C 
HETATM   30  C1  UNL     1      -8.111 -10.969  23.914  1.00  0.00     0.014 C 
HETATM   31  C3  UNL     1     -10.272 -12.104  23.497  1.00  0.00     0.043 C 
ENDBRANCH  24  29
BRANCH  27  32
HETATM   32  O1  UNL     1      -9.708 -16.146  24.852  1.00  0.00    -0.390 OA
HETATM   33  H14 UNL     1     -10.673 -16.221  24.957  1.00  0.00     0.210 HD
ENDBRANCH  27  32
ENDBRANCH  22  23
ENDBRANCH  19  21
ENDBRANCH   1  18
BRANCH  15  34
HETATM   34  O4  UNL     1     -15.351  -6.706  31.571  1.00  0.00    -0.389 OA
HETATM   35  H44 UNL     1     -16.063  -6.820  32.224  1.00  0.00     0.210 HD
ENDBRANCH  15  34
BRANCH  11  36
HETATM   36  C26 UNL     1     -18.115  -4.477  28.879  1.00  0.00     0.265 C 
HETATM   37  O3  UNL     1     -18.670  -4.280  29.954  1.00  0.00    -0.302 OA
ENDBRANCH  11  36
TORSDOF 7
ENDMDL
MODEL 3
REMARK minimizedAffinity -7.72958517
REMARK CNNscore 0.420796037
REMARK CNNaffinity 6.21700478
REMARK  7 active torsions:
REMARK  status: ('A' for Active; 'I' for Inactive)
REMARK    1  A    between atoms: C2_2  and  C4_4 
REMARK    2  A    between atoms: C7_7  and  O1_9 
REMARK    3  A    between atoms: C9_10  and  C10_11 
REMARK    4  A    between atoms: C11_12  and  C12_13 
REMARK    5  A    between atoms: C14_15  and  C15_16 
REMARK    6  A    between atoms: C24_26  and  C26_28 
REMARK    7  A    between atoms: C29_32  and  O4_34 
ROOT
HETATM    1  C15 UNL     1      -1.835   9.351  15.503  1.00  0.00     0.149 C 
HETATM    2  C16 UNL     1      -1.564   9.972  16.863  1.00  0.00     0.054 C 
HETATM    3  C17 UNL     1      -0.657  11.212  16.601  1.00  0.00     0.050 C 
HETATM    4  C18 UNL     1      -0.920  11.434  15.064  1.00  0.00     0.272 C 
HETATM    5  O2  UNL     1      -1.382  12.687  14.602  1.00  0.00    -0.360 OA
HETATM    6  C19 UNL     1      -0.418  13.721  14.707  1.00  0.00     0.171 C 
HETATM    7  C20 UNL     1      -0.494  14.367  16.078  1.00  0.00     0.027 C 
HETATM    8  C21 UNL     1      -1.539  13.719  16.978  1.00  0.00     0.012 C 
HETATM    9  C22 UNL     1      -1.096  12.399  17.632  1.00  0.00     0.032 C 
HETATM   10  C23 UNL     1      -0.153  12.501  18.879  1.00  0.00    -0.066 C 
HETATM   11  C24 UNL     1       0.259  13.592  19.584  1.00  0.00    -0.021 C 
HETATM   12  C25 UNL     1      -0.197  15.018  19.453  1.00  0.00     0.052 C 
HETATM   13  C27 UNL     1       0.224  11.101  19.315  1.00  0.00     0.038 C 
HETATM   14  C28 UNL     1       1.179  10.472  18.316  1.00  0.00     0.042 C 
HETATM   15  C29 UNL     1       0.869  10.822  16.837  1.00  0.00     0.067 C 
HETATM   16  C30 UNL     1       1.427   9.655  15.997  1.00  0.00     0.047 C 
HETATM   17  O5  UNL     1      -1.897  10.468  14.639  1.00  0.00    -0.351 OA
ENDROOT
BRANCH   1  18
HETATM   18  C14 UNL     1      -3.098   8.530  15.498  1.00  0.00     0.011 C 
HETATM   19  C12 UNL     1      -3.298   7.239  15.154  1.00  0.00    -0.064 C 
HETATM   20  C13 UNL     1      -2.188   6.288  14.781  1.00  0.00     0.048 C 
BRANCH  19  21
HETATM   21  C11 UNL     1      -4.667   6.723  15.183  1.00  0.00     0.003 C 
HETATM   22  C10 UNL     1      -5.292   6.052  14.201  1.00  0.00    -0.018 C 
BRANCH  22  23
HETATM   23  C9  UNL     1      -6.721   5.541  14.227  1.00  0.00     0.050 C 
HETATM   24  C4  UNL     1      -7.821   6.587  13.855  1.00  0.00     0.024 C 
HETATM   25  C5  UNL     1      -8.890   5.777  13.107  1.00  0.00     0.013 C 
HETATM   26  C6  UNL     1      -8.060   4.782  12.307  1.00  0.00     0.039 C 
HETATM   27  C7  UNL     1      -7.012   4.301  13.318  1.00  0.00     0.062 C 
HETATM   28  C8  UNL     1      -5.820   3.651  12.619  1.00  0.00     0.046 C 
BRANCH  24  29
HETATM   29  C2  UNL     1      -8.339   7.400  15.032  1.00  0.00    -0.088 C 
HETATM   30  C1  UNL     1      -9.245   6.889  15.885  1.00  0.00     0.014 C 
HETATM   31  C3  UNL     1      -7.821   8.803  15.220  1.00  0.00     0.043 C 
ENDBRANCH  24  29
BRANCH  27  32
HETATM   32  O1  UNL     1      -7.631   3.282  14.123  1.00  0.00    -0.390 OA
HETATM   33  H14 UNL     1      -6.969   2.980  14.770  1.00  0.00     0.210 HD
ENDBRANCH  27  32
ENDBRANCH  22  23
ENDBRANCH  19  21
ENDBRANCH   1  18
BRANCH  15  34
HETATM   34  O4  UNL     1       1.653  11.973  16.478  1.00  0.00    -0.389 OA
HETATM   35  H44 UNL     1       2.594  11.768  16.620  1.00  0.00     0.210 HD
ENDBRANCH  15  34
BRANCH  11  36
HETATM   36  C26 UNL     1       1.288  13.431  20.672  1.00  0.00     0.265 C 
HETATM   37  O3  UNL     1       1.506  14.273  21.535  1.00  0.00    -0.302 OA
ENDBRANCH  11  36
TORSDOF 7
ENDMDL
MODEL 4
REMARK minimizedAffinity -7.85390854
REMARK CNNscore 0.393796057
REMARK CNNaffinity 6.54086542
REMARK  7 active torsions:
REMARK  status: ('A' for Active; 'I' for Inactive)
REMARK    1  A    between atoms: C2_2  and  C4_4 
REMARK    2  A    between atoms: C7_7  and  O1_9 
REMARK    3  A    between atoms: C9_10  and  C10_11 
REMARK    4  A    between atoms: C11_12  and  C12_13 
REMARK    5  A    between atoms: C14_15  and  C15_16 
REMARK    6  A    between atoms: C24_26  and  C26_28 
REMARK    7  A    between atoms: C29_32  and  O4_34 
ROOT
HETATM    1  C15 UNL     1      -4.890   8.361  15.095  1.00  0.00     0.149 C 
HETATM    2  C16 UNL     1      -4.065   8.515  13.829  1.00  0.00     0.054 C 
HETATM    3  C17 UNL     1      -2.733   7.746  14.083  1.00  0.00     0.050 C 
HETATM    4  C18 UNL     1      -3.162   6.829  15.289  1.00  0.00     0.272 C 
HETATM    5  O2  UNL     1      -3.012   5.428  15.199  1.00  0.00    -0.360 OA
HETATM    6  C19 UNL     1      -1.660   5.001  15.201  1.00  0.00     0.171 C 
HETATM    7  C20 UNL     1      -1.110   5.002  13.787  1.00  0.00     0.027 C 
HETATM    8  C21 UNL     1      -2.124   5.491  12.761  1.00  0.00     0.012 C 
HETATM    9  C22 UNL     1      -2.284   7.019  12.692  1.00  0.00     0.032 C 
HETATM   10  C23 UNL     1      -1.183   7.818  11.916  1.00  0.00    -0.066 C 
HETATM   11  C24 UNL     1      -0.138   7.372  11.162  1.00  0.00    -0.021 C 
HETATM   12  C25 UNL     1       0.174   5.966  10.734  1.00  0.00     0.052 C 
HETATM   13  C27 UNL     1      -1.484   9.297  12.036  1.00  0.00     0.038 C 
HETATM   14  C28 UNL     1      -1.212   9.782  13.449  1.00  0.00     0.042 C 
HETATM   15  C29 UNL     1      -1.604   8.765  14.554  1.00  0.00     0.067 C 
HETATM   16  C30 UNL     1      -1.903   9.602  15.815  1.00  0.00     0.047 C 
HETATM   17  O5  UNL     1      -4.558   7.064  15.548  1.00  0.00    -0.351 OA
ENDROOT
BRANCH   1  18
HETATM   18  C14 UNL     1      -6.364   8.536  14.834  1.00  0.00     0.011 C 
HETATM   19  C12 UNL     1      -7.430   7.978  15.446  1.00  0.00    -0.064 C 
HETATM   20  C13 UNL     1      -7.331   7.086  16.659  1.00  0.00     0.048 C 
BRANCH  19  21
HETATM   21  C11 UNL     1      -8.762   8.286  14.925  1.00  0.00     0.003 C 
HETATM   22  C10 UNL     1      -9.470   9.407  15.144  1.00  0.00    -0.018 C 
BRANCH  22  23
HETATM   23  C9  UNL     1     -10.861   9.712  14.620  1.00  0.00     0.050 C 
HETATM   24  C4  UNL     1     -11.966   8.669  14.990  1.00  0.00     0.024 C 
HETATM   25  C5  UNL     1     -13.239   9.505  15.186  1.00  0.00     0.013 C 
HETATM   26  C6  UNL     1     -12.711  10.771  15.850  1.00  0.00     0.039 C 
HETATM   27  C7  UNL     1     -11.453  11.099  15.036  1.00  0.00     0.062 C 
HETATM   28  C8  UNL     1     -10.532  12.052  15.794  1.00  0.00     0.046 C 
BRANCH  24  29
HETATM   29  C2  UNL     1     -12.100   7.519  14.002  1.00  0.00    -0.088 C 
HETATM   30  C1  UNL     1     -12.710   6.371  14.351  1.00  0.00     0.014 C 
HETATM   31  C3  UNL     1     -11.523   7.686  12.620  1.00  0.00     0.043 C 
ENDBRANCH  24  29
BRANCH  27  32
HETATM   32  O1  UNL     1     -11.880  11.787  13.847  1.00  0.00    -0.390 OA
HETATM   33  H14 UNL     1     -11.083  11.990  13.326  1.00  0.00     0.210 HD
ENDBRANCH  27  32
ENDBRANCH  22  23
ENDBRANCH  19  21
ENDBRANCH   1  18
BRANCH  15  34
HETATM   34  O4  UNL     1      -0.441   7.982  14.870  1.00  0.00    -0.389 OA
HETATM   35  H44 UNL     1       0.273   8.579  15.154  1.00  0.00     0.210 HD
ENDBRANCH  15  34
BRANCH  11  36
HETATM   36  C26 UNL     1       0.868   8.357  10.629  1.00  0.00     0.265 C 
HETATM   37  O3  UNL     1       0.897   8.741   9.465  1.00  0.00    -0.302 OA
ENDBRANCH  11  36
TORSDOF 7
ENDMDL
MODEL 5
REMARK minimizedAffinity -7.11322975
REMARK CNNscore 0.389532238
REMARK CNNaffinity 5.7655406
REMARK  7 active torsions:
REMARK  status: ('A' for Active; 'I' for Inactive)
REMARK    1  A    between atoms: C2_2  and  C4_4 
REMARK    2  A    between atoms: C7_7  and  O1_9 
REMARK    3  A    between atoms: C9_10  and  C10_11 
REMARK    4  A    between atoms: C11_12  and  C12_13 
REMARK    5  A    between atoms: C14_15  and  C15_16 
REMARK    6  A    between atoms: C24_26  and  C26_28 
REMARK    7  A    between atoms: C29_32  and  O4_34 
ROOT
HETATM    1  C15 UNL     1       1.962  10.907  18.520  1.00  0.00     0.149 C 
HETATM    2  C16 UNL     1       3.221  11.648  18.935  1.00  0.00     0.054 C 
HETATM    3  C17 UNL     1       3.219  11.666  20.494  1.00  0.00     0.050 C 
HETATM    4  C18 UNL     1       2.201  10.503  20.789  1.00  0.00     0.272 C 
HETATM    5  O2  UNL     1       2.587   9.419  21.609  1.00  0.00    -0.360 OA
HETATM    6  C19 UNL     1       2.762   9.771  22.971  1.00  0.00     0.171 C 
HETATM    7  C20 UNL     1       4.179  10.259  23.205  1.00  0.00     0.027 C 
HETATM    8  C21 UNL     1       5.014  10.281  21.931  1.00  0.00     0.012 C 
HETATM    9  C22 UNL     1       4.757  11.488  21.013  1.00  0.00     0.032 C 
HETATM   10  C23 UNL     1       5.424  12.847  21.418  1.00  0.00    -0.066 C 
HETATM   11  C24 UNL     1       6.320  13.128  22.405  1.00  0.00    -0.021 C 
HETATM   12  C25 UNL     1       7.048  12.172  23.309  1.00  0.00     0.052 C 
HETATM   13  C27 UNL     1       4.983  13.913  20.437  1.00  0.00     0.038 C 
HETATM   14  C28 UNL     1       3.522  14.264  20.654  1.00  0.00     0.042 C 
HETATM   15  C29 UNL     1       2.626  13.050  21.014  1.00  0.00     0.067 C 
HETATM   16  C30 UNL     1       1.202  13.417  20.546  1.00  0.00     0.047 C 
HETATM   17  O5  UNL     1       1.807   9.929  19.530  1.00  0.00    -0.351 OA
ENDROOT
BRANCH   1  18
HETATM   18  C14 UNL     1       2.082  10.316  17.140  1.00  0.00     0.011 C 
HETATM   19  C12 UNL     1       1.134   9.811  16.321  1.00  0.00    -0.064 C 
HETATM   20  C13 UNL     1      -0.343   9.844  16.626  1.00  0.00     0.048 C 
BRANCH  19  21
HETATM   21  C11 UNL     1       1.562   9.234  15.046  1.00  0.00     0.003 C 
HETATM   22  C10 UNL     1       1.010   9.453  13.841  1.00  0.00    -0.018 C 
BRANCH  22  23
HETATM   23  C9  UNL     1       1.443   8.832  12.525  1.00  0.00     0.050 C 
HETATM   24  C4  UNL     1       2.495   7.680  12.634  1.00  0.00     0.024 C 
HETATM   25  C5  UNL     1       2.120   6.704  11.511  1.00  0.00     0.013 C 
HETATM   26  C6  UNL     1       0.597   6.753  11.517  1.00  0.00     0.039 C 
HETATM   27  C7  UNL     1       0.291   8.251  11.640  1.00  0.00     0.062 C 
HETATM   28  C8  UNL     1      -1.141   8.491  12.111  1.00  0.00     0.046 C 
BRANCH  24  29
HETATM   29  C2  UNL     1       3.943   8.148  12.621  1.00  0.00    -0.088 C 
HETATM   30  C1  UNL     1       4.931   7.338  12.202  1.00  0.00     0.014 C 
HETATM   31  C3  UNL     1       4.252   9.543  13.101  1.00  0.00     0.043 C 
ENDBRANCH  24  29
BRANCH  27  32
HETATM   32  O1  UNL     1       0.399   8.819  10.323  1.00  0.00    -0.390 OA
HETATM   33  H14 UNL     1       0.212   9.771  10.400  1.00  0.00     0.210 HD
ENDBRANCH  27  32
ENDBRANCH  22  23
ENDBRANCH  19  21
ENDBRANCH   1  18
BRANCH  15  34
HETATM   34  O4  UNL     1       2.555  12.959  22.448  1.00  0.00    -0.389 OA
HETATM   35  H44 UNL     1       2.203  13.796  22.798  1.00  0.00     0.210 HD
ENDBRANCH  15  34
BRANCH  11  36
HETATM   36  C26 UNL     1       6.707  14.558  22.675  1.00  0.00     0.265 C 
HETATM   37  O3  UNL     1       7.625  14.889  23.416  1.00  0.00    -0.302 OA
ENDBRANCH  11  36
TORSDOF 7
ENDMDL
MODEL 6
REMARK minimizedAffinity -7.30940485
REMARK CNNscore 0.379149288
REMARK CNNaffinity 6.6262269
REMARK  7 active torsions:
REMARK  status: ('A' for Active; 'I' for Inactive)
REMARK    1  A    between atoms: C2_2  and  C4_4 
REMARK    2  A    between atoms: C7_7  and  O1_9 
REMARK    3  A    between atoms: C9_10  and  C10_11 
REMARK    4  A    between atoms: C11_12  and  C12_13 
REMARK    5  A    between atoms: C14_15  and  C15_16 
REMARK    6  A    between atoms: C24_26  and  C26_28 
REMARK    7  A    between atoms: C29_32  and  O4_34 
ROOT
HETATM    1  C15 UNL     1      -4.829   8.095  15.076  1.00  0.00     0.149 C 
HETATM    2  C16 UNL     1      -3.996   8.343  13.829  1.00  0.00     0.054 C 
HETATM    3  C17 UNL     1      -2.647   7.595  14.054  1.00  0.00     0.050 C 
HETATM    4  C18 UNL     1      -3.062   6.601  15.202  1.00  0.00     0.272 C 
HETATM    5  O2  UNL     1      -2.872   5.211  15.034  1.00  0.00    -0.360 OA
HETATM    6  C19 UNL     1      -1.510   4.821  15.028  1.00  0.00     0.171 C 
HETATM    7  C20 UNL     1      -0.947   4.917  13.622  1.00  0.00     0.027 C 
HETATM    8  C21 UNL     1      -1.964   5.436  12.614  1.00  0.00     0.012 C 
HETATM    9  C22 UNL     1      -2.165   6.961  12.629  1.00  0.00     0.032 C 
HETATM   10  C23 UNL     1      -1.078   7.832  11.911  1.00  0.00    -0.066 C 
HETATM   11  C24 UNL     1      -0.015   7.457  11.146  1.00  0.00    -0.021 C 
HETATM   12  C25 UNL     1       0.339   6.086  10.642  1.00  0.00     0.052 C 
HETATM   13  C27 UNL     1      -1.421   9.293  12.111  1.00  0.00     0.038 C 
HETATM   14  C28 UNL     1      -1.175   9.704  13.553  1.00  0.00     0.042 C 
HETATM   15  C29 UNL     1      -1.550   8.617  14.594  1.00  0.00     0.067 C 
HETATM   16  C30 UNL     1      -1.883   9.372  15.897  1.00  0.00     0.047 C 
HETATM   17  O5  UNL     1      -4.466   6.784  15.459  1.00  0.00    -0.351 OA
ENDROOT
BRANCH   1  18
HETATM   18  C14 UNL     1      -6.304   8.245  14.809  1.00  0.00     0.011 C 
HETATM   19  C12 UNL     1      -7.365   7.702  15.444  1.00  0.00    -0.064 C 
HETATM   20  C13 UNL     1      -7.257   6.861  16.692  1.00  0.00     0.048 C 
BRANCH  19  21
HETATM   21  C11 UNL     1      -8.700   7.976  14.911  1.00  0.00     0.003 C 
HETATM   22  C10 UNL     1      -9.658   8.720  15.491  1.00  0.00    -0.018 C 
BRANCH  22  23
HETATM   23  C9  UNL     1     -11.050   8.981  14.945  1.00  0.00     0.050 C 
HETATM   24  C4  UNL     1     -11.285  10.405  14.346  1.00  0.00     0.024 C 
HETATM   25  C5  UNL     1     -12.248  10.179  13.172  1.00  0.00     0.013 C 
HETATM   26  C6  UNL     1     -11.770   8.852  12.596  1.00  0.00     0.039 C 
HETATM   27  C7  UNL     1     -11.541   7.987  13.841  1.00  0.00     0.062 C 
HETATM   28  C8  UNL     1     -10.646   6.789  13.531  1.00  0.00     0.046 C 
BRANCH  24  29
HETATM   29  C2  UNL     1     -11.741  11.446  15.359  1.00  0.00    -0.088 C 
HETATM   30  C1  UNL     1     -10.941  11.830  16.369  1.00  0.00     0.014 C 
HETATM   31  C3  UNL     1     -13.122  12.033  15.215  1.00  0.00     0.043 C 
ENDBRANCH  24  29
BRANCH  27  32
HETATM   32  O1  UNL     1     -12.820   7.462  14.239  1.00  0.00    -0.390 OA
HETATM   33  H14 UNL     1     -12.677   6.918  15.033  1.00  0.00     0.210 HD
ENDBRANCH  27  32
ENDBRANCH  22  23
ENDBRANCH  19  21
ENDBRANCH   1  18
BRANCH  15  34
HETATM   34  O4  UNL     1      -0.369   7.847  14.878  1.00  0.00    -0.389 OA
HETATM   35  H44 UNL     1       0.326   8.447  15.203  1.00  0.00     0.210 HD
ENDBRANCH  15  34
BRANCH  11  36
HETATM   36  C26 UNL     1       0.969   8.496  10.679  1.00  0.00     0.265 C 
HETATM   37  O3  UNL     1       1.970   8.820  11.308  1.00  0.00    -0.302 OA
ENDBRANCH  11  36
TORSDOF 7
ENDMDL
MODEL 7
REMARK minimizedAffinity -7.23589611
REMARK CNNscore 0.338141114
REMARK CNNaffinity 6.40546227
REMARK  7 active torsions:
REMARK  status: ('A' for Active; 'I' for Inactive)
REMARK    1  A    between atoms: C2_2  and  C4_4 
REMARK    2  A    between atoms: C7_7  and  O1_9 
REMARK    3  A    between atoms: C9_10  and  C10_11 
REMARK    4  A    between atoms: C11_12  and  C12_13 
REMARK    5  A    between atoms: C14_15  and  C15_16 
REMARK    6  A    between atoms: C24_26  and  C26_28 
REMARK    7  A    between atoms: C29_32  and  O4_34 
ROOT
HETATM    1  C15 UNL     1      -2.917   9.618  16.128  1.00  0.00     0.149 C 
HETATM    2  C16 UNL     1      -3.620  10.759  16.843  1.00  0.00     0.054 C 
HETATM    3  C17 UNL     1      -2.792  12.042  16.528  1.00  0.00     0.050 C 
HETATM    4  C18 UNL     1      -1.987  11.556  15.265  1.00  0.00     0.272 C 
HETATM    5  O2  UNL     1      -2.060  12.287  14.058  1.00  0.00    -0.360 OA
HETATM    6  C19 UNL     1      -1.426  13.553  14.122  1.00  0.00     0.171 C 
HETATM    7  C20 UNL     1      -2.398  14.597  14.639  1.00  0.00     0.027 C 
HETATM    8  C21 UNL     1      -3.762  14.013  14.986  1.00  0.00     0.012 C 
HETATM    9  C22 UNL     1      -3.827  13.291  16.342  1.00  0.00     0.032 C 
HETATM   10  C23 UNL     1      -3.937  14.186  17.623  1.00  0.00    -0.066 C 
HETATM   11  C24 UNL     1      -4.113  15.532  17.744  1.00  0.00    -0.021 C 
HETATM   12  C25 UNL     1      -4.404  16.539  16.666  1.00  0.00     0.052 C 
HETATM   13  C27 UNL     1      -3.907  13.290  18.843  1.00  0.00     0.038 C 
HETATM   14  C28 UNL     1      -2.516  12.714  19.045  1.00  0.00     0.042 C 
HETATM   15  C29 UNL     1      -1.788  12.342  17.727  1.00  0.00     0.067 C 
HETATM   16  C30 UNL     1      -0.788  11.225  18.094  1.00  0.00     0.047 C 
HETATM   17  O5  UNL     1      -2.422  10.222  14.950  1.00  0.00    -0.351 OA
ENDROOT
BRANCH   1  18
HETATM   18  C14 UNL     1      -3.847   8.464  15.854  1.00  0.00     0.011 C 
HETATM   19  C12 UNL     1      -3.585   7.222  15.395  1.00  0.00    -0.064 C 
HETATM   20  C13 UNL     1      -2.193   6.694  15.150  1.00  0.00     0.048 C 
BRANCH  19  21
HETATM   21  C11 UNL     1      -4.715   6.323  15.157  1.00  0.00     0.003 C 
HETATM   22  C10 UNL     1      -5.796   6.575  14.400  1.00  0.00    -0.018 C 
BRANCH  22  23
HETATM   23  C9  UNL     1      -6.976   5.648  14.176  1.00  0.00     0.050 C 
HETATM   24  C4  UNL     1      -8.286   6.332  13.667  1.00  0.00     0.024 C 
HETATM   25  C5  UNL     1      -8.925   5.298  12.729  1.00  0.00     0.013 C 
HETATM   26  C6  UNL     1      -7.716   4.678  12.039  1.00  0.00     0.039 C 
HETATM   27  C7  UNL     1      -6.725   4.459  13.189  1.00  0.00     0.062 C 
HETATM   28  C8  UNL     1      -5.302   4.270  12.671  1.00  0.00     0.046 C 
BRANCH  24  29
HETATM   29  C2  UNL     1      -9.198   6.844  14.772  1.00  0.00    -0.088 C 
HETATM   30  C1  UNL     1     -10.439   7.288  14.500  1.00  0.00     0.014 C 
HETATM   31  C3  UNL     1      -8.677   6.856  16.186  1.00  0.00     0.043 C 
ENDBRANCH  24  29
BRANCH  27  32
HETATM   32  O1  UNL     1      -7.097   3.236  13.848  1.00  0.00    -0.390 OA
HETATM   33  H14 UNL     1      -6.473   3.100  14.583  1.00  0.00     0.210 HD
ENDBRANCH  27  32
ENDBRANCH  22  23
ENDBRANCH  19  21
ENDBRANCH   1  18
BRANCH  15  34
HETATM   34  O4  UNL     1      -0.987  13.468  17.328  1.00  0.00    -0.389 OA
HETATM   35  H44 UNL     1      -0.366  13.682  18.047  1.00  0.00     0.210 HD
ENDBRANCH  15  34
BRANCH  11  36
HETATM   36  C26 UNL     1      -4.048  16.173  19.105  1.00  0.00     0.265 C 
HETATM   37  O3  UNL     1      -5.001  16.718  19.648  1.00  0.00    -0.302 OA
ENDBRANCH  11  36
TORSDOF 7
ENDMDL
MODEL 8
REMARK minimizedAffinity -6.80659771
REMARK CNNscore 0.335474014
REMARK CNNaffinity 6.11909103
REMARK  7 active torsions:
REMARK  status: ('A' for Active; 'I' for Inactive)
REMARK    1  A    between atoms: C2_2  and  C4_4 
REMARK    2  A    between atoms: C7_7  and  O1_9 
REMARK    3  A    between atoms: C9_10  and  C10_11 
REMARK    4  A    between atoms: C11_12  and  C12_13 
REMARK    5  A    between atoms: C14_15  and  C15_16 
REMARK    6  A    between atoms: C24_26  and  C26_28 
REMARK    7  A    between atoms: C29_32  and  O4_34 
ROOT
HETATM    1  C15 UNL     1     -13.377 -10.931  26.708  1.00  0.00     0.149 C 
HETATM    2  C16 UNL     1     -12.057 -11.642  26.954  1.00  0.00     0.054 C 
HETATM    3  C17 UNL     1     -11.785 -12.503  25.684  1.00  0.00     0.050 C 
HETATM    4  C18 UNL     1     -12.746 -11.800  24.654  1.00  0.00     0.272 C 
HETATM    5  O2  UNL     1     -12.232 -11.300  23.437  1.00  0.00    -0.360 OA
HETATM    6  C19 UNL     1     -11.817 -12.314  22.537  1.00  0.00     0.171 C 
HETATM    7  C20 UNL     1     -10.376 -12.700  22.815  1.00  0.00     0.027 C 
HETATM    8  C21 UNL     1      -9.779 -11.939  23.992  1.00  0.00     0.012 C 
HETATM    9  C22 UNL     1     -10.182 -12.475  25.377  1.00  0.00     0.032 C 
HETATM   10  C23 UNL     1      -9.441 -13.757  25.889  1.00  0.00    -0.066 C 
HETATM   11  C24 UNL     1      -8.382 -14.432  25.360  1.00  0.00    -0.021 C 
HETATM   12  C25 UNL     1      -7.516 -14.050  24.193  1.00  0.00     0.052 C 
HETATM   13  C27 UNL     1     -10.037 -14.159  27.221  1.00  0.00     0.038 C 
HETATM   14  C28 UNL     1     -11.434 -14.723  27.030  1.00  0.00     0.042 C 
HETATM   15  C29 UNL     1     -12.264 -14.000  25.937  1.00  0.00     0.067 C 
HETATM   16  C30 UNL     1     -13.745 -14.201  26.323  1.00  0.00     0.047 C 
HETATM   17  O5  UNL     1     -13.360 -10.680  25.317  1.00  0.00    -0.351 OA
ENDROOT
BRANCH   1  18
HETATM   18  C14 UNL     1     -13.506  -9.676  27.532  1.00  0.00     0.011 C 
HETATM   19  C12 UNL     1     -13.913  -8.438  27.179  1.00  0.00    -0.064 C 
HETATM   20  C13 UNL     1     -14.447  -8.088  25.812  1.00  0.00     0.048 C 
BRANCH  19  21
HETATM   21  C11 UNL     1     -13.870  -7.384  28.193  1.00  0.00     0.003 C 
HETATM   22  C10 UNL     1     -14.312  -7.469  29.459  1.00  0.00    -0.018 C 
BRANCH  22  23
HETATM   23  C9  UNL     1     -14.286  -6.364  30.499  1.00  0.00     0.050 C 
HETATM   24  C4  UNL     1     -13.767  -6.778  31.914  1.00  0.00     0.024 C 
HETATM   25  C5  UNL     1     -13.016  -5.543  32.430  1.00  0.00     0.013 C 
HETATM   26  C6  UNL     1     -12.347  -5.005  31.171  1.00  0.00     0.039 C 
HETATM   27  C7  UNL     1     -13.456  -5.093  30.115  1.00  0.00     0.062 C 
HETATM   28  C8  UNL     1     -12.885  -5.032  28.700  1.00  0.00     0.046 C 
BRANCH  24  29
HETATM   29  C2  UNL     1     -14.845  -7.311  32.847  1.00  0.00    -0.088 C 
HETATM   30  C1  UNL     1     -14.817  -8.582  33.287  1.00  0.00     0.014 C 
HETATM   31  C3  UNL     1     -15.958  -6.384  33.264  1.00  0.00     0.043 C 
ENDBRANCH  24  29
BRANCH  27  32
HETATM   32  O1  UNL     1     -14.295  -3.936  30.278  1.00  0.00    -0.390 OA
HETATM   33  H14 UNL     1     -15.003  -3.994  29.614  1.00  0.00     0.210 HD
ENDBRANCH  27  32
ENDBRANCH  22  23
ENDBRANCH  19  21
ENDBRANCH   1  18
BRANCH  15  34
HETATM   34  O4  UNL     1     -12.083 -14.710  24.699  1.00  0.00    -0.389 OA
HETATM   35  H44 UNL     1     -12.361 -15.634  24.824  1.00  0.00     0.210 HD
ENDBRANCH  15  34
BRANCH  11  36
HETATM   36  C26 UNL     1      -7.941 -15.730  25.983  1.00  0.00     0.265 C 
HETATM   37  O3  UNL     1      -6.830 -15.913  26.466  1.00  0.00    -0.302 OA
ENDBRANCH  11  36
TORSDOF 7
ENDMDL
MODEL 9
REMARK minimizedAffinity -6.73606586
REMARK CNNscore 0.313222319
REMARK CNNaffinity 5.83849764
REMARK  7 active torsions:
REMARK  status: ('A' for Active; 'I' for Inactive)
REMARK    1  A    between atoms: C2_2  and  C4_4 
REMARK    2  A    between atoms: C7_7  and  O1_9 
REMARK    3  A    between atoms: C9_10  and  C10_11 
REMARK    4  A    between atoms: C11_12  and  C12_13 
REMARK    5  A    between atoms: C14_15  and  C15_16 
REMARK    6  A    between atoms: C24_26  and  C26_28 
REMARK    7  A    between atoms: C29_32  and  O4_34 
ROOT
HETATM    1  C15 UNL     1       1.086  11.166  18.800  1.00  0.00     0.149 C 
HETATM    2  C16 UNL     1       2.456  11.819  18.741  1.00  0.00     0.054 C 
HETATM    3  C17 UNL     1       2.893  12.044  20.221  1.00  0.00     0.050 C 
HETATM    4  C18 UNL     1       1.925  11.043  20.956  1.00  0.00     0.272 C 
HETATM    5  O2  UNL     1       2.455  10.042  21.801  1.00  0.00    -0.360 OA
HETATM    6  C19 UNL     1       3.026  10.551  22.994  1.00  0.00     0.171 C 
HETATM    7  C20 UNL     1       4.481  10.915  22.761  1.00  0.00     0.027 C 
HETATM    8  C21 UNL     1       4.924  10.680  21.323  1.00  0.00     0.012 C 
HETATM    9  C22 UNL     1       4.499  11.775  20.330  1.00  0.00     0.032 C 
HETATM   10  C23 UNL     1       5.339  13.098  20.324  1.00  0.00    -0.066 C 
HETATM   11  C24 UNL     1       6.493  13.411  20.979  1.00  0.00    -0.021 C 
HETATM   12  C25 UNL     1       7.381  12.512  21.793  1.00  0.00     0.052 C 
HETATM   13  C27 UNL     1       4.711  14.065  19.343  1.00  0.00     0.038 C 
HETATM   14  C28 UNL     1       3.394  14.593  19.886  1.00  0.00     0.042 C 
HETATM   15  C29 UNL     1       2.559  13.538  20.658  1.00  0.00     0.067 C 
HETATM   16  C30 UNL     1       1.088  13.988  20.537  1.00  0.00     0.047 C 
HETATM   17  O5  UNL     1       1.158  10.353  19.953  1.00  0.00    -0.351 OA
ENDROOT
BRANCH   1  18
HETATM   18  C14 UNL     1       0.776  10.388  17.547  1.00  0.00     0.011 C 
HETATM   19  C12 UNL     1      -0.386  10.242  16.876  1.00  0.00    -0.064 C 
HETATM   20  C13 UNL     1      -1.660  10.970  17.232  1.00  0.00     0.048 C 
BRANCH  19  21
HETATM   21  C11 UNL     1      -0.403   9.355  15.712  1.00  0.00     0.003 C 
HETATM   22  C10 UNL     1      -0.784   8.067  15.690  1.00  0.00    -0.018 C 
BRANCH  22  23
HETATM   23  C9  UNL     1      -0.776   7.145  14.484  1.00  0.00     0.050 C 
HETATM   24  C4  UNL     1      -1.533   7.675  13.223  1.00  0.00     0.024 C 
HETATM   25  C5  UNL     1      -0.716   7.154  12.032  1.00  0.00     0.013 C 
HETATM   26  C6  UNL     1       0.718   7.268  12.533  1.00  0.00     0.039 C 
HETATM   27  C7  UNL     1       0.638   6.724  13.964  1.00  0.00     0.062 C 
HETATM   28  C8  UNL     1       1.845   7.156  14.794  1.00  0.00     0.046 C 
BRANCH  24  29
HETATM   29  C2  UNL     1      -3.014   7.325  13.186  1.00  0.00    -0.088 C 
HETATM   30  C1  UNL     1      -3.426   6.045  13.171  1.00  0.00     0.014 C 
HETATM   31  C3  UNL     1      -4.018   8.449  13.155  1.00  0.00     0.043 C 
ENDBRANCH  24  29
BRANCH  27  32
HETATM   32  O1  UNL     1       0.682   5.288  13.879  1.00  0.00    -0.390 OA
HETATM   33  H14 UNL     1       0.624   4.941  14.786  1.00  0.00     0.210 HD
ENDBRANCH  27  32
ENDBRANCH  22  23
ENDBRANCH  19  21
ENDBRANCH   1  18
BRANCH  15  34
HETATM   34  O4  UNL     1       2.887  13.646  22.055  1.00  0.00    -0.389 OA
HETATM   35  H44 UNL     1       2.702  14.554  22.351  1.00  0.00     0.210 HD
ENDBRANCH  15  34
BRANCH  11  36
HETATM   36  C26 UNL     1       7.030  14.816  20.909  1.00  0.00     0.265 C 
HETATM   37  O3  UNL     1       8.177  15.092  20.575  1.00  0.00    -0.302 OA
ENDBRANCH  11  36
TORSDOF 7
ENDMDL
