MODEL 1
REMARK minimizedAffinity -8.5083189
REMARK  11 active torsions:
REMARK  status: ('A' for Active; 'I' for Inactive)
REMARK    1  A    between atoms: C2_2  and  O1_3 
REMARK    2  A    between atoms: C2_2  and  C3_4 
REMARK    3  A    between atoms: C4_5  and  C5_6 
REMARK    4  A    between atoms: C5_6  and  O2_7 
REMARK    5  A    between atoms: C9_11  and  O3_12 
REMARK    6  A    between atoms: O3_12  and  C10_13 
REMARK    7  A    between atoms: C11_15  and  C12_16 
REMARK    8  A    between atoms: C12_16  and  O5_17 
REMARK    9  A    between atoms: C13_18  and  O6_19 
REMARK   10  A    between atoms: C14_20  and  O7_21 
REMARK   11  A    between atoms: C15_22  and  O8_23 
ROOT
HETATM    1  C5  UNL     1      -0.367  51.914 -19.567  1.00  0.00     0.086 C 
HETATM    2  C6  UNL     1       0.758  52.479 -20.511  1.00  0.00     0.023 C 
HETATM    3  C7  UNL     1       1.350  53.821 -20.043  1.00  0.00     0.013 C 
HETATM    4  C8  UNL     1       0.223  52.659 -21.938  1.00  0.00     0.039 C 
HETATM    5  C9  UNL     1      -0.166  51.329 -22.586  1.00  0.00     0.126 C 
HETATM    6  C16 UNL     1      -0.466  50.239 -21.545  1.00  0.00     0.044 C 
HETATM    7  C17 UNL     1      -1.207  50.743 -20.276  1.00  0.00    -0.010 C 
HETATM    8  C18 UNL     1      -2.635  51.203 -20.664  1.00  0.00     0.018 C 
HETATM    9  C19 UNL     1      -1.408  49.498 -19.371  1.00  0.00     0.018 C 
ENDROOT
BRANCH   5  10
HETATM   10  O3  UNL     1      -1.318  51.475 -23.422  1.00  0.00    -0.353 OA
BRANCH  10  11
HETATM   11  C10 UNL     1      -1.149  52.381 -24.517  1.00  0.00     0.292 C 
HETATM   12  O4  UNL     1      -2.395  52.885 -24.986  1.00  0.00    -0.348 OA
HETATM   13  C11 UNL     1      -2.976  52.219 -26.117  1.00  0.00     0.179 C 
HETATM   14  C13 UNL     1      -2.039  52.293 -27.341  1.00  0.00     0.180 C 
HETATM   15  C14 UNL     1      -0.551  52.283 -26.964  1.00  0.00     0.183 C 
HETATM   16  C15 UNL     1      -0.306  51.663 -25.597  1.00  0.00     0.204 C 
BRANCH  13  17
HETATM   17  C12 UNL     1      -3.442  50.785 -25.800  1.00  0.00     0.198 C 
BRANCH  17  18
HETATM   18  O5  UNL     1      -4.621  50.831 -24.995  1.00  0.00    -0.398 OA
HETATM   19  H20 UNL     1      -4.464  50.274 -24.205  1.00  0.00     0.209 HD
ENDBRANCH  17  18
ENDBRANCH  13  17
BRANCH  14  20
HETATM   20  O6  UNL     1      -2.273  53.533 -28.044  1.00  0.00    -0.390 OA
HETATM   21  H22 UNL     1      -3.181  53.507 -28.392  1.00  0.00     0.210 HD
ENDBRANCH  14  20
BRANCH  15  22
HETATM   22  O7  UNL     1       0.187  51.538 -27.951  1.00  0.00    -0.390 OA
HETATM   23  H24 UNL     1       1.070  51.379 -27.561  1.00  0.00     0.210 HD
ENDBRANCH  15  22
BRANCH  16  24
HETATM   24  O8  UNL     1       1.110  51.712 -25.315  1.00  0.00    -0.388 OA
HETATM   25  H26 UNL     1       1.351  52.638 -25.131  1.00  0.00     0.210 HD
ENDBRANCH  16  24
ENDBRANCH  10  11
ENDBRANCH   5  10
BRANCH   1  26
HETATM   26  C4  UNL     1       0.137  51.516 -18.184  1.00  0.00     0.010 C 
HETATM   27  C3  UNL     1       0.894  52.224 -17.325  1.00  0.00     0.003 C 
BRANCH  27  28
HETATM   28  C2  UNL     1       1.373  51.771 -15.968  1.00  0.00     0.136 C 
HETATM   29  C1  UNL     1       0.766  50.424 -15.586  1.00  0.00     0.043 C 
BRANCH  28  30
HETATM   30  O1  UNL     1       1.047  52.724 -14.963  1.00  0.00    -0.392 OA
HETATM   31  H5  UNL     1       0.077  52.738 -14.885  1.00  0.00     0.210 HD
ENDBRANCH  28  30
ENDBRANCH  27  28
ENDBRANCH   1  26
BRANCH   1  32
HETATM   32  O2  UNL     1      -1.274  53.005 -19.304  1.00  0.00    -0.385 OA
HETATM   33  H8  UNL     1      -0.841  53.606 -18.674  1.00  0.00     0.211 HD
ENDBRANCH   1  32
TORSDOF 11
ENDMDL
MODEL 2
REMARK minimizedAffinity -8.25190449
REMARK  11 active torsions:
REMARK  status: ('A' for Active; 'I' for Inactive)
REMARK    1  A    between atoms: C2_2  and  O1_3 
REMARK    2  A    between atoms: C2_2  and  C3_4 
REMARK    3  A    between atoms: C4_5  and  C5_6 
REMARK    4  A    between atoms: C5_6  and  O2_7 
REMARK    5  A    between atoms: C9_11  and  O3_12 
REMARK    6  A    between atoms: O3_12  and  C10_13 
REMARK    7  A    between atoms: C11_15  and  C12_16 
REMARK    8  A    between atoms: C12_16  and  O5_17 
REMARK    9  A    between atoms: C13_18  and  O6_19 
REMARK   10  A    between atoms: C14_20  and  O7_21 
REMARK   11  A    between atoms: C15_22  and  O8_23 
ROOT
HETATM    1  C5  UNL     1       4.178  67.486 -37.720  1.00  0.00     0.086 C 
HETATM    2  C6  UNL     1       3.257  66.481 -36.933  1.00  0.00     0.023 C 
HETATM    3  C7  UNL     1       1.897  67.071 -36.523  1.00  0.00     0.013 C 
HETATM    4  C8  UNL     1       3.968  65.979 -35.668  1.00  0.00     0.039 C 
HETATM    5  C9  UNL     1       5.217  65.157 -35.989  1.00  0.00     0.126 C 
HETATM    6  C16 UNL     1       5.782  65.476 -37.382  1.00  0.00     0.044 C 
HETATM    7  C17 UNL     1       5.698  66.973 -37.788  1.00  0.00    -0.010 C 
HETATM    8  C18 UNL     1       6.635  67.804 -36.876  1.00  0.00     0.018 C 
HETATM    9  C19 UNL     1       6.316  67.069 -39.209  1.00  0.00     0.018 C 
ENDROOT
BRANCH   5  10
HETATM   10  O3  UNL     1       6.251  65.387 -35.027  1.00  0.00    -0.353 OA
BRANCH  10  11
HETATM   11  C10 UNL     1       6.409  64.342 -34.061  1.00  0.00     0.292 C 
HETATM   12  O4  UNL     1       7.751  64.250 -33.594  1.00  0.00    -0.348 OA
HETATM   13  C11 UNL     1       8.591  63.274 -34.230  1.00  0.00     0.179 C 
HETATM   14  C13 UNL     1       8.016  61.853 -34.052  1.00  0.00     0.180 C 
HETATM   15  C14 UNL     1       6.482  61.823 -34.010  1.00  0.00     0.183 C 
HETATM   16  C15 UNL     1       5.862  63.037 -34.684  1.00  0.00     0.204 C 
BRANCH  13  17
HETATM   17  C12 UNL     1       8.908  63.616 -35.699  1.00  0.00     0.198 C 
BRANCH  17  18
HETATM   18  O5  UNL     1       9.334  62.437 -36.383  1.00  0.00    -0.398 OA
HETATM   19  H20 UNL     1      10.190  62.637 -36.817  1.00  0.00     0.209 HD
ENDBRANCH  17  18
ENDBRANCH  13  17
BRANCH  14  20
HETATM   20  O6  UNL     1       8.469  61.312 -32.791  1.00  0.00    -0.390 OA
HETATM   21  H22 UNL     1       9.435  61.216 -32.843  1.00  0.00     0.210 HD
ENDBRANCH  14  20
BRANCH  15  22
HETATM   22  O7  UNL     1       6.009  60.633 -34.670  1.00  0.00    -0.390 OA
HETATM   23  H24 UNL     1       5.050  60.766 -34.806  1.00  0.00     0.210 HD
ENDBRANCH  15  22
BRANCH  16  24
HETATM   24  O8  UNL     1       4.424  62.937 -34.582  1.00  0.00    -0.388 OA
HETATM   25  H26 UNL     1       4.173  63.107 -33.657  1.00  0.00     0.210 HD
ENDBRANCH  16  24
ENDBRANCH  10  11
ENDBRANCH   5  10
BRANCH   1  26
HETATM   26  C4  UNL     1       3.631  67.872 -39.089  1.00  0.00     0.010 C 
HETATM   27  C3  UNL     1       2.605  67.331 -39.773  1.00  0.00     0.003 C 
BRANCH  27  28
HETATM   28  C2  UNL     1       2.114  67.752 -41.136  1.00  0.00     0.136 C 
HETATM   29  C1  UNL     1       1.267  69.019 -41.056  1.00  0.00     0.043 C 
BRANCH  28  30
HETATM   30  O1  UNL     1       1.344  66.722 -41.746  1.00  0.00    -0.392 OA
HETATM   31  H5  UNL     1       0.533  66.620 -41.217  1.00  0.00     0.210 HD
ENDBRANCH  28  30
ENDBRANCH  27  28
ENDBRANCH   1  26
BRANCH   1  32
HETATM   32  O2  UNL     1       4.167  68.724 -36.980  1.00  0.00    -0.385 OA
HETATM   33  H8  UNL     1       3.310  69.156 -37.137  1.00  0.00     0.211 HD
ENDBRANCH   1  32
TORSDOF 11
ENDMDL
MODEL 3
REMARK minimizedAffinity -8.21927166
REMARK  11 active torsions:
REMARK  status: ('A' for Active; 'I' for Inactive)
REMARK    1  A    between atoms: C2_2  and  O1_3 
REMARK    2  A    between atoms: C2_2  and  C3_4 
REMARK    3  A    between atoms: C4_5  and  C5_6 
REMARK    4  A    between atoms: C5_6  and  O2_7 
REMARK    5  A    between atoms: C9_11  and  O3_12 
REMARK    6  A    between atoms: O3_12  and  C10_13 
REMARK    7  A    between atoms: C11_15  and  C12_16 
REMARK    8  A    between atoms: C12_16  and  O5_17 
REMARK    9  A    between atoms: C13_18  and  O6_19 
REMARK   10  A    between atoms: C14_20  and  O7_21 
REMARK   11  A    between atoms: C15_22  and  O8_23 
ROOT
HETATM    1  C5  UNL     1      -1.887  50.580 -25.327  1.00  0.00     0.086 C 
HETATM    2  C6  UNL     1      -2.440  49.109 -25.417  1.00  0.00     0.023 C 
HETATM    3  C7  UNL     1      -2.927  48.709 -26.820  1.00  0.00     0.013 C 
HETATM    4  C8  UNL     1      -3.597  48.908 -24.428  1.00  0.00     0.039 C 
HETATM    5  C9  UNL     1      -3.149  49.044 -22.972  1.00  0.00     0.126 C 
HETATM    6  C16 UNL     1      -1.860  49.868 -22.833  1.00  0.00     0.044 C 
HETATM    7  C17 UNL     1      -1.755  51.074 -23.805  1.00  0.00    -0.010 C 
HETATM    8  C18 UNL     1      -2.834  52.124 -23.438  1.00  0.00     0.018 C 
HETATM    9  C19 UNL     1      -0.395  51.758 -23.498  1.00  0.00     0.018 C 
ENDROOT
BRANCH   5  10
HETATM   10  O3  UNL     1      -4.162  49.664 -22.173  1.00  0.00    -0.353 OA
BRANCH  10  11
HETATM   11  C10 UNL     1      -4.579  48.898 -21.038  1.00  0.00     0.292 C 
HETATM   12  O4  UNL     1      -5.134  49.721 -20.018  1.00  0.00    -0.348 OA
HETATM   13  C11 UNL     1      -4.253  50.115 -18.955  1.00  0.00     0.179 C 
HETATM   14  C13 UNL     1      -3.706  48.880 -18.207  1.00  0.00     0.180 C 
HETATM   15  C14 UNL     1      -3.521  47.657 -19.116  1.00  0.00     0.183 C 
HETATM   16  C15 UNL     1      -3.376  48.042 -20.580  1.00  0.00     0.204 C 
BRANCH  13  17
HETATM   17  C12 UNL     1      -3.144  51.081 -19.416  1.00  0.00     0.198 C 
BRANCH  17  18
HETATM   18  O5  UNL     1      -2.639  51.800 -18.290  1.00  0.00    -0.398 OA
HETATM   19  H20 UNL     1      -2.678  52.756 -18.505  1.00  0.00     0.209 HD
ENDBRANCH  17  18
ENDBRANCH  13  17
BRANCH  14  20
HETATM   20  O6  UNL     1      -4.646  48.489 -17.183  1.00  0.00    -0.390 OA
HETATM   21  H22 UNL     1      -4.689  49.211 -16.532  1.00  0.00     0.210 HD
ENDBRANCH  14  20
BRANCH  15  22
HETATM   22  O7  UNL     1      -2.347  46.930 -18.707  1.00  0.00    -0.390 OA
HETATM   23  H24 UNL     1      -2.155  46.303 -19.431  1.00  0.00     0.210 HD
ENDBRANCH  15  22
BRANCH  16  24
HETATM   24  O8  UNL     1      -3.227  46.835 -21.362  1.00  0.00    -0.388 OA
HETATM   25  H26 UNL     1      -4.089  46.382 -21.387  1.00  0.00     0.210 HD
ENDBRANCH  16  24
ENDBRANCH  10  11
ENDBRANCH   5  10
BRANCH   1  26
HETATM   26  C4  UNL     1      -0.609  50.802 -26.127  1.00  0.00     0.010 C 
HETATM   27  C3  UNL     1       0.376  51.696 -25.914  1.00  0.00     0.003 C 
BRANCH  27  28
HETATM   28  C2  UNL     1       1.618  51.877 -26.750  1.00  0.00     0.136 C 
HETATM   29  C1  UNL     1       1.318  51.704 -28.237  1.00  0.00     0.043 C 
BRANCH  28  30
HETATM   30  O1  UNL     1       2.631  50.950 -26.375  1.00  0.00    -0.392 OA
HETATM   31  H5  UNL     1       2.308  50.063 -26.610  1.00  0.00     0.210 HD
ENDBRANCH  28  30
ENDBRANCH  27  28
ENDBRANCH   1  26
BRANCH   1  32
HETATM   32  O2  UNL     1      -2.856  51.426 -25.979  1.00  0.00    -0.385 OA
HETATM   33  H8  UNL     1      -2.768  51.294 -26.939  1.00  0.00     0.211 HD
ENDBRANCH   1  32
TORSDOF 11
ENDMDL
MODEL 4
REMARK minimizedAffinity -8.20689964
REMARK  11 active torsions:
REMARK  status: ('A' for Active; 'I' for Inactive)
REMARK    1  A    between atoms: C2_2  and  O1_3 
REMARK    2  A    between atoms: C2_2  and  C3_4 
REMARK    3  A    between atoms: C4_5  and  C5_6 
REMARK    4  A    between atoms: C5_6  and  O2_7 
REMARK    5  A    between atoms: C9_11  and  O3_12 
REMARK    6  A    between atoms: O3_12  and  C10_13 
REMARK    7  A    between atoms: C11_15  and  C12_16 
REMARK    8  A    between atoms: C12_16  and  O5_17 
REMARK    9  A    between atoms: C13_18  and  O6_19 
REMARK   10  A    between atoms: C14_20  and  O7_21 
REMARK   11  A    between atoms: C15_22  and  O8_23 
ROOT
HETATM    1  C5  UNL     1      -1.198  50.980 -19.574  1.00  0.00     0.086 C 
HETATM    2  C6  UNL     1       0.017  51.838 -20.090  1.00  0.00     0.023 C 
HETATM    3  C7  UNL     1       0.433  52.969 -19.134  1.00  0.00     0.013 C 
HETATM    4  C8  UNL     1      -0.303  52.455 -21.458  1.00  0.00     0.039 C 
HETATM    5  C9  UNL     1      -0.493  51.397 -22.545  1.00  0.00     0.126 C 
HETATM    6  C16 UNL     1      -0.873  50.026 -21.965  1.00  0.00     0.044 C 
HETATM    7  C17 UNL     1      -1.834  50.084 -20.745  1.00  0.00    -0.010 C 
HETATM    8  C18 UNL     1      -3.214  50.619 -21.205  1.00  0.00     0.018 C 
HETATM    9  C19 UNL     1      -2.084  48.610 -20.323  1.00  0.00     0.018 C 
ENDROOT
BRANCH   5  10
HETATM   10  O3  UNL     1      -1.510  51.783 -23.475  1.00  0.00    -0.353 OA
BRANCH  10  11
HETATM   11  C10 UNL     1      -1.233  51.442 -24.838  1.00  0.00     0.292 C 
HETATM   12  O4  UNL     1       0.157  51.530 -25.135  1.00  0.00    -0.348 OA
HETATM   13  C11 UNL     1       0.612  52.749 -25.741  1.00  0.00     0.179 C 
HETATM   14  C13 UNL     1      -0.093  52.988 -27.094  1.00  0.00     0.180 C 
HETATM   15  C14 UNL     1      -1.531  52.454 -27.127  1.00  0.00     0.183 C 
HETATM   16  C15 UNL     1      -2.132  52.324 -25.736  1.00  0.00     0.204 C 
BRANCH  13  17
HETATM   17  C12 UNL     1       0.529  53.962 -24.796  1.00  0.00     0.198 C 
BRANCH  17  18
HETATM   18  O5  UNL     1       0.233  55.138 -25.551  1.00  0.00    -0.398 OA
HETATM   19  H20 UNL     1       0.906  55.814 -25.326  1.00  0.00     0.209 HD
ENDBRANCH  17  18
ENDBRANCH  13  17
BRANCH  14  20
HETATM   20  O6  UNL     1       0.626  52.288 -28.134  1.00  0.00    -0.390 OA
HETATM   21  H22 UNL     1       1.507  52.694 -28.205  1.00  0.00     0.210 HD
ENDBRANCH  14  20
BRANCH  15  22
HETATM   22  O7  UNL     1      -2.353  53.344 -27.906  1.00  0.00    -0.390 OA
HETATM   23  H24 UNL     1      -3.277  53.087 -27.720  1.00  0.00     0.210 HD
ENDBRANCH  15  22
BRANCH  16  24
HETATM   24  O8  UNL     1      -3.473  51.800 -25.859  1.00  0.00    -0.388 OA
HETATM   25  H26 UNL     1      -3.409  50.861 -26.108  1.00  0.00     0.210 HD
ENDBRANCH  16  24
ENDBRANCH  10  11
ENDBRANCH   5  10
BRANCH   1  26
HETATM   26  C4  UNL     1      -0.887  50.169 -18.322  1.00  0.00     0.010 C 
HETATM   27  C3  UNL     1      -0.332  50.579 -17.166  1.00  0.00     0.003 C 
BRANCH  27  28
HETATM   28  C2  UNL     1      -0.037  49.724 -15.959  1.00  0.00     0.136 C 
HETATM   29  C1  UNL     1       1.148  50.270 -15.166  1.00  0.00     0.043 C 
BRANCH  28  30
HETATM   30  O1  UNL     1       0.243  48.380 -16.337  1.00  0.00    -0.392 OA
HETATM   31  H5  UNL     1       1.078  48.392 -16.837  1.00  0.00     0.210 HD
ENDBRANCH  28  30
ENDBRANCH  27  28
ENDBRANCH   1  26
BRANCH   1  32
HETATM   32  O2  UNL     1      -2.209  51.913 -19.141  1.00  0.00    -0.385 OA
HETATM   33  H8  UNL     1      -1.922  52.288 -18.290  1.00  0.00     0.211 HD
ENDBRANCH   1  32
TORSDOF 11
ENDMDL
MODEL 5
REMARK minimizedAffinity -7.90064001
REMARK  11 active torsions:
REMARK  status: ('A' for Active; 'I' for Inactive)
REMARK    1  A    between atoms: C2_2  and  O1_3 
REMARK    2  A    between atoms: C2_2  and  C3_4 
REMARK    3  A    between atoms: C4_5  and  C5_6 
REMARK    4  A    between atoms: C5_6  and  O2_7 
REMARK    5  A    between atoms: C9_11  and  O3_12 
REMARK    6  A    between atoms: O3_12  and  C10_13 
REMARK    7  A    between atoms: C11_15  and  C12_16 
REMARK    8  A    between atoms: C12_16  and  O5_17 
REMARK    9  A    between atoms: C13_18  and  O6_19 
REMARK   10  A    between atoms: C14_20  and  O7_21 
REMARK   11  A    between atoms: C15_22  and  O8_23 
ROOT
HETATM    1  C5  UNL     1      -2.489  51.908 -24.649  1.00  0.00     0.086 C 
HETATM    2  C6  UNL     1      -3.439  51.443 -23.484  1.00  0.00     0.023 C 
HETATM    3  C7  UNL     1      -4.897  51.908 -23.643  1.00  0.00     0.013 C 
HETATM    4  C8  UNL     1      -2.918  51.945 -22.130  1.00  0.00     0.039 C 
HETATM    5  C9  UNL     1      -1.564  51.335 -21.765  1.00  0.00     0.126 C 
HETATM    6  C16 UNL     1      -0.796  50.839 -23.000  1.00  0.00     0.044 C 
HETATM    7  C17 UNL     1      -0.941  51.739 -24.257  1.00  0.00    -0.010 C 
HETATM    8  C18 UNL     1      -0.254  53.103 -23.994  1.00  0.00     0.018 C 
HETATM    9  C19 UNL     1      -0.097  51.062 -25.372  1.00  0.00     0.018 C 
ENDROOT
BRANCH   5  10
HETATM   10  O3  UNL     1      -0.737  52.280 -21.078  1.00  0.00    -0.353 OA
BRANCH  10  11
HETATM   11  C10 UNL     1       0.158  51.704 -20.121  1.00  0.00     0.292 C 
HETATM   12  O4  UNL     1      -0.362  50.500 -19.565  1.00  0.00    -0.348 OA
HETATM   13  C11 UNL     1      -1.039  50.611 -18.304  1.00  0.00     0.179 C 
HETATM   14  C13 UNL     1      -0.093  51.166 -17.218  1.00  0.00     0.180 C 
HETATM   15  C14 UNL     1       0.942  52.157 -17.768  1.00  0.00     0.183 C 
HETATM   16  C15 UNL     1       0.495  52.793 -19.076  1.00  0.00     0.204 C 
BRANCH  13  17
HETATM   17  C12 UNL     1      -2.368  51.384 -18.398  1.00  0.00     0.198 C 
BRANCH  17  18
HETATM   18  O5  UNL     1      -3.052  51.314 -17.145  1.00  0.00    -0.398 OA
HETATM   19  H20 UNL     1      -3.961  50.993 -17.319  1.00  0.00     0.209 HD
ENDBRANCH  17  18
ENDBRANCH  13  17
BRANCH  14  20
HETATM   20  O6  UNL     1       0.655  50.076 -16.637  1.00  0.00    -0.390 OA
HETATM   21  H22 UNL     1       0.022  49.494 -16.181  1.00  0.00     0.210 HD
ENDBRANCH  14  20
BRANCH  15  22
HETATM   22  O7  UNL     1       1.170  53.198 -16.799  1.00  0.00    -0.390 OA
HETATM   23  H24 UNL     1       1.656  53.902 -17.272  1.00  0.00     0.210 HD
ENDBRANCH  15  22
BRANCH  16  24
HETATM   24  O8  UNL     1       1.532  53.691 -19.530  1.00  0.00    -0.388 OA
HETATM   25  H26 UNL     1       2.281  53.155 -19.845  1.00  0.00     0.210 HD
ENDBRANCH  16  24
ENDBRANCH  10  11
ENDBRANCH   5  10
BRANCH   1  26
HETATM   26  C4  UNL     1      -2.822  51.282 -25.997  1.00  0.00     0.010 C 
HETATM   27  C3  UNL     1      -3.569  50.193 -26.262  1.00  0.00     0.003 C 
BRANCH  27  28
HETATM   28  C2  UNL     1      -3.856  49.611 -27.624  1.00  0.00     0.136 C 
HETATM   29  C1  UNL     1      -3.510  48.126 -27.679  1.00  0.00     0.043 C 
BRANCH  28  30
HETATM   30  O1  UNL     1      -3.125  50.291 -28.638  1.00  0.00    -0.392 OA
HETATM   31  H5  UNL     1      -2.182  50.102 -28.487  1.00  0.00     0.210 HD
ENDBRANCH  28  30
ENDBRANCH  27  28
ENDBRANCH   1  26
BRANCH   1  32
HETATM   32  O2  UNL     1      -2.738  53.315 -24.849  1.00  0.00    -0.385 OA
HETATM   33  H8  UNL     1      -3.590  53.403 -25.310  1.00  0.00     0.211 HD
ENDBRANCH   1  32
TORSDOF 11
ENDMDL
MODEL 6
REMARK minimizedAffinity -7.86217594
REMARK  11 active torsions:
REMARK  status: ('A' for Active; 'I' for Inactive)
REMARK    1  A    between atoms: C2_2  and  O1_3 
REMARK    2  A    between atoms: C2_2  and  C3_4 
REMARK    3  A    between atoms: C4_5  and  C5_6 
REMARK    4  A    between atoms: C5_6  and  O2_7 
REMARK    5  A    between atoms: C9_11  and  O3_12 
REMARK    6  A    between atoms: O3_12  and  C10_13 
REMARK    7  A    between atoms: C11_15  and  C12_16 
REMARK    8  A    between atoms: C12_16  and  O5_17 
REMARK    9  A    between atoms: C13_18  and  O6_19 
REMARK   10  A    between atoms: C14_20  and  O7_21 
REMARK   11  A    between atoms: C15_22  and  O8_23 
ROOT
HETATM    1  C5  UNL     1       6.214  64.700 -35.997  1.00  0.00     0.086 C 
HETATM    2  C6  UNL     1       5.112  64.844 -34.883  1.00  0.00     0.023 C 
HETATM    3  C7  UNL     1       4.546  63.503 -34.387  1.00  0.00     0.013 C 
HETATM    4  C8  UNL     1       3.946  65.704 -35.388  1.00  0.00     0.039 C 
HETATM    5  C9  UNL     1       4.366  67.145 -35.678  1.00  0.00     0.126 C 
HETATM    6  C16 UNL     1       5.875  67.271 -35.940  1.00  0.00     0.044 C 
HETATM    7  C17 UNL     1       6.492  66.094 -36.744  1.00  0.00    -0.010 C 
HETATM    8  C18 UNL     1       5.925  66.105 -38.186  1.00  0.00     0.018 C 
HETATM    9  C19 UNL     1       8.003  66.419 -36.894  1.00  0.00     0.018 C 
ENDROOT
BRANCH   5  10
HETATM   10  O3  UNL     1       3.673  67.671 -36.813  1.00  0.00    -0.353 OA
BRANCH  10  11
HETATM   11  C10 UNL     1       2.397  67.072 -37.062  1.00  0.00     0.292 C 
HETATM   12  O4  UNL     1       2.450  66.134 -38.132  1.00  0.00    -0.348 OA
HETATM   13  C11 UNL     1       2.059  66.611 -39.429  1.00  0.00     0.179 C 
HETATM   14  C13 UNL     1       0.596  67.105 -39.416  1.00  0.00     0.180 C 
HETATM   15  C14 UNL     1       0.180  67.720 -38.073  1.00  0.00     0.183 C 
HETATM   16  C15 UNL     1       1.373  68.213 -37.267  1.00  0.00     0.204 C 
BRANCH  13  17
HETATM   17  C12 UNL     1       3.039  67.645 -40.014  1.00  0.00     0.198 C 
BRANCH  17  18
HETATM   18  O5  UNL     1       2.793  67.800 -41.413  1.00  0.00    -0.398 OA
HETATM   19  H20 UNL     1       3.645  67.673 -41.881  1.00  0.00     0.209 HD
ENDBRANCH  17  18
ENDBRANCH  13  17
BRANCH  14  20
HETATM   20  O6  UNL     1      -0.286  65.985 -39.642  1.00  0.00    -0.390 OA
HETATM   21  H22 UNL     1      -0.114  65.652 -40.540  1.00  0.00     0.210 HD
ENDBRANCH  14  20
BRANCH  15  22
HETATM   22  O7  UNL     1      -0.710  68.828 -38.310  1.00  0.00    -0.390 OA
HETATM   23  H24 UNL     1      -0.771  69.309 -37.461  1.00  0.00     0.210 HD
ENDBRANCH  15  22
BRANCH  16  24
HETATM   24  O8  UNL     1       0.893  68.756 -36.017  1.00  0.00    -0.388 OA
HETATM   25  H26 UNL     1       0.601  68.015 -35.457  1.00  0.00     0.210 HD
ENDBRANCH  16  24
ENDBRANCH  10  11
ENDBRANCH   5  10
BRANCH   1  26
HETATM   26  C4  UNL     1       7.495  64.034 -35.508  1.00  0.00     0.010 C 
HETATM   27  C3  UNL     1       7.946  63.892 -34.246  1.00  0.00     0.003 C 
BRANCH  27  28
HETATM   28  C2  UNL     1       9.233  63.230 -33.823  1.00  0.00     0.136 C 
HETATM   29  C1  UNL     1       9.029  61.743 -33.549  1.00  0.00     0.043 C 
BRANCH  28  30
HETATM   30  O1  UNL     1       9.767  63.844 -32.655  1.00  0.00    -0.392 OA
HETATM   31  H5  UNL     1       9.149  63.660 -31.927  1.00  0.00     0.210 HD
ENDBRANCH  28  30
ENDBRANCH  27  28
ENDBRANCH   1  26
BRANCH   1  32
HETATM   32  O2  UNL     1       5.695  63.776 -36.975  1.00  0.00    -0.385 OA
HETATM   33  H8  UNL     1       5.750  62.881 -36.597  1.00  0.00     0.211 HD
ENDBRANCH   1  32
TORSDOF 11
ENDMDL
MODEL 7
REMARK minimizedAffinity -7.83379507
REMARK  11 active torsions:
REMARK  status: ('A' for Active; 'I' for Inactive)
REMARK    1  A    between atoms: C2_2  and  O1_3 
REMARK    2  A    between atoms: C2_2  and  C3_4 
REMARK    3  A    between atoms: C4_5  and  C5_6 
REMARK    4  A    between atoms: C5_6  and  O2_7 
REMARK    5  A    between atoms: C9_11  and  O3_12 
REMARK    6  A    between atoms: O3_12  and  C10_13 
REMARK    7  A    between atoms: C11_15  and  C12_16 
REMARK    8  A    between atoms: C12_16  and  O5_17 
REMARK    9  A    between atoms: C13_18  and  O6_19 
REMARK   10  A    between atoms: C14_20  and  O7_21 
REMARK   11  A    between atoms: C15_22  and  O8_23 
ROOT
HETATM    1  C5  UNL     1      -2.601  50.785 -25.422  1.00  0.00     0.086 C 
HETATM    2  C6  UNL     1      -2.632  49.217 -25.300  1.00  0.00     0.023 C 
HETATM    3  C7  UNL     1      -3.231  48.507 -26.527  1.00  0.00     0.013 C 
HETATM    4  C8  UNL     1      -3.426  48.789 -24.058  1.00  0.00     0.039 C 
HETATM    5  C9  UNL     1      -2.764  49.245 -22.758  1.00  0.00     0.126 C 
HETATM    6  C16 UNL     1      -1.828  50.445 -22.969  1.00  0.00     0.044 C 
HETATM    7  C17 UNL     1      -2.336  51.487 -24.002  1.00  0.00    -0.010 C 
HETATM    8  C18 UNL     1      -3.606  52.181 -23.449  1.00  0.00     0.018 C 
HETATM    9  C19 UNL     1      -1.253  52.599 -24.060  1.00  0.00     0.018 C 
ENDROOT
BRANCH   5  10
HETATM   10  O3  UNL     1      -3.741  49.611 -21.778  1.00  0.00    -0.353 OA
BRANCH  10  11
HETATM   11  C10 UNL     1      -4.026  48.594 -20.812  1.00  0.00     0.292 C 
HETATM   12  O4  UNL     1      -5.354  48.096 -20.941  1.00  0.00    -0.348 OA
HETATM   13  C11 UNL     1      -6.346  48.669 -20.076  1.00  0.00     0.179 C 
HETATM   14  C13 UNL     1      -5.984  48.436 -18.594  1.00  0.00     0.180 C 
HETATM   15  C14 UNL     1      -4.472  48.424 -18.336  1.00  0.00     0.183 C 
HETATM   16  C15 UNL     1      -3.696  49.167 -19.414  1.00  0.00     0.204 C 
BRANCH  13  17
HETATM   17  C12 UNL     1      -6.649  50.145 -20.398  1.00  0.00     0.198 C 
BRANCH  17  18
HETATM   18  O5  UNL     1      -6.760  50.313 -21.812  1.00  0.00    -0.398 OA
HETATM   19  H20 UNL     1      -6.159  51.042 -22.073  1.00  0.00     0.209 HD
ENDBRANCH  17  18
ENDBRANCH  13  17
BRANCH  14  20
HETATM   20  O6  UNL     1      -6.478  47.143 -18.182  1.00  0.00    -0.390 OA
HETATM   21  H22 UNL     1      -7.449  47.170 -18.229  1.00  0.00     0.210 HD
ENDBRANCH  14  20
BRANCH  15  22
HETATM   22  O7  UNL     1      -4.199  49.037 -17.062  1.00  0.00    -0.390 OA
HETATM   23  H24 UNL     1      -3.235  49.199 -17.043  1.00  0.00     0.210 HD
ENDBRANCH  15  22
BRANCH  16  24
HETATM   24  O8  UNL     1      -2.287  49.090 -19.104  1.00  0.00    -0.388 OA
HETATM   25  H26 UNL     1      -1.989  48.179 -19.274  1.00  0.00     0.210 HD
ENDBRANCH  16  24
ENDBRANCH  10  11
ENDBRANCH   5  10
BRANCH   1  26
HETATM   26  C4  UNL     1      -1.663  51.296 -26.510  1.00  0.00     0.010 C 
HETATM   27  C3  UNL     1      -0.412  50.894 -26.805  1.00  0.00     0.003 C 
BRANCH  27  28
HETATM   28  C2  UNL     1       0.475  51.448 -27.892  1.00  0.00     0.136 C 
HETATM   29  C1  UNL     1       1.844  51.843 -27.345  1.00  0.00     0.043 C 
BRANCH  28  30
HETATM   30  O1  UNL     1      -0.118  52.584 -28.511  1.00  0.00    -0.392 OA
HETATM   31  H5  UNL     1      -0.151  53.290 -27.842  1.00  0.00     0.210 HD
ENDBRANCH  28  30
ENDBRANCH  27  28
ENDBRANCH   1  26
BRANCH   1  32
HETATM   32  O2  UNL     1      -3.909  51.191 -25.873  1.00  0.00    -0.385 OA
HETATM   33  H8  UNL     1      -3.979  50.972 -26.818  1.00  0.00     0.211 HD
ENDBRANCH   1  32
TORSDOF 11
ENDMDL
MODEL 8
REMARK minimizedAffinity -7.8156271
REMARK  11 active torsions:
REMARK  status: ('A' for Active; 'I' for Inactive)
REMARK    1  A    between atoms: C2_2  and  O1_3 
REMARK    2  A    between atoms: C2_2  and  C3_4 
REMARK    3  A    between atoms: C4_5  and  C5_6 
REMARK    4  A    between atoms: C5_6  and  O2_7 
REMARK    5  A    between atoms: C9_11  and  O3_12 
REMARK    6  A    between atoms: O3_12  and  C10_13 
REMARK    7  A    between atoms: C11_15  and  C12_16 
REMARK    8  A    between atoms: C12_16  and  O5_17 
REMARK    9  A    between atoms: C13_18  and  O6_19 
REMARK   10  A    between atoms: C14_20  and  O7_21 
REMARK   11  A    between atoms: C15_22  and  O8_23 
ROOT
HETATM    1  C5  UNL     1      -4.005  48.926 -21.292  1.00  0.00     0.086 C 
HETATM    2  C6  UNL     1      -4.506  50.409 -21.128  1.00  0.00     0.023 C 
HETATM    3  C7  UNL     1      -5.976  50.526 -20.687  1.00  0.00     0.013 C 
HETATM    4  C8  UNL     1      -4.332  51.184 -22.441  1.00  0.00     0.039 C 
HETATM    5  C9  UNL     1      -2.863  51.334 -22.838  1.00  0.00     0.126 C 
HETATM    6  C16 UNL     1      -1.973  50.259 -22.198  1.00  0.00     0.044 C 
HETATM    7  C17 UNL     1      -2.623  48.851 -22.105  1.00  0.00    -0.010 C 
HETATM    8  C18 UNL     1      -2.818  48.282 -23.533  1.00  0.00     0.018 C 
HETATM    9  C19 UNL     1      -1.566  47.931 -21.436  1.00  0.00     0.018 C 
ENDROOT
BRANCH   5  10
HETATM   10  O3  UNL     1      -2.699  51.261 -24.258  1.00  0.00    -0.353 OA
BRANCH  10  11
HETATM   11  C10 UNL     1      -2.200  52.458 -24.863  1.00  0.00     0.292 C 
HETATM   12  O4  UNL     1      -2.975  52.843 -25.995  1.00  0.00    -0.348 OA
HETATM   13  C11 UNL     1      -2.484  52.436 -27.281  1.00  0.00     0.179 C 
HETATM   14  C13 UNL     1      -1.083  53.026 -27.548  1.00  0.00     0.180 C 
HETATM   15  C14 UNL     1      -0.239  53.176 -26.275  1.00  0.00     0.183 C 
HETATM   16  C15 UNL     1      -0.699  52.244 -25.164  1.00  0.00     0.204 C 
BRANCH  13  17
HETATM   17  C12 UNL     1      -2.548  50.912 -27.498  1.00  0.00     0.198 C 
BRANCH  17  18
HETATM   18  O5  UNL     1      -3.324  50.627 -28.663  1.00  0.00    -0.398 OA
HETATM   19  H20 UNL     1      -4.014  49.978 -28.410  1.00  0.00     0.209 HD
ENDBRANCH  17  18
ENDBRANCH  13  17
BRANCH  14  20
HETATM   20  O6  UNL     1      -1.224  54.353 -28.102  1.00  0.00    -0.390 OA
HETATM   21  H22 UNL     1      -1.657  54.264 -28.969  1.00  0.00     0.210 HD
ENDBRANCH  14  20
BRANCH  15  22
HETATM   22  O7  UNL     1       1.139  52.892 -26.579  1.00  0.00    -0.390 OA
HETATM   23  H24 UNL     1       1.588  52.790 -25.717  1.00  0.00     0.210 HD
ENDBRANCH  15  22
BRANCH  16  24
HETATM   24  O8  UNL     1       0.133  52.465 -24.003  1.00  0.00    -0.388 OA
HETATM   25  H26 UNL     1      -0.107  53.326 -23.617  1.00  0.00     0.210 HD
ENDBRANCH  16  24
ENDBRANCH  10  11
ENDBRANCH   5  10
BRANCH   1  26
HETATM   26  C4  UNL     1      -3.954  48.149 -19.981  1.00  0.00     0.010 C 
HETATM   27  C3  UNL     1      -3.759  48.612 -18.731  1.00  0.00     0.003 C 
BRANCH  27  28
HETATM   28  C2  UNL     1      -3.707  47.789 -17.468  1.00  0.00     0.136 C 
HETATM   29  C1  UNL     1      -3.191  46.380 -17.743  1.00  0.00     0.043 C 
BRANCH  28  30
HETATM   30  O1  UNL     1      -4.991  47.698 -16.861  1.00  0.00    -0.392 OA
HETATM   31  H5  UNL     1      -5.557  47.183 -17.463  1.00  0.00     0.210 HD
ENDBRANCH  28  30
ENDBRANCH  27  28
ENDBRANCH   1  26
BRANCH   1  32
HETATM   32  O2  UNL     1      -5.006  48.234 -22.065  1.00  0.00    -0.385 OA
HETATM   33  H8  UNL     1      -5.769  48.068 -21.485  1.00  0.00     0.211 HD
ENDBRANCH   1  32
TORSDOF 11
ENDMDL
MODEL 9
REMARK minimizedAffinity -7.81291866
REMARK  11 active torsions:
REMARK  status: ('A' for Active; 'I' for Inactive)
REMARK    1  A    between atoms: C2_2  and  O1_3 
REMARK    2  A    between atoms: C2_2  and  C3_4 
REMARK    3  A    between atoms: C4_5  and  C5_6 
REMARK    4  A    between atoms: C5_6  and  O2_7 
REMARK    5  A    between atoms: C9_11  and  O3_12 
REMARK    6  A    between atoms: O3_12  and  C10_13 
REMARK    7  A    between atoms: C11_15  and  C12_16 
REMARK    8  A    between atoms: C12_16  and  O5_17 
REMARK    9  A    between atoms: C13_18  and  O6_19 
REMARK   10  A    between atoms: C14_20  and  O7_21 
REMARK   11  A    between atoms: C15_22  and  O8_23 
ROOT
HETATM    1  C5  UNL     1      -2.638  50.722 -25.376  1.00  0.00     0.086 C 
HETATM    2  C6  UNL     1      -2.684  49.160 -25.563  1.00  0.00     0.023 C 
HETATM    3  C7  UNL     1      -3.340  48.707 -26.879  1.00  0.00     0.013 C 
HETATM    4  C8  UNL     1      -3.435  48.501 -24.398  1.00  0.00     0.039 C 
HETATM    5  C9  UNL     1      -2.717  48.689 -23.061  1.00  0.00     0.126 C 
HETATM    6  C16 UNL     1      -1.774  49.903 -23.072  1.00  0.00     0.044 C 
HETATM    7  C17 UNL     1      -2.309  51.130 -23.859  1.00  0.00    -0.010 C 
HETATM    8  C18 UNL     1      -3.548  51.708 -23.129  1.00  0.00     0.018 C 
HETATM    9  C19 UNL     1      -1.215  52.227 -23.742  1.00  0.00     0.018 C 
ENDROOT
BRANCH   5  10
HETATM   10  O3  UNL     1      -3.650  48.861 -21.990  1.00  0.00    -0.353 OA
BRANCH  10  11
HETATM   11  C10 UNL     1      -3.066  48.850 -20.683  1.00  0.00     0.292 C 
HETATM   12  O4  UNL     1      -2.331  47.656 -20.439  1.00  0.00    -0.348 OA
HETATM   13  C11 UNL     1      -3.014  46.610 -19.731  1.00  0.00     0.179 C 
HETATM   14  C13 UNL     1      -3.455  47.091 -18.331  1.00  0.00     0.180 C 
HETATM   15  C14 UNL     1      -3.814  48.582 -18.291  1.00  0.00     0.183 C 
HETATM   16  C15 UNL     1      -4.193  49.123 -19.661  1.00  0.00     0.204 C 
BRANCH  13  17
HETATM   17  C12 UNL     1      -4.164  45.982 -20.542  1.00  0.00     0.198 C 
BRANCH  17  18
HETATM   18  O5  UNL     1      -3.823  44.640 -20.894  1.00  0.00    -0.398 OA
HETATM   19  H20 UNL     1      -3.939  44.548 -21.863  1.00  0.00     0.209 HD
ENDBRANCH  17  18
ENDBRANCH  13  17
BRANCH  14  20
HETATM   20  O6  UNL     1      -2.366  46.908 -17.401  1.00  0.00    -0.390 OA
HETATM   21  H22 UNL     1      -2.201  45.952 -17.327  1.00  0.00     0.210 HD
ENDBRANCH  14  20
BRANCH  15  22
HETATM   22  O7  UNL     1      -4.919  48.784 -17.389  1.00  0.00    -0.390 OA
HETATM   23  H24 UNL     1      -5.242  49.691 -17.560  1.00  0.00     0.210 HD
ENDBRANCH  15  22
BRANCH  16  24
HETATM   24  O8  UNL     1      -4.495  50.531 -19.534  1.00  0.00    -0.388 OA
HETATM   25  H26 UNL     1      -3.659  51.008 -19.385  1.00  0.00     0.210 HD
ENDBRANCH  16  24
ENDBRANCH  10  11
ENDBRANCH   5  10
BRANCH   1  26
HETATM   26  C4  UNL     1      -1.738  51.432 -26.381  1.00  0.00     0.010 C 
HETATM   27  C3  UNL     1      -0.658  50.957 -27.032  1.00  0.00     0.003 C 
BRANCH  27  28
HETATM   28  C2  UNL     1       0.203  51.714 -28.011  1.00  0.00     0.136 C 
HETATM   29  C1  UNL     1       1.573  52.031 -27.417  1.00  0.00     0.043 C 
BRANCH  28  30
HETATM   30  O1  UNL     1      -0.417  52.932 -28.408  1.00  0.00    -0.392 OA
HETATM   31  H5  UNL     1      -0.453  53.505 -27.623  1.00  0.00     0.210 HD
ENDBRANCH  28  30
ENDBRANCH  27  28
ENDBRANCH   1  26
BRANCH   1  32
HETATM   32  O2  UNL     1      -3.958  51.215 -25.685  1.00  0.00    -0.385 OA
HETATM   33  H8  UNL     1      -4.068  51.185 -26.651  1.00  0.00     0.211 HD
ENDBRANCH   1  32
TORSDOF 11
ENDMDL
