MODEL 1
REMARK minimizedAffinity -8.34909725
REMARK  13 active torsions:
REMARK  status: ('A' for Active; 'I' for Inactive)
REMARK    1  A    between atoms: C4_4  and  C5_5 
REMARK    2  A    between atoms: C5_5  and  C6_6 
REMARK    3  A    between atoms: C6_6  and  C7_7 
REMARK    4  A    between atoms: C9_9  and  C10_10 
REMARK    5  A    between atoms: C11_11  and  C12_12 
REMARK    6  A    between atoms: C14_14  and  C15_15 
REMARK    7  A    between atoms: C18_18  and  O1_19 
REMARK    8  A    between atoms: C19_21  and  C20_22 
REMARK    9  A    between atoms: C20_22  and  C21_23 
REMARK   10  A    between atoms: C21_23  and  C22_24 
REMARK   11  A    between atoms: C22_24  and  O3_25 
REMARK   12  A    between atoms: C24_27  and  C26_29 
REMARK   13  A    between atoms: C29_33  and  O5_35 
ROOT
HETATM    1  C15 UNL     1      -2.942  49.055 -26.283  1.00  0.00     0.149 C 
HETATM    2  C16 UNL     1      -3.386  50.408 -25.692  1.00  0.00     0.054 C 
HETATM    3  C17 UNL     1      -3.262  50.185 -24.164  1.00  0.00     0.050 C 
HETATM    4  C18 UNL     1      -3.749  48.726 -24.154  1.00  0.00     0.270 C 
HETATM    5  O2  UNL     1      -3.074  48.083 -25.227  1.00  0.00    -0.351 OA
HETATM    6  C19 UNL     1      -1.720  50.363 -23.777  1.00  0.00     0.032 C 
HETATM    7  C23 UNL     1      -1.320  51.856 -23.846  1.00  0.00    -0.066 C 
HETATM    8  C24 UNL     1      -0.296  52.307 -24.615  1.00  0.00    -0.021 C 
HETATM    9  C25 UNL     1       0.607  51.440 -25.456  1.00  0.00     0.052 C 
HETATM   10  C27 UNL     1      -2.217  52.719 -22.978  1.00  0.00     0.038 C 
HETATM   11  C28 UNL     1      -3.682  52.577 -23.384  1.00  0.00     0.042 C 
HETATM   12  C29 UNL     1      -4.174  51.122 -23.302  1.00  0.00     0.067 C 
HETATM   13  C30 UNL     1      -5.671  51.104 -23.657  1.00  0.00     0.047 C 
ENDROOT
BRANCH   4  14
HETATM   14  O1  UNL     1      -3.530  48.063 -22.936  1.00  0.00    -0.370 OA
HETATM   15  H26 UNL     1      -3.760  47.135 -23.123  1.00  0.00     0.212 HD
ENDBRANCH   4  14
BRANCH   6  16
HETATM   16  C20 UNL     1      -1.224  49.771 -22.431  1.00  0.00     0.012 C 
BRANCH  16  17
HETATM   17  C21 UNL     1      -0.421  50.789 -21.609  1.00  0.00     0.027 C 
BRANCH  17  18
HETATM   18  C22 UNL     1      -0.717  50.665 -20.121  1.00  0.00     0.164 C 
BRANCH  18  19
HETATM   19  O3  UNL     1       0.063  51.603 -19.391  1.00  0.00    -0.401 OA
HETATM   20  H34 UNL     1      -0.149  52.488 -19.733  1.00  0.00     0.209 HD
ENDBRANCH  18  19
ENDBRANCH  17  18
ENDBRANCH  16  17
ENDBRANCH   6  16
BRANCH  12  21
HETATM   21  O5  UNL     1      -4.119  50.744 -21.919  1.00  0.00    -0.389 OA
HETATM   22  H46 UNL     1      -4.168  49.771 -21.862  1.00  0.00     0.210 HD
ENDBRANCH  12  21
BRANCH   1  23
HETATM   23  C14 UNL     1      -3.790  48.606 -27.438  1.00  0.00     0.011 C 
HETATM   24  C12 UNL     1      -5.058  48.139 -27.411  1.00  0.00    -0.063 C 
HETATM   25  C13 UNL     1      -5.889  48.030 -26.157  1.00  0.00     0.048 C 
BRANCH  24  26
HETATM   26  C11 UNL     1      -5.677  47.732 -28.677  1.00  0.00     0.006 C 
HETATM   27  C10 UNL     1      -6.991  47.749 -28.966  1.00  0.00     0.001 C 
BRANCH  27  28
HETATM   28  C9  UNL     1      -7.509  47.326 -30.252  1.00  0.00     0.002 C 
HETATM   29  C7  UNL     1      -8.195  48.074 -31.139  1.00  0.00    -0.084 C 
HETATM   30  C8  UNL     1      -8.580  49.521 -30.967  1.00  0.00     0.043 C 
BRANCH  29  31
HETATM   31  C6  UNL     1      -8.662  47.452 -32.446  1.00  0.00     0.037 C 
BRANCH  31  32
HETATM   32  C5  UNL     1      -7.574  46.601 -33.110  1.00  0.00     0.031 C 
BRANCH  32  33
HETATM   33  C4  UNL     1      -6.487  47.462 -33.697  1.00  0.00    -0.024 C 
HETATM   34  C2  UNL     1      -5.175  47.459 -33.393  1.00  0.00    -0.091 C 
HETATM   35  C1  UNL     1      -4.527  46.597 -32.345  1.00  0.00     0.042 C 
HETATM   36  C3  UNL     1      -4.219  48.375 -34.115  1.00  0.00     0.042 C 
ENDBRANCH  32  33
ENDBRANCH  31  32
ENDBRANCH  29  31
ENDBRANCH  27  28
ENDBRANCH  24  26
ENDBRANCH   1  23
BRANCH   8  37
HETATM   37  C26 UNL     1       0.064  53.761 -24.702  1.00  0.00     0.265 C 
HETATM   38  O4  UNL     1       0.590  54.254 -25.696  1.00  0.00    -0.302 OA
ENDBRANCH   8  37
TORSDOF 13
ENDMDL
MODEL 2
REMARK minimizedAffinity -8.25627136
REMARK  13 active torsions:
REMARK  status: ('A' for Active; 'I' for Inactive)
REMARK    1  A    between atoms: C4_4  and  C5_5 
REMARK    2  A    between atoms: C5_5  and  C6_6 
REMARK    3  A    between atoms: C6_6  and  C7_7 
REMARK    4  A    between atoms: C9_9  and  C10_10 
REMARK    5  A    between atoms: C11_11  and  C12_12 
REMARK    6  A    between atoms: C14_14  and  C15_15 
REMARK    7  A    between atoms: C18_18  and  O1_19 
REMARK    8  A    between atoms: C19_21  and  C20_22 
REMARK    9  A    between atoms: C20_22  and  C21_23 
REMARK   10  A    between atoms: C21_23  and  C22_24 
REMARK   11  A    between atoms: C22_24  and  O3_25 
REMARK   12  A    between atoms: C24_27  and  C26_29 
REMARK   13  A    between atoms: C29_33  and  O5_35 
ROOT
HETATM    1  C15 UNL     1      -5.525  48.237 -24.678  1.00  0.00     0.149 C 
HETATM    2  C16 UNL     1      -4.332  49.181 -24.425  1.00  0.00     0.054 C 
HETATM    3  C17 UNL     1      -4.831  50.078 -23.265  1.00  0.00     0.050 C 
HETATM    4  C18 UNL     1      -6.289  50.193 -23.739  1.00  0.00     0.270 C 
HETATM    5  O2  UNL     1      -6.683  48.878 -24.109  1.00  0.00    -0.351 OA
HETATM    6  C19 UNL     1      -4.647  49.253 -21.908  1.00  0.00     0.032 C 
HETATM    7  C23 UNL     1      -3.149  49.168 -21.531  1.00  0.00    -0.066 C 
HETATM    8  C24 UNL     1      -2.507  47.987 -21.333  1.00  0.00    -0.021 C 
HETATM    9  C25 UNL     1      -3.152  46.626 -21.401  1.00  0.00     0.052 C 
HETATM   10  C27 UNL     1      -2.512  50.542 -21.441  1.00  0.00     0.038 C 
HETATM   11  C28 UNL     1      -2.653  51.305 -22.756  1.00  0.00     0.042 C 
HETATM   12  C29 UNL     1      -4.122  51.472 -23.181  1.00  0.00     0.067 C 
HETATM   13  C30 UNL     1      -4.153  52.313 -24.469  1.00  0.00     0.047 C 
ENDROOT
BRANCH   4  14
HETATM   14  O1  UNL     1      -7.156  50.741 -22.781  1.00  0.00    -0.370 OA
HETATM   15  H26 UNL     1      -8.044  50.627 -23.166  1.00  0.00     0.212 HD
ENDBRANCH   4  14
BRANCH   6  16
HETATM   16  C20 UNL     1      -5.454  49.698 -20.658  1.00  0.00     0.012 C 
BRANCH  16  17
HETATM   17  C21 UNL     1      -6.267  48.547 -20.050  1.00  0.00     0.027 C 
BRANCH  17  18
HETATM   18  C22 UNL     1      -5.577  47.962 -18.825  1.00  0.00     0.164 C 
BRANCH  18  19
HETATM   19  O3  UNL     1      -6.175  48.475 -17.641  1.00  0.00    -0.401 OA
HETATM   20  H34 UNL     1      -7.121  48.249 -17.670  1.00  0.00     0.209 HD
ENDBRANCH  18  19
ENDBRANCH  17  18
ENDBRANCH  16  17
ENDBRANCH   6  16
BRANCH  12  21
HETATM   21  O5  UNL     1      -4.748  52.296 -22.188  1.00  0.00    -0.389 OA
HETATM   22  H46 UNL     1      -5.717  52.208 -22.279  1.00  0.00     0.210 HD
ENDBRANCH  12  21
BRANCH   1  23
HETATM   23  C14 UNL     1      -5.794  48.001 -26.137  1.00  0.00     0.011 C 
HETATM   24  C12 UNL     1      -4.936  48.121 -27.175  1.00  0.00    -0.063 C 
HETATM   25  C13 UNL     1      -3.481  48.488 -27.026  1.00  0.00     0.048 C 
BRANCH  24  26
HETATM   26  C11 UNL     1      -5.439  47.860 -28.527  1.00  0.00     0.006 C 
HETATM   27  C10 UNL     1      -6.721  47.920 -28.929  1.00  0.00     0.001 C 
BRANCH  27  28
HETATM   28  C9  UNL     1      -7.121  47.644 -30.295  1.00  0.00     0.002 C 
HETATM   29  C7  UNL     1      -7.888  48.415 -31.091  1.00  0.00    -0.084 C 
HETATM   30  C8  UNL     1      -8.506  49.737 -30.712  1.00  0.00     0.043 C 
BRANCH  29  31
HETATM   31  C6  UNL     1      -8.205  47.957 -32.505  1.00  0.00     0.037 C 
BRANCH  31  32
HETATM   32  C5  UNL     1      -7.236  46.879 -33.001  1.00  0.00     0.031 C 
BRANCH  32  33
HETATM   33  C4  UNL     1      -5.964  47.486 -33.532  1.00  0.00    -0.024 C 
HETATM   34  C2  UNL     1      -4.697  47.164 -33.210  1.00  0.00    -0.091 C 
HETATM   35  C1  UNL     1      -4.294  46.129 -32.196  1.00  0.00     0.042 C 
HETATM   36  C3  UNL     1      -3.537  47.861 -33.876  1.00  0.00     0.042 C 
ENDBRANCH  32  33
ENDBRANCH  31  32
ENDBRANCH  29  31
ENDBRANCH  27  28
ENDBRANCH  24  26
ENDBRANCH   1  23
BRANCH   8  37
HETATM   37  C26 UNL     1      -1.046  47.912 -21.003  1.00  0.00     0.265 C 
HETATM   38  O4  UNL     1      -0.392  48.895 -20.667  1.00  0.00    -0.302 OA
ENDBRANCH   8  37
TORSDOF 13
ENDMDL
MODEL 3
REMARK minimizedAffinity -8.23669434
REMARK  13 active torsions:
REMARK  status: ('A' for Active; 'I' for Inactive)
REMARK    1  A    between atoms: C4_4  and  C5_5 
REMARK    2  A    between atoms: C5_5  and  C6_6 
REMARK    3  A    between atoms: C6_6  and  C7_7 
REMARK    4  A    between atoms: C9_9  and  C10_10 
REMARK    5  A    between atoms: C11_11  and  C12_12 
REMARK    6  A    between atoms: C14_14  and  C15_15 
REMARK    7  A    between atoms: C18_18  and  O1_19 
REMARK    8  A    between atoms: C19_21  and  C20_22 
REMARK    9  A    between atoms: C20_22  and  C21_23 
REMARK   10  A    between atoms: C21_23  and  C22_24 
REMARK   11  A    between atoms: C22_24  and  O3_25 
REMARK   12  A    between atoms: C24_27  and  C26_29 
REMARK   13  A    between atoms: C29_33  and  O5_35 
ROOT
HETATM    1  C15 UNL     1      -5.269  48.383 -24.386  1.00  0.00     0.149 C 
HETATM    2  C16 UNL     1      -4.144  49.288 -23.843  1.00  0.00     0.054 C 
HETATM    3  C17 UNL     1      -4.851  50.103 -22.732  1.00  0.00     0.050 C 
HETATM    4  C18 UNL     1      -6.195  50.274 -23.461  1.00  0.00     0.270 C 
HETATM    5  O2  UNL     1      -6.513  48.997 -23.996  1.00  0.00    -0.351 OA
HETATM    6  C19 UNL     1      -4.926  49.177 -21.431  1.00  0.00     0.032 C 
HETATM    7  C23 UNL     1      -3.525  49.042 -20.789  1.00  0.00    -0.066 C 
HETATM    8  C24 UNL     1      -2.932  47.840 -20.564  1.00  0.00    -0.021 C 
HETATM    9  C25 UNL     1      -3.553  46.497 -20.854  1.00  0.00     0.052 C 
HETATM   10  C27 UNL     1      -2.916  50.396 -20.477  1.00  0.00     0.038 C 
HETATM   11  C28 UNL     1      -2.807  51.257 -21.733  1.00  0.00     0.042 C 
HETATM   12  C29 UNL     1      -4.170  51.476 -22.412  1.00  0.00     0.067 C 
HETATM   13  C30 UNL     1      -3.959  52.412 -23.615  1.00  0.00     0.047 C 
ENDROOT
BRANCH   4  14
HETATM   14  O1  UNL     1      -7.226  50.762 -22.642  1.00  0.00    -0.370 OA
HETATM   15  H26 UNL     1      -8.026  50.690 -23.194  1.00  0.00     0.212 HD
ENDBRANCH   4  14
BRANCH   6  16
HETATM   16  C20 UNL     1      -5.952  49.540 -20.324  1.00  0.00     0.012 C 
BRANCH  16  17
HETATM   17  C21 UNL     1      -6.641  48.298 -19.740  1.00  0.00     0.027 C 
BRANCH  17  18
HETATM   18  C22 UNL     1      -6.306  48.114 -18.267  1.00  0.00     0.164 C 
BRANCH  18  19
HETATM   19  O3  UNL     1      -7.329  48.687 -17.461  1.00  0.00    -0.401 OA
HETATM   20  H34 UNL     1      -8.166  48.256 -17.702  1.00  0.00     0.209 HD
ENDBRANCH  18  19
ENDBRANCH  17  18
ENDBRANCH  16  17
ENDBRANCH   6  16
BRANCH  12  21
HETATM   21  O5  UNL     1      -4.972  52.234 -21.494  1.00  0.00    -0.389 OA
HETATM   22  H46 UNL     1      -5.906  52.166 -21.770  1.00  0.00     0.210 HD
ENDBRANCH  12  21
BRANCH   1  23
HETATM   23  C14 UNL     1      -5.260  48.260 -25.883  1.00  0.00     0.011 C 
HETATM   24  C12 UNL     1      -4.209  48.379 -26.724  1.00  0.00    -0.063 C 
HETATM   25  C13 UNL     1      -2.792  48.623 -26.271  1.00  0.00     0.048 C 
BRANCH  24  26
HETATM   26  C11 UNL     1      -4.451  48.243 -28.164  1.00  0.00     0.006 C 
HETATM   27  C10 UNL     1      -5.553  47.737 -28.746  1.00  0.00     0.001 C 
BRANCH  27  28
HETATM   28  C9  UNL     1      -5.699  47.644 -30.184  1.00  0.00     0.002 C 
HETATM   29  C7  UNL     1      -6.138  46.584 -30.892  1.00  0.00    -0.084 C 
HETATM   30  C8  UNL     1      -6.563  45.254 -30.322  1.00  0.00     0.043 C 
BRANCH  29  31
HETATM   31  C6  UNL     1      -6.224  46.673 -32.407  1.00  0.00     0.037 C 
BRANCH  31  32
HETATM   32  C5  UNL     1      -7.323  47.633 -32.876  1.00  0.00     0.031 C 
BRANCH  32  33
HETATM   33  C4  UNL     1      -8.638  47.328 -32.208  1.00  0.00    -0.024 C 
HETATM   34  C2  UNL     1      -9.296  48.072 -31.299  1.00  0.00    -0.091 C 
HETATM   35  C1  UNL     1      -8.808  49.374 -30.724  1.00  0.00     0.042 C 
HETATM   36  C3  UNL     1     -10.631  47.622 -30.762  1.00  0.00     0.042 C 
ENDBRANCH  32  33
ENDBRANCH  31  32
ENDBRANCH  29  31
ENDBRANCH  27  28
ENDBRANCH  24  26
ENDBRANCH   1  23
BRANCH   8  37
HETATM   37  C26 UNL     1      -1.559  47.719 -19.973  1.00  0.00     0.265 C 
HETATM   38  O4  UNL     1      -0.539  47.754 -20.656  1.00  0.00    -0.302 OA
ENDBRANCH   8  37
TORSDOF 13
ENDMDL
MODEL 4
REMARK minimizedAffinity -8.22583675
REMARK  13 active torsions:
REMARK  status: ('A' for Active; 'I' for Inactive)
REMARK    1  A    between atoms: C4_4  and  C5_5 
REMARK    2  A    between atoms: C5_5  and  C6_6 
REMARK    3  A    between atoms: C6_6  and  C7_7 
REMARK    4  A    between atoms: C9_9  and  C10_10 
REMARK    5  A    between atoms: C11_11  and  C12_12 
REMARK    6  A    between atoms: C14_14  and  C15_15 
REMARK    7  A    between atoms: C18_18  and  O1_19 
REMARK    8  A    between atoms: C19_21  and  C20_22 
REMARK    9  A    between atoms: C20_22  and  C21_23 
REMARK   10  A    between atoms: C21_23  and  C22_24 
REMARK   11  A    between atoms: C22_24  and  O3_25 
REMARK   12  A    between atoms: C24_27  and  C26_29 
REMARK   13  A    between atoms: C29_33  and  O5_35 
ROOT
HETATM    1  C15 UNL     1      -6.086  47.465 -29.995  1.00  0.00     0.149 C 
HETATM    2  C16 UNL     1      -7.307  46.655 -29.514  1.00  0.00     0.054 C 
HETATM    3  C17 UNL     1      -8.448  47.155 -30.434  1.00  0.00     0.050 C 
HETATM    4  C18 UNL     1      -8.009  48.629 -30.482  1.00  0.00     0.270 C 
HETATM    5  O2  UNL     1      -6.605  48.610 -30.700  1.00  0.00    -0.351 OA
HETATM    6  C19 UNL     1      -8.310  46.386 -31.830  1.00  0.00     0.032 C 
HETATM    7  C23 UNL     1      -8.745  44.910 -31.672  1.00  0.00    -0.066 C 
HETATM    8  C24 UNL     1      -7.935  43.867 -31.994  1.00  0.00    -0.021 C 
HETATM    9  C25 UNL     1      -6.551  43.990 -32.580  1.00  0.00     0.052 C 
HETATM   10  C27 UNL     1     -10.147  44.793 -31.105  1.00  0.00     0.038 C 
HETATM   11  C28 UNL     1     -10.258  45.492 -29.752  1.00  0.00     0.042 C 
HETATM   12  C29 UNL     1      -9.882  46.982 -29.831  1.00  0.00     0.067 C 
HETATM   13  C30 UNL     1     -10.098  47.602 -28.439  1.00  0.00     0.047 C 
ENDROOT
BRANCH   4  14
HETATM   14  O1  UNL     1      -8.672  49.387 -31.460  1.00  0.00    -0.370 OA
HETATM   15  H26 UNL     1      -8.204  50.241 -31.461  1.00  0.00     0.212 HD
ENDBRANCH   4  14
BRANCH   6  16
HETATM   16  C20 UNL     1      -9.015  46.987 -33.076  1.00  0.00     0.012 C 
BRANCH  16  17
HETATM   17  C21 UNL     1      -8.114  46.967 -34.319  1.00  0.00     0.027 C 
BRANCH  17  18
HETATM   18  C22 UNL     1      -6.728  47.517 -34.014  1.00  0.00     0.164 C 
BRANCH  18  19
HETATM   19  O3  UNL     1      -6.107  47.961 -35.213  1.00  0.00    -0.401 OA
HETATM   20  H34 UNL     1      -6.687  48.633 -35.611  1.00  0.00     0.209 HD
ENDBRANCH  18  19
ENDBRANCH  17  18
ENDBRANCH  16  17
ENDBRANCH   6  16
BRANCH  12  21
HETATM   21  O5  UNL     1     -10.861  47.611 -30.670  1.00  0.00    -0.389 OA
HETATM   22  H46 UNL     1     -10.514  48.480 -30.952  1.00  0.00     0.210 HD
ENDBRANCH  12  21
BRANCH   1  23
HETATM   23  C14 UNL     1      -5.224  47.963 -28.869  1.00  0.00     0.011 C 
HETATM   24  C12 UNL     1      -5.497  47.963 -27.546  1.00  0.00    -0.063 C 
HETATM   25  C13 UNL     1      -6.758  47.393 -26.947  1.00  0.00     0.048 C 
BRANCH  24  26
HETATM   26  C11 UNL     1      -4.503  48.531 -26.630  1.00  0.00     0.006 C 
HETATM   27  C10 UNL     1      -3.173  48.580 -26.824  1.00  0.00     0.001 C 
BRANCH  27  28
HETATM   28  C9  UNL     1      -2.267  49.165 -25.855  1.00  0.00     0.002 C 
HETATM   29  C7  UNL     1      -2.183  50.463 -25.500  1.00  0.00    -0.084 C 
HETATM   30  C8  UNL     1      -3.018  51.588 -26.055  1.00  0.00     0.043 C 
BRANCH  29  31
HETATM   31  C6  UNL     1      -1.162  50.894 -24.459  1.00  0.00     0.037 C 
BRANCH  31  32
HETATM   32  C5  UNL     1      -0.457  52.201 -24.836  1.00  0.00     0.031 C 
BRANCH  32  33
HETATM   33  C4  UNL     1       0.915  51.942 -25.400  1.00  0.00    -0.024 C 
HETATM   34  C2  UNL     1       1.268  51.823 -26.694  1.00  0.00    -0.091 C 
HETATM   35  C1  UNL     1       0.324  51.886 -27.863  1.00  0.00     0.042 C 
HETATM   36  C3  UNL     1       2.710  51.598 -27.076  1.00  0.00     0.042 C 
ENDBRANCH  32  33
ENDBRANCH  31  32
ENDBRANCH  29  31
ENDBRANCH  27  28
ENDBRANCH  24  26
ENDBRANCH   1  23
BRANCH   8  37
HETATM   37  C26 UNL     1      -8.352  42.438 -31.805  1.00  0.00     0.265 C 
HETATM   38  O4  UNL     1      -8.980  42.057 -30.821  1.00  0.00    -0.302 OA
ENDBRANCH   8  37
TORSDOF 13
ENDMDL
MODEL 5
REMARK minimizedAffinity -8.19702244
REMARK  13 active torsions:
REMARK  status: ('A' for Active; 'I' for Inactive)
REMARK    1  A    between atoms: C4_4  and  C5_5 
REMARK    2  A    between atoms: C5_5  and  C6_6 
REMARK    3  A    between atoms: C6_6  and  C7_7 
REMARK    4  A    between atoms: C9_9  and  C10_10 
REMARK    5  A    between atoms: C11_11  and  C12_12 
REMARK    6  A    between atoms: C14_14  and  C15_15 
REMARK    7  A    between atoms: C18_18  and  O1_19 
REMARK    8  A    between atoms: C19_21  and  C20_22 
REMARK    9  A    between atoms: C20_22  and  C21_23 
REMARK   10  A    between atoms: C21_23  and  C22_24 
REMARK   11  A    between atoms: C22_24  and  O3_25 
REMARK   12  A    between atoms: C24_27  and  C26_29 
REMARK   13  A    between atoms: C29_33  and  O5_35 
ROOT
HETATM    1  C15 UNL     1      -2.028  49.443 -23.213  1.00  0.00     0.149 C 
HETATM    2  C16 UNL     1      -2.673  50.495 -22.288  1.00  0.00     0.054 C 
HETATM    3  C17 UNL     1      -2.612  49.824 -20.893  1.00  0.00     0.050 C 
HETATM    4  C18 UNL     1      -2.911  48.391 -21.368  1.00  0.00     0.270 C 
HETATM    5  O2  UNL     1      -2.098  48.184 -22.515  1.00  0.00    -0.351 OA
HETATM    6  C19 UNL     1      -1.131  50.030 -20.327  1.00  0.00     0.032 C 
HETATM    7  C23 UNL     1      -0.919  51.503 -19.905  1.00  0.00    -0.066 C 
HETATM    8  C24 UNL     1       0.083  52.273 -20.403  1.00  0.00    -0.021 C 
HETATM    9  C25 UNL     1       1.137  51.806 -21.376  1.00  0.00     0.052 C 
HETATM   10  C27 UNL     1      -1.968  51.960 -18.908  1.00  0.00     0.038 C 
HETATM   11  C28 UNL     1      -3.377  51.801 -19.474  1.00  0.00     0.042 C 
HETATM   12  C29 UNL     1      -3.684  50.350 -19.880  1.00  0.00     0.067 C 
HETATM   13  C30 UNL     1      -5.144  50.289 -20.364  1.00  0.00     0.047 C 
ENDROOT
BRANCH   4  14
HETATM   14  O1  UNL     1      -2.682  47.410 -20.390  1.00  0.00    -0.370 OA
HETATM   15  H26 UNL     1      -2.781  46.567 -20.868  1.00  0.00     0.212 HD
ENDBRANCH   4  14
BRANCH   6  16
HETATM   16  C20 UNL     1      -0.644  49.104 -19.179  1.00  0.00     0.012 C 
BRANCH  16  17
HETATM   17  C21 UNL     1      -0.098  49.898 -17.984  1.00  0.00     0.027 C 
BRANCH  17  18
HETATM   18  C22 UNL     1      -0.725  49.441 -16.675  1.00  0.00     0.164 C 
BRANCH  18  19
HETATM   19  O3  UNL     1      -0.844  48.024 -16.663  1.00  0.00    -0.401 OA
HETATM   20  H34 UNL     1       0.047  47.655 -16.789  1.00  0.00     0.209 HD
ENDBRANCH  18  19
ENDBRANCH  17  18
ENDBRANCH  16  17
ENDBRANCH   6  16
BRANCH  12  21
HETATM   21  O5  UNL     1      -3.663  49.570 -18.676  1.00  0.00    -0.389 OA
HETATM   22  H46 UNL     1      -3.593  48.627 -18.918  1.00  0.00     0.210 HD
ENDBRANCH  12  21
BRANCH   1  23
HETATM   23  C14 UNL     1      -2.743  49.289 -24.525  1.00  0.00     0.011 C 
HETATM   24  C12 UNL     1      -2.397  49.796 -25.729  1.00  0.00    -0.063 C 
HETATM   25  C13 UNL     1      -1.148  50.603 -25.975  1.00  0.00     0.048 C 
BRANCH  24  26
HETATM   26  C11 UNL     1      -3.274  49.531 -26.874  1.00  0.00     0.006 C 
HETATM   27  C10 UNL     1      -3.955  48.396 -27.114  1.00  0.00     0.001 C 
BRANCH  27  28
HETATM   28  C9  UNL     1      -4.801  48.229 -28.279  1.00  0.00     0.002 C 
HETATM   29  C7  UNL     1      -6.085  47.817 -28.301  1.00  0.00    -0.084 C 
HETATM   30  C8  UNL     1      -6.911  47.429 -27.101  1.00  0.00     0.043 C 
BRANCH  29  31
HETATM   31  C6  UNL     1      -6.815  47.700 -29.630  1.00  0.00     0.037 C 
BRANCH  31  32
HETATM   32  C5  UNL     1      -6.271  46.561 -30.498  1.00  0.00     0.031 C 
BRANCH  32  33
HETATM   33  C4  UNL     1      -5.431  47.089 -31.632  1.00  0.00    -0.024 C 
HETATM   34  C2  UNL     1      -4.649  46.390 -32.477  1.00  0.00    -0.091 C 
HETATM   35  C1  UNL     1      -4.423  44.905 -32.424  1.00  0.00     0.042 C 
HETATM   36  C3  UNL     1      -3.904  47.090 -33.585  1.00  0.00     0.042 C 
ENDBRANCH  32  33
ENDBRANCH  31  32
ENDBRANCH  29  31
ENDBRANCH  27  28
ENDBRANCH  24  26
ENDBRANCH   1  23
BRANCH   8  37
HETATM   37  C26 UNL     1       0.261  53.711 -20.015  1.00  0.00     0.265 C 
HETATM   38  O4  UNL     1       1.053  54.457 -20.584  1.00  0.00    -0.302 OA
ENDBRANCH   8  37
TORSDOF 13
ENDMDL
MODEL 6
REMARK minimizedAffinity -8.15565681
REMARK  13 active torsions:
REMARK  status: ('A' for Active; 'I' for Inactive)
REMARK    1  A    between atoms: C4_4  and  C5_5 
REMARK    2  A    between atoms: C5_5  and  C6_6 
REMARK    3  A    between atoms: C6_6  and  C7_7 
REMARK    4  A    between atoms: C9_9  and  C10_10 
REMARK    5  A    between atoms: C11_11  and  C12_12 
REMARK    6  A    between atoms: C14_14  and  C15_15 
REMARK    7  A    between atoms: C18_18  and  O1_19 
REMARK    8  A    between atoms: C19_21  and  C20_22 
REMARK    9  A    between atoms: C20_22  and  C21_23 
REMARK   10  A    between atoms: C21_23  and  C22_24 
REMARK   11  A    between atoms: C22_24  and  O3_25 
REMARK   12  A    between atoms: C24_27  and  C26_29 
REMARK   13  A    between atoms: C29_33  and  O5_35 
ROOT
HETATM    1  C15 UNL     1      -5.269  47.646 -29.334  1.00  0.00     0.149 C 
HETATM    2  C16 UNL     1      -6.436  46.638 -29.347  1.00  0.00     0.054 C 
HETATM    3  C17 UNL     1      -7.365  47.188 -30.458  1.00  0.00     0.050 C 
HETATM    4  C18 UNL     1      -7.155  48.679 -30.149  1.00  0.00     0.270 C 
HETATM    5  O2  UNL     1      -5.756  48.846 -29.966  1.00  0.00    -0.351 OA
HETATM    6  C19 UNL     1      -6.761  46.720 -31.863  1.00  0.00     0.032 C 
HETATM    7  C23 UNL     1      -6.994  45.204 -32.068  1.00  0.00    -0.066 C 
HETATM    8  C24 UNL     1      -5.982  44.331 -32.311  1.00  0.00    -0.021 C 
HETATM    9  C25 UNL     1      -4.529  44.705 -32.460  1.00  0.00     0.052 C 
HETATM   10  C27 UNL     1      -8.461  44.838 -31.940  1.00  0.00     0.038 C 
HETATM   11  C28 UNL     1      -9.018  45.249 -30.579  1.00  0.00     0.042 C 
HETATM   12  C29 UNL     1      -8.863  46.756 -30.314  1.00  0.00     0.067 C 
HETATM   13  C30 UNL     1      -9.519  47.071 -28.958  1.00  0.00     0.047 C 
ENDROOT
BRANCH   4  14
HETATM   14  O1  UNL     1      -7.651  49.540 -31.141  1.00  0.00    -0.370 OA
HETATM   15  H26 UNL     1      -7.333  50.422 -30.876  1.00  0.00     0.212 HD
ENDBRANCH   4  14
BRANCH   6  16
HETATM   16  C20 UNL     1      -7.204  47.473 -33.145  1.00  0.00     0.012 C 
BRANCH  16  17
HETATM   17  C21 UNL     1      -6.024  47.778 -34.078  1.00  0.00     0.027 C 
BRANCH  17  18
HETATM   18  C22 UNL     1      -4.773  48.150 -33.294  1.00  0.00     0.164 C 
BRANCH  18  19
HETATM   19  O3  UNL     1      -3.843  48.807 -34.146  1.00  0.00    -0.401 OA
HETATM   20  H34 UNL     1      -4.288  49.588 -34.516  1.00  0.00     0.209 HD
ENDBRANCH  18  19
ENDBRANCH  17  18
ENDBRANCH  16  17
ENDBRANCH   6  16
BRANCH  12  21
HETATM   21  O5  UNL     1      -9.677  47.432 -31.283  1.00  0.00    -0.389 OA
HETATM   22  H46 UNL     1      -9.405  48.369 -31.316  1.00  0.00     0.210 HD
ENDBRANCH  12  21
BRANCH   1  23
HETATM   23  C14 UNL     1      -4.809  48.003 -27.949  1.00  0.00     0.011 C 
HETATM   24  C12 UNL     1      -5.520  47.978 -26.801  1.00  0.00    -0.063 C 
HETATM   25  C13 UNL     1      -6.954  47.520 -26.709  1.00  0.00     0.048 C 
BRANCH  24  26
HETATM   26  C11 UNL     1      -4.858  48.399 -25.562  1.00  0.00     0.006 C 
HETATM   27  C10 UNL     1      -3.535  48.553 -25.375  1.00  0.00     0.001 C 
BRANCH  27  28
HETATM   28  C9  UNL     1      -2.974  48.977 -24.107  1.00  0.00     0.002 C 
HETATM   29  C7  UNL     1      -2.060  49.946 -23.905  1.00  0.00    -0.084 C 
HETATM   30  C8  UNL     1      -1.416  50.792 -24.973  1.00  0.00     0.043 C 
BRANCH  29  31
HETATM   31  C6  UNL     1      -1.585  50.251 -22.493  1.00  0.00     0.037 C 
BRANCH  31  32
HETATM   32  C5  UNL     1      -1.764  51.727 -22.122  1.00  0.00     0.031 C 
BRANCH  32  33
HETATM   33  C4  UNL     1      -0.847  52.124 -20.995  1.00  0.00    -0.024 C 
HETATM   34  C2  UNL     1       0.298  52.830 -21.071  1.00  0.00    -0.091 C 
HETATM   35  C1  UNL     1       0.924  53.338 -22.340  1.00  0.00     0.042 C 
HETATM   36  C3  UNL     1       1.073  53.167 -19.822  1.00  0.00     0.042 C 
ENDBRANCH  32  33
ENDBRANCH  31  32
ENDBRANCH  29  31
ENDBRANCH  27  28
ENDBRANCH  24  26
ENDBRANCH   1  23
BRANCH   8  37
HETATM   37  C26 UNL     1      -6.213  42.857 -32.474  1.00  0.00     0.265 C 
HETATM   38  O4  UNL     1      -6.593  42.141 -31.551  1.00  0.00    -0.302 OA
ENDBRANCH   8  37
TORSDOF 13
ENDMDL
MODEL 7
REMARK minimizedAffinity -8.13362408
REMARK  13 active torsions:
REMARK  status: ('A' for Active; 'I' for Inactive)
REMARK    1  A    between atoms: C4_4  and  C5_5 
REMARK    2  A    between atoms: C5_5  and  C6_6 
REMARK    3  A    between atoms: C6_6  and  C7_7 
REMARK    4  A    between atoms: C9_9  and  C10_10 
REMARK    5  A    between atoms: C11_11  and  C12_12 
REMARK    6  A    between atoms: C14_14  and  C15_15 
REMARK    7  A    between atoms: C18_18  and  O1_19 
REMARK    8  A    between atoms: C19_21  and  C20_22 
REMARK    9  A    between atoms: C20_22  and  C21_23 
REMARK   10  A    between atoms: C21_23  and  C22_24 
REMARK   11  A    between atoms: C22_24  and  O3_25 
REMARK   12  A    between atoms: C24_27  and  C26_29 
REMARK   13  A    between atoms: C29_33  and  O5_35 
ROOT
HETATM    1  C15 UNL     1      -5.383  47.592 -29.001  1.00  0.00     0.149 C 
HETATM    2  C16 UNL     1      -6.872  47.991 -29.018  1.00  0.00     0.054 C 
HETATM    3  C17 UNL     1      -7.294  47.721 -30.484  1.00  0.00     0.050 C 
HETATM    4  C18 UNL     1      -5.984  48.190 -31.139  1.00  0.00     0.270 C 
HETATM    5  O2  UNL     1      -4.936  47.614 -30.371  1.00  0.00    -0.351 OA
HETATM    6  C19 UNL     1      -7.568  46.151 -30.621  1.00  0.00     0.032 C 
HETATM    7  C23 UNL     1      -8.888  45.774 -29.907  1.00  0.00    -0.066 C 
HETATM    8  C24 UNL     1      -8.952  44.832 -28.930  1.00  0.00    -0.021 C 
HETATM    9  C25 UNL     1      -7.789  44.004 -28.445  1.00  0.00     0.052 C 
HETATM   10  C27 UNL     1     -10.059  46.593 -30.418  1.00  0.00     0.038 C 
HETATM   11  C28 UNL     1      -9.807  48.089 -30.242  1.00  0.00     0.042 C 
HETATM   12  C29 UNL     1      -8.530  48.556 -30.961  1.00  0.00     0.067 C 
HETATM   13  C30 UNL     1      -8.412  50.080 -30.783  1.00  0.00     0.047 C 
ENDROOT
BRANCH   4  14
HETATM   14  O1  UNL     1      -5.875  47.850 -32.497  1.00  0.00    -0.370 OA
HETATM   15  H26 UNL     1      -4.960  48.088 -32.732  1.00  0.00     0.212 HD
ENDBRANCH   4  14
BRANCH   6  16
HETATM   16  C20 UNL     1      -7.569  45.524 -32.041  1.00  0.00     0.012 C 
BRANCH  16  17
HETATM   17  C21 UNL     1      -6.748  44.228 -32.105  1.00  0.00     0.027 C 
BRANCH  17  18
HETATM   18  C22 UNL     1      -5.256  44.517 -32.204  1.00  0.00     0.164 C 
BRANCH  18  19
HETATM   19  O3  UNL     1      -4.719  43.899 -33.367  1.00  0.00    -0.401 OA
HETATM   20  H34 UNL     1      -5.209  44.243 -34.133  1.00  0.00     0.209 HD
ENDBRANCH  18  19
ENDBRANCH  17  18
ENDBRANCH  16  17
ENDBRANCH   6  16
BRANCH  12  21
HETATM   21  O5  UNL     1      -8.753  48.366 -32.365  1.00  0.00    -0.389 OA
HETATM   22  H46 UNL     1      -7.892  48.400 -32.823  1.00  0.00     0.210 HD
ENDBRANCH  12  21
BRANCH   1  23
HETATM   23  C14 UNL     1      -4.523  48.542 -28.216  1.00  0.00     0.011 C 
HETATM   24  C12 UNL     1      -4.507  48.744 -26.880  1.00  0.00    -0.063 C 
HETATM   25  C13 UNL     1      -5.361  47.976 -25.902  1.00  0.00     0.048 C 
BRANCH  24  26
HETATM   26  C11 UNL     1      -3.591  49.753 -26.339  1.00  0.00     0.006 C 
HETATM   27  C10 UNL     1      -2.864  49.651 -25.212  1.00  0.00     0.001 C 
BRANCH  27  28
HETATM   28  C9  UNL     1      -1.982  50.708 -24.758  1.00  0.00     0.002 C 
HETATM   29  C7  UNL     1      -1.378  50.805 -23.557  1.00  0.00    -0.084 C 
HETATM   30  C8  UNL     1      -1.508  49.825 -22.419  1.00  0.00     0.043 C 
BRANCH  29  31
HETATM   31  C6  UNL     1      -0.482  51.997 -23.259  1.00  0.00     0.037 C 
BRANCH  31  32
HETATM   32  C5  UNL     1      -0.203  52.845 -24.505  1.00  0.00     0.031 C 
BRANCH  32  33
HETATM   33  C4  UNL     1       1.091  52.445 -25.162  1.00  0.00    -0.024 C 
HETATM   34  C2  UNL     1       1.263  51.851 -26.359  1.00  0.00    -0.091 C 
HETATM   35  C1  UNL     1       0.156  51.421 -27.282  1.00  0.00     0.042 C 
HETATM   36  C3  UNL     1       2.648  51.556 -26.875  1.00  0.00     0.042 C 
ENDBRANCH  32  33
ENDBRANCH  31  32
ENDBRANCH  29  31
ENDBRANCH  27  28
ENDBRANCH  24  26
ENDBRANCH   1  23
BRANCH   8  37
HETATM   37  C26 UNL     1     -10.229  44.497 -28.219  1.00  0.00     0.265 C 
HETATM   38  O4  UNL     1     -10.842  45.315 -27.540  1.00  0.00    -0.302 OA
ENDBRANCH   8  37
TORSDOF 13
ENDMDL
MODEL 8
REMARK minimizedAffinity -8.11396313
REMARK  13 active torsions:
REMARK  status: ('A' for Active; 'I' for Inactive)
REMARK    1  A    between atoms: C4_4  and  C5_5 
REMARK    2  A    between atoms: C5_5  and  C6_6 
REMARK    3  A    between atoms: C6_6  and  C7_7 
REMARK    4  A    between atoms: C9_9  and  C10_10 
REMARK    5  A    between atoms: C11_11  and  C12_12 
REMARK    6  A    between atoms: C14_14  and  C15_15 
REMARK    7  A    between atoms: C18_18  and  O1_19 
REMARK    8  A    between atoms: C19_21  and  C20_22 
REMARK    9  A    between atoms: C20_22  and  C21_23 
REMARK   10  A    between atoms: C21_23  and  C22_24 
REMARK   11  A    between atoms: C22_24  and  O3_25 
REMARK   12  A    between atoms: C24_27  and  C26_29 
REMARK   13  A    between atoms: C29_33  and  O5_35 
ROOT
HETATM    1  C15 UNL     1      -6.539  47.431 -29.204  1.00  0.00     0.149 C 
HETATM    2  C16 UNL     1      -7.714  46.823 -28.411  1.00  0.00     0.054 C 
HETATM    3  C17 UNL     1      -8.960  47.381 -29.141  1.00  0.00     0.050 C 
HETATM    4  C18 UNL     1      -8.389  48.778 -29.434  1.00  0.00     0.270 C 
HETATM    5  O2  UNL     1      -7.069  48.567 -29.916  1.00  0.00    -0.351 OA
HETATM    6  C19 UNL     1      -9.193  46.483 -30.444  1.00  0.00     0.032 C 
HETATM    7  C23 UNL     1      -9.738  45.091 -30.045  1.00  0.00    -0.066 C 
HETATM    8  C24 UNL     1      -9.125  43.932 -30.401  1.00  0.00    -0.021 C 
HETATM    9  C25 UNL     1      -7.885  43.831 -31.254  1.00  0.00     0.052 C 
HETATM   10  C27 UNL     1     -10.999  45.199 -29.208  1.00  0.00     0.038 C 
HETATM   11  C28 UNL     1     -10.755  46.020 -27.944  1.00  0.00     0.042 C 
HETATM   12  C29 UNL     1     -10.250  47.439 -28.256  1.00  0.00     0.067 C 
HETATM   13  C30 UNL     1     -10.111  48.199 -26.925  1.00  0.00     0.047 C 
ENDROOT
BRANCH   4  14
HETATM   14  O1  UNL     1      -9.156  49.526 -30.342  1.00  0.00    -0.370 OA
HETATM   15  H26 UNL     1      -8.611  50.312 -30.527  1.00  0.00     0.212 HD
ENDBRANCH   4  14
BRANCH   6  16
HETATM   16  C20 UNL     1     -10.071  47.056 -31.589  1.00  0.00     0.012 C 
BRANCH  16  17
HETATM   17  C21 UNL     1      -9.441  46.837 -32.971  1.00  0.00     0.027 C 
BRANCH  17  18
HETATM   18  C22 UNL     1      -8.257  47.765 -33.200  1.00  0.00     0.164 C 
BRANCH  18  19
HETATM   19  O3  UNL     1      -7.984  47.872 -34.591  1.00  0.00    -0.401 OA
HETATM   20  H34 UNL     1      -8.793  48.198 -35.022  1.00  0.00     0.209 HD
ENDBRANCH  18  19
ENDBRANCH  17  18
ENDBRANCH  16  17
ENDBRANCH   6  16
BRANCH  12  21
HETATM   21  O5  UNL     1     -11.309  48.111 -28.954  1.00  0.00    -0.389 OA
HETATM   22  H46 UNL     1     -10.939  48.902 -29.391  1.00  0.00     0.210 HD
ENDBRANCH  12  21
BRANCH   1  23
HETATM   23  C14 UNL     1      -5.418  47.913 -28.328  1.00  0.00     0.011 C 
HETATM   24  C12 UNL     1      -5.413  48.063 -26.985  1.00  0.00    -0.063 C 
HETATM   25  C13 UNL     1      -6.577  47.709 -26.094  1.00  0.00     0.048 C 
BRANCH  24  26
HETATM   26  C11 UNL     1      -4.198  48.579 -26.347  1.00  0.00     0.006 C 
HETATM   27  C10 UNL     1      -3.170  49.191 -26.962  1.00  0.00     0.001 C 
BRANCH  27  28
HETATM   28  C9  UNL     1      -2.007  49.669 -26.241  1.00  0.00     0.002 C 
HETATM   29  C7  UNL     1      -1.840  50.883 -25.678  1.00  0.00    -0.084 C 
HETATM   30  C8  UNL     1      -2.840  52.011 -25.694  1.00  0.00     0.043 C 
BRANCH  29  31
HETATM   31  C6  UNL     1      -0.541  51.207 -24.958  1.00  0.00     0.037 C 
BRANCH  31  32
HETATM   32  C5  UNL     1      -0.751  51.479 -23.465  1.00  0.00     0.031 C 
BRANCH  32  33
HETATM   33  C4  UNL     1       0.144  52.587 -22.977  1.00  0.00    -0.024 C 
HETATM   34  C2  UNL     1       0.512  52.856 -21.710  1.00  0.00    -0.091 C 
HETATM   35  C1  UNL     1       0.052  52.103 -20.493  1.00  0.00     0.042 C 
HETATM   36  C3  UNL     1       1.453  53.996 -21.412  1.00  0.00     0.042 C 
ENDBRANCH  32  33
ENDBRANCH  31  32
ENDBRANCH  29  31
ENDBRANCH  27  28
ENDBRANCH  24  26
ENDBRANCH   1  23
BRANCH   8  37
HETATM   37  C26 UNL     1      -9.641  42.588 -29.980  1.00  0.00     0.265 C 
HETATM   38  O4  UNL     1      -9.582  41.600 -30.707  1.00  0.00    -0.302 OA
ENDBRANCH   8  37
TORSDOF 13
ENDMDL
MODEL 9
REMARK minimizedAffinity -7.98816061
REMARK  13 active torsions:
REMARK  status: ('A' for Active; 'I' for Inactive)
REMARK    1  A    between atoms: C4_4  and  C5_5 
REMARK    2  A    between atoms: C5_5  and  C6_6 
REMARK    3  A    between atoms: C6_6  and  C7_7 
REMARK    4  A    between atoms: C9_9  and  C10_10 
REMARK    5  A    between atoms: C11_11  and  C12_12 
REMARK    6  A    between atoms: C14_14  and  C15_15 
REMARK    7  A    between atoms: C18_18  and  O1_19 
REMARK    8  A    between atoms: C19_21  and  C20_22 
REMARK    9  A    between atoms: C20_22  and  C21_23 
REMARK   10  A    between atoms: C21_23  and  C22_24 
REMARK   11  A    between atoms: C22_24  and  O3_25 
REMARK   12  A    between atoms: C24_27  and  C26_29 
REMARK   13  A    between atoms: C29_33  and  O5_35 
ROOT
HETATM    1  C15 UNL     1      -5.464  47.400 -29.120  1.00  0.00     0.149 C 
HETATM    2  C16 UNL     1      -6.952  47.803 -29.173  1.00  0.00     0.054 C 
HETATM    3  C17 UNL     1      -7.300  47.673 -30.676  1.00  0.00     0.050 C 
HETATM    4  C18 UNL     1      -5.960  48.198 -31.219  1.00  0.00     0.270 C 
HETATM    5  O2  UNL     1      -4.951  47.549 -30.458  1.00  0.00    -0.351 OA
HETATM    6  C19 UNL     1      -7.565  46.124 -30.974  1.00  0.00     0.032 C 
HETATM    7  C23 UNL     1      -8.917  45.685 -30.364  1.00  0.00    -0.066 C 
HETATM    8  C24 UNL     1      -9.027  44.656 -29.485  1.00  0.00    -0.021 C 
HETATM    9  C25 UNL     1      -7.888  43.782 -29.023  1.00  0.00     0.052 C 
HETATM   10  C27 UNL     1     -10.063  46.552 -30.853  1.00  0.00     0.038 C 
HETATM   11  C28 UNL     1      -9.822  48.024 -30.524  1.00  0.00     0.042 C 
HETATM   12  C29 UNL     1      -8.512  48.553 -31.132  1.00  0.00     0.067 C 
HETATM   13  C30 UNL     1      -8.406  50.053 -30.806  1.00  0.00     0.047 C 
ENDROOT
BRANCH   4  14
HETATM   14  O1  UNL     1      -5.784  47.987 -32.595  1.00  0.00    -0.370 OA
HETATM   15  H26 UNL     1      -4.859  48.244 -32.762  1.00  0.00     0.212 HD
ENDBRANCH   4  14
BRANCH   6  16
HETATM   16  C20 UNL     1      -7.494  45.633 -32.445  1.00  0.00     0.012 C 
BRANCH  16  17
HETATM   17  C21 UNL     1      -6.783  44.279 -32.572  1.00  0.00     0.027 C 
BRANCH  17  18
HETATM   18  C22 UNL     1      -5.304  44.389 -32.230  1.00  0.00     0.164 C 
BRANCH  18  19
HETATM   19  O3  UNL     1      -4.727  45.489 -32.922  1.00  0.00    -0.401 OA
HETATM   20  H34 UNL     1      -5.221  46.287 -32.666  1.00  0.00     0.209 HD
ENDBRANCH  18  19
ENDBRANCH  17  18
ENDBRANCH  16  17
ENDBRANCH   6  16
BRANCH  12  21
HETATM   21  O5  UNL     1      -8.666  48.497 -32.558  1.00  0.00    -0.389 OA
HETATM   22  H46 UNL     1      -7.783  48.572 -32.968  1.00  0.00     0.210 HD
ENDBRANCH  12  21
BRANCH   1  23
HETATM   23  C14 UNL     1      -4.646  48.269 -28.207  1.00  0.00     0.011 C 
HETATM   24  C12 UNL     1      -4.810  48.475 -26.882  1.00  0.00    -0.063 C 
HETATM   25  C13 UNL     1      -5.867  47.795 -26.049  1.00  0.00     0.048 C 
BRANCH  24  26
HETATM   26  C11 UNL     1      -3.895  49.397 -26.202  1.00  0.00     0.006 C 
HETATM   27  C10 UNL     1      -2.568  49.238 -26.048  1.00  0.00     0.001 C 
BRANCH  27  28
HETATM   28  C9  UNL     1      -1.744  50.210 -25.358  1.00  0.00     0.002 C 
HETATM   29  C7  UNL     1      -0.872  51.078 -25.910  1.00  0.00    -0.084 C 
HETATM   30  C8  UNL     1      -0.564  51.208 -27.380  1.00  0.00     0.043 C 
BRANCH  29  31
HETATM   31  C6  UNL     1      -0.089  52.029 -25.019  1.00  0.00     0.037 C 
BRANCH  31  32
HETATM   32  C5  UNL     1      -0.508  51.930 -23.548  1.00  0.00     0.031 C 
BRANCH  32  33
HETATM   33  C4  UNL     1       0.337  52.821 -22.676  1.00  0.00    -0.024 C 
HETATM   34  C2  UNL     1       0.519  52.742 -21.344  1.00  0.00    -0.091 C 
HETATM   35  C1  UNL     1      -0.140  51.742 -20.434  1.00  0.00     0.042 C 
HETATM   36  C3  UNL     1       1.439  53.707 -20.639  1.00  0.00     0.042 C 
ENDBRANCH  32  33
ENDBRANCH  31  32
ENDBRANCH  29  31
ENDBRANCH  27  28
ENDBRANCH  24  26
ENDBRANCH   1  23
BRANCH   8  37
HETATM   37  C26 UNL     1     -10.337  44.258 -28.872  1.00  0.00     0.265 C 
HETATM   38  O4  UNL     1     -10.726  44.704 -27.796  1.00  0.00    -0.302 OA
ENDBRANCH   8  37
TORSDOF 13
ENDMDL
