MODEL 1
REMARK minimizedAffinity -7.56719828
REMARK CNNscore 0.859681189
REMARK CNNaffinity 7.03738785
REMARK  7 active torsions:
REMARK  status: ('A' for Active; 'I' for Inactive)
REMARK    1  A    between atoms: C2_2  and  C30_33 
REMARK    2  A    between atoms: C3_3  and  C4_4 
REMARK    3  A    between atoms: C4_4  and  C5_5 
REMARK    4  A    between atoms: C5_5  and  C6_6 
REMARK    5  A    between atoms: C6_6  and  C8_8 
REMARK    6  A    between atoms: C10_10  and  O1_11 
REMARK    7  A    between atoms: C30_33  and  O5_35 
ROOT
HETATM    1  C8  UNL     1       4.442  55.584  -8.088  1.00  0.00     0.001 C 
HETATM    2  C9  UNL     1       3.688  56.854  -7.618  1.00  0.00     0.038 C 
HETATM    3  C10 UNL     1       2.189  56.616  -7.928  1.00  0.00     0.131 C 
HETATM    4  C11 UNL     1       2.079  55.092  -8.228  1.00  0.00     0.014 C 
HETATM    5  C12 UNL     1       1.967  54.328  -6.870  1.00  0.00     0.023 C 
HETATM    6  C13 UNL     1       0.926  54.556  -9.072  1.00  0.00    -0.058 C 
HETATM    7  C14 UNL     1       1.039  53.415  -9.798  1.00  0.00    -0.000 C 
HETATM    8  C15 UNL     1       2.399  52.706  -9.809  1.00  0.00     0.157 C 
HETATM    9  O2  UNL     1       2.528  51.587 -10.305  1.00  0.00    -0.293 OA
HETATM   10  C16 UNL     1       3.628  53.380  -9.205  1.00  0.00     0.094 C 
HETATM   11  C17 UNL     1       3.414  54.879  -9.020  1.00  0.00    -0.019 C 
HETATM   12  C18 UNL     1       3.419  55.537 -10.434  1.00  0.00     0.017 C 
HETATM   13  C19 UNL     1      -0.096  52.836 -10.685  1.00  0.00    -0.008 C 
HETATM   14  C20 UNL     1       0.463  52.871 -12.139  1.00  0.00     0.021 C 
HETATM   15  C21 UNL     1      -0.421  51.360 -10.294  1.00  0.00     0.022 C 
HETATM   16  C22 UNL     1      -1.614  51.201  -9.366  1.00  0.00     0.080 C 
HETATM   17  C23 UNL     1      -2.877  51.724 -10.004  1.00  0.00     0.135 C 
HETATM   18  O3  UNL     1      -3.966  51.211  -9.736  1.00  0.00    -0.297 OA
HETATM   19  C24 UNL     1      -2.755  52.906 -10.971  1.00  0.00     0.018 C 
HETATM   20  C25 UNL     1      -2.810  52.342 -12.403  1.00  0.00     0.023 C 
HETATM   21  C26 UNL     1      -4.008  53.800 -10.810  1.00  0.00     0.023 C 
HETATM   22  C27 UNL     1      -1.429  53.712 -10.669  1.00  0.00     0.014 C 
HETATM   23  C28 UNL     1      -1.573  54.519  -9.359  1.00  0.00     0.011 C 
HETATM   24  C29 UNL     1      -0.347  55.344  -9.024  1.00  0.00     0.036 C 
ENDROOT
BRANCH   1  25
HETATM   25  C6  UNL     1       5.901  55.778  -8.599  1.00  0.00    -0.013 C 
HETATM   26  C7  UNL     1       6.038  55.110  -9.979  1.00  0.00     0.010 C 
BRANCH  25  27
HETATM   27  C5  UNL     1       7.010  55.246  -7.663  1.00  0.00     0.008 C 
BRANCH  27  28
HETATM   28  C4  UNL     1       6.772  55.594  -6.188  1.00  0.00     0.028 C 
BRANCH  28  29
HETATM   29  C3  UNL     1       7.967  56.292  -5.600  1.00  0.00    -0.013 C 
HETATM   30  C2  UNL     1       8.046  57.575  -5.194  1.00  0.00     0.008 C 
HETATM   31  C1  UNL     1       6.952  58.595  -5.290  1.00  0.00     0.055 C 
BRANCH  30  32
HETATM   32  C30 UNL     1       9.349  58.009  -4.624  1.00  0.00     0.171 C 
HETATM   33  O4  UNL     1       9.913  57.540  -3.652  1.00  0.00    -0.646 OA
BRANCH  32  34
HETATM   34  O5  UNL     1       9.891  59.029  -5.310  1.00  0.00    -0.773 OA
HETATM   35  H44 UNL     1      10.724  59.209  -4.828  1.00  0.00     0.167 HD
ENDBRANCH  32  34
ENDBRANCH  30  32
ENDBRANCH  28  29
ENDBRANCH  27  28
ENDBRANCH  25  27
ENDBRANCH   1  25
BRANCH   3  36
HETATM   36  O1  UNL     1       1.388  57.040  -6.835  1.00  0.00    -0.394 OA
HETATM   37  H17 UNL     1       1.588  57.978  -6.671  1.00  0.00     0.210 HD
ENDBRANCH   3  36
TORSDOF 7
ENDMDL
MODEL 2
REMARK minimizedAffinity -7.98985434
REMARK CNNscore 0.510172784
REMARK CNNaffinity 6.35863924
REMARK  7 active torsions:
REMARK  status: ('A' for Active; 'I' for Inactive)
REMARK    1  A    between atoms: C2_2  and  C30_33 
REMARK    2  A    between atoms: C3_3  and  C4_4 
REMARK    3  A    between atoms: C4_4  and  C5_5 
REMARK    4  A    between atoms: C5_5  and  C6_6 
REMARK    5  A    between atoms: C6_6  and  C8_8 
REMARK    6  A    between atoms: C10_10  and  O1_11 
REMARK    7  A    between atoms: C30_33  and  O5_35 
ROOT
HETATM    1  C8  UNL     1      -2.335  50.014 -21.769  1.00  0.00     0.001 C 
HETATM    2  C9  UNL     1      -1.980  50.281 -23.253  1.00  0.00     0.038 C 
HETATM    3  C10 UNL     1      -3.127  49.670 -24.096  1.00  0.00     0.131 C 
HETATM    4  C11 UNL     1      -4.271  49.395 -23.077  1.00  0.00     0.014 C 
HETATM    5  C12 UNL     1      -5.072  50.719 -22.864  1.00  0.00     0.023 C 
HETATM    6  C13 UNL     1      -5.335  48.343 -23.380  1.00  0.00    -0.058 C 
HETATM    7  C14 UNL     1      -5.996  47.688 -22.393  1.00  0.00    -0.000 C 
HETATM    8  C15 UNL     1      -5.591  47.981 -20.943  1.00  0.00     0.157 C 
HETATM    9  O2  UNL     1      -6.255  47.554 -19.999  1.00  0.00    -0.293 OA
HETATM   10  C16 UNL     1      -4.347  48.811 -20.640  1.00  0.00     0.094 C 
HETATM   11  C17 UNL     1      -3.426  48.906 -21.852  1.00  0.00    -0.019 C 
HETATM   12  C18 UNL     1      -2.767  47.508 -22.059  1.00  0.00     0.017 C 
HETATM   13  C19 UNL     1      -7.074  46.598 -22.647  1.00  0.00    -0.008 C 
HETATM   14  C20 UNL     1      -6.489  45.293 -22.028  1.00  0.00     0.021 C 
HETATM   15  C21 UNL     1      -8.414  46.952 -21.930  1.00  0.00     0.022 C 
HETATM   16  C22 UNL     1      -9.452  47.613 -22.822  1.00  0.00     0.080 C 
HETATM   17  C23 UNL     1      -9.845  46.710 -23.966  1.00  0.00     0.135 C 
HETATM   18  O3  UNL     1     -10.987  46.757 -24.430  1.00  0.00    -0.297 OA
HETATM   19  C24 UNL     1      -8.783  45.758 -24.526  1.00  0.00     0.018 C 
HETATM   20  C25 UNL     1      -9.051  44.363 -23.934  1.00  0.00     0.023 C 
HETATM   21  C26 UNL     1      -8.999  45.629 -26.053  1.00  0.00     0.023 C 
HETATM   22  C27 UNL     1      -7.339  46.310 -24.193  1.00  0.00     0.014 C 
HETATM   23  C28 UNL     1      -7.014  47.539 -25.073  1.00  0.00     0.011 C 
HETATM   24  C29 UNL     1      -5.627  48.101 -24.829  1.00  0.00     0.036 C 
ENDROOT
BRANCH   1  25
HETATM   25  C6  UNL     1      -1.145  49.816 -20.783  1.00  0.00    -0.013 C 
HETATM   26  C7  UNL     1      -0.647  48.363 -20.889  1.00  0.00     0.010 C 
BRANCH  25  27
HETATM   27  C5  UNL     1      -1.445  50.144 -19.302  1.00  0.00     0.008 C 
BRANCH  27  28
HETATM   28  C4  UNL     1      -1.421  51.648 -19.002  1.00  0.00     0.028 C 
BRANCH  28  29
HETATM   29  C3  UNL     1      -0.599  52.387 -20.022  1.00  0.00    -0.013 C 
HETATM   30  C2  UNL     1       0.621  52.932 -19.850  1.00  0.00     0.008 C 
HETATM   31  C1  UNL     1       1.399  52.953 -18.568  1.00  0.00     0.055 C 
BRANCH  30  32
HETATM   32  C30 UNL     1       1.226  53.589 -21.038  1.00  0.00     0.171 C 
HETATM   33  O4  UNL     1       1.884  54.614 -21.048  1.00  0.00    -0.646 OA
BRANCH  32  34
HETATM   34  O5  UNL     1       0.972  52.922 -22.175  1.00  0.00    -0.773 OA
HETATM   35  H44 UNL     1       1.417  53.462 -22.860  1.00  0.00     0.167 HD
ENDBRANCH  32  34
ENDBRANCH  30  32
ENDBRANCH  28  29
ENDBRANCH  27  28
ENDBRANCH  25  27
ENDBRANCH   1  25
BRANCH   3  36
HETATM   36  O1  UNL     1      -3.497  50.559 -25.140  1.00  0.00    -0.394 OA
HETATM   37  H17 UNL     1      -2.700  50.737 -25.670  1.00  0.00     0.210 HD
ENDBRANCH   3  36
TORSDOF 7
ENDMDL
MODEL 3
REMARK minimizedAffinity -7.71851063
REMARK CNNscore 0.508791924
REMARK CNNaffinity 6.92451859
REMARK  7 active torsions:
REMARK  status: ('A' for Active; 'I' for Inactive)
REMARK    1  A    between atoms: C2_2  and  C30_33 
REMARK    2  A    between atoms: C3_3  and  C4_4 
REMARK    3  A    between atoms: C4_4  and  C5_5 
REMARK    4  A    between atoms: C5_5  and  C6_6 
REMARK    5  A    between atoms: C6_6  and  C8_8 
REMARK    6  A    between atoms: C10_10  and  O1_11 
REMARK    7  A    between atoms: C30_33  and  O5_35 
ROOT
HETATM    1  C8  UNL     1      -2.368  49.804 -20.796  1.00  0.00     0.001 C 
HETATM    2  C9  UNL     1      -2.410  48.286 -20.487  1.00  0.00     0.038 C 
HETATM    3  C10 UNL     1      -1.678  48.091 -19.136  1.00  0.00     0.131 C 
HETATM    4  C11 UNL     1      -1.557  49.522 -18.536  1.00  0.00     0.014 C 
HETATM    5  C12 UNL     1      -2.897  49.870 -17.812  1.00  0.00     0.023 C 
HETATM    6  C13 UNL     1      -0.470  49.837 -17.511  1.00  0.00    -0.058 C 
HETATM    7  C14 UNL     1       0.031  51.089 -17.361  1.00  0.00    -0.000 C 
HETATM    8  C15 UNL     1      -0.476  52.182 -18.309  1.00  0.00     0.157 C 
HETATM    9  O2  UNL     1      -0.193  53.366 -18.124  1.00  0.00    -0.293 OA
HETATM   10  C16 UNL     1      -1.344  51.822 -19.512  1.00  0.00     0.094 C 
HETATM   11  C17 UNL     1      -1.258  50.335 -19.842  1.00  0.00    -0.019 C 
HETATM   12  C18 UNL     1       0.155  50.062 -20.443  1.00  0.00     0.017 C 
HETATM   13  C19 UNL     1       1.149  51.460 -16.347  1.00  0.00    -0.008 C 
HETATM   14  C20 UNL     1       2.345  51.947 -17.217  1.00  0.00     0.021 C 
HETATM   15  C21 UNL     1       0.693  52.616 -15.403  1.00  0.00     0.022 C 
HETATM   16  C22 UNL     1       0.174  52.160 -14.050  1.00  0.00     0.080 C 
HETATM   17  C23 UNL     1       1.238  51.420 -13.277  1.00  0.00     0.135 C 
HETATM   18  O3  UNL     1       1.262  51.475 -12.046  1.00  0.00    -0.297 OA
HETATM   19  C24 UNL     1       2.261  50.600 -14.071  1.00  0.00     0.018 C 
HETATM   20  C25 UNL     1       3.553  51.433 -14.161  1.00  0.00     0.023 C 
HETATM   21  C26 UNL     1       2.618  49.337 -13.251  1.00  0.00     0.023 C 
HETATM   22  C27 UNL     1       1.664  50.221 -15.485  1.00  0.00     0.014 C 
HETATM   23  C28 UNL     1       0.580  49.129 -15.338  1.00  0.00     0.011 C 
HETATM   24  C29 UNL     1      -0.014  48.691 -16.662  1.00  0.00     0.036 C 
ENDROOT
BRANCH   1  25
HETATM   25  C6  UNL     1      -2.320  50.218 -22.297  1.00  0.00    -0.013 C 
HETATM   26  C7  UNL     1      -3.235  51.438 -22.506  1.00  0.00     0.010 C 
BRANCH  25  27
HETATM   27  C5  UNL     1      -2.709  49.112 -23.305  1.00  0.00     0.008 C 
BRANCH  27  28
HETATM   28  C4  UNL     1      -4.060  49.366 -23.986  1.00  0.00     0.028 C 
BRANCH  28  29
HETATM   29  C3  UNL     1      -3.974  49.104 -25.464  1.00  0.00    -0.013 C 
HETATM   30  C2  UNL     1      -3.564  49.958 -26.424  1.00  0.00     0.008 C 
HETATM   31  C1  UNL     1      -3.149  51.383 -26.211  1.00  0.00     0.055 C 
BRANCH  30  32
HETATM   32  C30 UNL     1      -3.552  49.434 -27.815  1.00  0.00     0.171 C 
HETATM   33  O4  UNL     1      -3.526  48.265 -28.154  1.00  0.00    -0.646 OA
BRANCH  32  34
HETATM   34  O5  UNL     1      -3.573  50.417 -28.730  1.00  0.00    -0.773 OA
HETATM   35  H44 UNL     1      -3.556  49.935 -29.582  1.00  0.00     0.167 HD
ENDBRANCH  32  34
ENDBRANCH  30  32
ENDBRANCH  28  29
ENDBRANCH  27  28
ENDBRANCH  25  27
ENDBRANCH   1  25
BRANCH   3  36
HETATM   36  O1  UNL     1      -2.401  47.188 -18.312  1.00  0.00    -0.394 OA
HETATM   37  H17 UNL     1      -2.498  46.355 -18.804  1.00  0.00     0.210 HD
ENDBRANCH   3  36
TORSDOF 7
ENDMDL
MODEL 4
REMARK minimizedAffinity -7.88794184
REMARK CNNscore 0.46867463
REMARK CNNaffinity 6.45283747
REMARK  7 active torsions:
REMARK  status: ('A' for Active; 'I' for Inactive)
REMARK    1  A    between atoms: C2_2  and  C30_33 
REMARK    2  A    between atoms: C3_3  and  C4_4 
REMARK    3  A    between atoms: C4_4  and  C5_5 
REMARK    4  A    between atoms: C5_5  and  C6_6 
REMARK    5  A    between atoms: C6_6  and  C8_8 
REMARK    6  A    between atoms: C10_10  and  O1_11 
REMARK    7  A    between atoms: C30_33  and  O5_35 
ROOT
HETATM    1  C8  UNL     1      -4.215  48.986 -22.164  1.00  0.00     0.001 C 
HETATM    2  C9  UNL     1      -4.416  47.454 -22.047  1.00  0.00     0.038 C 
HETATM    3  C10 UNL     1      -3.971  47.060 -20.617  1.00  0.00     0.131 C 
HETATM    4  C11 UNL     1      -3.873  48.406 -19.842  1.00  0.00     0.014 C 
HETATM    5  C12 UNL     1      -5.302  48.793 -19.341  1.00  0.00     0.023 C 
HETATM    6  C13 UNL     1      -2.985  48.520 -18.606  1.00  0.00    -0.058 C 
HETATM    7  C14 UNL     1      -2.441  49.701 -18.221  1.00  0.00    -0.000 C 
HETATM    8  C15 UNL     1      -2.683  50.925 -19.112  1.00  0.00     0.157 C 
HETATM    9  O2  UNL     1      -2.364  52.055 -18.742  1.00  0.00    -0.293 OA
HETATM   10  C16 UNL     1      -3.326  50.766 -20.488  1.00  0.00     0.094 C 
HETATM   11  C17 UNL     1      -3.277  49.319 -20.967  1.00  0.00    -0.019 C 
HETATM   12  C18 UNL     1      -1.796  48.987 -21.327  1.00  0.00     0.017 C 
HETATM   13  C19 UNL     1      -1.517  49.868 -16.983  1.00  0.00    -0.008 C 
HETATM   14  C20 UNL     1      -0.146  50.336 -17.556  1.00  0.00     0.021 C 
HETATM   15  C21 UNL     1      -2.067  50.957 -16.010  1.00  0.00     0.022 C 
HETATM   16  C22 UNL     1      -2.865  50.412 -14.838  1.00  0.00     0.080 C 
HETATM   17  C23 UNL     1      -2.021  49.507 -13.975  1.00  0.00     0.135 C 
HETATM   18  O3  UNL     1      -2.230  49.433 -12.762  1.00  0.00    -0.297 OA
HETATM   19  C24 UNL     1      -0.920  48.687 -14.658  1.00  0.00     0.018 C 
HETATM   20  C25 UNL     1       0.417  49.410 -14.412  1.00  0.00     0.023 C 
HETATM   21  C26 UNL     1      -0.812  47.321 -13.939  1.00  0.00     0.023 C 
HETATM   22  C27 UNL     1      -1.259  48.507 -16.192  1.00  0.00     0.014 C 
HETATM   23  C28 UNL     1      -2.420  47.504 -16.375  1.00  0.00     0.011 C 
HETATM   24  C29 UNL     1      -2.777  47.257 -17.827  1.00  0.00     0.036 C 
ENDROOT
BRANCH   1  25
HETATM   25  C6  UNL     1      -3.853  49.546 -23.573  1.00  0.00    -0.013 C 
HETATM   26  C7  UNL     1      -4.885  50.621 -23.961  1.00  0.00     0.010 C 
BRANCH  25  27
HETATM   27  C5  UNL     1      -3.762  48.495 -24.703  1.00  0.00     0.008 C 
BRANCH  27  28
HETATM   28  C4  UNL     1      -5.027  48.432 -25.569  1.00  0.00     0.028 C 
BRANCH  28  29
HETATM   29  C3  UNL     1      -4.680  48.494 -27.031  1.00  0.00    -0.013 C 
HETATM   30  C2  UNL     1      -5.401  48.013 -28.063  1.00  0.00     0.008 C 
HETATM   31  C1  UNL     1      -6.696  47.265 -27.956  1.00  0.00     0.055 C 
BRANCH  30  32
HETATM   32  C30 UNL     1      -4.838  48.229 -29.422  1.00  0.00     0.171 C 
HETATM   33  O4  UNL     1      -4.700  47.393 -30.296  1.00  0.00    -0.646 OA
BRANCH  32  34
HETATM   34  O5  UNL     1      -4.464  49.503 -29.622  1.00  0.00    -0.773 OA
HETATM   35  H44 UNL     1      -4.114  49.496 -30.536  1.00  0.00     0.167 HD
ENDBRANCH  32  34
ENDBRANCH  30  32
ENDBRANCH  28  29
ENDBRANCH  27  28
ENDBRANCH  25  27
ENDBRANCH   1  25
BRANCH   3  36
HETATM   36  O1  UNL     1      -4.897  46.143 -20.050  1.00  0.00    -0.394 OA
HETATM   37  H17 UNL     1      -4.953  45.376 -20.646  1.00  0.00     0.210 HD
ENDBRANCH   3  36
TORSDOF 7
ENDMDL
MODEL 5
REMARK minimizedAffinity -8.74451447
REMARK CNNscore 0.466984123
REMARK CNNaffinity 6.96427298
REMARK  7 active torsions:
REMARK  status: ('A' for Active; 'I' for Inactive)
REMARK    1  A    between atoms: C2_2  and  C30_33 
REMARK    2  A    between atoms: C3_3  and  C4_4 
REMARK    3  A    between atoms: C4_4  and  C5_5 
REMARK    4  A    between atoms: C5_5  and  C6_6 
REMARK    5  A    between atoms: C6_6  and  C8_8 
REMARK    6  A    between atoms: C10_10  and  O1_11 
REMARK    7  A    between atoms: C30_33  and  O5_35 
ROOT
HETATM    1  C8  UNL     1      -1.408  50.321 -17.419  1.00  0.00     0.001 C 
HETATM    2  C9  UNL     1       0.034  50.879 -17.512  1.00  0.00     0.038 C 
HETATM    3  C10 UNL     1       0.274  51.231 -19.001  1.00  0.00     0.131 C 
HETATM    4  C11 UNL     1      -1.139  51.207 -19.652  1.00  0.00     0.014 C 
HETATM    5  C12 UNL     1      -1.827  52.585 -19.390  1.00  0.00     0.023 C 
HETATM    6  C13 UNL     1      -1.292  50.977 -21.153  1.00  0.00    -0.058 C 
HETATM    7  C14 UNL     1      -2.413  50.426 -21.683  1.00  0.00    -0.000 C 
HETATM    8  C15 UNL     1      -3.510  49.965 -20.717  1.00  0.00     0.157 C 
HETATM    9  O2  UNL     1      -4.615  49.614 -21.130  1.00  0.00    -0.293 OA
HETATM   10  C16 UNL     1      -3.252  49.930 -19.213  1.00  0.00     0.094 C 
HETATM   11  C17 UNL     1      -1.761  49.982 -18.897  1.00  0.00    -0.019 C 
HETATM   12  C18 UNL     1      -1.140  48.611 -19.305  1.00  0.00     0.017 C 
HETATM   13  C19 UNL     1      -2.611  50.155 -23.201  1.00  0.00    -0.008 C 
HETATM   14  C20 UNL     1      -2.756  48.609 -23.324  1.00  0.00     0.021 C 
HETATM   15  C21 UNL     1      -3.911  50.837 -23.730  1.00  0.00     0.022 C 
HETATM   16  C22 UNL     1      -3.688  52.178 -24.410  1.00  0.00     0.080 C 
HETATM   17  C23 UNL     1      -2.799  52.037 -25.621  1.00  0.00     0.135 C 
HETATM   18  O3  UNL     1      -2.945  52.784 -26.590  1.00  0.00    -0.297 OA
HETATM   19  C24 UNL     1      -1.716  50.953 -25.592  1.00  0.00     0.018 C 
HETATM   20  C25 UNL     1      -2.238  49.753 -26.403  1.00  0.00     0.023 C 
HETATM   21  C26 UNL     1      -0.475  51.481 -26.351  1.00  0.00     0.023 C 
HETATM   22  C27 UNL     1      -1.363  50.586 -24.094  1.00  0.00     0.014 C 
HETATM   23  C28 UNL     1      -0.548  51.724 -23.438  1.00  0.00     0.011 C 
HETATM   24  C29 UNL     1      -0.145  51.425 -22.007  1.00  0.00     0.036 C 
ENDROOT
BRANCH   1  25
HETATM   25  C6  UNL     1      -1.681  49.247 -16.323  1.00  0.00    -0.013 C 
HETATM   26  C7  UNL     1      -2.620  49.846 -15.261  1.00  0.00     0.010 C 
BRANCH  25  27
HETATM   27  C5  UNL     1      -0.425  48.672 -15.628  1.00  0.00     0.008 C 
BRANCH  27  28
HETATM   28  C4  UNL     1      -0.026  49.451 -14.368  1.00  0.00     0.028 C 
BRANCH  28  29
HETATM   29  C3  UNL     1       1.365  49.085 -13.928  1.00  0.00    -0.013 C 
HETATM   30  C2  UNL     1       2.479  49.836 -14.030  1.00  0.00     0.008 C 
HETATM   31  C1  UNL     1       2.566  51.196 -14.656  1.00  0.00     0.055 C 
BRANCH  30  32
HETATM   32  C30 UNL     1       3.730  49.241 -13.492  1.00  0.00     0.171 C 
HETATM   33  O4  UNL     1       4.830  49.762 -13.457  1.00  0.00    -0.646 OA
BRANCH  32  34
HETATM   34  O5  UNL     1       3.541  47.998 -13.018  1.00  0.00    -0.773 OA
HETATM   35  H44 UNL     1       4.432  47.735 -12.709  1.00  0.00     0.167 HD
ENDBRANCH  32  34
ENDBRANCH  30  32
ENDBRANCH  28  29
ENDBRANCH  27  28
ENDBRANCH  25  27
ENDBRANCH   1  25
BRANCH   3  36
HETATM   36  O1  UNL     1       0.929  52.486 -19.110  1.00  0.00    -0.394 OA
HETATM   37  H17 UNL     1       1.759  52.429 -18.603  1.00  0.00     0.210 HD
ENDBRANCH   3  36
TORSDOF 7
ENDMDL
MODEL 6
REMARK minimizedAffinity -8.0027113
REMARK CNNscore 0.410728276
REMARK CNNaffinity 6.60224104
REMARK  7 active torsions:
REMARK  status: ('A' for Active; 'I' for Inactive)
REMARK    1  A    between atoms: C2_2  and  C30_33 
REMARK    2  A    between atoms: C3_3  and  C4_4 
REMARK    3  A    between atoms: C4_4  and  C5_5 
REMARK    4  A    between atoms: C5_5  and  C6_6 
REMARK    5  A    between atoms: C6_6  and  C8_8 
REMARK    6  A    between atoms: C10_10  and  O1_11 
REMARK    7  A    between atoms: C30_33  and  O5_35 
ROOT
HETATM    1  C8  UNL     1      -3.210  49.203 -22.451  1.00  0.00     0.001 C 
HETATM    2  C9  UNL     1      -3.694  48.853 -23.881  1.00  0.00     0.038 C 
HETATM    3  C10 UNL     1      -5.161  48.376 -23.744  1.00  0.00     0.131 C 
HETATM    4  C11 UNL     1      -5.590  48.803 -22.310  1.00  0.00     0.014 C 
HETATM    5  C12 UNL     1      -6.033  50.301 -22.353  1.00  0.00     0.023 C 
HETATM    6  C13 UNL     1      -6.732  48.081 -21.601  1.00  0.00    -0.058 C 
HETATM    7  C14 UNL     1      -6.807  48.013 -20.248  1.00  0.00    -0.000 C 
HETATM    8  C15 UNL     1      -5.659  48.625 -19.436  1.00  0.00     0.157 C 
HETATM    9  O2  UNL     1      -5.740  48.748 -18.214  1.00  0.00    -0.293 OA
HETATM   10  C16 UNL     1      -4.383  49.094 -20.131  1.00  0.00     0.094 C 
HETATM   11  C17 UNL     1      -4.260  48.510 -21.535  1.00  0.00    -0.019 C 
HETATM   12  C18 UNL     1      -3.939  46.990 -21.390  1.00  0.00     0.017 C 
HETATM   13  C19 UNL     1      -7.937  47.276 -19.478  1.00  0.00    -0.008 C 
HETATM   14  C20 UNL     1      -7.223  46.132 -18.699  1.00  0.00     0.021 C 
HETATM   15  C21 UNL     1      -8.642  48.229 -18.462  1.00  0.00     0.022 C 
HETATM   16  C22 UNL     1      -9.937  48.844 -18.966  1.00  0.00     0.080 C 
HETATM   17  C23 UNL     1     -10.961  47.781 -19.281  1.00  0.00     0.135 C 
HETATM   18  O3  UNL     1     -12.163  48.015 -19.139  1.00  0.00    -0.297 OA
HETATM   19  C24 UNL     1     -10.455  46.426 -19.789  1.00  0.00     0.018 C 
HETATM   20  C25 UNL     1     -10.476  45.448 -18.600  1.00  0.00     0.023 C 
HETATM   21  C26 UNL     1     -11.473  45.879 -20.818  1.00  0.00     0.023 C 
HETATM   22  C27 UNL     1      -9.020  46.596 -20.431  1.00  0.00     0.014 C 
HETATM   23  C28 UNL     1      -9.120  47.314 -21.796  1.00  0.00     0.011 C 
HETATM   24  C29 UNL     1      -7.781  47.481 -22.486  1.00  0.00     0.036 C 
ENDROOT
BRANCH   1  25
HETATM   25  C6  UNL     1      -1.697  48.988 -22.145  1.00  0.00    -0.013 C 
HETATM   26  C7  UNL     1      -1.525  47.652 -21.399  1.00  0.00     0.010 C 
BRANCH  25  27
HETATM   27  C5  UNL     1      -1.015  50.115 -21.336  1.00  0.00     0.008 C 
BRANCH  27  28
HETATM   28  C4  UNL     1      -1.564  51.509 -21.664  1.00  0.00     0.028 C 
BRANCH  28  29
HETATM   29  C3  UNL     1      -0.911  52.067 -22.898  1.00  0.00    -0.013 C 
HETATM   30  C2  UNL     1       0.227  52.786 -22.967  1.00  0.00     0.008 C 
HETATM   31  C1  UNL     1       1.061  53.222 -21.799  1.00  0.00     0.055 C 
BRANCH  30  32
HETATM   32  C30 UNL     1       0.668  53.198 -24.325  1.00  0.00     0.171 C 
HETATM   33  O4  UNL     1       0.694  54.331 -24.772  1.00  0.00    -0.646 OA
BRANCH  32  34
HETATM   34  O5  UNL     1       1.061  52.153 -25.072  1.00  0.00    -0.773 OA
HETATM   35  H44 UNL     1       1.313  52.565 -25.924  1.00  0.00     0.167 HD
ENDBRANCH  32  34
ENDBRANCH  30  32
ENDBRANCH  28  29
ENDBRANCH  27  28
ENDBRANCH  25  27
ENDBRANCH   1  25
BRANCH   3  36
HETATM   36  O1  UNL     1      -5.960  48.945 -24.770  1.00  0.00    -0.394 OA
HETATM   37  H17 UNL     1      -5.566  48.693 -25.624  1.00  0.00     0.210 HD
ENDBRANCH   3  36
TORSDOF 7
ENDMDL
MODEL 7
REMARK minimizedAffinity -8.01936245
REMARK CNNscore 0.389520735
REMARK CNNaffinity 5.88851786
REMARK  7 active torsions:
REMARK  status: ('A' for Active; 'I' for Inactive)
REMARK    1  A    between atoms: C2_2  and  C30_33 
REMARK    2  A    between atoms: C3_3  and  C4_4 
REMARK    3  A    between atoms: C4_4  and  C5_5 
REMARK    4  A    between atoms: C5_5  and  C6_6 
REMARK    5  A    between atoms: C6_6  and  C8_8 
REMARK    6  A    between atoms: C10_10  and  O1_11 
REMARK    7  A    between atoms: C30_33  and  O5_35 
ROOT
HETATM    1  C8  UNL     1     -13.723  46.365 -27.169  1.00  0.00     0.001 C 
HETATM    2  C9  UNL     1     -13.132  47.407 -26.187  1.00  0.00     0.038 C 
HETATM    3  C10 UNL     1     -11.727  47.773 -26.726  1.00  0.00     0.131 C 
HETATM    4  C11 UNL     1     -11.697  47.214 -28.178  1.00  0.00     0.014 C 
HETATM    5  C12 UNL     1     -12.381  48.254 -29.123  1.00  0.00     0.023 C 
HETATM    6  C13 UNL     1     -10.365  46.895 -28.852  1.00  0.00    -0.058 C 
HETATM    7  C14 UNL     1     -10.262  45.956 -29.826  1.00  0.00    -0.000 C 
HETATM    8  C15 UNL     1     -11.521  45.158 -30.188  1.00  0.00     0.157 C 
HETATM    9  O2  UNL     1     -11.542  44.415 -31.169  1.00  0.00    -0.293 OA
HETATM   10  C16 UNL     1     -12.780  45.269 -29.332  1.00  0.00     0.094 C 
HETATM   11  C17 UNL     1     -12.479  45.873 -27.964  1.00  0.00    -0.019 C 
HETATM   12  C18 UNL     1     -11.690  44.810 -27.139  1.00  0.00     0.017 C 
HETATM   13  C19 UNL     1      -8.929  45.581 -30.531  1.00  0.00    -0.008 C 
HETATM   14  C20 UNL     1      -8.683  44.085 -30.171  1.00  0.00     0.021 C 
HETATM   15  C21 UNL     1      -9.051  45.724 -32.080  1.00  0.00     0.022 C 
HETATM   16  C22 UNL     1      -8.511  47.030 -32.638  1.00  0.00     0.080 C 
HETATM   17  C23 UNL     1      -7.039  47.183 -32.346  1.00  0.00     0.135 C 
HETATM   18  O3  UNL     1      -6.309  47.793 -33.130  1.00  0.00    -0.297 OA
HETATM   19  C24 UNL     1      -6.498  46.571 -31.048  1.00  0.00     0.018 C 
HETATM   20  C25 UNL     1      -5.820  45.237 -31.412  1.00  0.00     0.023 C 
HETATM   21  C26 UNL     1      -5.379  47.490 -30.503  1.00  0.00     0.023 C 
HETATM   22  C27 UNL     1      -7.673  46.408 -30.002  1.00  0.00     0.014 C 
HETATM   23  C28 UNL     1      -8.086  47.786 -29.435  1.00  0.00     0.011 C 
HETATM   24  C29 UNL     1      -9.188  47.701 -28.397  1.00  0.00     0.036 C 
ENDROOT
BRANCH   1  25
HETATM   25  C6  UNL     1     -14.694  45.302 -26.572  1.00  0.00    -0.013 C 
HETATM   26  C7  UNL     1     -15.952  45.225 -27.456  1.00  0.00     0.010 C 
BRANCH  25  27
HETATM   27  C5  UNL     1     -15.117  45.538 -25.104  1.00  0.00     0.008 C 
BRANCH  27  28
HETATM   28  C4  UNL     1     -16.324  46.474 -24.968  1.00  0.00     0.028 C 
BRANCH  28  29
HETATM   29  C3  UNL     1     -17.070  46.207 -23.690  1.00  0.00    -0.013 C 
HETATM   30  C2  UNL     1     -18.405  46.139 -23.521  1.00  0.00     0.008 C 
HETATM   31  C1  UNL     1     -19.437  46.368 -24.585  1.00  0.00     0.055 C 
BRANCH  30  32
HETATM   32  C30 UNL     1     -18.884  45.835 -22.147  1.00  0.00     0.171 C 
HETATM   33  O4  UNL     1     -19.755  45.042 -21.837  1.00  0.00    -0.646 OA
BRANCH  32  34
HETATM   34  O5  UNL     1     -18.240  46.552 -21.212  1.00  0.00    -0.773 OA
HETATM   35  H44 UNL     1     -18.655  46.258 -20.375  1.00  0.00     0.167 HD
ENDBRANCH  32  34
ENDBRANCH  30  32
ENDBRANCH  28  29
ENDBRANCH  27  28
ENDBRANCH  25  27
ENDBRANCH   1  25
BRANCH   3  36
HETATM   36  O1  UNL     1     -11.524  49.177 -26.653  1.00  0.00    -0.394 OA
HETATM   37  H17 UNL     1     -11.646  49.443 -25.725  1.00  0.00     0.210 HD
ENDBRANCH   3  36
TORSDOF 7
ENDMDL
MODEL 8
REMARK minimizedAffinity -8.1769762
REMARK CNNscore 0.359993309
REMARK CNNaffinity 5.59916449
REMARK  7 active torsions:
REMARK  status: ('A' for Active; 'I' for Inactive)
REMARK    1  A    between atoms: C2_2  and  C30_33 
REMARK    2  A    between atoms: C3_3  and  C4_4 
REMARK    3  A    between atoms: C4_4  and  C5_5 
REMARK    4  A    between atoms: C5_5  and  C6_6 
REMARK    5  A    between atoms: C6_6  and  C8_8 
REMARK    6  A    between atoms: C10_10  and  O1_11 
REMARK    7  A    between atoms: C30_33  and  O5_35 
ROOT
HETATM    1  C8  UNL     1     -10.373  46.509 -27.142  1.00  0.00     0.001 C 
HETATM    2  C9  UNL     1     -10.690  46.073 -28.595  1.00  0.00     0.038 C 
HETATM    3  C10 UNL     1     -12.208  45.773 -28.643  1.00  0.00     0.131 C 
HETATM    4  C11 UNL     1     -12.780  46.384 -27.331  1.00  0.00     0.014 C 
HETATM    5  C12 UNL     1     -13.028  47.909 -27.564  1.00  0.00     0.023 C 
HETATM    6  C13 UNL     1     -14.090  45.863 -26.747  1.00  0.00    -0.058 C 
HETATM    7  C14 UNL     1     -14.362  45.938 -25.420  1.00  0.00    -0.000 C 
HETATM    8  C15 UNL     1     -13.275  46.500 -24.496  1.00  0.00     0.157 C 
HETATM    9  O2  UNL     1     -13.512  46.751 -23.315  1.00  0.00    -0.293 OA
HETATM   10  C16 UNL     1     -11.867  46.758 -25.026  1.00  0.00     0.094 C 
HETATM   11  C17 UNL     1     -11.619  46.027 -26.342  1.00  0.00    -0.019 C 
HETATM   12  C18 UNL     1     -11.508  44.504 -26.026  1.00  0.00     0.017 C 
HETATM   13  C19 UNL     1     -15.671  45.407 -24.772  1.00  0.00    -0.008 C 
HETATM   14  C20 UNL     1     -15.218  44.275 -23.802  1.00  0.00     0.021 C 
HETATM   15  C21 UNL     1     -16.391  46.526 -23.956  1.00  0.00     0.022 C 
HETATM   16  C22 UNL     1     -17.518  47.224 -24.699  1.00  0.00     0.080 C 
HETATM   17  C23 UNL     1     -18.608  46.253 -25.077  1.00  0.00     0.135 C 
HETATM   18  O3  UNL     1     -19.781  46.628 -25.138  1.00  0.00    -0.297 OA
HETATM   19  C24 UNL     1     -18.204  44.808 -25.390  1.00  0.00     0.018 C 
HETATM   20  C25 UNL     1     -18.511  43.960 -24.142  1.00  0.00     0.023 C 
HETATM   21  C26 UNL     1     -19.126  44.274 -26.513  1.00  0.00     0.023 C 
HETATM   22  C27 UNL     1     -16.683  44.757 -25.819  1.00  0.00     0.014 C 
HETATM   23  C28 UNL     1     -16.502  45.343 -27.238  1.00  0.00     0.011 C 
HETATM   24  C29 UNL     1     -15.069  45.296 -27.728  1.00  0.00     0.036 C 
ENDROOT
BRANCH   1  25
HETATM   25  C6  UNL     1      -8.956  46.163 -26.593  1.00  0.00    -0.013 C 
HETATM   26  C7  UNL     1      -8.917  46.471 -25.085  1.00  0.00     0.010 C 
BRANCH  25  27
HETATM   27  C5  UNL     1      -7.779  46.882 -27.291  1.00  0.00     0.008 C 
BRANCH  27  28
HETATM   28  C4  UNL     1      -7.110  46.028 -28.376  1.00  0.00     0.028 C 
BRANCH  28  29
HETATM   29  C3  UNL     1      -6.648  46.882 -29.523  1.00  0.00    -0.013 C 
HETATM   30  C2  UNL     1      -5.642  47.779 -29.522  1.00  0.00     0.008 C 
HETATM   31  C1  UNL     1      -4.795  48.146 -28.340  1.00  0.00     0.055 C 
BRANCH  30  32
HETATM   32  C30 UNL     1      -5.376  48.478 -30.807  1.00  0.00     0.171 C 
HETATM   33  O4  UNL     1      -5.725  48.121 -31.917  1.00  0.00    -0.646 OA
BRANCH  32  34
HETATM   34  O5  UNL     1      -4.670  49.608 -30.636  1.00  0.00    -0.773 OA
HETATM   35  H44 UNL     1      -4.566  49.951 -31.548  1.00  0.00     0.167 HD
ENDBRANCH  32  34
ENDBRANCH  30  32
ENDBRANCH  28  29
ENDBRANCH  27  28
ENDBRANCH  25  27
ENDBRANCH   1  25
BRANCH   3  36
HETATM   36  O1  UNL     1     -12.780  46.321 -29.822  1.00  0.00    -0.394 OA
HETATM   37  H17 UNL     1     -12.302  45.944 -30.582  1.00  0.00     0.210 HD
ENDBRANCH   3  36
TORSDOF 7
ENDMDL
MODEL 9
REMARK minimizedAffinity -7.7074399
REMARK CNNscore 0.355686426
REMARK CNNaffinity 5.94511557
REMARK  7 active torsions:
REMARK  status: ('A' for Active; 'I' for Inactive)
REMARK    1  A    between atoms: C2_2  and  C30_33 
REMARK    2  A    between atoms: C3_3  and  C4_4 
REMARK    3  A    between atoms: C4_4  and  C5_5 
REMARK    4  A    between atoms: C5_5  and  C6_6 
REMARK    5  A    between atoms: C6_6  and  C8_8 
REMARK    6  A    between atoms: C10_10  and  O1_11 
REMARK    7  A    between atoms: C30_33  and  O5_35 
ROOT
HETATM    1  C8  UNL     1     -19.010  45.399 -21.948  1.00  0.00     0.001 C 
HETATM    2  C9  UNL     1     -18.512  46.689 -22.648  1.00  0.00     0.038 C 
HETATM    3  C10 UNL     1     -18.510  46.392 -24.168  1.00  0.00     0.131 C 
HETATM    4  C11 UNL     1     -19.339  45.084 -24.323  1.00  0.00     0.014 C 
HETATM    5  C12 UNL     1     -20.855  45.461 -24.352  1.00  0.00     0.023 C 
HETATM    6  C13 UNL     1     -19.139  44.186 -25.540  1.00  0.00    -0.058 C 
HETATM    7  C14 UNL     1     -19.387  42.853 -25.495  1.00  0.00    -0.000 C 
HETATM    8  C15 UNL     1     -19.810  42.248 -24.150  1.00  0.00     0.157 C 
HETATM    9  O2  UNL     1     -20.210  41.087 -24.073  1.00  0.00    -0.293 OA
HETATM   10  C16 UNL     1     -19.739  43.079 -22.872  1.00  0.00     0.094 C 
HETATM   11  C17 UNL     1     -18.855  44.309 -23.049  1.00  0.00    -0.019 C 
HETATM   12  C18 UNL     1     -17.376  43.824 -23.132  1.00  0.00     0.017 C 
HETATM   13  C19 UNL     1     -19.184  41.892 -26.699  1.00  0.00    -0.008 C 
HETATM   14  C20 UNL     1     -18.080  40.892 -26.242  1.00  0.00     0.021 C 
HETATM   15  C21 UNL     1     -20.492  41.103 -27.018  1.00  0.00     0.022 C 
HETATM   16  C22 UNL     1     -21.324  41.690 -28.146  1.00  0.00     0.080 C 
HETATM   17  C23 UNL     1     -20.553  41.711 -29.442  1.00  0.00     0.135 C 
HETATM   18  O3  UNL     1     -21.142  41.585 -30.518  1.00  0.00    -0.297 OA
HETATM   19  C24 UNL     1     -19.034  41.905 -29.370  1.00  0.00     0.018 C 
HETATM   20  C25 UNL     1     -18.381  40.520 -29.533  1.00  0.00     0.023 C 
HETATM   21  C26 UNL     1     -18.589  42.740 -30.594  1.00  0.00     0.023 C 
HETATM   22  C27 UNL     1     -18.649  42.620 -28.013  1.00  0.00     0.014 C 
HETATM   23  C28 UNL     1     -19.055  44.111 -28.053  1.00  0.00     0.011 C 
HETATM   24  C29 UNL     1     -18.685  44.868 -26.793  1.00  0.00     0.036 C 
ENDROOT
BRANCH   1  25
HETATM   25  C6  UNL     1     -18.447  45.105 -20.525  1.00  0.00    -0.013 C 
HETATM   26  C7  UNL     1     -19.469  44.251 -19.752  1.00  0.00     0.010 C 
BRANCH  25  27
HETATM   27  C5  UNL     1     -18.082  46.350 -19.683  1.00  0.00     0.008 C 
BRANCH  27  28
HETATM   28  C4  UNL     1     -16.653  46.848 -19.933  1.00  0.00     0.028 C 
BRANCH  28  29
HETATM   29  C3  UNL     1     -15.769  46.556 -18.752  1.00  0.00    -0.013 C 
HETATM   30  C2  UNL     1     -15.036  47.436 -18.042  1.00  0.00     0.008 C 
HETATM   31  C1  UNL     1     -14.917  48.905 -18.320  1.00  0.00     0.055 C 
BRANCH  30  32
HETATM   32  C30 UNL     1     -14.263  46.883 -16.899  1.00  0.00     0.171 C 
HETATM   33  O4  UNL     1     -14.568  45.931 -16.204  1.00  0.00    -0.646 OA
BRANCH  32  34
HETATM   34  O5  UNL     1     -13.127  47.564 -16.675  1.00  0.00    -0.773 OA
HETATM   35  H44 UNL     1     -12.733  47.102 -15.906  1.00  0.00     0.167 HD
ENDBRANCH  32  34
ENDBRANCH  30  32
ENDBRANCH  28  29
ENDBRANCH  27  28
ENDBRANCH  25  27
ENDBRANCH   1  25
BRANCH   3  36
HETATM   36  O1  UNL     1     -19.047  47.495 -24.884  1.00  0.00    -0.394 OA
HETATM   37  H17 UNL     1     -18.516  48.278 -24.658  1.00  0.00     0.210 HD
ENDBRANCH   3  36
TORSDOF 7
ENDMDL
