MODEL 1
REMARK minimizedAffinity -9.73412037
REMARK CNNscore 0.446258903
REMARK CNNaffinity 7.45211411
REMARK  7 active torsions:
REMARK  status: ('A' for Active; 'I' for Inactive)
REMARK    1  A    between atoms: C6_7  and  O2_8 
REMARK    2  A    between atoms: C11_15  and  C13_17 
REMARK    3  A    between atoms: C26_34  and  C27_35 
REMARK    4  A    between atoms: C27_35  and  C28_36 
REMARK    5  A    between atoms: C32_40  and  C33_41 
REMARK    6  A    between atoms: C33_41  and  N2_42 
REMARK    7  A    between atoms: C33_41  and  N3_43 
ROOT
HETATM    1  C1  UNL     1       1.028  52.699 -17.023  1.00  0.00     0.077 C 
HETATM    2  C2  UNL     1       0.659  52.530 -18.463  1.00  0.00     0.053 A 
HETATM    3  C3  UNL     1       1.329  53.133 -19.455  1.00  0.00     0.088 A 
HETATM    4  C4  UNL     1       0.907  52.912 -20.846  1.00  0.00     0.190 A 
HETATM    5  O1  UNL     1       1.495  53.436 -21.784  1.00  0.00    -0.287 OA
HETATM    6  C5  UNL     1      -0.250  52.031 -21.062  1.00  0.00     0.082 A 
HETATM    7  C6  UNL     1      -0.739  51.754 -22.348  1.00  0.00     0.092 A 
HETATM    8  C7  UNL     1      -1.857  50.916 -22.534  1.00  0.00     0.016 A 
HETATM    9  C8  UNL     1      -2.385  50.286 -21.395  1.00  0.00     0.082 A 
HETATM   10  C9  UNL     1      -1.913  50.581 -20.112  1.00  0.00     0.075 A 
HETATM   11  C10 UNL     1      -0.849  51.460 -19.947  1.00  0.00     0.095 A 
HETATM   12  O3  UNL     1      -0.426  51.692 -18.662  1.00  0.00    -0.314 OA
HETATM   13  O4  UNL     1      -3.366  49.330 -21.426  1.00  0.00    -0.337 OA
HETATM   14  C11 UNL     1      -3.514  48.622 -22.676  1.00  0.00     0.095 C 
HETATM   15  C12 UNL     1      -2.306  47.674 -22.859  1.00  0.00     0.050 C 
HETATM   16  C18 UNL     1      -3.652  49.676 -23.806  1.00  0.00     0.175 C 
HETATM   17  O5  UNL     1      -4.120  49.141 -25.063  1.00  0.00    -0.310 OA
HETATM   18  C19 UNL     1      -3.242  48.643 -25.965  1.00  0.00     0.297 C 
HETATM   19  O6  UNL     1      -2.140  48.176 -25.735  1.00  0.00    -0.262 OA
HETATM   20  C20 UNL     1      -3.735  48.922 -27.341  1.00  0.00     0.175 A 
HETATM   21  C21 UNL     1      -3.304  50.206 -28.031  1.00  0.00     0.051 C 
HETATM   22  C22 UNL     1      -2.580  51.204 -27.109  1.00  0.00     0.004 C 
HETATM   23  C23 UNL     1      -3.500  51.834 -26.050  1.00  0.00     0.001 C 
HETATM   24  C24 UNL     1      -2.864  51.965 -24.653  1.00  0.00     0.012 C 
HETATM   25  C25 UNL     1      -2.442  50.647 -23.921  1.00  0.00     0.057 C 
HETATM   26  O7  UNL     1      -3.680  47.785 -28.226  1.00  0.00    -0.358 OA
HETATM   27  C26 UNL     1      -4.991  48.143 -27.787  1.00  0.00     0.172 A 
ENDROOT
BRANCH  27  28
HETATM   28  C27 UNL     1      -5.958  48.644 -28.816  1.00  0.00     0.074 C 
BRANCH  28  29
HETATM   29  C28 UNL     1      -7.060  47.673 -29.160  1.00  0.00    -0.055 A 
HETATM   30  C29 UNL     1      -7.219  46.487 -28.432  1.00  0.00     0.007 A 
HETATM   31  C30 UNL     1      -8.238  45.592 -28.750  1.00  0.00     0.001 A 
HETATM   32  C31 UNL     1      -9.109  45.869 -29.805  1.00  0.00     0.011 A 
HETATM   33  C32 UNL     1      -8.970  47.045 -30.561  1.00  0.00     0.004 A 
HETATM   34  C34 UNL     1      -7.944  47.944 -30.214  1.00  0.00     0.018 A 
BRANCH  33  35
HETATM   35  C33 UNL     1      -9.942  47.330 -31.683  1.00  0.00     0.479 C 
BRANCH  35  36
HETATM   36  N2  UNL     1      -9.411  46.958 -32.963  1.00  0.00     0.116 N 
HETATM   37  H37 UNL     1      -8.459  47.308 -33.031  1.00  0.00     0.316 HD
HETATM   38  H38 UNL     1      -9.333  45.944 -32.951  1.00  0.00     0.316 HD
ENDBRANCH  35  36
BRANCH  35  39
HETATM   39  N3  UNL     1     -11.142  46.542 -31.614  1.00  0.00     0.116 N 
HETATM   40  H39 UNL     1     -11.690  46.866 -30.819  1.00  0.00     0.316 HD
HETATM   41  H40 UNL     1     -11.679  46.767 -32.448  1.00  0.00     0.316 HD
ENDBRANCH  35  39
ENDBRANCH  33  35
ENDBRANCH  28  29
ENDBRANCH  27  28
BRANCH  14  42
HETATM   42  C13 UNL     1      -4.823  47.750 -22.542  1.00  0.00     0.026 C 
HETATM   43  C14 UNL     1      -6.046  48.370 -23.261  1.00  0.00     0.037 C 
HETATM   44  C15 UNL     1      -7.354  47.763 -22.765  1.00  0.00     0.270 C 
HETATM   45  N1  UNL     1      -7.603  48.036 -21.351  1.00  0.00     0.083 N 
HETATM   46  C16 UNL     1      -6.386  48.236 -20.567  1.00  0.00     0.270 C 
HETATM   47  H15 UNL     1      -8.157  47.277 -20.954  1.00  0.00     0.315 HD
HETATM   48  C17 UNL     1      -5.204  47.413 -21.076  1.00  0.00     0.037 C 
ENDBRANCH  14  42
BRANCH   7  49
HETATM   49  O2  UNL     1      -0.117  52.259 -23.463  1.00  0.00    -0.359 OA
HETATM   50  H5  UNL     1       0.640  52.820 -23.177  1.00  0.00     0.217 HD
ENDBRANCH   7  49
TORSDOF 7
ENDMDL
MODEL 2
REMARK minimizedAffinity -10.6685114
REMARK CNNscore 0.380104989
REMARK CNNaffinity 7.24198151
REMARK  7 active torsions:
REMARK  status: ('A' for Active; 'I' for Inactive)
REMARK    1  A    between atoms: C6_7  and  O2_8 
REMARK    2  A    between atoms: C11_15  and  C13_17 
REMARK    3  A    between atoms: C26_34  and  C27_35 
REMARK    4  A    between atoms: C27_35  and  C28_36 
REMARK    5  A    between atoms: C32_40  and  C33_41 
REMARK    6  A    between atoms: C33_41  and  N2_42 
REMARK    7  A    between atoms: C33_41  and  N3_43 
ROOT
HETATM    1  C1  UNL     1       1.067  52.846 -17.013  1.00  0.00     0.077 C 
HETATM    2  C2  UNL     1       0.702  52.654 -18.452  1.00  0.00     0.053 A 
HETATM    3  C3  UNL     1       1.373  53.245 -19.450  1.00  0.00     0.088 A 
HETATM    4  C4  UNL     1       0.955  53.003 -20.839  1.00  0.00     0.190 A 
HETATM    5  O1  UNL     1       1.544  53.514 -21.784  1.00  0.00    -0.287 OA
HETATM    6  C5  UNL     1      -0.199  52.115 -21.045  1.00  0.00     0.082 A 
HETATM    7  C6  UNL     1      -0.685  51.817 -22.328  1.00  0.00     0.092 A 
HETATM    8  C7  UNL     1      -1.799  50.974 -22.505  1.00  0.00     0.016 A 
HETATM    9  C8  UNL     1      -2.329  50.359 -21.358  1.00  0.00     0.082 A 
HETATM   10  C9  UNL     1      -1.861  50.675 -20.078  1.00  0.00     0.075 A 
HETATM   11  C10 UNL     1      -0.800  51.559 -19.923  1.00  0.00     0.095 A 
HETATM   12  O3  UNL     1      -0.381  51.811 -18.641  1.00  0.00    -0.314 OA
HETATM   13  O4  UNL     1      -3.307  49.401 -21.376  1.00  0.00    -0.337 OA
HETATM   14  C11 UNL     1      -3.450  48.674 -22.616  1.00  0.00     0.095 C 
HETATM   15  C12 UNL     1      -2.239  47.726 -22.783  1.00  0.00     0.050 C 
HETATM   16  C18 UNL     1      -3.588  49.711 -23.762  1.00  0.00     0.175 C 
HETATM   17  O5  UNL     1      -4.052  49.155 -25.012  1.00  0.00    -0.310 OA
HETATM   18  C19 UNL     1      -3.170  48.647 -25.905  1.00  0.00     0.297 C 
HETATM   19  O6  UNL     1      -2.067  48.186 -25.665  1.00  0.00    -0.262 OA
HETATM   20  C20 UNL     1      -3.660  48.904 -27.286  1.00  0.00     0.175 A 
HETATM   21  C21 UNL     1      -3.230  50.179 -27.994  1.00  0.00     0.051 C 
HETATM   22  C22 UNL     1      -2.512  51.193 -27.085  1.00  0.00     0.004 C 
HETATM   23  C23 UNL     1      -3.436  51.835 -26.037  1.00  0.00     0.001 C 
HETATM   24  C24 UNL     1      -2.804  51.988 -24.641  1.00  0.00     0.012 C 
HETATM   25  C25 UNL     1      -2.380  50.683 -23.889  1.00  0.00     0.057 C 
HETATM   26  O7  UNL     1      -3.600  47.755 -28.154  1.00  0.00    -0.358 OA
HETATM   27  C26 UNL     1      -4.912  48.115 -27.723  1.00  0.00     0.172 A 
ENDROOT
BRANCH  27  28
HETATM   28  C27 UNL     1      -5.878  48.598 -28.763  1.00  0.00     0.074 C 
BRANCH  28  29
HETATM   29  C28 UNL     1      -5.830  47.832 -30.061  1.00  0.00    -0.055 A 
HETATM   30  C29 UNL     1      -6.254  46.498 -30.119  1.00  0.00     0.007 A 
HETATM   31  C30 UNL     1      -6.210  45.793 -31.320  1.00  0.00     0.001 A 
HETATM   32  C31 UNL     1      -5.736  46.411 -32.477  1.00  0.00     0.011 A 
HETATM   33  C32 UNL     1      -5.294  47.744 -32.451  1.00  0.00     0.004 A 
HETATM   34  C34 UNL     1      -5.361  48.445 -31.232  1.00  0.00     0.018 A 
BRANCH  33  35
HETATM   35  C33 UNL     1      -4.808  48.395 -33.725  1.00  0.00     0.479 C 
BRANCH  35  36
HETATM   36  N2  UNL     1      -3.544  47.866 -34.153  1.00  0.00     0.116 N 
HETATM   37  H37 UNL     1      -2.924  47.824 -33.348  1.00  0.00     0.316 HD
HETATM   38  H38 UNL     1      -3.720  46.899 -34.416  1.00  0.00     0.316 HD
ENDBRANCH  35  36
BRANCH  35  39
HETATM   39  N3  UNL     1      -5.647  48.126 -34.861  1.00  0.00     0.116 N 
HETATM   40  H39 UNL     1      -6.525  48.624 -34.733  1.00  0.00     0.316 HD
HETATM   41  H40 UNL     1      -5.187  48.551 -35.663  1.00  0.00     0.316 HD
ENDBRANCH  35  39
ENDBRANCH  33  35
ENDBRANCH  28  29
ENDBRANCH  27  28
BRANCH  14  42
HETATM   42  C13 UNL     1      -4.757  47.800 -22.473  1.00  0.00     0.026 C 
HETATM   43  C14 UNL     1      -6.026  48.642 -22.197  1.00  0.00     0.037 C 
HETATM   44  C15 UNL     1      -7.158  47.783 -21.640  1.00  0.00     0.270 C 
HETATM   45  N1  UNL     1      -6.835  47.198 -20.340  1.00  0.00     0.083 N 
HETATM   46  C16 UNL     1      -5.404  46.996 -20.125  1.00  0.00     0.270 C 
HETATM   47  H15 UNL     1      -7.336  46.316 -20.236  1.00  0.00     0.315 HD
HETATM   48  C17 UNL     1      -4.644  46.675 -21.410  1.00  0.00     0.037 C 
ENDBRANCH  14  42
BRANCH   7  49
HETATM   49  O2  UNL     1      -0.061  52.308 -23.449  1.00  0.00    -0.359 OA
HETATM   50  H5  UNL     1       0.694  52.875 -23.169  1.00  0.00     0.217 HD
ENDBRANCH   7  49
TORSDOF 7
ENDMDL
MODEL 3
REMARK minimizedAffinity -11.4655294
REMARK CNNscore 0.280465186
REMARK CNNaffinity 6.7222209
REMARK  7 active torsions:
REMARK  status: ('A' for Active; 'I' for Inactive)
REMARK    1  A    between atoms: C6_7  and  O2_8 
REMARK    2  A    between atoms: C11_15  and  C13_17 
REMARK    3  A    between atoms: C26_34  and  C27_35 
REMARK    4  A    between atoms: C27_35  and  C28_36 
REMARK    5  A    between atoms: C32_40  and  C33_41 
REMARK    6  A    between atoms: C33_41  and  N2_42 
REMARK    7  A    between atoms: C33_41  and  N3_43 
ROOT
HETATM    1  C1  UNL     1      -7.078  47.315 -29.763  1.00  0.00     0.077 C 
HETATM    2  C2  UNL     1      -6.194  47.727 -28.627  1.00  0.00     0.053 A 
HETATM    3  C3  UNL     1      -4.976  48.253 -28.816  1.00  0.00     0.088 A 
HETATM    4  C4  UNL     1      -4.170  48.638 -27.649  1.00  0.00     0.190 A 
HETATM    5  O1  UNL     1      -3.055  49.130 -27.774  1.00  0.00    -0.287 OA
HETATM    6  C5  UNL     1      -4.762  48.410 -26.323  1.00  0.00     0.082 A 
HETATM    7  C6  UNL     1      -4.080  48.737 -25.140  1.00  0.00     0.092 A 
HETATM    8  C7  UNL     1      -4.659  48.500 -23.878  1.00  0.00     0.016 A 
HETATM    9  C8  UNL     1      -5.983  48.030 -23.857  1.00  0.00     0.082 A 
HETATM   10  C9  UNL     1      -6.654  47.682 -25.033  1.00  0.00     0.075 A 
HETATM   11  C10 UNL     1      -6.039  47.866 -26.266  1.00  0.00     0.095 A 
HETATM   12  O3  UNL     1      -6.760  47.518 -27.380  1.00  0.00    -0.314 OA
HETATM   13  O4  UNL     1      -6.737  47.896 -22.721  1.00  0.00    -0.337 OA
HETATM   14  C11 UNL     1      -6.324  48.700 -21.594  1.00  0.00     0.095 C 
HETATM   15  C12 UNL     1      -6.665  50.180 -21.885  1.00  0.00     0.050 C 
HETATM   16  C18 UNL     1      -4.812  48.446 -21.358  1.00  0.00     0.175 C 
HETATM   17  O5  UNL     1      -4.321  48.926 -20.087  1.00  0.00    -0.310 OA
HETATM   18  C19 UNL     1      -3.881  50.200 -19.960  1.00  0.00     0.297 C 
HETATM   19  O6  UNL     1      -4.213  51.161 -20.631  1.00  0.00    -0.262 OA
HETATM   20  C20 UNL     1      -2.759  50.240 -18.982  1.00  0.00     0.175 A 
HETATM   21  C21 UNL     1      -1.335  50.083 -19.490  1.00  0.00     0.051 C 
HETATM   22  C22 UNL     1      -1.236  49.652 -20.965  1.00  0.00     0.004 C 
HETATM   23  C23 UNL     1      -1.708  48.209 -21.213  1.00  0.00     0.001 C 
HETATM   24  C24 UNL     1      -2.549  48.027 -22.490  1.00  0.00     0.012 C 
HETATM   25  C25 UNL     1      -3.911  48.794 -22.578  1.00  0.00     0.057 C 
HETATM   26  O7  UNL     1      -2.872  51.290 -18.001  1.00  0.00    -0.358 OA
HETATM   27  C26 UNL     1      -3.129  49.974 -17.508  1.00  0.00     0.172 A 
ENDROOT
BRANCH  27  28
HETATM   28  C27 UNL     1      -2.174  49.410 -16.500  1.00  0.00     0.074 C 
BRANCH  28  29
HETATM   29  C28 UNL     1      -1.773  50.376 -15.413  1.00  0.00    -0.055 A 
HETATM   30  C29 UNL     1      -0.423  50.671 -15.183  1.00  0.00     0.007 A 
HETATM   31  C30 UNL     1      -0.056  51.564 -14.179  1.00  0.00     0.001 A 
HETATM   32  C31 UNL     1      -1.033  52.171 -13.389  1.00  0.00     0.011 A 
HETATM   33  C32 UNL     1      -2.394  51.889 -13.589  1.00  0.00     0.004 A 
HETATM   34  C34 UNL     1      -2.747  50.996 -14.617  1.00  0.00     0.018 A 
BRANCH  33  35
HETATM   35  C33 UNL     1      -3.433  52.580 -12.734  1.00  0.00     0.479 C 
BRANCH  35  36
HETATM   36  N2  UNL     1      -2.840  53.305 -11.646  1.00  0.00     0.116 N 
HETATM   37  H37 UNL     1      -2.148  52.708 -11.201  1.00  0.00     0.316 HD
HETATM   38  H38 UNL     1      -2.316  54.067 -12.070  1.00  0.00     0.316 HD
ENDBRANCH  35  36
BRANCH  35  39
HETATM   39  N3  UNL     1      -4.150  53.613 -13.430  1.00  0.00     0.116 N 
HETATM   40  H39 UNL     1      -4.754  53.172 -14.119  1.00  0.00     0.316 HD
HETATM   41  H40 UNL     1      -4.762  54.048 -12.743  1.00  0.00     0.316 HD
ENDBRANCH  35  39
ENDBRANCH  33  35
ENDBRANCH  28  29
ENDBRANCH  27  28
BRANCH  14  42
HETATM   42  C13 UNL     1      -7.186  48.219 -20.363  1.00  0.00     0.026 C 
HETATM   43  C14 UNL     1      -7.517  49.357 -19.367  1.00  0.00     0.037 C 
HETATM   44  C15 UNL     1      -7.951  48.807 -18.012  1.00  0.00     0.270 C 
HETATM   45  N1  UNL     1      -6.894  48.052 -17.343  1.00  0.00     0.083 N 
HETATM   46  C16 UNL     1      -5.937  47.440 -18.262  1.00  0.00     0.270 C 
HETATM   47  H15 UNL     1      -7.316  47.340 -16.748  1.00  0.00     0.315 HD
HETATM   48  C17 UNL     1      -6.564  47.024 -19.591  1.00  0.00     0.037 C 
ENDBRANCH  14  42
BRANCH   7  49
HETATM   49  O2  UNL     1      -2.845  49.335 -25.183  1.00  0.00    -0.359 OA
HETATM   50  H5  UNL     1      -2.573  49.435 -26.124  1.00  0.00     0.217 HD
ENDBRANCH   7  49
TORSDOF 7
ENDMDL
MODEL 4
REMARK minimizedAffinity -9.67303085
REMARK CNNscore 0.249607071
REMARK CNNaffinity 6.45511293
REMARK  7 active torsions:
REMARK  status: ('A' for Active; 'I' for Inactive)
REMARK    1  A    between atoms: C6_7  and  O2_8 
REMARK    2  A    between atoms: C11_15  and  C13_17 
REMARK    3  A    between atoms: C26_34  and  C27_35 
REMARK    4  A    between atoms: C27_35  and  C28_36 
REMARK    5  A    between atoms: C32_40  and  C33_41 
REMARK    6  A    between atoms: C33_41  and  N2_42 
REMARK    7  A    between atoms: C33_41  and  N3_43 
ROOT
HETATM    1  C1  UNL     1      -0.863  50.156 -26.622  1.00  0.00     0.077 C 
HETATM    2  C2  UNL     1      -2.226  49.617 -26.318  1.00  0.00     0.053 A 
HETATM    3  C3  UNL     1      -2.739  49.612 -25.080  1.00  0.00     0.088 A 
HETATM    4  C4  UNL     1      -4.088  49.068 -24.863  1.00  0.00     0.190 A 
HETATM    5  O1  UNL     1      -4.600  49.051 -23.750  1.00  0.00    -0.287 OA
HETATM    6  C5  UNL     1      -4.797  48.550 -26.041  1.00  0.00     0.082 A 
HETATM    7  C6  UNL     1      -6.089  48.006 -25.948  1.00  0.00     0.092 A 
HETATM    8  C7  UNL     1      -6.747  47.502 -27.087  1.00  0.00     0.016 A 
HETATM    9  C8  UNL     1      -6.108  47.670 -28.327  1.00  0.00     0.082 A 
HETATM   10  C9  UNL     1      -4.813  48.190 -28.416  1.00  0.00     0.075 A 
HETATM   11  C10 UNL     1      -4.156  48.623 -27.271  1.00  0.00     0.095 A 
HETATM   12  O3  UNL     1      -2.894  49.137 -27.433  1.00  0.00    -0.314 OA
HETATM   13  O4  UNL     1      -6.679  47.377 -29.537  1.00  0.00    -0.337 OA
HETATM   14  C11 UNL     1      -8.123  47.349 -29.559  1.00  0.00     0.095 C 
HETATM   15  C12 UNL     1      -8.653  48.797 -29.435  1.00  0.00     0.050 C 
HETATM   16  C18 UNL     1      -8.598  46.414 -28.416  1.00  0.00     0.175 C 
HETATM   17  O5  UNL     1      -9.989  46.032 -28.502  1.00  0.00    -0.310 OA
HETATM   18  C19 UNL     1     -10.947  46.806 -27.941  1.00  0.00     0.297 C 
HETATM   19  O6  UNL     1     -10.891  48.005 -27.728  1.00  0.00    -0.262 OA
HETATM   20  C20 UNL     1     -12.044  45.941 -27.428  1.00  0.00     0.175 A 
HETATM   21  C21 UNL     1     -11.981  45.447 -25.991  1.00  0.00     0.051 C 
HETATM   22  C22 UNL     1     -10.635  45.712 -25.293  1.00  0.00     0.004 C 
HETATM   23  C23 UNL     1      -9.478  44.870 -25.856  1.00  0.00     0.001 C 
HETATM   24  C24 UNL     1      -8.152  45.637 -26.014  1.00  0.00     0.012 C 
HETATM   25  C25 UNL     1      -8.128  46.852 -26.999  1.00  0.00     0.057 C 
HETATM   26  O7  UNL     1     -13.365  46.391 -27.788  1.00  0.00    -0.358 OA
HETATM   27  C26 UNL     1     -12.910  45.234 -28.491  1.00  0.00     0.172 A 
ENDROOT
BRANCH  27  28
HETATM   28  C27 UNL     1     -13.634  43.944 -28.251  1.00  0.00     0.074 C 
BRANCH  28  29
HETATM   29  C28 UNL     1     -15.101  44.103 -27.933  1.00  0.00    -0.055 A 
HETATM   30  C29 UNL     1     -15.512  44.773 -26.774  1.00  0.00     0.007 A 
HETATM   31  C30 UNL     1     -16.866  44.918 -26.484  1.00  0.00     0.001 A 
HETATM   32  C31 UNL     1     -17.828  44.392 -27.347  1.00  0.00     0.011 A 
HETATM   33  C32 UNL     1     -17.449  43.706 -28.512  1.00  0.00     0.004 A 
HETATM   34  C34 UNL     1     -16.076  43.583 -28.797  1.00  0.00     0.018 A 
BRANCH  33  35
HETATM   35  C33 UNL     1     -18.512  43.167 -29.441  1.00  0.00     0.479 C 
BRANCH  35  36
HETATM   36  N2  UNL     1     -19.720  42.833 -28.741  1.00  0.00     0.116 N 
HETATM   37  H37 UNL     1     -19.473  42.304 -27.909  1.00  0.00     0.316 HD
HETATM   38  H38 UNL     1     -20.102  43.714 -28.406  1.00  0.00     0.316 HD
ENDBRANCH  35  36
BRANCH  35  39
HETATM   39  N3  UNL     1     -18.977  44.132 -30.400  1.00  0.00     0.116 N 
HETATM   40  H39 UNL     1     -18.229  44.302 -31.068  1.00  0.00     0.316 HD
HETATM   41  H40 UNL     1     -19.730  43.683 -30.915  1.00  0.00     0.316 HD
ENDBRANCH  35  39
ENDBRANCH  33  35
ENDBRANCH  28  29
ENDBRANCH  27  28
BRANCH  14  42
HETATM   42  C13 UNL     1      -8.536  46.782 -30.973  1.00  0.00     0.026 C 
HETATM   43  C14 UNL     1      -7.689  45.563 -31.413  1.00  0.00     0.037 C 
HETATM   44  C15 UNL     1      -7.799  45.317 -32.915  1.00  0.00     0.270 C 
HETATM   45  N1  UNL     1      -7.265  46.421 -33.709  1.00  0.00     0.083 N 
HETATM   46  C16 UNL     1      -7.328  47.716 -33.035  1.00  0.00     0.270 C 
HETATM   47  H15 UNL     1      -7.759  46.464 -34.600  1.00  0.00     0.315 HD
HETATM   48  C17 UNL     1      -8.530  47.847 -32.102  1.00  0.00     0.037 C 
ENDBRANCH  14  42
BRANCH   7  49
HETATM   49  O2  UNL     1      -6.760  47.986 -24.751  1.00  0.00    -0.359 OA
HETATM   50  H5  UNL     1      -6.178  48.367 -24.054  1.00  0.00     0.217 HD
ENDBRANCH   7  49
TORSDOF 7
ENDMDL
MODEL 5
REMARK minimizedAffinity -9.54979706
REMARK CNNscore 0.220202371
REMARK CNNaffinity 6.00204229
REMARK  7 active torsions:
REMARK  status: ('A' for Active; 'I' for Inactive)
REMARK    1  A    between atoms: C6_7  and  O2_8 
REMARK    2  A    between atoms: C11_15  and  C13_17 
REMARK    3  A    between atoms: C26_34  and  C27_35 
REMARK    4  A    between atoms: C27_35  and  C28_36 
REMARK    5  A    between atoms: C32_40  and  C33_41 
REMARK    6  A    between atoms: C33_41  and  N2_42 
REMARK    7  A    between atoms: C33_41  and  N3_43 
ROOT
HETATM    1  C1  UNL     1      -3.330  48.076 -33.649  1.00  0.00     0.077 C 
HETATM    2  C2  UNL     1      -4.713  47.797 -33.151  1.00  0.00     0.053 A 
HETATM    3  C3  UNL     1      -5.702  47.393 -33.960  1.00  0.00     0.088 A 
HETATM    4  C4  UNL     1      -7.034  47.135 -33.393  1.00  0.00     0.190 A 
HETATM    5  O1  UNL     1      -7.966  46.755 -34.093  1.00  0.00    -0.287 OA
HETATM    6  C5  UNL     1      -7.198  47.347 -31.948  1.00  0.00     0.082 A 
HETATM    7  C6  UNL     1      -8.427  47.133 -31.302  1.00  0.00     0.092 A 
HETATM    8  C7  UNL     1      -8.568  47.354 -29.918  1.00  0.00     0.016 A 
HETATM    9  C8  UNL     1      -7.407  47.684 -29.198  1.00  0.00     0.082 A 
HETATM   10  C9  UNL     1      -6.190  47.920 -29.844  1.00  0.00     0.075 A 
HETATM   11  C10 UNL     1      -6.088  47.758 -31.221  1.00  0.00     0.095 A 
HETATM   12  O3  UNL     1      -4.860  47.990 -31.787  1.00  0.00    -0.314 OA
HETATM   13  O4  UNL     1      -7.346  47.780 -27.834  1.00  0.00    -0.337 OA
HETATM   14  C11 UNL     1      -8.367  47.063 -27.107  1.00  0.00     0.095 C 
HETATM   15  C12 UNL     1      -8.084  45.546 -27.213  1.00  0.00     0.050 C 
HETATM   16  C18 UNL     1      -9.744  47.479 -27.687  1.00  0.00     0.175 C 
HETATM   17  O5  UNL     1     -10.873  47.097 -26.870  1.00  0.00    -0.310 OA
HETATM   18  C19 UNL     1     -11.447  45.881 -27.022  1.00  0.00     0.297 C 
HETATM   19  O6  UNL     1     -10.918  44.867 -27.444  1.00  0.00    -0.262 OA
HETATM   20  C20 UNL     1     -12.910  45.991 -26.773  1.00  0.00     0.175 A 
HETATM   21  C21 UNL     1     -13.836  46.276 -27.946  1.00  0.00     0.051 C 
HETATM   22  C22 UNL     1     -13.107  46.663 -29.245  1.00  0.00     0.004 C 
HETATM   23  C23 UNL     1     -12.425  48.039 -29.176  1.00  0.00     0.001 C 
HETATM   24  C24 UNL     1     -11.028  48.089 -29.822  1.00  0.00     0.012 C 
HETATM   25  C25 UNL     1      -9.910  47.184 -29.206  1.00  0.00     0.057 C 
HETATM   26  O7  UNL     1     -13.437  44.970 -25.902  1.00  0.00    -0.358 OA
HETATM   27  C26 UNL     1     -13.337  46.268 -25.317  1.00  0.00     0.172 A 
ENDROOT
BRANCH  27  28
HETATM   28  C27 UNL     1     -14.610  46.963 -24.941  1.00  0.00     0.074 C 
BRANCH  28  29
HETATM   29  C28 UNL     1     -14.928  46.925 -23.466  1.00  0.00    -0.055 A 
HETATM   30  C29 UNL     1     -13.972  47.313 -22.519  1.00  0.00     0.007 A 
HETATM   31  C30 UNL     1     -14.269  47.277 -21.159  1.00  0.00     0.001 A 
HETATM   32  C31 UNL     1     -15.525  46.849 -20.727  1.00  0.00     0.011 A 
HETATM   33  C32 UNL     1     -16.502  46.445 -21.650  1.00  0.00     0.004 A 
HETATM   34  C34 UNL     1     -16.190  46.502 -23.022  1.00  0.00     0.018 A 
BRANCH  33  35
HETATM   35  C33 UNL     1     -17.863  46.008 -21.155  1.00  0.00     0.479 C 
BRANCH  35  36
HETATM   36  N2  UNL     1     -18.424  46.947 -20.226  1.00  0.00     0.116 N 
HETATM   37  H37 UNL     1     -17.707  47.199 -19.551  1.00  0.00     0.316 HD
HETATM   38  H38 UNL     1     -18.610  47.793 -20.759  1.00  0.00     0.316 HD
ENDBRANCH  35  36
BRANCH  35  39
HETATM   39  N3  UNL     1     -18.862  45.972 -22.188  1.00  0.00     0.116 N 
HETATM   40  H39 UNL     1     -18.646  45.200 -22.813  1.00  0.00     0.316 HD
HETATM   41  H40 UNL     1     -19.739  45.738 -21.729  1.00  0.00     0.316 HD
ENDBRANCH  35  39
ENDBRANCH  33  35
ENDBRANCH  28  29
ENDBRANCH  27  28
BRANCH  14  42
HETATM   42  C13 UNL     1      -8.227  47.496 -25.596  1.00  0.00     0.026 C 
HETATM   43  C14 UNL     1      -6.763  47.770 -25.173  1.00  0.00     0.037 C 
HETATM   44  C15 UNL     1      -6.607  47.754 -23.655  1.00  0.00     0.270 C 
HETATM   45  N1  UNL     1      -6.903  46.448 -23.070  1.00  0.00     0.083 N 
HETATM   46  C16 UNL     1      -7.845  45.652 -23.854  1.00  0.00     0.270 C 
HETATM   47  H15 UNL     1      -7.255  46.577 -22.122  1.00  0.00     0.315 HD
HETATM   48  C17 UNL     1      -8.875  46.501 -24.596  1.00  0.00     0.037 C 
ENDBRANCH  14  42
BRANCH   7  49
HETATM   49  O2  UNL     1      -9.515  46.664 -31.997  1.00  0.00    -0.359 OA
HETATM   50  H5  UNL     1      -9.266  46.559 -32.943  1.00  0.00     0.217 HD
ENDBRANCH   7  49
TORSDOF 7
ENDMDL
MODEL 6
REMARK minimizedAffinity -8.75208187
REMARK CNNscore 0.199536741
REMARK CNNaffinity 5.33292627
REMARK  7 active torsions:
REMARK  status: ('A' for Active; 'I' for Inactive)
REMARK    1  A    between atoms: C6_7  and  O2_8 
REMARK    2  A    between atoms: C11_15  and  C13_17 
REMARK    3  A    between atoms: C26_34  and  C27_35 
REMARK    4  A    between atoms: C27_35  and  C28_36 
REMARK    5  A    between atoms: C32_40  and  C33_41 
REMARK    6  A    between atoms: C33_41  and  N2_42 
REMARK    7  A    between atoms: C33_41  and  N3_43 
ROOT
HETATM    1  C1  UNL     1      -4.575  43.258 -32.802  1.00  0.00     0.077 C 
HETATM    2  C2  UNL     1      -5.967  43.397 -32.270  1.00  0.00     0.053 A 
HETATM    3  C3  UNL     1      -7.025  42.826 -32.863  1.00  0.00     0.088 A 
HETATM    4  C4  UNL     1      -8.361  43.006 -32.276  1.00  0.00     0.190 A 
HETATM    5  O1  UNL     1      -9.355  42.496 -32.779  1.00  0.00    -0.287 OA
HETATM    6  C5  UNL     1      -8.451  43.821 -31.056  1.00  0.00     0.082 A 
HETATM    7  C6  UNL     1      -9.677  44.060 -30.414  1.00  0.00     0.092 A 
HETATM    8  C7  UNL     1      -9.745  44.854 -29.253  1.00  0.00     0.016 A 
HETATM    9  C8  UNL     1      -8.530  45.299 -28.706  1.00  0.00     0.082 A 
HETATM   10  C9  UNL     1      -7.313  45.082 -29.358  1.00  0.00     0.075 A 
HETATM   11  C10 UNL     1      -7.276  44.348 -30.538  1.00  0.00     0.095 A 
HETATM   12  O3  UNL     1      -6.046  44.159 -31.116  1.00  0.00    -0.314 OA
HETATM   13  O4  UNL     1      -8.415  45.946 -27.504  1.00  0.00    -0.337 OA
HETATM   14  C11 UNL     1      -9.499  45.739 -26.572  1.00  0.00     0.095 C 
HETATM   15  C12 UNL     1      -9.420  44.293 -26.028  1.00  0.00     0.050 C 
HETATM   16  C18 UNL     1     -10.827  46.052 -27.311  1.00  0.00     0.175 C 
HETATM   17  O5  UNL     1     -11.970  46.198 -26.440  1.00  0.00    -0.310 OA
HETATM   18  C19 UNL     1     -12.703  45.117 -26.085  1.00  0.00     0.297 C 
HETATM   19  O6  UNL     1     -12.324  43.960 -26.031  1.00  0.00    -0.262 OA
HETATM   20  C20 UNL     1     -14.131  45.512 -25.945  1.00  0.00     0.175 A 
HETATM   21  C21 UNL     1     -15.047  45.401 -27.154  1.00  0.00     0.051 C 
HETATM   22  C22 UNL     1     -14.313  45.111 -28.475  1.00  0.00     0.004 C 
HETATM   23  C23 UNL     1     -13.455  46.288 -28.969  1.00  0.00     0.001 C 
HETATM   24  C24 UNL     1     -12.084  45.880 -29.539  1.00  0.00     0.012 C 
HETATM   25  C25 UNL     1     -11.076  45.175 -28.571  1.00  0.00     0.057 C 
HETATM   26  O7  UNL     1     -14.760  45.027 -24.742  1.00  0.00    -0.358 OA
HETATM   27  C26 UNL     1     -14.473  46.425 -24.749  1.00  0.00     0.172 A 
ENDROOT
BRANCH  27  28
HETATM   28  C27 UNL     1     -15.632  47.375 -24.732  1.00  0.00     0.074 C 
BRANCH  28  29
HETATM   29  C28 UNL     1     -16.898  46.801 -24.146  1.00  0.00    -0.055 A 
HETATM   30  C29 UNL     1     -18.010  46.548 -24.958  1.00  0.00     0.007 A 
HETATM   31  C30 UNL     1     -19.178  46.017 -24.414  1.00  0.00     0.001 A 
HETATM   32  C31 UNL     1     -19.249  45.736 -23.049  1.00  0.00     0.011 A 
HETATM   33  C32 UNL     1     -18.155  45.987 -22.205  1.00  0.00     0.004 A 
HETATM   34  C34 UNL     1     -16.979  46.509 -22.776  1.00  0.00     0.018 A 
BRANCH  33  35
HETATM   35  C33 UNL     1     -18.253  45.651 -20.735  1.00  0.00     0.479 C 
BRANCH  35  36
HETATM   36  N2  UNL     1     -18.595  46.798 -19.942  1.00  0.00     0.116 N 
HETATM   37  H37 UNL     1     -18.012  47.577 -20.235  1.00  0.00     0.316 HD
HETATM   38  H38 UNL     1     -19.544  47.049 -20.206  1.00  0.00     0.316 HD
ENDBRANCH  35  36
BRANCH  35  39
HETATM   39  N3  UNL     1     -19.323  44.742 -20.426  1.00  0.00     0.116 N 
HETATM   40  H39 UNL     1     -19.080  43.827 -20.800  1.00  0.00     0.316 HD
HETATM   41  H40 UNL     1     -19.334  44.648 -19.413  1.00  0.00     0.316 HD
ENDBRANCH  35  39
ENDBRANCH  33  35
ENDBRANCH  28  29
ENDBRANCH  27  28
BRANCH  14  42
HETATM   42  C13 UNL     1      -9.257  46.740 -25.377  1.00  0.00     0.026 C 
HETATM   43  C14 UNL     1      -9.315  48.227 -25.805  1.00  0.00     0.037 C 
HETATM   44  C15 UNL     1      -8.662  49.135 -24.766  1.00  0.00     0.270 C 
HETATM   45  N1  UNL     1      -7.234  48.871 -24.603  1.00  0.00     0.083 N 
HETATM   46  C16 UNL     1      -6.849  47.497 -24.920  1.00  0.00     0.270 C 
HETATM   47  H15 UNL     1      -6.957  49.104 -23.650  1.00  0.00     0.315 HD
HETATM   48  C17 UNL     1      -7.941  46.480 -24.597  1.00  0.00     0.037 C 
ENDBRANCH  14  42
BRANCH   7  49
HETATM   49  O2  UNL     1     -10.838  43.492 -30.879  1.00  0.00    -0.359 OA
HETATM   50  H5  UNL     1     -10.634  42.970 -31.688  1.00  0.00     0.217 HD
ENDBRANCH   7  49
TORSDOF 7
ENDMDL
MODEL 7
REMARK minimizedAffinity -8.47358608
REMARK CNNscore 0.178501695
REMARK CNNaffinity 6.31028891
REMARK  7 active torsions:
REMARK  status: ('A' for Active; 'I' for Inactive)
REMARK    1  A    between atoms: C6_7  and  O2_8 
REMARK    2  A    between atoms: C11_15  and  C13_17 
REMARK    3  A    between atoms: C26_34  and  C27_35 
REMARK    4  A    between atoms: C27_35  and  C28_36 
REMARK    5  A    between atoms: C32_40  and  C33_41 
REMARK    6  A    between atoms: C33_41  and  N2_42 
REMARK    7  A    between atoms: C33_41  and  N3_43 
ROOT
HETATM    1  C1  UNL     1       3.943  61.371  -2.912  1.00  0.00     0.077 C 
HETATM    2  C2  UNL     1       4.371  60.147  -3.659  1.00  0.00     0.053 A 
HETATM    3  C3  UNL     1       5.564  59.567  -3.468  1.00  0.00     0.088 A 
HETATM    4  C4  UNL     1       5.909  58.363  -4.237  1.00  0.00     0.190 A 
HETATM    5  O1  UNL     1       6.985  57.794  -4.089  1.00  0.00    -0.287 OA
HETATM    6  C5  UNL     1       4.905  57.867  -5.189  1.00  0.00     0.082 A 
HETATM    7  C6  UNL     1       5.131  56.727  -5.978  1.00  0.00     0.092 A 
HETATM    8  C7  UNL     1       4.161  56.274  -6.894  1.00  0.00     0.016 A 
HETATM    9  C8  UNL     1       2.924  56.940  -6.903  1.00  0.00     0.082 A 
HETATM   10  C9  UNL     1       2.709  58.090  -6.135  1.00  0.00     0.075 A 
HETATM   11  C10 UNL     1       3.703  58.556  -5.284  1.00  0.00     0.095 A 
HETATM   12  O3  UNL     1       3.418  59.679  -4.549  1.00  0.00    -0.314 OA
HETATM   13  O4  UNL     1       1.831  56.531  -7.619  1.00  0.00    -0.337 OA
HETATM   14  C11 UNL     1       1.809  55.135  -7.988  1.00  0.00     0.095 C 
HETATM   15  C12 UNL     1       1.546  54.287  -6.721  1.00  0.00     0.050 C 
HETATM   16  C18 UNL     1       3.156  54.806  -8.685  1.00  0.00     0.175 C 
HETATM   17  O5  UNL     1       3.166  53.545  -9.390  1.00  0.00    -0.310 OA
HETATM   18  C19 UNL     1       3.499  52.402  -8.744  1.00  0.00     0.297 C 
HETATM   19  O6  UNL     1       3.389  52.175  -7.552  1.00  0.00    -0.262 OA
HETATM   20  C20 UNL     1       4.216  51.496  -9.681  1.00  0.00     0.175 A 
HETATM   21  C21 UNL     1       5.732  51.573  -9.764  1.00  0.00     0.051 C 
HETATM   22  C22 UNL     1       6.343  52.776  -9.024  1.00  0.00     0.004 C 
HETATM   23  C23 UNL     1       6.027  54.126  -9.687  1.00  0.00     0.001 C 
HETATM   24  C24 UNL     1       5.680  55.255  -8.698  1.00  0.00     0.012 C 
HETATM   25  C25 UNL     1       4.410  55.071  -7.803  1.00  0.00     0.057 C 
HETATM   26  O7  UNL     1       3.742  50.134  -9.659  1.00  0.00    -0.358 OA
HETATM   27  C26 UNL     1       3.371  50.882 -10.817  1.00  0.00     0.172 A 
ENDROOT
BRANCH  27  28
HETATM   28  C27 UNL     1       3.938  50.450 -12.136  1.00  0.00     0.074 C 
BRANCH  28  29
HETATM   29  C28 UNL     1       2.930  50.389 -13.257  1.00  0.00    -0.055 A 
HETATM   30  C29 UNL     1       2.137  49.250 -13.442  1.00  0.00     0.007 A 
HETATM   31  C30 UNL     1       1.207  49.196 -14.477  1.00  0.00     0.001 A 
HETATM   32  C31 UNL     1       1.061  50.280 -15.344  1.00  0.00     0.011 A 
HETATM   33  C32 UNL     1       1.848  51.432 -15.192  1.00  0.00     0.004 A 
HETATM   34  C34 UNL     1       2.772  51.475 -14.131  1.00  0.00     0.018 A 
BRANCH  33  35
HETATM   35  C33 UNL     1       1.652  52.600 -16.132  1.00  0.00     0.479 C 
BRANCH  35  36
HETATM   36  N2  UNL     1       2.901  53.178 -16.541  1.00  0.00     0.116 N 
HETATM   37  H37 UNL     1       3.486  53.296 -15.717  1.00  0.00     0.316 HD
HETATM   38  H38 UNL     1       3.364  52.472 -17.109  1.00  0.00     0.316 HD
ENDBRANCH  35  36
BRANCH  35  39
HETATM   39  N3  UNL     1       1.066  52.229 -17.391  1.00  0.00     0.116 N 
HETATM   40  H39 UNL     1       0.096  51.970 -17.226  1.00  0.00     0.316 HD
HETATM   41  H40 UNL     1       1.050  53.073 -17.958  1.00  0.00     0.316 HD
ENDBRANCH  35  39
ENDBRANCH  33  35
ENDBRANCH  28  29
ENDBRANCH  27  28
BRANCH  14  42
HETATM   42  C13 UNL     1       0.592  54.954  -8.977  1.00  0.00     0.026 C 
HETATM   43  C14 UNL     1      -0.099  53.574  -8.846  1.00  0.00     0.037 C 
HETATM   44  C15 UNL     1      -0.956  53.260 -10.069  1.00  0.00     0.270 C 
HETATM   45  N1  UNL     1      -0.170  53.146 -11.296  1.00  0.00     0.083 N 
HETATM   46  C16 UNL     1       1.065  53.926 -11.279  1.00  0.00     0.270 C 
HETATM   47  H15 UNL     1      -0.748  53.417 -12.091  1.00  0.00     0.315 HD
HETATM   48  C17 UNL     1       0.949  55.213 -10.464  1.00  0.00     0.037 C 
ENDBRANCH  14  42
BRANCH   7  49
HETATM   49  O2  UNL     1       6.288  55.999  -5.848  1.00  0.00    -0.359 OA
HETATM   50  H5  UNL     1       6.863  56.433  -5.177  1.00  0.00     0.217 HD
ENDBRANCH   7  49
TORSDOF 7
ENDMDL
MODEL 8
REMARK minimizedAffinity -8.6410656
REMARK CNNscore 0.157036811
REMARK CNNaffinity 5.45705557
REMARK  7 active torsions:
REMARK  status: ('A' for Active; 'I' for Inactive)
REMARK    1  A    between atoms: C6_7  and  O2_8 
REMARK    2  A    between atoms: C11_15  and  C13_17 
REMARK    3  A    between atoms: C26_34  and  C27_35 
REMARK    4  A    between atoms: C27_35  and  C28_36 
REMARK    5  A    between atoms: C32_40  and  C33_41 
REMARK    6  A    between atoms: C33_41  and  N2_42 
REMARK    7  A    between atoms: C33_41  and  N3_43 
ROOT
HETATM    1  C1  UNL     1     -22.760  42.141 -19.141  1.00  0.00     0.077 C 
HETATM    2  C2  UNL     1     -21.509  42.761 -19.683  1.00  0.00     0.053 A 
HETATM    3  C3  UNL     1     -20.537  43.232 -18.891  1.00  0.00     0.088 A 
HETATM    4  C4  UNL     1     -19.336  43.822 -19.501  1.00  0.00     0.190 A 
HETATM    5  O1  UNL     1     -18.418  44.258 -18.816  1.00  0.00    -0.287 OA
HETATM    6  C5  UNL     1     -19.283  43.863 -20.969  1.00  0.00     0.082 A 
HETATM    7  C6  UNL     1     -18.186  44.407 -21.656  1.00  0.00     0.092 A 
HETATM    8  C7  UNL     1     -18.159  44.448 -23.064  1.00  0.00     0.016 A 
HETATM    9  C8  UNL     1     -19.216  43.824 -23.746  1.00  0.00     0.082 A 
HETATM   10  C9  UNL     1     -20.320  43.304 -23.063  1.00  0.00     0.075 A 
HETATM   11  C10 UNL     1     -20.355  43.330 -21.674  1.00  0.00     0.095 A 
HETATM   12  O3  UNL     1     -21.460  42.789 -21.068  1.00  0.00    -0.314 OA
HETATM   13  O4  UNL     1     -19.261  43.643 -25.103  1.00  0.00    -0.337 OA
HETATM   14  C11 UNL     1     -17.986  43.666 -25.782  1.00  0.00     0.095 C 
HETATM   15  C12 UNL     1     -17.212  42.373 -25.435  1.00  0.00     0.050 C 
HETATM   16  C18 UNL     1     -17.248  44.964 -25.362  1.00  0.00     0.175 C 
HETATM   17  O5  UNL     1     -16.108  45.291 -26.187  1.00  0.00    -0.310 OA
HETATM   18  C19 UNL     1     -14.885  44.788 -25.896  1.00  0.00     0.297 C 
HETATM   19  O6  UNL     1     -14.640  43.757 -25.295  1.00  0.00    -0.262 OA
HETATM   20  C20 UNL     1     -13.841  45.787 -26.254  1.00  0.00     0.175 A 
HETATM   21  C21 UNL     1     -13.385  46.784 -25.201  1.00  0.00     0.051 C 
HETATM   22  C22 UNL     1     -14.250  46.796 -23.928  1.00  0.00     0.004 C 
HETATM   23  C23 UNL     1     -15.662  47.360 -24.154  1.00  0.00     0.001 C 
HETATM   24  C24 UNL     1     -16.779  46.585 -23.431  1.00  0.00     0.012 C 
HETATM   25  C25 UNL     1     -17.001  45.088 -23.831  1.00  0.00     0.057 C 
HETATM   26  O7  UNL     1     -12.734  45.239 -26.998  1.00  0.00    -0.358 OA
HETATM   27  C26 UNL     1     -13.633  46.045 -27.761  1.00  0.00     0.172 A 
ENDROOT
BRANCH  27  28
HETATM   28  C27 UNL     1     -13.109  47.334 -28.320  1.00  0.00     0.074 C 
BRANCH  28  29
HETATM   29  C28 UNL     1     -12.032  47.168 -29.363  1.00  0.00    -0.055 A 
HETATM   30  C29 UNL     1     -12.023  46.051 -30.208  1.00  0.00     0.007 A 
HETATM   31  C30 UNL     1     -11.028  45.902 -31.171  1.00  0.00     0.001 A 
HETATM   32  C31 UNL     1     -10.026  46.865 -31.299  1.00  0.00     0.011 A 
HETATM   33  C32 UNL     1     -10.002  47.991 -30.461  1.00  0.00     0.004 A 
HETATM   34  C34 UNL     1     -11.024  48.133 -29.504  1.00  0.00     0.018 A 
BRANCH  33  35
HETATM   35  C33 UNL     1      -8.918  49.030 -30.638  1.00  0.00     0.479 C 
BRANCH  35  36
HETATM   36  N2  UNL     1      -8.521  49.613 -29.387  1.00  0.00     0.116 N 
HETATM   37  H37 UNL     1      -9.359  49.853 -28.864  1.00  0.00     0.316 HD
HETATM   38  H38 UNL     1      -8.072  48.867 -28.861  1.00  0.00     0.316 HD
ENDBRANCH  35  36
BRANCH  35  39
HETATM   39  N3  UNL     1      -7.679  48.487 -31.124  1.00  0.00     0.116 N 
HETATM   40  H39 UNL     1      -7.813  48.206 -32.092  1.00  0.00     0.316 HD
HETATM   41  H40 UNL     1      -7.015  49.257 -31.134  1.00  0.00     0.316 HD
ENDBRANCH  35  39
ENDBRANCH  33  35
ENDBRANCH  28  29
ENDBRANCH  27  28
BRANCH  14  42
HETATM   42  C13 UNL     1     -18.304  43.662 -27.328  1.00  0.00     0.026 C 
HETATM   43  C14 UNL     1     -19.807  43.459 -27.641  1.00  0.00     0.037 C 
HETATM   44  C15 UNL     1     -20.024  43.027 -29.089  1.00  0.00     0.270 C 
HETATM   45  N1  UNL     1     -19.424  41.729 -29.387  1.00  0.00     0.083 N 
HETATM   46  C16 UNL     1     -18.272  41.406 -28.548  1.00  0.00     0.270 C 
HETATM   47  H15 UNL     1     -19.162  41.698 -30.372  1.00  0.00     0.315 HD
HETATM   48  C17 UNL     1     -17.466  42.637 -28.137  1.00  0.00     0.037 C 
ENDBRANCH  14  42
BRANCH   7  49
HETATM   49  O2  UNL     1     -17.091  44.878 -20.974  1.00  0.00    -0.359 OA
HETATM   50  H5  UNL     1     -17.255  44.784 -20.008  1.00  0.00     0.217 HD
ENDBRANCH   7  49
TORSDOF 7
ENDMDL
MODEL 9
REMARK minimizedAffinity -10.602726
REMARK CNNscore 0.130631581
REMARK CNNaffinity 7.09185362
REMARK  7 active torsions:
REMARK  status: ('A' for Active; 'I' for Inactive)
REMARK    1  A    between atoms: C6_7  and  O2_8 
REMARK    2  A    between atoms: C11_15  and  C13_17 
REMARK    3  A    between atoms: C26_34  and  C27_35 
REMARK    4  A    between atoms: C27_35  and  C28_36 
REMARK    5  A    between atoms: C32_40  and  C33_41 
REMARK    6  A    between atoms: C33_41  and  N2_42 
REMARK    7  A    between atoms: C33_41  and  N3_43 
ROOT
HETATM    1  C1  UNL     1      -0.230  52.084 -28.592  1.00  0.00     0.077 C 
HETATM    2  C2  UNL     1      -0.159  52.133 -27.097  1.00  0.00     0.053 A 
HETATM    3  C3  UNL     1       0.671  52.957 -26.443  1.00  0.00     0.088 A 
HETATM    4  C4  UNL     1       0.679  52.949 -24.972  1.00  0.00     0.190 A 
HETATM    5  O1  UNL     1       1.415  53.690 -24.332  1.00  0.00    -0.287 OA
HETATM    6  C5  UNL     1      -0.238  52.015 -24.304  1.00  0.00     0.082 A 
HETATM    7  C6  UNL     1      -0.311  51.923 -22.904  1.00  0.00     0.092 A 
HETATM    8  C7  UNL     1      -1.189  51.013 -22.282  1.00  0.00     0.016 A 
HETATM    9  C8  UNL     1      -2.061  50.290 -23.112  1.00  0.00     0.082 A 
HETATM   10  C9  UNL     1      -1.972  50.365 -24.506  1.00  0.00     0.075 A 
HETATM   11  C10 UNL     1      -1.055  51.223 -25.100  1.00  0.00     0.095 A 
HETATM   12  O3  UNL     1      -1.032  51.258 -26.472  1.00  0.00    -0.314 OA
HETATM   13  O4  UNL     1      -3.072  49.486 -22.657  1.00  0.00    -0.337 OA
HETATM   14  C11 UNL     1      -3.544  49.766 -21.321  1.00  0.00     0.095 C 
HETATM   15  C12 UNL     1      -4.340  51.092 -21.341  1.00  0.00     0.050 C 
HETATM   16  C18 UNL     1      -2.314  49.794 -20.378  1.00  0.00     0.175 C 
HETATM   17  O5  UNL     1      -2.643  49.749 -18.972  1.00  0.00    -0.310 OA
HETATM   18  C19 UNL     1      -2.890  50.891 -18.289  1.00  0.00     0.297 C 
HETATM   19  O6  UNL     1      -3.300  51.944 -18.745  1.00  0.00    -0.262 OA
HETATM   20  C20 UNL     1      -2.402  50.746 -16.891  1.00  0.00     0.175 A 
HETATM   21  C21 UNL     1      -0.980  51.173 -16.559  1.00  0.00     0.051 C 
HETATM   22  C22 UNL     1      -0.115  51.491 -17.792  1.00  0.00     0.004 C 
HETATM   23  C23 UNL     1       0.229  50.251 -18.633  1.00  0.00     0.001 C 
HETATM   24  C24 UNL     1       0.149  50.473 -20.155  1.00  0.00     0.012 C 
HETATM   25  C25 UNL     1      -1.242  50.855 -20.762  1.00  0.00     0.057 C 
HETATM   26  O7  UNL     1      -3.345  51.181 -15.891  1.00  0.00    -0.358 OA
HETATM   27  C26 UNL     1      -3.184  49.766 -15.992  1.00  0.00     0.172 A 
ENDROOT
BRANCH  27  28
HETATM   28  C27 UNL     1      -2.582  49.047 -14.823  1.00  0.00     0.074 C 
BRANCH  28  29
HETATM   29  C28 UNL     1      -2.358  49.914 -13.608  1.00  0.00    -0.055 A 
HETATM   30  C29 UNL     1      -1.339  49.615 -12.696  1.00  0.00     0.007 A 
HETATM   31  C30 UNL     1      -1.134  50.418 -11.576  1.00  0.00     0.001 A 
HETATM   32  C31 UNL     1      -1.950  51.527 -11.351  1.00  0.00     0.011 A 
HETATM   33  C32 UNL     1      -2.987  51.848 -12.241  1.00  0.00     0.004 A 
HETATM   34  C34 UNL     1      -3.169  51.035 -13.375  1.00  0.00     0.018 A 
BRANCH  33  35
HETATM   35  C33 UNL     1      -3.840  53.070 -11.985  1.00  0.00     0.479 C 
BRANCH  35  36
HETATM   36  N2  UNL     1      -3.138  54.069 -11.230  1.00  0.00     0.116 N 
HETATM   37  H37 UNL     1      -2.674  53.614 -10.448  1.00  0.00     0.316 HD
HETATM   38  H38 UNL     1      -2.392  54.405 -11.836  1.00  0.00     0.316 HD
ENDBRANCH  35  36
BRANCH  35  39
HETATM   39  N3  UNL     1      -4.187  53.786 -13.182  1.00  0.00     0.116 N 
HETATM   40  H39 UNL     1      -4.846  53.219 -13.712  1.00  0.00     0.316 HD
HETATM   41  H40 UNL     1      -4.694  54.615 -12.882  1.00  0.00     0.316 HD
ENDBRANCH  35  39
ENDBRANCH  33  35
ENDBRANCH  28  29
ENDBRANCH  27  28
BRANCH  14  42
HETATM   42  C13 UNL     1      -4.531  48.594 -20.942  1.00  0.00     0.026 C 
HETATM   43  C14 UNL     1      -4.049  47.207 -21.435  1.00  0.00     0.037 C 
HETATM   44  C15 UNL     1      -5.188  46.192 -21.450  1.00  0.00     0.270 C 
HETATM   45  N1  UNL     1      -6.251  46.548 -22.387  1.00  0.00     0.083 N 
HETATM   46  C16 UNL     1      -6.366  47.985 -22.628  1.00  0.00     0.270 C 
HETATM   47  H15 UNL     1      -7.137  46.176 -22.046  1.00  0.00     0.315 HD
HETATM   48  C17 UNL     1      -5.992  48.828 -21.411  1.00  0.00     0.037 C 
ENDBRANCH  14  42
BRANCH   7  49
HETATM   49  O2  UNL     1       0.442  52.746 -22.104  1.00  0.00    -0.359 OA
HETATM   50  H5  UNL     1       1.000  53.321 -22.676  1.00  0.00     0.217 HD
ENDBRANCH   7  49
TORSDOF 7
ENDMDL
