MODEL 1
REMARK minimizedAffinity -8.15461254
REMARK CNNscore 0.879420578
REMARK CNNaffinity 6.74073458
REMARK  9 active torsions:
REMARK  status: ('A' for Active; 'I' for Inactive)
REMARK    1  A    between atoms: C2_2  and  C30_35 
REMARK    2  A    between atoms: C3_3  and  C4_4 
REMARK    3  A    between atoms: C4_4  and  O1_5 
REMARK    4  A    between atoms: C4_4  and  C5_6 
REMARK    5  A    between atoms: C5_6  and  C6_7 
REMARK    6  A    between atoms: C6_7  and  C8_9 
REMARK    7  A    between atoms: C10_11  and  O2_12 
REMARK    8  A    between atoms: C29_33  and  O5_34 
REMARK    9  A    between atoms: C30_35  and  O7_37 
ROOT
HETATM    1  C8  UNL     1     -13.331  46.088 -27.814  1.00  0.00     0.001 C 
HETATM    2  C9  UNL     1     -12.906  47.057 -26.670  1.00  0.00     0.038 C 
HETATM    3  C10 UNL     1     -11.469  47.506 -26.986  1.00  0.00     0.132 C 
HETATM    4  C11 UNL     1     -11.327  47.269 -28.509  1.00  0.00     0.017 C 
HETATM    5  C12 UNL     1     -12.062  48.425 -29.270  1.00  0.00     0.023 C 
HETATM    6  C13 UNL     1      -9.932  47.195 -29.122  1.00  0.00    -0.029 C 
HETATM    7  C14 UNL     1      -9.736  46.556 -30.305  1.00  0.00     0.002 C 
HETATM    8  C15 UNL     1     -10.906  45.797 -30.922  1.00  0.00     0.157 C 
HETATM    9  O3  UNL     1     -10.837  45.356 -32.069  1.00  0.00    -0.293 OA
HETATM   10  C16 UNL     1     -12.192  45.568 -30.125  1.00  0.00     0.094 C 
HETATM   11  C17 UNL     1     -12.016  45.861 -28.632  1.00  0.00    -0.019 C 
HETATM   12  C18 UNL     1     -11.173  44.706 -28.019  1.00  0.00     0.017 C 
HETATM   13  C19 UNL     1      -8.378  46.542 -31.048  1.00  0.00    -0.008 C 
HETATM   14  C20 UNL     1      -7.821  45.105 -30.908  1.00  0.00     0.021 C 
HETATM   15  C21 UNL     1      -8.541  46.871 -32.569  1.00  0.00     0.022 C 
HETATM   16  C22 UNL     1      -7.364  47.585 -33.230  1.00  0.00     0.080 C 
HETATM   17  C23 UNL     1      -6.059  47.282 -32.538  1.00  0.00     0.135 C 
HETATM   18  O4  UNL     1      -5.102  46.821 -33.161  1.00  0.00    -0.297 OA
HETATM   19  C24 UNL     1      -5.971  47.658 -31.056  1.00  0.00     0.018 C 
HETATM   20  C25 UNL     1      -4.957  46.744 -30.341  1.00  0.00     0.023 C 
HETATM   21  C26 UNL     1      -5.407  49.094 -31.001  1.00  0.00     0.023 C 
HETATM   22  C27 UNL     1      -7.413  47.632 -30.441  1.00  0.00     0.016 C 
HETATM   23  C28 UNL     1      -7.420  47.586 -28.907  1.00  0.00     0.043 C 
HETATM   24  C29 UNL     1      -8.816  47.871 -28.359  1.00  0.00     0.149 C 
ENDROOT
BRANCH   1  25
HETATM   25  C6  UNL     1     -14.241  44.919 -27.330  1.00  0.00    -0.011 C 
HETATM   26  C7  UNL     1     -15.368  44.496 -28.281  1.00  0.00     0.010 C 
BRANCH  25  27
HETATM   27  C5  UNL     1     -14.746  45.157 -25.887  1.00  0.00     0.040 C 
BRANCH  27  28
HETATM   28  C4  UNL     1     -15.930  44.269 -25.457  1.00  0.00     0.142 C 
BRANCH  28  29
HETATM   29  C3  UNL     1     -17.130  45.061 -25.011  1.00  0.00     0.018 C 
HETATM   30  C2  UNL     1     -17.186  46.313 -24.507  1.00  0.00     0.010 C 
HETATM   31  C1  UNL     1     -16.030  47.250 -24.334  1.00  0.00     0.055 C 
BRANCH  30  32
HETATM   32  C30 UNL     1     -18.536  46.819 -24.162  1.00  0.00     0.171 C 
HETATM   33  O6  UNL     1     -19.247  47.518 -24.861  1.00  0.00    -0.646 OA
BRANCH  32  34
HETATM   34  O7  UNL     1     -18.928  46.432 -22.938  1.00  0.00    -0.773 OA
HETATM   35  H44 UNL     1     -19.811  46.842 -22.836  1.00  0.00     0.167 HD
ENDBRANCH  32  34
ENDBRANCH  30  32
ENDBRANCH  28  29
BRANCH  28  36
HETATM   36  O1  UNL     1     -15.511  43.420 -24.392  1.00  0.00    -0.392 OA
HETATM   37  H6  UNL     1     -14.854  42.804 -24.753  1.00  0.00     0.210 HD
ENDBRANCH  28  36
ENDBRANCH  27  28
ENDBRANCH  25  27
ENDBRANCH   1  25
BRANCH   3  38
HETATM   38  O2  UNL     1     -11.242  48.861 -26.621  1.00  0.00    -0.394 OA
HETATM   39  H17 UNL     1     -11.516  48.963 -25.691  1.00  0.00     0.210 HD
ENDBRANCH   3  38
BRANCH  24  40
HETATM   40  O5  UNL     1      -9.034  49.275 -28.385  1.00  0.00    -0.391 OA
HETATM   41  H43 UNL     1      -9.788  49.446 -27.780  1.00  0.00     0.210 HD
ENDBRANCH  24  40
TORSDOF 9
ENDMDL
MODEL 2
REMARK minimizedAffinity -7.68394089
REMARK CNNscore 0.816702187
REMARK CNNaffinity 6.35197973
REMARK  9 active torsions:
REMARK  status: ('A' for Active; 'I' for Inactive)
REMARK    1  A    between atoms: C2_2  and  C30_35 
REMARK    2  A    between atoms: C3_3  and  C4_4 
REMARK    3  A    between atoms: C4_4  and  O1_5 
REMARK    4  A    between atoms: C4_4  and  C5_6 
REMARK    5  A    between atoms: C5_6  and  C6_7 
REMARK    6  A    between atoms: C6_7  and  C8_9 
REMARK    7  A    between atoms: C10_11  and  O2_12 
REMARK    8  A    between atoms: C29_33  and  O5_34 
REMARK    9  A    between atoms: C30_35  and  O7_37 
ROOT
HETATM    1  C8  UNL     1       4.576  56.782  -7.172  1.00  0.00     0.001 C 
HETATM    2  C9  UNL     1       5.565  55.927  -8.022  1.00  0.00     0.038 C 
HETATM    3  C10 UNL     1       4.708  54.928  -8.818  1.00  0.00     0.132 C 
HETATM    4  C11 UNL     1       3.305  55.582  -8.855  1.00  0.00     0.017 C 
HETATM    5  C12 UNL     1       3.312  56.726  -9.926  1.00  0.00     0.023 C 
HETATM    6  C13 UNL     1       2.093  54.717  -9.185  1.00  0.00    -0.029 C 
HETATM    7  C14 UNL     1       0.849  55.103  -8.795  1.00  0.00     0.002 C 
HETATM    8  C15 UNL     1       0.718  56.333  -7.903  1.00  0.00     0.157 C 
HETATM    9  O3  UNL     1      -0.384  56.829  -7.670  1.00  0.00    -0.293 OA
HETATM   10  C16 UNL     1       1.957  56.977  -7.278  1.00  0.00     0.094 C 
HETATM   11  C17 UNL     1       3.193  56.076  -7.367  1.00  0.00    -0.019 C 
HETATM   12  C18 UNL     1       3.011  54.919  -6.345  1.00  0.00     0.017 C 
HETATM   13  C19 UNL     1      -0.440  54.345  -9.194  1.00  0.00    -0.008 C 
HETATM   14  C20 UNL     1      -0.948  53.645  -7.910  1.00  0.00     0.021 C 
HETATM   15  C21 UNL     1      -1.553  55.315  -9.711  1.00  0.00     0.022 C 
HETATM   16  C22 UNL     1      -2.506  54.745 -10.758  1.00  0.00     0.080 C 
HETATM   17  C23 UNL     1      -2.639  53.247 -10.645  1.00  0.00     0.135 C 
HETATM   18  O4  UNL     1      -3.741  52.716 -10.507  1.00  0.00    -0.297 OA
HETATM   19  C24 UNL     1      -1.349  52.436 -10.797  1.00  0.00     0.018 C 
HETATM   20  C25 UNL     1      -1.471  51.107 -10.028  1.00  0.00     0.023 C 
HETATM   21  C26 UNL     1      -1.226  52.086 -12.296  1.00  0.00     0.023 C 
HETATM   22  C27 UNL     1      -0.136  53.329 -10.361  1.00  0.00     0.016 C 
HETATM   23  C28 UNL     1       1.141  52.525 -10.078  1.00  0.00     0.043 C 
HETATM   24  C29 UNL     1       2.352  53.447  -9.963  1.00  0.00     0.149 C 
ENDROOT
BRANCH   1  25
HETATM   25  C6  UNL     1       5.139  57.171  -5.771  1.00  0.00    -0.011 C 
HETATM   26  C7  UNL     1       4.452  58.345  -5.064  1.00  0.00     0.010 C 
BRANCH  25  27
HETATM   27  C5  UNL     1       6.679  57.323  -5.803  1.00  0.00     0.040 C 
BRANCH  27  28
HETATM   28  C4  UNL     1       7.343  57.519  -4.428  1.00  0.00     0.142 C 
BRANCH  28  29
HETATM   29  C3  UNL     1       8.714  58.135  -4.515  1.00  0.00     0.018 C 
HETATM   30  C2  UNL     1       9.889  57.555  -4.845  1.00  0.00     0.010 C 
HETATM   31  C1  UNL     1      10.086  56.133  -5.275  1.00  0.00     0.055 C 
BRANCH  30  32
HETATM   32  C30 UNL     1      11.077  58.440  -4.844  1.00  0.00     0.171 C 
HETATM   33  O6  UNL     1      12.208  58.134  -4.511  1.00  0.00    -0.646 OA
BRANCH  32  34
HETATM   34  O7  UNL     1      10.786  59.686  -5.253  1.00  0.00    -0.773 OA
HETATM   35  H44 UNL     1      11.641  60.158  -5.188  1.00  0.00     0.167 HD
ENDBRANCH  32  34
ENDBRANCH  30  32
ENDBRANCH  28  29
BRANCH  28  36
HETATM   36  O1  UNL     1       7.442  56.256  -3.775  1.00  0.00    -0.392 OA
HETATM   37  H6  UNL     1       6.539  55.959  -3.578  1.00  0.00     0.210 HD
ENDBRANCH  28  36
ENDBRANCH  27  28
ENDBRANCH  25  27
ENDBRANCH   1  25
BRANCH   3  38
HETATM   38  O2  UNL     1       5.235  54.691 -10.116  1.00  0.00    -0.394 OA
HETATM   39  H17 UNL     1       6.173  54.446 -10.010  1.00  0.00     0.210 HD
ENDBRANCH   3  38
BRANCH  24  40
HETATM   40  O5  UNL     1       2.781  53.797 -11.272  1.00  0.00    -0.391 OA
HETATM   41  H43 UNL     1       3.698  54.135 -11.178  1.00  0.00     0.210 HD
ENDBRANCH  24  40
TORSDOF 9
ENDMDL
MODEL 3
REMARK minimizedAffinity -7.80844545
REMARK CNNscore 0.794867933
REMARK CNNaffinity 6.46968222
REMARK  9 active torsions:
REMARK  status: ('A' for Active; 'I' for Inactive)
REMARK    1  A    between atoms: C2_2  and  C30_35 
REMARK    2  A    between atoms: C3_3  and  C4_4 
REMARK    3  A    between atoms: C4_4  and  O1_5 
REMARK    4  A    between atoms: C4_4  and  C5_6 
REMARK    5  A    between atoms: C5_6  and  C6_7 
REMARK    6  A    between atoms: C6_7  and  C8_9 
REMARK    7  A    between atoms: C10_11  and  O2_12 
REMARK    8  A    between atoms: C29_33  and  O5_34 
REMARK    9  A    between atoms: C30_35  and  O7_37 
ROOT
HETATM    1  C8  UNL     1      -1.907  52.191 -11.298  1.00  0.00     0.001 C 
HETATM    2  C9  UNL     1      -0.976  52.294 -12.544  1.00  0.00     0.038 C 
HETATM    3  C10 UNL     1       0.233  53.146 -12.119  1.00  0.00     0.132 C 
HETATM    4  C11 UNL     1       0.256  53.022 -10.577  1.00  0.00     0.017 C 
HETATM    5  C12 UNL     1       0.857  51.627 -10.192  1.00  0.00     0.023 C 
HETATM    6  C13 UNL     1       1.040  54.047  -9.762  1.00  0.00    -0.029 C 
HETATM    7  C14 UNL     1       0.733  54.263  -8.456  1.00  0.00     0.002 C 
HETATM    8  C15 UNL     1      -0.495  53.570  -7.874  1.00  0.00     0.157 C 
HETATM    9  O3  UNL     1      -0.714  53.586  -6.663  1.00  0.00    -0.293 OA
HETATM   10  C16 UNL     1      -1.481  52.839  -8.787  1.00  0.00     0.094 C 
HETATM   11  C17 UNL     1      -1.277  53.184 -10.265  1.00  0.00    -0.019 C 
HETATM   12  C18 UNL     1      -1.803  54.630 -10.492  1.00  0.00     0.017 C 
HETATM   13  C19 UNL     1       1.556  55.194  -7.533  1.00  0.00    -0.008 C 
HETATM   14  C20 UNL     1       0.680  56.446  -7.286  1.00  0.00     0.021 C 
HETATM   15  C21 UNL     1       1.872  54.523  -6.156  1.00  0.00     0.022 C 
HETATM   16  C22 UNL     1       3.182  54.939  -5.492  1.00  0.00     0.080 C 
HETATM   17  C23 UNL     1       3.609  56.326  -5.904  1.00  0.00     0.135 C 
HETATM   18  O4  UNL     1       3.828  57.199  -5.064  1.00  0.00    -0.297 OA
HETATM   19  C24 UNL     1       3.832  56.552  -7.402  1.00  0.00     0.018 C 
HETATM   20  C25 UNL     1       3.591  58.033  -7.752  1.00  0.00     0.023 C 
HETATM   21  C26 UNL     1       5.323  56.258  -7.672  1.00  0.00     0.023 C 
HETATM   22  C27 UNL     1       2.940  55.543  -8.204  1.00  0.00     0.016 C 
HETATM   23  C28 UNL     1       2.759  55.929  -9.679  1.00  0.00     0.043 C 
HETATM   24  C29 UNL     1       2.155  54.775 -10.475  1.00  0.00     0.149 C 
ENDROOT
BRANCH   1  25
HETATM   25  C6  UNL     1      -3.425  52.192 -11.657  1.00  0.00    -0.011 C 
HETATM   26  C7  UNL     1      -3.946  53.422 -12.409  1.00  0.00     0.010 C 
BRANCH  25  27
HETATM   27  C5  UNL     1      -4.296  51.843 -10.425  1.00  0.00     0.040 C 
BRANCH  27  28
HETATM   28  C4  UNL     1      -4.512  50.336 -10.187  1.00  0.00     0.142 C 
BRANCH  28  29
HETATM   29  C3  UNL     1      -5.962  49.933 -10.228  1.00  0.00     0.018 C 
HETATM   30  C2  UNL     1      -6.542  48.909 -10.891  1.00  0.00     0.010 C 
HETATM   31  C1  UNL     1      -5.838  47.871 -11.710  1.00  0.00     0.055 C 
BRANCH  30  32
HETATM   32  C30 UNL     1      -8.009  48.772 -10.726  1.00  0.00     0.171 C 
HETATM   33  O6  UNL     1      -8.865  49.438 -11.280  1.00  0.00    -0.646 OA
BRANCH  32  34
HETATM   34  O7  UNL     1      -8.336  47.806  -9.853  1.00  0.00    -0.773 OA
HETATM   35  H44 UNL     1      -9.314  47.835  -9.828  1.00  0.00     0.167 HD
ENDBRANCH  32  34
ENDBRANCH  30  32
ENDBRANCH  28  29
BRANCH  28  36
HETATM   36  O1  UNL     1      -3.968  49.984  -8.918  1.00  0.00    -0.392 OA
HETATM   37  H6  UNL     1      -3.005  50.094  -8.974  1.00  0.00     0.210 HD
ENDBRANCH  28  36
ENDBRANCH  27  28
ENDBRANCH  25  27
ENDBRANCH   1  25
BRANCH   3  38
HETATM   38  O2  UNL     1       1.439  52.695 -12.721  1.00  0.00    -0.394 OA
HETATM   39  H17 UNL     1       1.283  52.641 -13.683  1.00  0.00     0.210 HD
ENDBRANCH   3  38
BRANCH  24  40
HETATM   40  O5  UNL     1       3.186  53.843 -10.776  1.00  0.00    -0.391 OA
HETATM   41  H43 UNL     1       2.845  53.285 -11.508  1.00  0.00     0.210 HD
ENDBRANCH  24  40
TORSDOF 9
ENDMDL
MODEL 4
REMARK minimizedAffinity -8.55351257
REMARK CNNscore 0.700184107
REMARK CNNaffinity 6.47944307
REMARK  9 active torsions:
REMARK  status: ('A' for Active; 'I' for Inactive)
REMARK    1  A    between atoms: C2_2  and  C30_35 
REMARK    2  A    between atoms: C3_3  and  C4_4 
REMARK    3  A    between atoms: C4_4  and  O1_5 
REMARK    4  A    between atoms: C4_4  and  C5_6 
REMARK    5  A    between atoms: C5_6  and  C6_7 
REMARK    6  A    between atoms: C6_7  and  C8_9 
REMARK    7  A    between atoms: C10_11  and  O2_12 
REMARK    8  A    between atoms: C29_33  and  O5_34 
REMARK    9  A    between atoms: C30_35  and  O7_37 
ROOT
HETATM    1  C8  UNL     1     -12.619  45.937 -27.238  1.00  0.00     0.001 C 
HETATM    2  C9  UNL     1     -13.381  46.882 -28.215  1.00  0.00     0.038 C 
HETATM    3  C10 UNL     1     -12.351  47.364 -29.251  1.00  0.00     0.132 C 
HETATM    4  C11 UNL     1     -11.237  46.291 -29.201  1.00  0.00     0.017 C 
HETATM    5  C12 UNL     1     -11.721  45.024 -29.985  1.00  0.00     0.023 C 
HETATM    6  C13 UNL     1      -9.860  46.624 -29.768  1.00  0.00    -0.029 C 
HETATM    7  C14 UNL     1      -8.764  45.936 -29.354  1.00  0.00     0.002 C 
HETATM    8  C15 UNL     1      -8.922  44.935 -28.215  1.00  0.00     0.157 C 
HETATM    9  O3  UNL     1      -8.011  44.160 -27.924  1.00  0.00    -0.293 OA
HETATM   10  C16 UNL     1     -10.221  44.874 -27.409  1.00  0.00     0.094 C 
HETATM   11  C17 UNL     1     -11.116  46.094 -27.646  1.00  0.00    -0.019 C 
HETATM   12  C18 UNL     1     -10.467  47.306 -26.919  1.00  0.00     0.017 C 
HETATM   13  C19 UNL     1      -7.356  46.132 -29.969  1.00  0.00    -0.008 C 
HETATM   14  C20 UNL     1      -6.513  46.866 -28.898  1.00  0.00     0.021 C 
HETATM   15  C21 UNL     1      -6.669  44.766 -30.301  1.00  0.00     0.022 C 
HETATM   16  C22 UNL     1      -5.710  44.770 -31.490  1.00  0.00     0.080 C 
HETATM   17  C23 UNL     1      -5.105  46.132 -31.723  1.00  0.00     0.135 C 
HETATM   18  O4  UNL     1      -3.883  46.286 -31.755  1.00  0.00    -0.297 OA
HETATM   19  C24 UNL     1      -6.086  47.275 -31.998  1.00  0.00     0.018 C 
HETATM   20  C25 UNL     1      -5.468  48.615 -31.554  1.00  0.00     0.023 C 
HETATM   21  C26 UNL     1      -6.262  47.341 -33.530  1.00  0.00     0.023 C 
HETATM   22  C27 UNL     1      -7.459  46.937 -31.321  1.00  0.00     0.016 C 
HETATM   23  C28 UNL     1      -8.380  48.156 -31.171  1.00  0.00     0.043 C 
HETATM   24  C29 UNL     1      -9.797  47.727 -30.800  1.00  0.00     0.149 C 
ENDROOT
BRANCH   1  25
HETATM   25  C6  UNL     1     -13.112  46.042 -25.762  1.00  0.00    -0.011 C 
HETATM   26  C7  UNL     1     -13.163  44.732 -24.967  1.00  0.00     0.010 C 
BRANCH  25  27
HETATM   27  C5  UNL     1     -14.433  46.842 -25.664  1.00  0.00     0.040 C 
BRANCH  27  28
HETATM   28  C4  UNL     1     -15.186  46.694 -24.329  1.00  0.00     0.142 C 
BRANCH  28  29
HETATM   29  C3  UNL     1     -16.683  46.705 -24.490  1.00  0.00     0.018 C 
HETATM   30  C2  UNL     1     -17.637  46.324 -23.613  1.00  0.00     0.010 C 
HETATM   31  C1  UNL     1     -17.412  45.849 -22.210  1.00  0.00     0.055 C 
BRANCH  30  32
HETATM   32  C30 UNL     1     -19.040  46.460 -24.072  1.00  0.00     0.171 C 
HETATM   33  O6  UNL     1     -19.966  45.719 -23.799  1.00  0.00    -0.646 OA
BRANCH  32  34
HETATM   34  O7  UNL     1     -19.213  47.524 -24.874  1.00  0.00    -0.773 OA
HETATM   35  H44 UNL     1     -20.161  47.484 -25.111  1.00  0.00     0.167 HD
ENDBRANCH  32  34
ENDBRANCH  30  32
ENDBRANCH  28  29
BRANCH  28  36
HETATM   36  O1  UNL     1     -14.805  47.756 -23.459  1.00  0.00    -0.392 OA
HETATM   37  H6  UNL     1     -13.869  47.627 -23.236  1.00  0.00     0.210 HD
ENDBRANCH  28  36
ENDBRANCH  27  28
ENDBRANCH  25  27
ENDBRANCH   1  25
BRANCH   3  38
HETATM   38  O2  UNL     1     -12.922  47.498 -30.546  1.00  0.00    -0.394 OA
HETATM   39  H17 UNL     1     -13.718  48.054 -30.458  1.00  0.00     0.210 HD
ENDBRANCH   3  38
BRANCH  24  40
HETATM   40  O5  UNL     1     -10.460  47.286 -31.977  1.00  0.00    -0.391 OA
HETATM   41  H43 UNL     1     -11.419  47.294 -31.770  1.00  0.00     0.210 HD
ENDBRANCH  24  40
TORSDOF 9
ENDMDL
MODEL 5
REMARK minimizedAffinity -8.27994251
REMARK CNNscore 0.677733481
REMARK CNNaffinity 6.51878357
REMARK  9 active torsions:
REMARK  status: ('A' for Active; 'I' for Inactive)
REMARK    1  A    between atoms: C2_2  and  C30_35 
REMARK    2  A    between atoms: C3_3  and  C4_4 
REMARK    3  A    between atoms: C4_4  and  O1_5 
REMARK    4  A    between atoms: C4_4  and  C5_6 
REMARK    5  A    between atoms: C5_6  and  C6_7 
REMARK    6  A    between atoms: C6_7  and  C8_9 
REMARK    7  A    between atoms: C10_11  and  O2_12 
REMARK    8  A    between atoms: C29_33  and  O5_34 
REMARK    9  A    between atoms: C30_35  and  O7_37 
ROOT
HETATM    1  C8  UNL     1     -12.902  44.723 -27.578  1.00  0.00     0.001 C 
HETATM    2  C9  UNL     1     -12.818  43.435 -28.451  1.00  0.00     0.038 C 
HETATM    3  C10 UNL     1     -11.593  43.605 -29.367  1.00  0.00     0.132 C 
HETATM    4  C11 UNL     1     -10.718  44.651 -28.634  1.00  0.00     0.017 C 
HETATM    5  C12 UNL     1      -9.976  43.944 -27.448  1.00  0.00     0.023 C 
HETATM    6  C13 UNL     1      -9.636  45.390 -29.414  1.00  0.00    -0.029 C 
HETATM    7  C14 UNL     1      -9.173  46.591 -28.974  1.00  0.00     0.002 C 
HETATM    8  C15 UNL     1      -9.860  47.239 -27.777  1.00  0.00     0.157 C 
HETATM    9  O3  UNL     1      -9.373  48.228 -27.229  1.00  0.00    -0.293 OA
HETATM   10  C16 UNL     1     -11.172  46.671 -27.231  1.00  0.00     0.094 C 
HETATM   11  C17 UNL     1     -11.826  45.677 -28.196  1.00  0.00    -0.019 C 
HETATM   12  C18 UNL     1     -12.418  46.489 -29.383  1.00  0.00     0.017 C 
HETATM   13  C19 UNL     1      -7.996  47.343 -29.641  1.00  0.00    -0.008 C 
HETATM   14  C20 UNL     1      -8.615  48.564 -30.364  1.00  0.00     0.021 C 
HETATM   15  C21 UNL     1      -6.958  47.854 -28.589  1.00  0.00     0.022 C 
HETATM   16  C22 UNL     1      -5.508  47.932 -29.060  1.00  0.00     0.080 C 
HETATM   17  C23 UNL     1      -5.408  48.132 -30.551  1.00  0.00     0.135 C 
HETATM   18  O4  UNL     1      -4.779  49.078 -31.025  1.00  0.00    -0.297 OA
HETATM   19  C24 UNL     1      -6.055  47.055 -31.427  1.00  0.00     0.018 C 
HETATM   20  C25 UNL     1      -6.479  47.661 -32.778  1.00  0.00     0.023 C 
HETATM   21  C26 UNL     1      -4.956  46.012 -31.721  1.00  0.00     0.023 C 
HETATM   22  C27 UNL     1      -7.221  46.383 -30.623  1.00  0.00     0.016 C 
HETATM   23  C28 UNL     1      -8.195  45.593 -31.510  1.00  0.00     0.043 C 
HETATM   24  C29 UNL     1      -9.115  44.717 -30.663  1.00  0.00     0.149 C 
ENDROOT
BRANCH   1  25
HETATM   25  C6  UNL     1     -14.364  45.176 -27.280  1.00  0.00    -0.011 C 
HETATM   26  C7  UNL     1     -15.352  45.100 -28.451  1.00  0.00     0.010 C 
BRANCH  25  27
HETATM   27  C5  UNL     1     -14.396  46.551 -26.571  1.00  0.00     0.040 C 
BRANCH  27  28
HETATM   28  C4  UNL     1     -14.684  46.498 -25.059  1.00  0.00     0.142 C 
BRANCH  28  29
HETATM   29  C3  UNL     1     -16.101  46.869 -24.713  1.00  0.00     0.018 C 
HETATM   30  C2  UNL     1     -17.199  46.084 -24.663  1.00  0.00     0.010 C 
HETATM   31  C1  UNL     1     -17.241  44.603 -24.887  1.00  0.00     0.055 C 
BRANCH  30  32
HETATM   32  C30 UNL     1     -18.465  46.754 -24.282  1.00  0.00     0.171 C 
HETATM   33  O6  UNL     1     -18.973  47.711 -24.837  1.00  0.00    -0.646 OA
BRANCH  32  34
HETATM   34  O7  UNL     1     -19.033  46.194 -23.201  1.00  0.00    -0.773 OA
HETATM   35  H44 UNL     1     -19.835  46.735 -23.054  1.00  0.00     0.167 HD
ENDBRANCH  32  34
ENDBRANCH  30  32
ENDBRANCH  28  29
BRANCH  28  36
HETATM   36  O1  UNL     1     -13.794  47.383 -24.385  1.00  0.00    -0.392 OA
HETATM   37  H6  UNL     1     -12.897  47.024 -24.483  1.00  0.00     0.210 HD
ENDBRANCH  28  36
ENDBRANCH  27  28
ENDBRANCH  25  27
ENDBRANCH   1  25
BRANCH   3  38
HETATM   38  O2  UNL     1     -10.912  42.376 -29.579  1.00  0.00    -0.394 OA
HETATM   39  H17 UNL     1     -11.572  41.725 -29.881  1.00  0.00     0.210 HD
ENDBRANCH   3  38
BRANCH  24  40
HETATM   40  O5  UNL     1      -8.404  43.546 -30.284  1.00  0.00    -0.391 OA
HETATM   41  H43 UNL     1      -9.082  42.894 -30.003  1.00  0.00     0.210 HD
ENDBRANCH  24  40
TORSDOF 9
ENDMDL
MODEL 6
REMARK minimizedAffinity -8.68449593
REMARK CNNscore 0.672777832
REMARK CNNaffinity 6.62225485
REMARK  9 active torsions:
REMARK  status: ('A' for Active; 'I' for Inactive)
REMARK    1  A    between atoms: C2_2  and  C30_35 
REMARK    2  A    between atoms: C3_3  and  C4_4 
REMARK    3  A    between atoms: C4_4  and  O1_5 
REMARK    4  A    between atoms: C4_4  and  C5_6 
REMARK    5  A    between atoms: C5_6  and  C6_7 
REMARK    6  A    between atoms: C6_7  and  C8_9 
REMARK    7  A    between atoms: C10_11  and  O2_12 
REMARK    8  A    between atoms: C29_33  and  O5_34 
REMARK    9  A    between atoms: C30_35  and  O7_37 
ROOT
HETATM    1  C8  UNL     1      -3.745  49.041 -22.733  1.00  0.00     0.001 C 
HETATM    2  C9  UNL     1      -4.110  48.766 -24.223  1.00  0.00     0.038 C 
HETATM    3  C10 UNL     1      -5.524  48.161 -24.224  1.00  0.00     0.132 C 
HETATM    4  C11 UNL     1      -6.131  48.621 -22.877  1.00  0.00     0.017 C 
HETATM    5  C12 UNL     1      -6.564  50.122 -23.006  1.00  0.00     0.023 C 
HETATM    6  C13 UNL     1      -7.350  47.889 -22.323  1.00  0.00    -0.029 C 
HETATM    7  C14 UNL     1      -7.630  47.933 -20.994  1.00  0.00     0.002 C 
HETATM    8  C15 UNL     1      -6.626  48.604 -20.062  1.00  0.00     0.157 C 
HETATM    9  O3  UNL     1      -6.910  48.831 -18.886  1.00  0.00    -0.293 OA
HETATM   10  C16 UNL     1      -5.242  49.009 -20.572  1.00  0.00     0.094 C 
HETATM   11  C17 UNL     1      -4.906  48.372 -21.924  1.00  0.00    -0.019 C 
HETATM   12  C18 UNL     1      -4.614  46.864 -21.678  1.00  0.00     0.017 C 
HETATM   13  C19 UNL     1      -8.910  47.319 -20.375  1.00  0.00    -0.008 C 
HETATM   14  C20 UNL     1      -8.453  46.067 -19.588  1.00  0.00     0.021 C 
HETATM   15  C21 UNL     1      -9.612  48.306 -19.385  1.00  0.00     0.022 C 
HETATM   16  C22 UNL     1     -11.130  48.186 -19.283  1.00  0.00     0.080 C 
HETATM   17  C23 UNL     1     -11.611  46.796 -19.616  1.00  0.00     0.135 C 
HETATM   18  O4  UNL     1     -12.303  46.156 -18.824  1.00  0.00    -0.297 OA
HETATM   19  C24 UNL     1     -11.262  46.271 -21.012  1.00  0.00     0.018 C 
HETATM   20  C25 UNL     1     -11.184  44.732 -20.991  1.00  0.00     0.023 C 
HETATM   21  C26 UNL     1     -12.442  46.654 -21.931  1.00  0.00     0.023 C 
HETATM   22  C27 UNL     1      -9.954  46.980 -21.507  1.00  0.00     0.016 C 
HETATM   23  C28 UNL     1      -9.281  46.263 -22.685  1.00  0.00     0.043 C 
HETATM   24  C29 UNL     1      -8.207  47.144 -23.319  1.00  0.00     0.149 C 
ENDROOT
BRANCH   1  25
HETATM   25  C6  UNL     1      -2.239  48.802 -22.409  1.00  0.00    -0.011 C 
HETATM   26  C7  UNL     1      -1.889  47.464 -21.746  1.00  0.00     0.010 C 
BRANCH  25  27
HETATM   27  C5  UNL     1      -1.625  50.009 -21.658  1.00  0.00     0.040 C 
BRANCH  27  28
HETATM   28  C4  UNL     1      -1.072  51.126 -22.563  1.00  0.00     0.142 C 
BRANCH  28  29
HETATM   29  C3  UNL     1      -0.179  52.092 -21.832  1.00  0.00     0.018 C 
HETATM   30  C2  UNL     1       0.632  53.049 -22.333  1.00  0.00     0.010 C 
HETATM   31  C1  UNL     1       0.780  53.418 -23.778  1.00  0.00     0.055 C 
BRANCH  30  32
HETATM   32  C30 UNL     1       1.390  53.848 -21.341  1.00  0.00     0.171 C 
HETATM   33  O6  UNL     1       1.490  53.618 -20.150  1.00  0.00    -0.646 OA
BRANCH  32  34
HETATM   34  O7  UNL     1       1.983  54.918 -21.895  1.00  0.00    -0.773 OA
HETATM   35  H44 UNL     1       2.426  55.356 -21.140  1.00  0.00     0.167 HD
ENDBRANCH  32  34
ENDBRANCH  30  32
ENDBRANCH  28  29
BRANCH  28  36
HETATM   36  O1  UNL     1      -2.163  51.843 -23.135  1.00  0.00    -0.392 OA
HETATM   37  H6  UNL     1      -2.625  51.238 -23.736  1.00  0.00     0.210 HD
ENDBRANCH  28  36
ENDBRANCH  27  28
ENDBRANCH  25  27
ENDBRANCH   1  25
BRANCH   3  38
HETATM   38  O2  UNL     1      -6.287  48.593 -25.343  1.00  0.00    -0.394 OA
HETATM   39  H17 UNL     1      -5.757  48.418 -26.143  1.00  0.00     0.210 HD
ENDBRANCH   3  38
BRANCH  24  40
HETATM   40  O5  UNL     1      -8.841  48.090 -24.169  1.00  0.00    -0.391 OA
HETATM   41  H43 UNL     1      -8.141  48.435 -24.765  1.00  0.00     0.210 HD
ENDBRANCH  24  40
TORSDOF 9
ENDMDL
MODEL 7
REMARK minimizedAffinity -7.78505993
REMARK CNNscore 0.602106988
REMARK CNNaffinity 6.67581511
REMARK  9 active torsions:
REMARK  status: ('A' for Active; 'I' for Inactive)
REMARK    1  A    between atoms: C2_2  and  C30_35 
REMARK    2  A    between atoms: C3_3  and  C4_4 
REMARK    3  A    between atoms: C4_4  and  O1_5 
REMARK    4  A    between atoms: C4_4  and  C5_6 
REMARK    5  A    between atoms: C5_6  and  C6_7 
REMARK    6  A    between atoms: C6_7  and  C8_9 
REMARK    7  A    between atoms: C10_11  and  O2_12 
REMARK    8  A    between atoms: C29_33  and  O5_34 
REMARK    9  A    between atoms: C30_35  and  O7_37 
ROOT
HETATM    1  C8  UNL     1      -8.139  45.962 -33.529  1.00  0.00     0.001 C 
HETATM    2  C9  UNL     1      -7.150  47.167 -33.560  1.00  0.00     0.038 C 
HETATM    3  C10 UNL     1      -6.980  47.631 -32.103  1.00  0.00     0.132 C 
HETATM    4  C11 UNL     1      -7.381  46.394 -31.264  1.00  0.00     0.017 C 
HETATM    5  C12 UNL     1      -6.196  45.369 -31.280  1.00  0.00     0.023 C 
HETATM    6  C13 UNL     1      -7.745  46.580 -29.794  1.00  0.00    -0.029 C 
HETATM    7  C14 UNL     1      -8.518  45.660 -29.158  1.00  0.00     0.002 C 
HETATM    8  C15 UNL     1      -9.125  44.529 -29.980  1.00  0.00     0.157 C 
HETATM    9  O3  UNL     1      -9.679  43.577 -29.431  1.00  0.00    -0.293 OA
HETATM   10  C16 UNL     1      -9.059  44.556 -31.509  1.00  0.00     0.094 C 
HETATM   11  C17 UNL     1      -8.659  45.930 -32.054  1.00  0.00    -0.019 C 
HETATM   12  C18 UNL     1      -9.875  46.884 -31.873  1.00  0.00     0.017 C 
HETATM   13  C19 UNL     1      -8.828  45.715 -27.642  1.00  0.00    -0.008 C 
HETATM   14  C20 UNL     1     -10.319  46.116 -27.519  1.00  0.00     0.021 C 
HETATM   15  C21 UNL     1      -8.623  44.327 -26.953  1.00  0.00     0.022 C 
HETATM   16  C22 UNL     1      -8.182  44.362 -25.492  1.00  0.00     0.080 C 
HETATM   17  C23 UNL     1      -8.631  45.623 -24.796  1.00  0.00     0.135 C 
HETATM   18  O4  UNL     1      -9.303  45.575 -23.765  1.00  0.00    -0.297 OA
HETATM   19  C24 UNL     1      -8.136  46.943 -25.395  1.00  0.00     0.018 C 
HETATM   20  C25 UNL     1      -9.135  48.072 -25.074  1.00  0.00     0.023 C 
HETATM   21  C26 UNL     1      -6.816  47.284 -24.671  1.00  0.00     0.023 C 
HETATM   22  C27 UNL     1      -7.863  46.734 -26.924  1.00  0.00     0.016 C 
HETATM   23  C28 UNL     1      -7.761  48.050 -27.710  1.00  0.00     0.043 C 
HETATM   24  C29 UNL     1      -7.195  47.808 -29.107  1.00  0.00     0.149 C 
ENDROOT
BRANCH   1  25
HETATM   25  C6  UNL     1      -9.089  45.909 -34.765  1.00  0.00    -0.011 C 
HETATM   26  C7  UNL     1      -8.886  46.996 -35.826  1.00  0.00     0.010 C 
BRANCH  25  27
HETATM   27  C5  UNL     1     -10.569  45.776 -34.333  1.00  0.00     0.040 C 
BRANCH  27  28
HETATM   28  C4  UNL     1     -11.533  45.320 -35.444  1.00  0.00     0.142 C 
BRANCH  28  29
HETATM   29  C3  UNL     1     -12.495  46.396 -35.872  1.00  0.00     0.018 C 
HETATM   30  C2  UNL     1     -12.533  47.094 -37.027  1.00  0.00     0.010 C 
HETATM   31  C1  UNL     1     -11.633  46.901 -38.210  1.00  0.00     0.055 C 
BRANCH  30  32
HETATM   32  C30 UNL     1     -13.618  48.097 -37.150  1.00  0.00     0.171 C 
HETATM   33  O6  UNL     1     -14.773  47.961 -36.790  1.00  0.00    -0.646 OA
BRANCH  32  34
HETATM   34  O7  UNL     1     -13.202  49.230 -37.738  1.00  0.00    -0.773 OA
HETATM   35  H44 UNL     1     -14.007  49.786 -37.769  1.00  0.00     0.167 HD
ENDBRANCH  32  34
ENDBRANCH  30  32
ENDBRANCH  28  29
BRANCH  28  36
HETATM   36  O1  UNL     1     -12.272  44.192 -34.984  1.00  0.00    -0.392 OA
HETATM   37  H6  UNL     1     -11.646  43.458 -34.878  1.00  0.00     0.210 HD
ENDBRANCH  28  36
ENDBRANCH  27  28
ENDBRANCH  25  27
ENDBRANCH   1  25
BRANCH   3  38
HETATM   38  O2  UNL     1      -5.653  48.066 -31.834  1.00  0.00    -0.394 OA
HETATM   39  H17 UNL     1      -5.419  48.725 -32.513  1.00  0.00     0.210 HD
ENDBRANCH   3  38
BRANCH  24  40
HETATM   40  O5  UNL     1      -5.783  47.680 -29.008  1.00  0.00    -0.391 OA
HETATM   41  H43 UNL     1      -5.432  47.815 -29.915  1.00  0.00     0.210 HD
ENDBRANCH  24  40
TORSDOF 9
ENDMDL
MODEL 8
REMARK minimizedAffinity -9.06903744
REMARK CNNscore 0.601972997
REMARK CNNaffinity 6.55633545
REMARK  9 active torsions:
REMARK  status: ('A' for Active; 'I' for Inactive)
REMARK    1  A    between atoms: C2_2  and  C30_35 
REMARK    2  A    between atoms: C3_3  and  C4_4 
REMARK    3  A    between atoms: C4_4  and  O1_5 
REMARK    4  A    between atoms: C4_4  and  C5_6 
REMARK    5  A    between atoms: C5_6  and  C6_7 
REMARK    6  A    between atoms: C6_7  and  C8_9 
REMARK    7  A    between atoms: C10_11  and  O2_12 
REMARK    8  A    between atoms: C29_33  and  O5_34 
REMARK    9  A    between atoms: C30_35  and  O7_37 
ROOT
HETATM    1  C8  UNL     1      -0.638  50.461 -19.143  1.00  0.00     0.001 C 
HETATM    2  C9  UNL     1      -0.887  49.295 -18.139  1.00  0.00     0.038 C 
HETATM    3  C10 UNL     1      -2.129  48.540 -18.643  1.00  0.00     0.132 C 
HETATM    4  C11 UNL     1      -2.206  48.904 -20.146  1.00  0.00     0.017 C 
HETATM    5  C12 UNL     1      -1.139  48.061 -20.924  1.00  0.00     0.023 C 
HETATM    6  C13 UNL     1      -3.520  48.696 -20.893  1.00  0.00    -0.029 C 
HETATM    7  C14 UNL     1      -3.780  49.395 -22.029  1.00  0.00     0.002 C 
HETATM    8  C15 UNL     1      -2.802  50.486 -22.451  1.00  0.00     0.157 C 
HETATM    9  O3  UNL     1      -2.891  51.022 -23.555  1.00  0.00    -0.293 OA
HETATM   10  C16 UNL     1      -1.686  50.937 -21.506  1.00  0.00     0.094 C 
HETATM   11  C17 UNL     1      -1.898  50.444 -20.071  1.00  0.00    -0.019 C 
HETATM   12  C18 UNL     1      -3.057  51.276 -19.451  1.00  0.00     0.017 C 
HETATM   13  C19 UNL     1      -5.032  49.153 -22.908  1.00  0.00    -0.008 C 
HETATM   14  C20 UNL     1      -5.952  50.381 -22.700  1.00  0.00     0.021 C 
HETATM   15  C21 UNL     1      -4.670  49.048 -24.425  1.00  0.00     0.022 C 
HETATM   16  C22 UNL     1      -5.566  48.142 -25.267  1.00  0.00     0.080 C 
HETATM   17  C23 UNL     1      -6.956  48.030 -24.693  1.00  0.00     0.135 C 
HETATM   18  O4  UNL     1      -7.947  48.305 -25.369  1.00  0.00    -0.297 OA
HETATM   19  C24 UNL     1      -7.060  47.480 -23.267  1.00  0.00     0.018 C 
HETATM   20  C25 UNL     1      -8.329  48.027 -22.585  1.00  0.00     0.023 C 
HETATM   21  C26 UNL     1      -7.236  45.953 -23.399  1.00  0.00     0.023 C 
HETATM   22  C27 UNL     1      -5.727  47.797 -22.504  1.00  0.00     0.016 C 
HETATM   23  C28 UNL     1      -5.854  47.670 -20.979  1.00  0.00     0.043 C 
HETATM   24  C29 UNL     1      -4.479  47.682 -20.315  1.00  0.00     0.149 C 
ENDROOT
BRANCH   1  25
HETATM   25  C6  UNL     1      -0.103  51.759 -18.464  1.00  0.00    -0.011 C 
HETATM   26  C7  UNL     1       0.861  52.614 -19.296  1.00  0.00     0.010 C 
BRANCH  25  27
HETATM   27  C5  UNL     1       0.442  51.470 -17.044  1.00  0.00     0.040 C 
BRANCH  27  28
HETATM   28  C4  UNL     1       1.761  52.185 -16.696  1.00  0.00     0.142 C 
BRANCH  28  29
HETATM   29  C3  UNL     1       2.647  51.378 -15.784  1.00  0.00     0.018 C 
HETATM   30  C2  UNL     1       2.495  51.110 -14.469  1.00  0.00     0.010 C 
HETATM   31  C1  UNL     1       1.337  51.515 -13.609  1.00  0.00     0.055 C 
BRANCH  30  32
HETATM   32  C30 UNL     1       3.550  50.274 -13.847  1.00  0.00     0.171 C 
HETATM   33  O6  UNL     1       4.726  50.240 -14.161  1.00  0.00    -0.646 OA
BRANCH  32  34
HETATM   34  O7  UNL     1       3.071  49.501 -12.858  1.00  0.00    -0.773 OA
HETATM   35  H44 UNL     1       3.855  49.000 -12.554  1.00  0.00     0.167 HD
ENDBRANCH  32  34
ENDBRANCH  30  32
ENDBRANCH  28  29
BRANCH  28  36
HETATM   36  O1  UNL     1       1.464  53.431 -16.073  1.00  0.00    -0.392 OA
HETATM   37  H6  UNL     1       1.042  53.996 -16.739  1.00  0.00     0.210 HD
ENDBRANCH  28  36
ENDBRANCH  27  28
ENDBRANCH  25  27
ENDBRANCH   1  25
BRANCH   3  38
HETATM   38  O2  UNL     1      -2.026  47.139 -18.426  1.00  0.00    -0.394 OA
HETATM   39  H17 UNL     1      -1.809  47.005 -17.485  1.00  0.00     0.210 HD
ENDBRANCH   3  38
BRANCH  24  40
HETATM   40  O5  UNL     1      -3.904  46.389 -20.442  1.00  0.00    -0.391 OA
HETATM   41  H43 UNL     1      -3.182  46.344 -19.779  1.00  0.00     0.210 HD
ENDBRANCH  24  40
TORSDOF 9
ENDMDL
MODEL 9
REMARK minimizedAffinity -7.86539364
REMARK CNNscore 0.531507134
REMARK CNNaffinity 6.16537619
REMARK  9 active torsions:
REMARK  status: ('A' for Active; 'I' for Inactive)
REMARK    1  A    between atoms: C2_2  and  C30_35 
REMARK    2  A    between atoms: C3_3  and  C4_4 
REMARK    3  A    between atoms: C4_4  and  O1_5 
REMARK    4  A    between atoms: C4_4  and  C5_6 
REMARK    5  A    between atoms: C5_6  and  C6_7 
REMARK    6  A    between atoms: C6_7  and  C8_9 
REMARK    7  A    between atoms: C10_11  and  O2_12 
REMARK    8  A    between atoms: C29_33  and  O5_34 
REMARK    9  A    between atoms: C30_35  and  O7_37 
ROOT
HETATM    1  C8  UNL     1       8.868  64.795 -15.048  1.00  0.00     0.001 C 
HETATM    2  C9  UNL     1       8.967  65.477 -16.446  1.00  0.00     0.038 C 
HETATM    3  C10 UNL     1      10.384  66.070 -16.545  1.00  0.00     0.132 C 
HETATM    4  C11 UNL     1      11.204  65.257 -15.514  1.00  0.00     0.017 C 
HETATM    5  C12 UNL     1      11.538  63.855 -16.130  1.00  0.00     0.023 C 
HETATM    6  C13 UNL     1      12.534  65.816 -15.018  1.00  0.00    -0.029 C 
HETATM    7  C14 UNL     1      13.049  65.405 -13.829  1.00  0.00     0.002 C 
HETATM    8  C15 UNL     1      12.202  64.493 -12.948  1.00  0.00     0.157 C 
HETATM    9  O3  UNL     1      12.685  63.950 -11.954  1.00  0.00    -0.293 OA
HETATM   10  C16 UNL     1      10.731  64.236 -13.281  1.00  0.00     0.094 C 
HETATM   11  C17 UNL     1      10.185  65.222 -14.318  1.00  0.00    -0.019 C 
HETATM   12  C18 UNL     1      10.010  66.599 -13.616  1.00  0.00     0.017 C 
HETATM   13  C19 UNL     1      14.446  65.832 -13.316  1.00  0.00    -0.008 C 
HETATM   14  C20 UNL     1      14.196  66.812 -12.144  1.00  0.00     0.021 C 
HETATM   15  C21 UNL     1      15.271  64.614 -12.785  1.00  0.00     0.022 C 
HETATM   16  C22 UNL     1      16.787  64.713 -12.940  1.00  0.00     0.080 C 
HETATM   17  C23 UNL     1      17.261  66.145 -12.961  1.00  0.00     0.135 C 
HETATM   18  O4  UNL     1      18.113  66.543 -12.167  1.00  0.00    -0.297 OA
HETATM   19  C24 UNL     1      16.688  67.035 -14.068  1.00  0.00     0.018 C 
HETATM   20  C25 UNL     1      16.684  68.506 -13.610  1.00  0.00     0.023 C 
HETATM   21  C26 UNL     1      17.663  66.932 -15.260  1.00  0.00     0.023 C 
HETATM   22  C27 UNL     1      15.282  66.481 -14.485  1.00  0.00     0.016 C 
HETATM   23  C28 UNL     1      14.439  67.494 -15.273  1.00  0.00     0.043 C 
HETATM   24  C29 UNL     1      13.229  66.816 -15.913  1.00  0.00     0.149 C 
ENDROOT
BRANCH   1  25
HETATM   25  C6  UNL     1       7.457  64.922 -14.395  1.00  0.00    -0.011 C 
HETATM   26  C7  UNL     1       6.952  63.697 -13.624  1.00  0.00     0.010 C 
BRANCH  25  27
HETATM   27  C5  UNL     1       6.413  65.454 -15.407  1.00  0.00     0.040 C 
BRANCH  27  28
HETATM   28  C4  UNL     1       5.734  66.778 -15.007  1.00  0.00     0.142 C 
BRANCH  28  29
HETATM   29  C3  UNL     1       4.688  67.227 -15.992  1.00  0.00     0.018 C 
HETATM   30  C2  UNL     1       3.499  67.822 -15.759  1.00  0.00     0.010 C 
HETATM   31  C1  UNL     1       2.964  68.241 -14.424  1.00  0.00     0.055 C 
BRANCH  30  32
HETATM   32  C30 UNL     1       2.686  68.148 -16.955  1.00  0.00     0.171 C 
HETATM   33  O6  UNL     1       3.024  68.017 -18.118  1.00  0.00    -0.646 OA
BRANCH  32  34
HETATM   34  O7  UNL     1       1.479  68.641 -16.632  1.00  0.00    -0.773 OA
HETATM   35  H44 UNL     1       1.063  68.825 -17.499  1.00  0.00     0.167 HD
ENDBRANCH  32  34
ENDBRANCH  30  32
ENDBRANCH  28  29
BRANCH  28  36
HETATM   36  O1  UNL     1       6.728  67.792 -14.889  1.00  0.00    -0.392 OA
HETATM   37  H6  UNL     1       7.291  67.560 -14.133  1.00  0.00     0.210 HD
ENDBRANCH  28  36
ENDBRANCH  27  28
ENDBRANCH  25  27
ENDBRANCH   1  25
BRANCH   3  38
HETATM   38  O2  UNL     1      10.911  65.973 -17.861  1.00  0.00    -0.394 OA
HETATM   39  H17 UNL     1      10.253  66.359 -18.468  1.00  0.00     0.210 HD
ENDBRANCH   3  38
BRANCH  24  40
HETATM   40  O5  UNL     1      13.656  66.149 -17.093  1.00  0.00    -0.391 OA
HETATM   41  H43 UNL     1      12.844  65.978 -17.619  1.00  0.00     0.210 HD
ENDBRANCH  24  40
TORSDOF 9
ENDMDL
