MODEL 1
REMARK minimizedAffinity -8.91478634
REMARK  13 active torsions:
REMARK  status: ('A' for Active; 'I' for Inactive)
REMARK    1  A    between atoms: C2_2  and  C3_3 
REMARK    2  A    between atoms: C2_2  and  C14_14 
REMARK    3  A    between atoms: C4_4  and  C5_5 
REMARK    4  A    between atoms: C6_6  and  C8_8 
REMARK    5  A    between atoms: C8_8  and  C9_9 
REMARK    6  A    between atoms: C9_9  and  C10_10 
REMARK    7  A    between atoms: C18_18  and  C19_19 
REMARK    8  A    between atoms: C19_19  and  C20_20 
REMARK    9  A    between atoms: C20_20  and  C21_21 
REMARK   10  A    between atoms: C21_21  and  O1_22 
REMARK   11  A    between atoms: C23_24  and  C25_26 
REMARK   12  A    between atoms: C28_30  and  O3_32 
REMARK   13  A    between atoms: C30_33  and  O4_34 
ROOT
HETATM    1  C14 UNL     1      -0.739   5.842  11.876  1.00  0.00     0.047 C 
HETATM    2  C15 UNL     1      -1.496   7.008  12.531  1.00  0.00     0.013 C 
HETATM    3  C16 UNL     1      -0.527   8.174  12.450  1.00  0.00     0.017 C 
HETATM    4  C17 UNL     1       0.905   7.573  12.662  1.00  0.00     0.024 C 
HETATM    5  C18 UNL     1       1.857   8.210  11.542  1.00  0.00     0.029 C 
HETATM    6  C22 UNL     1       3.315   8.337  12.018  1.00  0.00    -0.066 C 
HETATM    7  C23 UNL     1       4.425   7.638  11.687  1.00  0.00    -0.021 C 
HETATM    8  C24 UNL     1       5.837   8.009  12.060  1.00  0.00     0.052 C 
HETATM    9  C26 UNL     1       3.397   9.408  13.108  1.00  0.00     0.038 C 
HETATM   10  C27 UNL     1       2.179   9.363  14.054  1.00  0.00     0.042 C 
HETATM   11  C28 UNL     1       1.493   7.974  14.102  1.00  0.00     0.065 C 
HETATM   12  C29 UNL     1       0.470   7.977  15.254  1.00  0.00     0.047 C 
HETATM   13  C30 UNL     1       0.674   6.020  12.498  1.00  0.00     0.138 C 
ENDROOT
BRANCH   5  14
HETATM   14  C19 UNL     1       1.549   8.050  10.019  1.00  0.00     0.012 C 
BRANCH  14  15
HETATM   15  C20 UNL     1       2.562   7.488   9.027  1.00  0.00     0.027 C 
BRANCH  15  16
HETATM   16  C21 UNL     1       2.427   8.125   7.644  1.00  0.00     0.164 C 
BRANCH  16  17
HETATM   17  O1  UNL     1       3.281   9.253   7.518  1.00  0.00    -0.401 OA
HETATM   18  H32 UNL     1       4.200   8.932   7.564  1.00  0.00     0.209 HD
ENDBRANCH  16  17
ENDBRANCH  15  16
ENDBRANCH  14  15
ENDBRANCH   5  14
BRANCH  11  19
HETATM   19  O3  UNL     1       2.504   7.009  14.473  1.00  0.00    -0.389 OA
HETATM   20  H44 UNL     1       2.897   7.300  15.317  1.00  0.00     0.210 HD
ENDBRANCH  11  19
BRANCH  13  21
HETATM   21  O4  UNL     1       0.716   5.324  13.745  1.00  0.00    -0.394 OA
HETATM   22  H46 UNL     1       1.579   5.555  14.147  1.00  0.00     0.210 HD
ENDBRANCH  13  21
BRANCH   1  23
HETATM   23  C2  UNL     1      -1.411   4.468  12.016  1.00  0.00    -0.061 C 
HETATM   24  C1  UNL     1      -0.809   3.323  11.646  1.00  0.00     0.019 C 
BRANCH  23  25
HETATM   25  C3  UNL     1      -2.747   4.335  12.601  1.00  0.00     0.007 C 
HETATM   26  C4  UNL     1      -3.875   3.894  12.022  1.00  0.00     0.001 C 
BRANCH  26  27
HETATM   27  C5  UNL     1      -5.139   3.853  12.729  1.00  0.00     0.002 C 
HETATM   28  C6  UNL     1      -6.185   3.033  12.497  1.00  0.00    -0.084 C 
HETATM   29  C7  UNL     1      -6.246   1.945  11.462  1.00  0.00     0.043 C 
BRANCH  28  30
HETATM   30  C8  UNL     1      -7.442   3.179  13.339  1.00  0.00     0.037 C 
BRANCH  30  31
HETATM   31  C9  UNL     1      -8.312   4.351  12.865  1.00  0.00     0.031 C 
BRANCH  31  32
HETATM   32  C10 UNL     1      -7.689   5.677  13.215  1.00  0.00    -0.024 C 
HETATM   33  C11 UNL     1      -7.468   6.191  14.440  1.00  0.00    -0.091 C 
HETATM   34  C12 UNL     1      -6.841   7.553  14.597  1.00  0.00     0.042 C 
HETATM   35  C13 UNL     1      -7.798   5.509  15.741  1.00  0.00     0.042 C 
ENDBRANCH  31  32
ENDBRANCH  30  31
ENDBRANCH  28  30
ENDBRANCH  26  27
ENDBRANCH  23  25
ENDBRANCH   1  23
BRANCH   7  36
HETATM   36  C25 UNL     1       4.361   6.334  10.977  1.00  0.00     0.265 C 
HETATM   37  O2  UNL     1       5.304   5.862  10.352  1.00  0.00    -0.302 OA
ENDBRANCH   7  36
TORSDOF 13
ENDMDL
MODEL 2
REMARK minimizedAffinity -8.37528324
REMARK  13 active torsions:
REMARK  status: ('A' for Active; 'I' for Inactive)
REMARK    1  A    between atoms: C2_2  and  C3_3 
REMARK    2  A    between atoms: C2_2  and  C14_14 
REMARK    3  A    between atoms: C4_4  and  C5_5 
REMARK    4  A    between atoms: C6_6  and  C8_8 
REMARK    5  A    between atoms: C8_8  and  C9_9 
REMARK    6  A    between atoms: C9_9  and  C10_10 
REMARK    7  A    between atoms: C18_18  and  C19_19 
REMARK    8  A    between atoms: C19_19  and  C20_20 
REMARK    9  A    between atoms: C20_20  and  C21_21 
REMARK   10  A    between atoms: C21_21  and  O1_22 
REMARK   11  A    between atoms: C23_24  and  C25_26 
REMARK   12  A    between atoms: C28_30  and  O3_32 
REMARK   13  A    between atoms: C30_33  and  O4_34 
ROOT
HETATM    1  C14 UNL     1      -0.688   6.244  11.699  1.00  0.00     0.047 C 
HETATM    2  C15 UNL     1      -1.157   7.626  12.183  1.00  0.00     0.013 C 
HETATM    3  C16 UNL     1      -0.033   8.563  11.781  1.00  0.00     0.017 C 
HETATM    4  C17 UNL     1       1.299   7.759  11.967  1.00  0.00     0.024 C 
HETATM    5  C18 UNL     1       2.188   8.004  10.657  1.00  0.00     0.029 C 
HETATM    6  C22 UNL     1       3.697   7.947  10.955  1.00  0.00    -0.066 C 
HETATM    7  C23 UNL     1       4.628   7.010  10.661  1.00  0.00    -0.021 C 
HETATM    8  C24 UNL     1       6.118   7.179  10.815  1.00  0.00     0.052 C 
HETATM    9  C26 UNL     1       4.090   9.160  11.800  1.00  0.00     0.038 C 
HETATM   10  C27 UNL     1       3.014   9.505  12.851  1.00  0.00     0.042 C 
HETATM   11  C28 UNL     1       2.126   8.295  13.236  1.00  0.00     0.065 C 
HETATM   12  C29 UNL     1       1.275   8.686  14.459  1.00  0.00     0.047 C 
HETATM   13  C30 UNL     1       0.804   6.270  12.134  1.00  0.00     0.138 C 
ENDROOT
BRANCH   5  14
HETATM   14  C19 UNL     1       1.664   7.637   9.232  1.00  0.00     0.012 C 
BRANCH  14  15
HETATM   15  C20 UNL     1       2.377   8.067   7.955  1.00  0.00     0.027 C 
BRANCH  15  16
HETATM   16  C21 UNL     1       1.867   7.310   6.728  1.00  0.00     0.164 C 
BRANCH  16  17
HETATM   17  O1  UNL     1       2.409   5.999   6.677  1.00  0.00    -0.401 OA
HETATM   18  H32 UNL     1       2.063   5.508   7.444  1.00  0.00     0.209 HD
ENDBRANCH  16  17
ENDBRANCH  15  16
ENDBRANCH  14  15
ENDBRANCH   5  14
BRANCH  11  19
HETATM   19  O3  UNL     1       3.009   7.242  13.689  1.00  0.00    -0.389 OA
HETATM   20  H44 UNL     1       3.549   7.602  14.418  1.00  0.00     0.210 HD
ENDBRANCH  11  19
BRANCH  13  21
HETATM   21  O4  UNL     1       0.895   5.809  13.484  1.00  0.00    -0.394 OA
HETATM   22  H46 UNL     1       1.829   5.946  13.747  1.00  0.00     0.210 HD
ENDBRANCH  13  21
BRANCH   1  23
HETATM   23  C2  UNL     1      -1.547   5.062  12.171  1.00  0.00    -0.061 C 
HETATM   24  C1  UNL     1      -1.073   3.805  12.255  1.00  0.00     0.019 C 
BRANCH  23  25
HETATM   25  C3  UNL     1      -2.937   5.256  12.592  1.00  0.00     0.007 C 
HETATM   26  C4  UNL     1      -3.413   5.493  13.824  1.00  0.00     0.001 C 
BRANCH  26  27
HETATM   27  C5  UNL     1      -4.831   5.630  14.090  1.00  0.00     0.002 C 
HETATM   28  C6  UNL     1      -5.613   6.703  13.850  1.00  0.00    -0.084 C 
HETATM   29  C7  UNL     1      -5.177   7.993  13.214  1.00  0.00     0.043 C 
BRANCH  28  30
HETATM   30  C8  UNL     1      -7.081   6.651  14.239  1.00  0.00     0.037 C 
BRANCH  30  31
HETATM   31  C9  UNL     1      -7.940   6.018  13.137  1.00  0.00     0.031 C 
BRANCH  31  32
HETATM   32  C10 UNL     1      -8.031   4.523  13.299  1.00  0.00    -0.024 C 
HETATM   33  C11 UNL     1      -7.342   3.575  12.637  1.00  0.00    -0.091 C 
HETATM   34  C12 UNL     1      -7.578   2.114  12.925  1.00  0.00     0.042 C 
HETATM   35  C13 UNL     1      -6.300   3.835  11.582  1.00  0.00     0.042 C 
ENDBRANCH  31  32
ENDBRANCH  30  31
ENDBRANCH  28  30
ENDBRANCH  26  27
ENDBRANCH  23  25
ENDBRANCH   1  23
BRANCH   7  36
HETATM   36  C25 UNL     1       4.265   5.635  10.230  1.00  0.00     0.265 C 
HETATM   37  O2  UNL     1       4.074   5.325   9.060  1.00  0.00    -0.302 OA
ENDBRANCH   7  36
TORSDOF 13
ENDMDL
MODEL 3
REMARK minimizedAffinity -8.10913849
REMARK  13 active torsions:
REMARK  status: ('A' for Active; 'I' for Inactive)
REMARK    1  A    between atoms: C2_2  and  C3_3 
REMARK    2  A    between atoms: C2_2  and  C14_14 
REMARK    3  A    between atoms: C4_4  and  C5_5 
REMARK    4  A    between atoms: C6_6  and  C8_8 
REMARK    5  A    between atoms: C8_8  and  C9_9 
REMARK    6  A    between atoms: C9_9  and  C10_10 
REMARK    7  A    between atoms: C18_18  and  C19_19 
REMARK    8  A    between atoms: C19_19  and  C20_20 
REMARK    9  A    between atoms: C20_20  and  C21_21 
REMARK   10  A    between atoms: C21_21  and  O1_22 
REMARK   11  A    between atoms: C23_24  and  C25_26 
REMARK   12  A    between atoms: C28_30  and  O3_32 
REMARK   13  A    between atoms: C30_33  and  O4_34 
ROOT
HETATM    1  C14 UNL     1      -1.731   7.623  13.964  1.00  0.00     0.047 C 
HETATM    2  C15 UNL     1      -1.365   8.925  14.694  1.00  0.00     0.013 C 
HETATM    3  C16 UNL     1      -0.115   9.413  13.984  1.00  0.00     0.017 C 
HETATM    4  C17 UNL     1       0.704   8.132  13.604  1.00  0.00     0.024 C 
HETATM    5  C18 UNL     1       1.177   8.306  12.083  1.00  0.00     0.029 C 
HETATM    6  C22 UNL     1       2.513   7.596  11.801  1.00  0.00    -0.066 C 
HETATM    7  C23 UNL     1       2.792   6.465  11.113  1.00  0.00    -0.021 C 
HETATM    8  C24 UNL     1       4.171   5.996  10.723  1.00  0.00     0.052 C 
HETATM    9  C26 UNL     1       3.637   8.327  12.538  1.00  0.00     0.038 C 
HETATM   10  C27 UNL     1       3.193   8.812  13.934  1.00  0.00     0.042 C 
HETATM   11  C28 UNL     1       2.016   7.992  14.520  1.00  0.00     0.065 C 
HETATM   12  C29 UNL     1       1.834   8.391  15.997  1.00  0.00     0.047 C 
HETATM   13  C30 UNL     1      -0.332   6.962  13.822  1.00  0.00     0.138 C 
ENDROOT
BRANCH   5  14
HETATM   14  C19 UNL     1       0.149   8.514  10.925  1.00  0.00     0.012 C 
BRANCH  14  15
HETATM   15  C20 UNL     1       0.138   7.652   9.668  1.00  0.00     0.027 C 
BRANCH  15  16
HETATM   16  C21 UNL     1       0.582   8.432   8.431  1.00  0.00     0.164 C 
BRANCH  16  17
HETATM   17  O1  UNL     1       1.997   8.439   8.315  1.00  0.00    -0.401 OA
HETATM   18  H32 UNL     1       2.284   7.521   8.156  1.00  0.00     0.209 HD
ENDBRANCH  16  17
ENDBRANCH  15  16
ENDBRANCH  14  15
ENDBRANCH   5  14
BRANCH  11  19
HETATM   19  O3  UNL     1       2.424   6.605  14.532  1.00  0.00    -0.389 OA
HETATM   20  H44 UNL     1       3.256   6.545  15.039  1.00  0.00     0.210 HD
ENDBRANCH  11  19
BRANCH  13  21
HETATM   21  O4  UNL     1      -0.062   6.203  15.003  1.00  0.00    -0.394 OA
HETATM   22  H46 UNL     1       0.865   5.899  14.915  1.00  0.00     0.210 HD
ENDBRANCH  13  21
BRANCH   1  23
HETATM   23  C2  UNL     1      -2.846   6.798  14.621  1.00  0.00    -0.061 C 
HETATM   24  C1  UNL     1      -3.073   6.807  15.948  1.00  0.00     0.019 C 
BRANCH  23  25
HETATM   25  C3  UNL     1      -3.753   5.974  13.818  1.00  0.00     0.007 C 
HETATM   26  C4  UNL     1      -3.459   5.171  12.783  1.00  0.00     0.001 C 
BRANCH  26  27
HETATM   27  C5  UNL     1      -4.481   4.441  12.060  1.00  0.00     0.002 C 
HETATM   28  C6  UNL     1      -4.458   3.144  11.690  1.00  0.00    -0.084 C 
HETATM   29  C7  UNL     1      -3.365   2.157  11.985  1.00  0.00     0.043 C 
BRANCH  28  30
HETATM   30  C8  UNL     1      -5.628   2.578  10.901  1.00  0.00     0.037 C 
BRANCH  30  31
HETATM   31  C9  UNL     1      -6.736   2.052  11.822  1.00  0.00     0.031 C 
BRANCH  31  32
HETATM   32  C10 UNL     1      -6.785   2.818  13.118  1.00  0.00    -0.024 C 
HETATM   33  C11 UNL     1      -7.501   3.923  13.401  1.00  0.00    -0.091 C 
HETATM   34  C12 UNL     1      -7.412   4.567  14.762  1.00  0.00     0.042 C 
HETATM   35  C13 UNL     1      -8.435   4.620  12.448  1.00  0.00     0.042 C 
ENDBRANCH  31  32
ENDBRANCH  30  31
ENDBRANCH  28  30
ENDBRANCH  26  27
ENDBRANCH  23  25
ENDBRANCH   1  23
BRANCH   7  36
HETATM   36  C25 UNL     1       1.743   5.482  10.737  1.00  0.00     0.265 C 
HETATM   37  O2  UNL     1       1.937   4.273  10.699  1.00  0.00    -0.302 OA
ENDBRANCH   7  36
TORSDOF 13
ENDMDL
MODEL 4
REMARK minimizedAffinity -8.09047699
REMARK  13 active torsions:
REMARK  status: ('A' for Active; 'I' for Inactive)
REMARK    1  A    between atoms: C2_2  and  C3_3 
REMARK    2  A    between atoms: C2_2  and  C14_14 
REMARK    3  A    between atoms: C4_4  and  C5_5 
REMARK    4  A    between atoms: C6_6  and  C8_8 
REMARK    5  A    between atoms: C8_8  and  C9_9 
REMARK    6  A    between atoms: C9_9  and  C10_10 
REMARK    7  A    between atoms: C18_18  and  C19_19 
REMARK    8  A    between atoms: C19_19  and  C20_20 
REMARK    9  A    between atoms: C20_20  and  C21_21 
REMARK   10  A    between atoms: C21_21  and  O1_22 
REMARK   11  A    between atoms: C23_24  and  C25_26 
REMARK   12  A    between atoms: C28_30  and  O3_32 
REMARK   13  A    between atoms: C30_33  and  O4_34 
ROOT
HETATM    1  C14 UNL     1      -1.576   9.852  16.081  1.00  0.00     0.047 C 
HETATM    2  C15 UNL     1      -0.284  10.263  15.356  1.00  0.00     0.013 C 
HETATM    3  C16 UNL     1      -0.326   9.486  14.052  1.00  0.00     0.017 C 
HETATM    4  C17 UNL     1      -0.972   8.098  14.385  1.00  0.00     0.024 C 
HETATM    5  C18 UNL     1      -2.064   7.799  13.252  1.00  0.00     0.029 C 
HETATM    6  C22 UNL     1      -2.232   6.292  12.986  1.00  0.00    -0.066 C 
HETATM    7  C23 UNL     1      -3.231   5.438  13.307  1.00  0.00    -0.021 C 
HETATM    8  C24 UNL     1      -3.375   4.028  12.791  1.00  0.00     0.052 C 
HETATM    9  C26 UNL     1      -0.967   5.755  12.315  1.00  0.00     0.038 C 
HETATM   10  C27 UNL     1       0.311   6.392  12.899  1.00  0.00     0.042 C 
HETATM   11  C28 UNL     1       0.125   6.925  14.342  1.00  0.00     0.065 C 
HETATM   12  C29 UNL     1       1.509   7.296  14.907  1.00  0.00     0.047 C 
HETATM   13  C30 UNL     1      -1.585   8.320  15.822  1.00  0.00     0.138 C 
ENDROOT
BRANCH   5  14
HETATM   14  C19 UNL     1      -3.257   8.772  12.988  1.00  0.00     0.012 C 
BRANCH  14  15
HETATM   15  C20 UNL     1      -4.668   8.504  13.498  1.00  0.00     0.027 C 
BRANCH  15  16
HETATM   16  C21 UNL     1      -4.962   9.252  14.798  1.00  0.00     0.164 C 
BRANCH  16  17
HETATM   17  O1  UNL     1      -6.355   9.266  15.073  1.00  0.00    -0.401 OA
HETATM   18  H32 UNL     1      -6.631   8.346  15.239  1.00  0.00     0.209 HD
ENDBRANCH  16  17
ENDBRANCH  15  16
ENDBRANCH  14  15
ENDBRANCH   5  14
BRANCH  11  19
HETATM   19  O3  UNL     1      -0.349   5.821  15.149  1.00  0.00    -0.389 OA
HETATM   20  H44 UNL     1       0.295   5.093  15.062  1.00  0.00     0.210 HD
ENDBRANCH  11  19
BRANCH  13  21
HETATM   21  O4  UNL     1      -0.827   7.678  16.849  1.00  0.00    -0.394 OA
HETATM   22  H46 UNL     1      -0.769   6.736  16.585  1.00  0.00     0.210 HD
ENDBRANCH  13  21
BRANCH   1  23
HETATM   23  C2  UNL     1      -1.687  10.330  17.536  1.00  0.00    -0.061 C 
HETATM   24  C1  UNL     1      -2.808  10.183  18.267  1.00  0.00     0.019 C 
BRANCH  23  25
HETATM   25  C3  UNL     1      -0.547  10.946  18.220  1.00  0.00     0.007 C 
HETATM   26  C4  UNL     1      -0.130  10.764  19.482  1.00  0.00     0.001 C 
BRANCH  26  27
HETATM   27  C5  UNL     1       1.005  11.479  20.030  1.00  0.00     0.002 C 
HETATM   28  C6  UNL     1       1.907  11.028  20.926  1.00  0.00    -0.084 C 
HETATM   29  C7  UNL     1       1.945   9.652  21.530  1.00  0.00     0.043 C 
BRANCH  28  30
HETATM   30  C8  UNL     1       3.011  11.959  21.399  1.00  0.00     0.037 C 
BRANCH  30  31
HETATM   31  C9  UNL     1       3.472  11.620  22.823  1.00  0.00     0.031 C 
BRANCH  31  32
HETATM   32  C10 UNL     1       4.970  11.494  22.901  1.00  0.00    -0.024 C 
HETATM   33  C11 UNL     1       5.883  12.482  22.965  1.00  0.00    -0.091 C 
HETATM   34  C12 UNL     1       7.355  12.163  23.024  1.00  0.00     0.042 C 
HETATM   35  C13 UNL     1       5.569  13.954  22.987  1.00  0.00     0.042 C 
ENDBRANCH  31  32
ENDBRANCH  30  31
ENDBRANCH  28  30
ENDBRANCH  26  27
ENDBRANCH  23  25
ENDBRANCH   1  23
BRANCH   7  36
HETATM   36  C25 UNL     1      -4.275   5.774  14.308  1.00  0.00     0.265 C 
HETATM   37  O2  UNL     1      -4.050   5.869  15.509  1.00  0.00    -0.302 OA
ENDBRANCH   7  36
TORSDOF 13
ENDMDL
MODEL 5
REMARK minimizedAffinity -7.95378733
REMARK  13 active torsions:
REMARK  status: ('A' for Active; 'I' for Inactive)
REMARK    1  A    between atoms: C2_2  and  C3_3 
REMARK    2  A    between atoms: C2_2  and  C14_14 
REMARK    3  A    between atoms: C4_4  and  C5_5 
REMARK    4  A    between atoms: C6_6  and  C8_8 
REMARK    5  A    between atoms: C8_8  and  C9_9 
REMARK    6  A    between atoms: C9_9  and  C10_10 
REMARK    7  A    between atoms: C18_18  and  C19_19 
REMARK    8  A    between atoms: C19_19  and  C20_20 
REMARK    9  A    between atoms: C20_20  and  C21_21 
REMARK   10  A    between atoms: C21_21  and  O1_22 
REMARK   11  A    between atoms: C23_24  and  C25_26 
REMARK   12  A    between atoms: C28_30  and  O3_32 
REMARK   13  A    between atoms: C30_33  and  O4_34 
ROOT
HETATM    1  C14 UNL     1      -0.437  10.367  17.593  1.00  0.00     0.047 C 
HETATM    2  C15 UNL     1      -1.868   9.850  17.813  1.00  0.00     0.013 C 
HETATM    3  C16 UNL     1      -2.077   8.845  16.695  1.00  0.00     0.017 C 
HETATM    4  C17 UNL     1      -1.325   9.413  15.444  1.00  0.00     0.024 C 
HETATM    5  C18 UNL     1      -0.490   8.205  14.803  1.00  0.00     0.029 C 
HETATM    6  C22 UNL     1      -0.327   8.350  13.279  1.00  0.00    -0.066 C 
HETATM    7  C23 UNL     1       0.747   8.679  12.526  1.00  0.00    -0.021 C 
HETATM    8  C24 UNL     1       0.829   8.569  11.024  1.00  0.00     0.052 C 
HETATM    9  C26 UNL     1      -1.687   8.148  12.607  1.00  0.00     0.038 C 
HETATM   10  C27 UNL     1      -2.833   8.787  13.419  1.00  0.00     0.042 C 
HETATM   11  C28 UNL     1      -2.362   9.942  14.337  1.00  0.00     0.065 C 
HETATM   12  C29 UNL     1      -3.607  10.661  14.891  1.00  0.00     0.047 C 
HETATM   13  C30 UNL     1      -0.428  10.560  16.051  1.00  0.00     0.138 C 
ENDROOT
BRANCH   5  14
HETATM   14  C19 UNL     1       0.584   7.425  15.627  1.00  0.00     0.012 C 
BRANCH  14  15
HETATM   15  C20 UNL     1       1.766   8.112  16.301  1.00  0.00     0.027 C 
BRANCH  15  16
HETATM   16  C21 UNL     1       3.097   7.740  15.646  1.00  0.00     0.164 C 
BRANCH  16  17
HETATM   17  O1  UNL     1       3.471   6.411  15.976  1.00  0.00    -0.401 OA
HETATM   18  H32 UNL     1       2.814   5.812  15.578  1.00  0.00     0.209 HD
ENDBRANCH  16  17
ENDBRANCH  15  16
ENDBRANCH  14  15
ENDBRANCH   5  14
BRANCH  11  19
HETATM   19  O3  UNL     1      -1.688  10.909  13.498  1.00  0.00    -0.389 OA
HETATM   20  H44 UNL     1      -2.309  11.174  12.793  1.00  0.00     0.210 HD
ENDBRANCH  11  19
BRANCH  13  21
HETATM   21  O4  UNL     1      -0.927  11.865  15.750  1.00  0.00    -0.394 OA
HETATM   22  H46 UNL     1      -1.004  11.899  14.773  1.00  0.00     0.210 HD
ENDBRANCH  13  21
BRANCH   1  23
HETATM   23  C2  UNL     1      -0.036  11.566  18.464  1.00  0.00    -0.061 C 
HETATM   24  C1  UNL     1      -0.672  12.751  18.409  1.00  0.00     0.019 C 
BRANCH  23  25
HETATM   25  C3  UNL     1       1.054  11.464  19.437  1.00  0.00     0.007 C 
HETATM   26  C4  UNL     1       1.154  10.650  20.499  1.00  0.00     0.001 C 
BRANCH  26  27
HETATM   27  C5  UNL     1       2.291  10.691  21.398  1.00  0.00     0.002 C 
HETATM   28  C6  UNL     1       2.704   9.727  22.246  1.00  0.00    -0.084 C 
HETATM   29  C7  UNL     1       2.083   8.369  22.415  1.00  0.00     0.043 C 
BRANCH  28  30
HETATM   30  C8  UNL     1       3.910   9.988  23.133  1.00  0.00     0.037 C 
BRANCH  30  31
HETATM   31  C9  UNL     1       4.505  11.382  22.890  1.00  0.00     0.031 C 
BRANCH  31  32
HETATM   32  C10 UNL     1       6.008  11.363  22.987  1.00  0.00    -0.024 C 
HETATM   33  C11 UNL     1       6.847  12.415  23.048  1.00  0.00    -0.091 C 
HETATM   34  C12 UNL     1       8.337  12.202  23.128  1.00  0.00     0.042 C 
HETATM   35  C13 UNL     1       6.428  13.861  23.048  1.00  0.00     0.042 C 
ENDBRANCH  31  32
ENDBRANCH  30  31
ENDBRANCH  28  30
ENDBRANCH  26  27
ENDBRANCH  23  25
ENDBRANCH   1  23
BRANCH   7  36
HETATM   36  C25 UNL     1       1.968   9.295  13.106  1.00  0.00     0.265 C 
HETATM   37  O2  UNL     1       2.980   9.525  12.455  1.00  0.00    -0.302 OA
ENDBRANCH   7  36
TORSDOF 13
ENDMDL
MODEL 6
REMARK minimizedAffinity -7.84657145
REMARK  13 active torsions:
REMARK  status: ('A' for Active; 'I' for Inactive)
REMARK    1  A    between atoms: C2_2  and  C3_3 
REMARK    2  A    between atoms: C2_2  and  C14_14 
REMARK    3  A    between atoms: C4_4  and  C5_5 
REMARK    4  A    between atoms: C6_6  and  C8_8 
REMARK    5  A    between atoms: C8_8  and  C9_9 
REMARK    6  A    between atoms: C9_9  and  C10_10 
REMARK    7  A    between atoms: C18_18  and  C19_19 
REMARK    8  A    between atoms: C19_19  and  C20_20 
REMARK    9  A    between atoms: C20_20  and  C21_21 
REMARK   10  A    between atoms: C21_21  and  O1_22 
REMARK   11  A    between atoms: C23_24  and  C25_26 
REMARK   12  A    between atoms: C28_30  and  O3_32 
REMARK   13  A    between atoms: C30_33  and  O4_34 
ROOT
HETATM    1  C14 UNL     1      -0.976   9.559  15.586  1.00  0.00     0.047 C 
HETATM    2  C15 UNL     1       0.216   9.804  14.647  1.00  0.00     0.013 C 
HETATM    3  C16 UNL     1      -0.121   9.004  13.402  1.00  0.00     0.017 C 
HETATM    4  C17 UNL     1      -0.848   7.706  13.894  1.00  0.00     0.024 C 
HETATM    5  C18 UNL     1      -2.136   7.501  12.963  1.00  0.00     0.029 C 
HETATM    6  C22 UNL     1      -2.504   6.017  12.792  1.00  0.00    -0.066 C 
HETATM    7  C23 UNL     1      -3.522   5.288  13.306  1.00  0.00    -0.021 C 
HETATM    8  C24 UNL     1      -3.898   3.891  12.881  1.00  0.00     0.052 C 
HETATM    9  C26 UNL     1      -1.430   5.324  11.952  1.00  0.00     0.038 C 
HETATM   10  C27 UNL     1      -0.013   5.829  12.297  1.00  0.00     0.042 C 
HETATM   11  C28 UNL     1       0.096   6.416  13.726  1.00  0.00     0.065 C 
HETATM   12  C29 UNL     1       1.586   6.645  14.046  1.00  0.00     0.047 C 
HETATM   13  C30 UNL     1      -1.191   8.031  15.399  1.00  0.00     0.138 C 
ENDROOT
BRANCH   5  14
HETATM   14  C19 UNL     1      -3.246   8.595  12.851  1.00  0.00     0.012 C 
BRANCH  14  15
HETATM   15  C20 UNL     1      -4.496   8.593  13.723  1.00  0.00     0.027 C 
BRANCH  15  16
HETATM   16  C21 UNL     1      -4.389   9.583  14.884  1.00  0.00     0.164 C 
BRANCH  16  17
HETATM   17  O1  UNL     1      -4.695   8.953  16.119  1.00  0.00    -0.401 OA
HETATM   18  H32 UNL     1      -4.005   8.285  16.287  1.00  0.00     0.209 HD
ENDBRANCH  16  17
ENDBRANCH  15  16
ENDBRANCH  14  15
ENDBRANCH   5  14
BRANCH  11  19
HETATM   19  O3  UNL     1      -0.353   5.394  14.645  1.00  0.00    -0.389 OA
HETATM   20  H44 UNL     1       0.187   4.596  14.488  1.00  0.00     0.210 HD
ENDBRANCH  11  19
BRANCH  13  21
HETATM   21  O4  UNL     1      -0.347   7.335  16.318  1.00  0.00    -0.394 OA
HETATM   22  H46 UNL     1      -0.434   6.386  16.089  1.00  0.00     0.210 HD
ENDBRANCH  13  21
BRANCH   1  23
HETATM   23  C2  UNL     1      -0.796  10.083  17.018  1.00  0.00    -0.061 C 
HETATM   24  C1  UNL     1      -1.835  10.348  17.832  1.00  0.00     0.019 C 
BRANCH  23  25
HETATM   25  C3  UNL     1       0.538  10.290  17.587  1.00  0.00     0.007 C 
HETATM   26  C4  UNL     1       0.867  10.759  18.801  1.00  0.00     0.001 C 
BRANCH  26  27
HETATM   27  C5  UNL     1       2.246  10.940  19.209  1.00  0.00     0.002 C 
HETATM   28  C6  UNL     1       2.721  11.784  20.148  1.00  0.00    -0.084 C 
HETATM   29  C7  UNL     1       1.903  12.705  21.008  1.00  0.00     0.043 C 
BRANCH  28  30
HETATM   30  C8  UNL     1       4.219  11.844  20.399  1.00  0.00     0.037 C 
BRANCH  30  31
HETATM   31  C9  UNL     1       4.625  11.007  21.619  1.00  0.00     0.031 C 
BRANCH  31  32
HETATM   32  C10 UNL     1       3.777   9.769  21.746  1.00  0.00    -0.024 C 
HETATM   33  C11 UNL     1       3.041   9.373  22.802  1.00  0.00    -0.091 C 
HETATM   34  C12 UNL     1       2.260   8.084  22.751  1.00  0.00     0.042 C 
HETATM   35  C13 UNL     1       2.907  10.126  24.098  1.00  0.00     0.042 C 
ENDBRANCH  31  32
ENDBRANCH  30  31
ENDBRANCH  28  30
ENDBRANCH  26  27
ENDBRANCH  23  25
ENDBRANCH   1  23
BRANCH   7  36
HETATM   36  C25 UNL     1      -4.347   5.764  14.445  1.00  0.00     0.265 C 
HETATM   37  O2  UNL     1      -5.569   5.676  14.475  1.00  0.00    -0.302 OA
ENDBRANCH   7  36
TORSDOF 13
ENDMDL
MODEL 7
REMARK minimizedAffinity -7.84014511
REMARK  13 active torsions:
REMARK  status: ('A' for Active; 'I' for Inactive)
REMARK    1  A    between atoms: C2_2  and  C3_3 
REMARK    2  A    between atoms: C2_2  and  C14_14 
REMARK    3  A    between atoms: C4_4  and  C5_5 
REMARK    4  A    between atoms: C6_6  and  C8_8 
REMARK    5  A    between atoms: C8_8  and  C9_9 
REMARK    6  A    between atoms: C9_9  and  C10_10 
REMARK    7  A    between atoms: C18_18  and  C19_19 
REMARK    8  A    between atoms: C19_19  and  C20_20 
REMARK    9  A    between atoms: C20_20  and  C21_21 
REMARK   10  A    between atoms: C21_21  and  O1_22 
REMARK   11  A    between atoms: C23_24  and  C25_26 
REMARK   12  A    between atoms: C28_30  and  O3_32 
REMARK   13  A    between atoms: C30_33  and  O4_34 
ROOT
HETATM    1  C14 UNL     1      -1.076   7.935  13.669  1.00  0.00     0.047 C 
HETATM    2  C15 UNL     1      -0.403   6.856  14.532  1.00  0.00     0.013 C 
HETATM    3  C16 UNL     1       0.853   6.492  13.761  1.00  0.00     0.017 C 
HETATM    4  C17 UNL     1       0.475   6.566  12.242  1.00  0.00     0.024 C 
HETATM    5  C18 UNL     1       1.650   7.364  11.500  1.00  0.00     0.029 C 
HETATM    6  C22 UNL     1       1.835   6.909  10.042  1.00  0.00    -0.066 C 
HETATM    7  C23 UNL     1       1.521   7.513   8.873  1.00  0.00    -0.021 C 
HETATM    8  C24 UNL     1       1.960   7.055   7.505  1.00  0.00     0.052 C 
HETATM    9  C26 UNL     1       2.400   5.486  10.026  1.00  0.00     0.038 C 
HETATM   10  C27 UNL     1       1.782   4.608  11.135  1.00  0.00     0.042 C 
HETATM   11  C28 UNL     1       0.386   5.098  11.596  1.00  0.00     0.065 C 
HETATM   12  C29 UNL     1      -0.233   4.016  12.502  1.00  0.00     0.047 C 
HETATM   13  C30 UNL     1      -0.908   7.324  12.250  1.00  0.00     0.138 C 
ENDROOT
BRANCH   5  14
HETATM   14  C19 UNL     1       2.039   8.820  11.914  1.00  0.00     0.012 C 
BRANCH  14  15
HETATM   15  C20 UNL     1       3.439   9.196  12.385  1.00  0.00     0.027 C 
BRANCH  15  16
HETATM   16  C21 UNL     1       4.309   7.965  12.643  1.00  0.00     0.164 C 
BRANCH  16  17
HETATM   17  O1  UNL     1       4.220   7.555  14.000  1.00  0.00    -0.401 OA
HETATM   18  H32 UNL     1       3.305   7.260  14.158  1.00  0.00     0.209 HD
ENDBRANCH  16  17
ENDBRANCH  15  16
ENDBRANCH  14  15
ENDBRANCH   5  14
BRANCH  11  19
HETATM   19  O3  UNL     1      -0.456   5.161  10.422  1.00  0.00    -0.389 OA
HETATM   20  H44 UNL     1      -0.449   4.279  10.005  1.00  0.00     0.210 HD
ENDBRANCH  11  19
BRANCH  13  21
HETATM   21  O4  UNL     1      -2.013   6.455  11.993  1.00  0.00    -0.394 OA
HETATM   22  H46 UNL     1      -1.809   6.014  11.142  1.00  0.00     0.210 HD
ENDBRANCH  13  21
BRANCH   1  23
HETATM   23  C2  UNL     1      -2.491   8.335  14.110  1.00  0.00    -0.061 C 
HETATM   24  C1  UNL     1      -2.746   9.456  14.809  1.00  0.00     0.019 C 
BRANCH  23  25
HETATM   25  C3  UNL     1      -3.654   7.518  13.754  1.00  0.00     0.007 C 
HETATM   26  C4  UNL     1      -4.283   6.590  14.493  1.00  0.00     0.001 C 
BRANCH  26  27
HETATM   27  C5  UNL     1      -5.410   5.834  13.984  1.00  0.00     0.002 C 
HETATM   28  C6  UNL     1      -6.540   5.500  14.640  1.00  0.00    -0.084 C 
HETATM   29  C7  UNL     1      -6.891   5.879  16.051  1.00  0.00     0.043 C 
BRANCH  28  30
HETATM   30  C8  UNL     1      -7.591   4.665  13.927  1.00  0.00     0.037 C 
BRANCH  30  31
HETATM   31  C9  UNL     1      -6.999   3.370  13.357  1.00  0.00     0.031 C 
BRANCH  31  32
HETATM   32  C10 UNL     1      -6.310   3.612  12.039  1.00  0.00    -0.024 C 
HETATM   33  C11 UNL     1      -5.884   2.698  11.147  1.00  0.00    -0.091 C 
HETATM   34  C12 UNL     1      -5.195   3.130   9.877  1.00  0.00     0.042 C 
HETATM   35  C13 UNL     1      -6.033   1.207  11.292  1.00  0.00     0.042 C 
ENDBRANCH  31  32
ENDBRANCH  30  31
ENDBRANCH  28  30
ENDBRANCH  26  27
ENDBRANCH  23  25
ENDBRANCH   1  23
BRANCH   7  36
HETATM   36  C25 UNL     1       0.603   8.679   8.802  1.00  0.00     0.265 C 
HETATM   37  O2  UNL     1      -0.562   8.596   8.430  1.00  0.00    -0.302 OA
ENDBRANCH   7  36
TORSDOF 13
ENDMDL
MODEL 8
REMARK minimizedAffinity -7.81585598
REMARK  13 active torsions:
REMARK  status: ('A' for Active; 'I' for Inactive)
REMARK    1  A    between atoms: C2_2  and  C3_3 
REMARK    2  A    between atoms: C2_2  and  C14_14 
REMARK    3  A    between atoms: C4_4  and  C5_5 
REMARK    4  A    between atoms: C6_6  and  C8_8 
REMARK    5  A    between atoms: C8_8  and  C9_9 
REMARK    6  A    between atoms: C9_9  and  C10_10 
REMARK    7  A    between atoms: C18_18  and  C19_19 
REMARK    8  A    between atoms: C19_19  and  C20_20 
REMARK    9  A    between atoms: C20_20  and  C21_21 
REMARK   10  A    between atoms: C21_21  and  O1_22 
REMARK   11  A    between atoms: C23_24  and  C25_26 
REMARK   12  A    between atoms: C28_30  and  O3_32 
REMARK   13  A    between atoms: C30_33  and  O4_34 
ROOT
HETATM    1  C14 UNL     1      -4.058   7.002  13.101  1.00  0.00     0.047 C 
HETATM    2  C15 UNL     1      -4.574   8.415  13.418  1.00  0.00     0.013 C 
HETATM    3  C16 UNL     1      -3.316   9.258  13.516  1.00  0.00     0.017 C 
HETATM    4  C17 UNL     1      -2.223   8.345  14.171  1.00  0.00     0.024 C 
HETATM    5  C18 UNL     1      -0.880   8.524  13.316  1.00  0.00     0.029 C 
HETATM    6  C22 UNL     1       0.386   8.341  14.170  1.00  0.00    -0.066 C 
HETATM    7  C23 UNL     1       1.286   7.332  14.224  1.00  0.00    -0.021 C 
HETATM    8  C24 UNL     1       2.608   7.376  14.947  1.00  0.00     0.052 C 
HETATM    9  C26 UNL     1       0.509   9.513  15.146  1.00  0.00     0.038 C 
HETATM   10  C27 UNL     1      -0.861   9.939  15.712  1.00  0.00     0.042 C 
HETATM   11  C28 UNL     1      -1.916   8.804  15.680  1.00  0.00     0.065 C 
HETATM   12  C29 UNL     1      -3.143   9.257  16.493  1.00  0.00     0.047 C 
HETATM   13  C30 UNL     1      -2.854   6.902  14.079  1.00  0.00     0.138 C 
ENDROOT
BRANCH   5  14
HETATM   14  C19 UNL     1      -0.837   8.210  11.786  1.00  0.00     0.012 C 
BRANCH  14  15
HETATM   15  C20 UNL     1       0.352   8.573  10.903  1.00  0.00     0.027 C 
BRANCH  15  16
HETATM   16  C21 UNL     1       0.147   8.134   9.453  1.00  0.00     0.164 C 
BRANCH  16  17
HETATM   17  O1  UNL     1      -0.425   9.179   8.681  1.00  0.00    -0.401 OA
HETATM   18  H32 UNL     1       0.225   9.904   8.640  1.00  0.00     0.209 HD
ENDBRANCH  16  17
ENDBRANCH  15  16
ENDBRANCH  14  15
ENDBRANCH   5  14
BRANCH  11  19
HETATM   19  O3  UNL     1      -1.358   7.680  16.399  1.00  0.00    -0.389 OA
HETATM   20  H44 UNL     1      -1.118   7.990  17.293  1.00  0.00     0.210 HD
ENDBRANCH  11  19
BRANCH  13  21
HETATM   21  O4  UNL     1      -3.327   6.427  15.341  1.00  0.00    -0.394 OA
HETATM   22  H46 UNL     1      -2.560   6.485  15.949  1.00  0.00     0.210 HD
ENDBRANCH  13  21
BRANCH   1  23
HETATM   23  C2  UNL     1      -5.117   5.892  13.160  1.00  0.00    -0.061 C 
HETATM   24  C1  UNL     1      -4.808   4.585  13.072  1.00  0.00     0.019 C 
BRANCH  23  25
HETATM   25  C3  UNL     1      -6.535   6.208  13.354  1.00  0.00     0.007 C 
HETATM   26  C4  UNL     1      -7.605   5.433  13.117  1.00  0.00     0.001 C 
BRANCH  26  27
HETATM   27  C5  UNL     1      -8.959   5.904  13.329  1.00  0.00     0.002 C 
HETATM   28  C6  UNL     1      -9.395   6.753  14.283  1.00  0.00    -0.084 C 
HETATM   29  C7  UNL     1      -8.546   7.428  15.324  1.00  0.00     0.043 C 
BRANCH  28  30
HETATM   30  C8  UNL     1     -10.874   7.093  14.352  1.00  0.00     0.037 C 
BRANCH  30  31
HETATM   31  C9  UNL     1     -11.474   7.314  12.957  1.00  0.00     0.031 C 
BRANCH  31  32
HETATM   32  C10 UNL     1     -12.974   7.434  13.014  1.00  0.00    -0.024 C 
HETATM   33  C11 UNL     1     -13.724   8.537  12.835  1.00  0.00    -0.091 C 
HETATM   34  C12 UNL     1     -15.226   8.469  12.945  1.00  0.00     0.042 C 
HETATM   35  C13 UNL     1     -13.190   9.908  12.515  1.00  0.00     0.042 C 
ENDBRANCH  31  32
ENDBRANCH  30  31
ENDBRANCH  28  30
ENDBRANCH  26  27
ENDBRANCH  23  25
ENDBRANCH   1  23
BRANCH   7  36
HETATM   36  C25 UNL     1       1.018   5.994  13.635  1.00  0.00     0.265 C 
HETATM   37  O2  UNL     1       1.426   5.651  12.532  1.00  0.00    -0.302 OA
ENDBRANCH   7  36
TORSDOF 13
ENDMDL
MODEL 9
REMARK minimizedAffinity -7.76580191
REMARK  13 active torsions:
REMARK  status: ('A' for Active; 'I' for Inactive)
REMARK    1  A    between atoms: C2_2  and  C3_3 
REMARK    2  A    between atoms: C2_2  and  C14_14 
REMARK    3  A    between atoms: C4_4  and  C5_5 
REMARK    4  A    between atoms: C6_6  and  C8_8 
REMARK    5  A    between atoms: C8_8  and  C9_9 
REMARK    6  A    between atoms: C9_9  and  C10_10 
REMARK    7  A    between atoms: C18_18  and  C19_19 
REMARK    8  A    between atoms: C19_19  and  C20_20 
REMARK    9  A    between atoms: C20_20  and  C21_21 
REMARK   10  A    between atoms: C21_21  and  O1_22 
REMARK   11  A    between atoms: C23_24  and  C25_26 
REMARK   12  A    between atoms: C28_30  and  O3_32 
REMARK   13  A    between atoms: C30_33  and  O4_34 
ROOT
HETATM    1  C14 UNL     1       0.638  10.444  16.622  1.00  0.00     0.047 C 
HETATM    2  C15 UNL     1       1.799  11.236  15.999  1.00  0.00     0.013 C 
HETATM    3  C16 UNL     1       1.952  10.642  14.610  1.00  0.00     0.017 C 
HETATM    4  C17 UNL     1       1.654   9.110  14.750  1.00  0.00     0.024 C 
HETATM    5  C18 UNL     1       0.672   8.706  13.550  1.00  0.00     0.029 C 
HETATM    6  C22 UNL     1       0.871   7.248  13.098  1.00  0.00    -0.066 C 
HETATM    7  C23 UNL     1       0.104   6.148  13.278  1.00  0.00    -0.021 C 
HETATM    8  C24 UNL     1       0.304   4.821  12.591  1.00  0.00     0.052 C 
HETATM    9  C26 UNL     1       2.233   7.114  12.413  1.00  0.00     0.038 C 
HETATM   10  C27 UNL     1       3.317   7.957  13.116  1.00  0.00     0.042 C 
HETATM   11  C28 UNL     1       3.000   8.244  14.605  1.00  0.00     0.065 C 
HETATM   12  C29 UNL     1       4.252   8.859  15.260  1.00  0.00     0.047 C 
HETATM   13  C30 UNL     1       0.997   8.998  16.180  1.00  0.00     0.138 C 
ENDROOT
BRANCH   5  14
HETATM   14  C19 UNL     1      -0.717   9.394  13.363  1.00  0.00     0.012 C 
BRANCH  14  15
HETATM   15  C20 UNL     1      -1.777   8.865  12.403  1.00  0.00     0.027 C 
BRANCH  15  16
HETATM   16  C21 UNL     1      -3.157   8.787  13.056  1.00  0.00     0.164 C 
BRANCH  16  17
HETATM   17  O1  UNL     1      -3.783   7.544  12.774  1.00  0.00    -0.401 OA
HETATM   18  H32 UNL     1      -3.256   6.845  13.202  1.00  0.00     0.209 HD
ENDBRANCH  16  17
ENDBRANCH  15  16
ENDBRANCH  14  15
ENDBRANCH   5  14
BRANCH  11  19
HETATM   19  O3  UNL     1       2.799   6.968  15.255  1.00  0.00    -0.389 OA
HETATM   20  H44 UNL     1       3.599   6.430  15.104  1.00  0.00     0.210 HD
ENDBRANCH  11  19
BRANCH  13  21
HETATM   21  O4  UNL     1       1.881   8.429  17.148  1.00  0.00    -0.394 OA
HETATM   22  H46 UNL     1       2.164   7.569  16.775  1.00  0.00     0.210 HD
ENDBRANCH  13  21
BRANCH   1  23
HETATM   23  C2  UNL     1       0.407  10.695  18.120  1.00  0.00    -0.061 C 
HETATM   24  C1  UNL     1      -0.811  10.941  18.637  1.00  0.00     0.019 C 
BRANCH  23  25
HETATM   25  C3  UNL     1       1.516  10.641  19.076  1.00  0.00     0.007 C 
HETATM   26  C4  UNL     1       1.468  10.697  20.416  1.00  0.00     0.001 C 
BRANCH  26  27
HETATM   27  C5  UNL     1       2.666  10.666  21.231  1.00  0.00     0.002 C 
HETATM   28  C6  UNL     1       3.011   9.743  22.153  1.00  0.00    -0.084 C 
HETATM   29  C7  UNL     1       2.228   8.511  22.509  1.00  0.00     0.043 C 
BRANCH  28  30
HETATM   30  C8  UNL     1       4.305   9.919  22.929  1.00  0.00     0.037 C 
BRANCH  30  31
HETATM   31  C9  UNL     1       4.769  11.381  22.941  1.00  0.00     0.031 C 
BRANCH  31  32
HETATM   32  C10 UNL     1       6.266  11.484  23.074  1.00  0.00    -0.024 C 
HETATM   33  C11 UNL     1       7.027  12.594  23.025  1.00  0.00    -0.091 C 
HETATM   34  C12 UNL     1       8.526  12.501  23.164  1.00  0.00     0.042 C 
HETATM   35  C13 UNL     1       6.510  13.995  22.839  1.00  0.00     0.042 C 
ENDBRANCH  31  32
ENDBRANCH  30  31
ENDBRANCH  28  30
ENDBRANCH  26  27
ENDBRANCH  23  25
ENDBRANCH   1  23
BRANCH   7  36
HETATM   36  C25 UNL     1      -0.997   6.099  14.274  1.00  0.00     0.265 C 
HETATM   37  O2  UNL     1      -0.907   6.575  15.400  1.00  0.00    -0.302 OA
ENDBRANCH   7  36
TORSDOF 13
ENDMDL
