MODEL 1
REMARK minimizedAffinity -8.73581123
REMARK CNNscore 0.590127885
REMARK CNNaffinity 7.57222366
REMARK  15 active torsions:
REMARK  status: ('A' for Active; 'I' for Inactive)
REMARK    1  A    between atoms: C14_15  and  O2_16 
REMARK    2  A    between atoms: C14_15  and  C15_17 
REMARK    3  A    between atoms: C15_17  and  C16_19 
REMARK    4  A    between atoms: C16_19  and  O4_20 
REMARK    5  A    between atoms: O4_20  and  C17_21 
REMARK    6  A    between atoms: C17_21  and  C18_23 
REMARK    7  A    between atoms: C18_23  and  C19_24 
REMARK    8  A    between atoms: C19_24  and  C20_25 
REMARK       I    between atoms: C20_25  and  N1_27 
REMARK    9  A    between atoms: N1_27  and  C21_28 
REMARK   10  A    between atoms: C21_28  and  C22_29 
REMARK   11  A    between atoms: C22_29  and  C23_30 
REMARK   12  A    between atoms: C23_30  and  C24_31 
REMARK   13  A    between atoms: C24_31  and  C25_32 
REMARK   14  A    between atoms: C25_32  and  C26_33 
REMARK   15  A    between atoms: C26_33  and  O8_35 
ROOT
HETATM    1  C1  UNL     1       2.080   5.109  10.072  1.00  0.00     0.020 C 
HETATM    2  C2  UNL     1       1.659   6.570  10.350  1.00  0.00    -0.016 C 
HETATM    3  C3  UNL     1       0.951   7.136   9.080  1.00  0.00     0.022 C 
HETATM    4  C4  UNL     1       1.899   7.454   7.933  1.00  0.00     0.084 C 
HETATM    5  C5  UNL     1       2.986   8.387   8.395  1.00  0.00     0.149 C 
HETATM    6  O1  UNL     1       3.510   9.207   7.646  1.00  0.00    -0.293 OA
HETATM    7  C6  UNL     1       3.490   8.235   9.779  1.00  0.00     0.053 C 
HETATM    8  C7  UNL     1       2.921   7.382  10.649  1.00  0.00    -0.068 C 
HETATM    9  C8  UNL     1       3.548   7.169  12.003  1.00  0.00     0.035 C 
HETATM   10  C9  UNL     1       2.538   7.330  13.133  1.00  0.00     0.010 C 
HETATM   11  C10 UNL     1       1.303   6.433  12.946  1.00  0.00    -0.004 C 
HETATM   12  C11 UNL     1       0.296   6.421  14.147  1.00  0.00     0.002 C 
HETATM   13  C12 UNL     1       0.516   7.476  15.241  1.00  0.00     0.009 C 
HETATM   14  C13 UNL     1      -0.268   8.694  14.781  1.00  0.00     0.047 C 
HETATM   15  C14 UNL     1      -1.462   8.156  13.976  1.00  0.00     0.128 C 
HETATM   16  C27 UNL     1      -1.224   6.598  13.820  1.00  0.00    -0.002 C 
HETATM   17  C28 UNL     1      -2.031   5.814  14.895  1.00  0.00     0.019 C 
HETATM   18  C29 UNL     1      -1.659   6.020  12.454  1.00  0.00     0.013 C 
HETATM   19  C30 UNL     1      -0.559   5.759  11.431  1.00  0.00     0.007 C 
HETATM   20  C31 UNL     1       0.653   6.685  11.566  1.00  0.00     0.002 C 
ENDROOT
BRANCH  15  21
HETATM   21  O2  UNL     1      -1.393   8.824  12.701  1.00  0.00    -0.381 OA
HETATM   22  H19 UNL     1      -2.275   8.731  12.284  1.00  0.00     0.211 HD
ENDBRANCH  15  21
BRANCH  15  23
HETATM   23  C15 UNL     1      -2.869   8.539  14.498  1.00  0.00     0.185 C 
HETATM   24  O3  UNL     1      -3.073   8.553  15.721  1.00  0.00    -0.292 OA
BRANCH  23  25
HETATM   25  C16 UNL     1      -3.982   8.852  13.500  1.00  0.00     0.260 C 
BRANCH  25  26
HETATM   26  O4  UNL     1      -4.857   7.747  13.266  1.00  0.00    -0.314 OA
BRANCH  26  27
HETATM   27  C17 UNL     1      -5.885   7.635  14.147  1.00  0.00     0.259 C 
HETATM   28  O5  UNL     1      -6.491   8.579  14.636  1.00  0.00    -0.265 OA
BRANCH  27  29
HETATM   29  C18 UNL     1      -6.199   6.184  14.394  1.00  0.00     0.120 C 
BRANCH  29  30
HETATM   30  C19 UNL     1      -7.184   5.655  13.358  1.00  0.00     0.112 C 
BRANCH  30  31
HETATM   31  C20 UNL     1      -7.260   4.145  13.388  1.00  0.00     0.217 C 
HETATM   32  O6  UNL     1      -7.646   3.506  14.358  1.00  0.00    -0.274 OA
HETATM   33  N1  UNL     1      -6.840   3.565  12.209  1.00  0.00    -0.361 N 
HETATM   34  H26 UNL     1      -6.436   4.152  11.490  1.00  0.00     0.162 HD
BRANCH  33  35
HETATM   35  C21 UNL     1      -6.753   2.126  12.056  1.00  0.00     0.122 C 
BRANCH  35  36
HETATM   36  C22 UNL     1      -5.497   1.729  11.287  1.00  0.00     0.020 C 
BRANCH  36  37
HETATM   37  C23 UNL     1      -4.468   2.855  11.138  1.00  0.00     0.002 C 
BRANCH  37  38
HETATM   38  C24 UNL     1      -3.142   2.606  11.864  1.00  0.00     0.010 C 
BRANCH  38  39
HETATM   39  C25 UNL     1      -2.455   1.308  11.439  1.00  0.00     0.110 C 
BRANCH  39  40
HETATM   40  C26 UNL     1      -1.113   1.575  10.810  1.00  0.00     0.139 C 
HETATM   41  O7  UNL     1      -0.175   2.186  11.290  1.00  0.00    -0.650 OA
BRANCH  40  42
HETATM   42  O8  UNL     1      -1.031   1.061   9.567  1.00  0.00    -0.776 OA
HETATM   43  H37 UNL     1      -0.125   1.295   9.275  1.00  0.00     0.167 HD
ENDBRANCH  40  42
ENDBRANCH  39  40
ENDBRANCH  38  39
ENDBRANCH  37  38
ENDBRANCH  36  37
ENDBRANCH  35  36
ENDBRANCH  33  35
ENDBRANCH  30  31
ENDBRANCH  29  30
ENDBRANCH  27  29
ENDBRANCH  26  27
ENDBRANCH  25  26
ENDBRANCH  23  25
ENDBRANCH  15  23
TORSDOF 15
ENDMDL
MODEL 2
REMARK minimizedAffinity -7.4563961
REMARK CNNscore 0.544985354
REMARK CNNaffinity 6.30999041
REMARK  15 active torsions:
REMARK  status: ('A' for Active; 'I' for Inactive)
REMARK    1  A    between atoms: C14_15  and  O2_16 
REMARK    2  A    between atoms: C14_15  and  C15_17 
REMARK    3  A    between atoms: C15_17  and  C16_19 
REMARK    4  A    between atoms: C16_19  and  O4_20 
REMARK    5  A    between atoms: O4_20  and  C17_21 
REMARK    6  A    between atoms: C17_21  and  C18_23 
REMARK    7  A    between atoms: C18_23  and  C19_24 
REMARK    8  A    between atoms: C19_24  and  C20_25 
REMARK       I    between atoms: C20_25  and  N1_27 
REMARK    9  A    between atoms: N1_27  and  C21_28 
REMARK   10  A    between atoms: C21_28  and  C22_29 
REMARK   11  A    between atoms: C22_29  and  C23_30 
REMARK   12  A    between atoms: C23_30  and  C24_31 
REMARK   13  A    between atoms: C24_31  and  C25_32 
REMARK   14  A    between atoms: C25_32  and  C26_33 
REMARK   15  A    between atoms: C26_33  and  O8_35 
ROOT
HETATM    1  C1  UNL     1       1.953   7.840   9.165  1.00  0.00     0.020 C 
HETATM    2  C2  UNL     1       2.292   7.624  10.658  1.00  0.00    -0.016 C 
HETATM    3  C3  UNL     1       3.192   8.803  11.143  1.00  0.00     0.022 C 
HETATM    4  C4  UNL     1       4.625   8.733  10.639  1.00  0.00     0.084 C 
HETATM    5  C5  UNL     1       5.245   7.409  10.999  1.00  0.00     0.149 C 
HETATM    6  O1  UNL     1       6.446   7.284  11.224  1.00  0.00    -0.293 OA
HETATM    7  C6  UNL     1       4.376   6.211  10.988  1.00  0.00     0.053 C 
HETATM    8  C7  UNL     1       3.049   6.301  10.789  1.00  0.00    -0.068 C 
HETATM    9  C8  UNL     1       2.227   5.043  10.660  1.00  0.00     0.035 C 
HETATM   10  C9  UNL     1       1.018   5.053  11.587  1.00  0.00     0.010 C 
HETATM   11  C10 UNL     1       0.147   6.307  11.402  1.00  0.00    -0.004 C 
HETATM   12  C11 UNL     1      -1.200   6.311  12.204  1.00  0.00     0.002 C 
HETATM   13  C12 UNL     1      -1.378   5.209  13.259  1.00  0.00     0.009 C 
HETATM   14  C13 UNL     1      -0.782   5.781  14.534  1.00  0.00     0.047 C 
HETATM   15  C14 UNL     1      -0.997   7.302  14.464  1.00  0.00     0.128 C 
HETATM   16  C27 UNL     1      -1.557   7.602  13.013  1.00  0.00    -0.002 C 
HETATM   17  C28 UNL     1      -3.107   7.725  13.043  1.00  0.00     0.019 C 
HETATM   18  C29 UNL     1      -1.035   8.917  12.389  1.00  0.00     0.013 C 
HETATM   19  C30 UNL     1       0.085   8.798  11.362  1.00  0.00     0.007 C 
HETATM   20  C31 UNL     1       0.997   7.587  11.569  1.00  0.00     0.002 C 
ENDROOT
BRANCH  15  21
HETATM   21  O2  UNL     1       0.309   7.880  14.650  1.00  0.00    -0.381 OA
HETATM   22  H19 UNL     1       0.171   8.818  14.897  1.00  0.00     0.211 HD
ENDBRANCH  15  21
BRANCH  15  23
HETATM   23  C15 UNL     1      -1.826   7.929  15.612  1.00  0.00     0.185 C 
HETATM   24  O3  UNL     1      -2.697   7.244  16.169  1.00  0.00    -0.292 OA
BRANCH  23  25
HETATM   25  C16 UNL     1      -1.582   9.385  16.006  1.00  0.00     0.260 C 
BRANCH  25  26
HETATM   26  O4  UNL     1      -2.614   9.926  16.833  1.00  0.00    -0.314 OA
BRANCH  26  27
HETATM   27  C17 UNL     1      -2.282  11.071  17.486  1.00  0.00     0.259 C 
HETATM   28  O5  UNL     1      -2.798  12.163  17.287  1.00  0.00    -0.265 OA
BRANCH  27  29
HETATM   29  C18 UNL     1      -1.226  10.789  18.521  1.00  0.00     0.120 C 
BRANCH  29  30
HETATM   30  C19 UNL     1      -0.737  12.079  19.168  1.00  0.00     0.112 C 
BRANCH  30  31
HETATM   31  C20 UNL     1       0.711  11.971  19.590  1.00  0.00     0.217 C 
HETATM   32  O6  UNL     1       1.420  11.005  19.336  1.00  0.00    -0.274 OA
HETATM   33  N1  UNL     1       1.146  13.072  20.297  1.00  0.00    -0.361 N 
HETATM   34  H26 UNL     1       0.475  13.784  20.558  1.00  0.00     0.162 HD
BRANCH  33  35
HETATM   35  C21 UNL     1       2.477  13.135  20.867  1.00  0.00     0.122 C 
BRANCH  35  36
HETATM   36  C22 UNL     1       2.491  12.598  22.295  1.00  0.00     0.020 C 
BRANCH  36  37
HETATM   37  C23 UNL     1       3.670  11.671  22.608  1.00  0.00     0.002 C 
BRANCH  37  38
HETATM   38  C24 UNL     1       3.339  10.520  23.565  1.00  0.00     0.010 C 
BRANCH  38  39
HETATM   39  C25 UNL     1       3.629   9.141  22.973  1.00  0.00     0.110 C 
BRANCH  39  40
HETATM   40  C26 UNL     1       2.507   8.674  22.084  1.00  0.00     0.139 C 
HETATM   41  O7  UNL     1       1.557   7.976  22.392  1.00  0.00    -0.650 OA
BRANCH  40  42
HETATM   42  O8  UNL     1       2.656   9.107  20.818  1.00  0.00    -0.776 OA
HETATM   43  H37 UNL     1       1.873   8.745  20.351  1.00  0.00     0.167 HD
ENDBRANCH  40  42
ENDBRANCH  39  40
ENDBRANCH  38  39
ENDBRANCH  37  38
ENDBRANCH  36  37
ENDBRANCH  35  36
ENDBRANCH  33  35
ENDBRANCH  30  31
ENDBRANCH  29  30
ENDBRANCH  27  29
ENDBRANCH  26  27
ENDBRANCH  25  26
ENDBRANCH  23  25
ENDBRANCH  15  23
TORSDOF 15
ENDMDL
MODEL 3
REMARK minimizedAffinity -6.98541355
REMARK CNNscore 0.532165587
REMARK CNNaffinity 6.63432121
REMARK  15 active torsions:
REMARK  status: ('A' for Active; 'I' for Inactive)
REMARK    1  A    between atoms: C14_15  and  O2_16 
REMARK    2  A    between atoms: C14_15  and  C15_17 
REMARK    3  A    between atoms: C15_17  and  C16_19 
REMARK    4  A    between atoms: C16_19  and  O4_20 
REMARK    5  A    between atoms: O4_20  and  C17_21 
REMARK    6  A    between atoms: C17_21  and  C18_23 
REMARK    7  A    between atoms: C18_23  and  C19_24 
REMARK    8  A    between atoms: C19_24  and  C20_25 
REMARK       I    between atoms: C20_25  and  N1_27 
REMARK    9  A    between atoms: N1_27  and  C21_28 
REMARK   10  A    between atoms: C21_28  and  C22_29 
REMARK   11  A    between atoms: C22_29  and  C23_30 
REMARK   12  A    between atoms: C23_30  and  C24_31 
REMARK   13  A    between atoms: C24_31  and  C25_32 
REMARK   14  A    between atoms: C25_32  and  C26_33 
REMARK   15  A    between atoms: C26_33  and  O8_35 
ROOT
HETATM    1  C1  UNL     1      -0.296   5.988  10.523  1.00  0.00     0.020 C 
HETATM    2  C2  UNL     1       0.370   7.342  10.858  1.00  0.00    -0.016 C 
HETATM    3  C3  UNL     1      -0.123   8.409   9.831  1.00  0.00     0.022 C 
HETATM    4  C4  UNL     1       0.490   8.264   8.446  1.00  0.00     0.084 C 
HETATM    5  C5  UNL     1       1.993   8.266   8.535  1.00  0.00     0.149 C 
HETATM    6  O1  UNL     1       2.703   8.707   7.635  1.00  0.00    -0.293 OA
HETATM    7  C6  UNL     1       2.619   7.629   9.715  1.00  0.00     0.053 C 
HETATM    8  C7  UNL     1       1.886   7.170  10.744  1.00  0.00    -0.068 C 
HETATM    9  C8  UNL     1       2.559   6.415  11.862  1.00  0.00     0.035 C 
HETATM   10  C9  UNL     1       2.194   6.975  13.231  1.00  0.00     0.010 C 
HETATM   11  C10 UNL     1       0.673   7.047  13.447  1.00  0.00    -0.004 C 
HETATM   12  C11 UNL     1       0.221   7.459  14.891  1.00  0.00     0.002 C 
HETATM   13  C12 UNL     1       1.315   7.983  15.833  1.00  0.00     0.009 C 
HETATM   14  C13 UNL     1       1.374   9.480  15.578  1.00  0.00     0.047 C 
HETATM   15  C14 UNL     1      -0.048   9.904  15.178  1.00  0.00     0.128 C 
HETATM   16  C27 UNL     1      -0.880   8.565  15.017  1.00  0.00    -0.002 C 
HETATM   17  C28 UNL     1      -1.695   8.273  16.309  1.00  0.00     0.019 C 
HETATM   18  C29 UNL     1      -1.905   8.587  13.860  1.00  0.00     0.013 C 
HETATM   19  C30 UNL     1      -1.508   7.878  12.570  1.00  0.00     0.007 C 
HETATM   20  C31 UNL     1       0.001   7.850  12.310  1.00  0.00     0.002 C 
ENDROOT
BRANCH  15  21
HETATM   21  O2  UNL     1       0.098  10.583  13.916  1.00  0.00    -0.381 OA
HETATM   22  H19 UNL     1      -0.719  11.106  13.779  1.00  0.00     0.211 HD
ENDBRANCH  15  21
BRANCH  15  23
HETATM   23  C15 UNL     1      -0.722  10.971  16.076  1.00  0.00     0.185 C 
HETATM   24  O3  UNL     1      -1.656  11.643  15.613  1.00  0.00    -0.292 OA
BRANCH  23  25
HETATM   25  C16 UNL     1      -0.199  11.201  17.493  1.00  0.00     0.260 C 
BRANCH  25  26
HETATM   26  O4  UNL     1       1.111  11.767  17.525  1.00  0.00    -0.314 OA
BRANCH  26  27
HETATM   27  C17 UNL     1       1.160  13.078  17.881  1.00  0.00     0.259 C 
HETATM   28  O5  UNL     1       1.401  14.000  17.113  1.00  0.00    -0.265 OA
BRANCH  27  29
HETATM   29  C18 UNL     1       0.826  13.231  19.341  1.00  0.00     0.120 C 
BRANCH  29  30
HETATM   30  C19 UNL     1       0.957  14.684  19.781  1.00  0.00     0.112 C 
BRANCH  30  31
HETATM   31  C20 UNL     1       1.440  14.786  21.211  1.00  0.00     0.217 C 
HETATM   32  O6  UNL     1       1.058  15.647  21.993  1.00  0.00    -0.274 OA
HETATM   33  N1  UNL     1       2.360  13.812  21.536  1.00  0.00    -0.361 N 
HETATM   34  H26 UNL     1       2.705  13.200  20.807  1.00  0.00     0.162 HD
BRANCH  33  35
HETATM   35  C21 UNL     1       3.012  13.782  22.830  1.00  0.00     0.122 C 
BRANCH  35  36
HETATM   36  C22 UNL     1       3.230  12.348  23.303  1.00  0.00     0.020 C 
BRANCH  36  37
HETATM   37  C23 UNL     1       4.495  11.687  22.747  1.00  0.00     0.002 C 
BRANCH  37  38
HETATM   38  C24 UNL     1       4.250  10.376  21.993  1.00  0.00     0.010 C 
BRANCH  38  39
HETATM   39  C25 UNL     1       3.517   9.327  22.828  1.00  0.00     0.110 C 
BRANCH  39  40
HETATM   40  C26 UNL     1       2.287   8.820  22.123  1.00  0.00     0.139 C 
HETATM   41  O7  UNL     1       1.641   7.820  22.382  1.00  0.00    -0.650 OA
BRANCH  40  42
HETATM   42  O8  UNL     1       1.940   9.610  21.090  1.00  0.00    -0.776 OA
HETATM   43  H37 UNL     1       1.137   9.181  20.724  1.00  0.00     0.167 HD
ENDBRANCH  40  42
ENDBRANCH  39  40
ENDBRANCH  38  39
ENDBRANCH  37  38
ENDBRANCH  36  37
ENDBRANCH  35  36
ENDBRANCH  33  35
ENDBRANCH  30  31
ENDBRANCH  29  30
ENDBRANCH  27  29
ENDBRANCH  26  27
ENDBRANCH  25  26
ENDBRANCH  23  25
ENDBRANCH  15  23
TORSDOF 15
ENDMDL
MODEL 4
REMARK minimizedAffinity -7.06115818
REMARK CNNscore 0.329500616
REMARK CNNaffinity 6.61541748
REMARK  15 active torsions:
REMARK  status: ('A' for Active; 'I' for Inactive)
REMARK    1  A    between atoms: C14_15  and  O2_16 
REMARK    2  A    between atoms: C14_15  and  C15_17 
REMARK    3  A    between atoms: C15_17  and  C16_19 
REMARK    4  A    between atoms: C16_19  and  O4_20 
REMARK    5  A    between atoms: O4_20  and  C17_21 
REMARK    6  A    between atoms: C17_21  and  C18_23 
REMARK    7  A    between atoms: C18_23  and  C19_24 
REMARK    8  A    between atoms: C19_24  and  C20_25 
REMARK       I    between atoms: C20_25  and  N1_27 
REMARK    9  A    between atoms: N1_27  and  C21_28 
REMARK   10  A    between atoms: C21_28  and  C22_29 
REMARK   11  A    between atoms: C22_29  and  C23_30 
REMARK   12  A    between atoms: C23_30  and  C24_31 
REMARK   13  A    between atoms: C24_31  and  C25_32 
REMARK   14  A    between atoms: C25_32  and  C26_33 
REMARK   15  A    between atoms: C26_33  and  O8_35 
ROOT
HETATM    1  C1  UNL     1       0.726   6.907  13.976  1.00  0.00     0.020 C 
HETATM    2  C2  UNL     1      -0.290   6.565  12.863  1.00  0.00    -0.016 C 
HETATM    3  C3  UNL     1       0.097   5.189  12.238  1.00  0.00     0.022 C 
HETATM    4  C4  UNL     1       1.318   5.242  11.333  1.00  0.00     0.084 C 
HETATM    5  C5  UNL     1       1.130   6.279  10.258  1.00  0.00     0.149 C 
HETATM    6  O1  UNL     1       1.632   6.169   9.143  1.00  0.00    -0.293 OA
HETATM    7  C6  UNL     1       0.385   7.511  10.605  1.00  0.00     0.053 C 
HETATM    8  C7  UNL     1      -0.218   7.661  11.797  1.00  0.00    -0.068 C 
HETATM    9  C8  UNL     1      -0.853   8.982  12.151  1.00  0.00     0.035 C 
HETATM   10  C9  UNL     1      -2.287   8.815  12.638  1.00  0.00     0.010 C 
HETATM   11  C10 UNL     1      -2.397   7.816  13.802  1.00  0.00    -0.004 C 
HETATM   12  C11 UNL     1      -3.815   7.713  14.464  1.00  0.00     0.002 C 
HETATM   13  C12 UNL     1      -4.971   8.409  13.730  1.00  0.00     0.009 C 
HETATM   14  C13 UNL     1      -5.506   7.372  12.757  1.00  0.00     0.047 C 
HETATM   15  C14 UNL     1      -5.269   6.003  13.416  1.00  0.00     0.128 C 
HETATM   16  C27 UNL     1      -4.397   6.280  14.709  1.00  0.00    -0.002 C 
HETATM   17  C28 UNL     1      -5.304   6.351  15.971  1.00  0.00     0.019 C 
HETATM   18  C29 UNL     1      -3.335   5.197  15.006  1.00  0.00     0.013 C 
HETATM   19  C30 UNL     1      -1.897   5.511  14.610  1.00  0.00     0.007 C 
HETATM   20  C31 UNL     1      -1.770   6.457  13.413  1.00  0.00     0.002 C 
ENDROOT
BRANCH  15  21
HETATM   21  O2  UNL     1      -4.531   5.236  12.444  1.00  0.00    -0.381 OA
HETATM   22  H19 UNL     1      -4.615   4.295  12.703  1.00  0.00     0.211 HD
ENDBRANCH  15  21
BRANCH  15  23
HETATM   23  C15 UNL     1      -6.527   5.137  13.666  1.00  0.00     0.185 C 
HETATM   24  O3  UNL     1      -6.386   3.936  13.940  1.00  0.00    -0.292 OA
BRANCH  23  25
HETATM   25  C16 UNL     1      -7.913   5.767  13.533  1.00  0.00     0.260 C 
BRANCH  25  26
HETATM   26  O4  UNL     1      -8.477   6.160  14.784  1.00  0.00    -0.314 OA
BRANCH  26  27
HETATM   27  C17 UNL     1      -9.441   7.115  14.703  1.00  0.00     0.259 C 
HETATM   28  O5  UNL     1     -10.352   7.118  13.886  1.00  0.00    -0.265 OA
BRANCH  27  29
HETATM   29  C18 UNL     1      -9.252   8.135  15.793  1.00  0.00     0.120 C 
BRANCH  29  30
HETATM   30  C19 UNL     1      -9.937   9.448  15.436  1.00  0.00     0.112 C 
BRANCH  30  31
HETATM   31  C20 UNL     1     -11.254   9.600  16.163  1.00  0.00     0.217 C 
HETATM   32  O6  UNL     1     -11.458  10.445  17.026  1.00  0.00    -0.274 OA
HETATM   33  N1  UNL     1     -12.199   8.682  15.756  1.00  0.00    -0.361 N 
HETATM   34  H26 UNL     1     -11.926   7.948  15.114  1.00  0.00     0.162 HD
BRANCH  33  35
HETATM   35  C21 UNL     1     -13.502   8.599  16.385  1.00  0.00     0.122 C 
BRANCH  35  36
HETATM   36  C22 UNL     1     -14.615   8.540  15.343  1.00  0.00     0.020 C 
BRANCH  36  37
HETATM   37  C23 UNL     1     -15.264   7.160  15.194  1.00  0.00     0.002 C 
BRANCH  37  38
HETATM   38  C24 UNL     1     -14.718   6.321  14.033  1.00  0.00     0.010 C 
BRANCH  38  39
HETATM   39  C25 UNL     1     -14.571   7.111  12.733  1.00  0.00     0.110 C 
BRANCH  39  40
HETATM   40  C26 UNL     1     -15.853   7.118  11.943  1.00  0.00     0.139 C 
HETATM   41  O7  UNL     1     -16.777   6.329  12.021  1.00  0.00    -0.650 OA
BRANCH  40  42
HETATM   42  O8  UNL     1     -15.892   8.135  11.060  1.00  0.00    -0.776 OA
HETATM   43  H37 UNL     1     -16.763   8.031  10.621  1.00  0.00     0.167 HD
ENDBRANCH  40  42
ENDBRANCH  39  40
ENDBRANCH  38  39
ENDBRANCH  37  38
ENDBRANCH  36  37
ENDBRANCH  35  36
ENDBRANCH  33  35
ENDBRANCH  30  31
ENDBRANCH  29  30
ENDBRANCH  27  29
ENDBRANCH  26  27
ENDBRANCH  25  26
ENDBRANCH  23  25
ENDBRANCH  15  23
TORSDOF 15
ENDMDL
MODEL 5
REMARK minimizedAffinity -6.98473167
REMARK CNNscore 0.25049746
REMARK CNNaffinity 6.44619179
REMARK  15 active torsions:
REMARK  status: ('A' for Active; 'I' for Inactive)
REMARK    1  A    between atoms: C14_15  and  O2_16 
REMARK    2  A    between atoms: C14_15  and  C15_17 
REMARK    3  A    between atoms: C15_17  and  C16_19 
REMARK    4  A    between atoms: C16_19  and  O4_20 
REMARK    5  A    between atoms: O4_20  and  C17_21 
REMARK    6  A    between atoms: C17_21  and  C18_23 
REMARK    7  A    between atoms: C18_23  and  C19_24 
REMARK    8  A    between atoms: C19_24  and  C20_25 
REMARK       I    between atoms: C20_25  and  N1_27 
REMARK    9  A    between atoms: N1_27  and  C21_28 
REMARK   10  A    between atoms: C21_28  and  C22_29 
REMARK   11  A    between atoms: C22_29  and  C23_30 
REMARK   12  A    between atoms: C23_30  and  C24_31 
REMARK   13  A    between atoms: C24_31  and  C25_32 
REMARK   14  A    between atoms: C25_32  and  C26_33 
REMARK   15  A    between atoms: C26_33  and  O8_35 
ROOT
HETATM    1  C1  UNL     1       0.772   5.592  10.608  1.00  0.00     0.020 C 
HETATM    2  C2  UNL     1       0.890   7.123  10.788  1.00  0.00    -0.016 C 
HETATM    3  C3  UNL     1       0.199   7.823   9.577  1.00  0.00     0.022 C 
HETATM    4  C4  UNL     1       0.995   7.749   8.283  1.00  0.00     0.084 C 
HETATM    5  C5  UNL     1       2.384   8.292   8.489  1.00  0.00     0.149 C 
HETATM    6  O1  UNL     1       3.010   8.851   7.593  1.00  0.00    -0.293 OA
HETATM    7  C6  UNL     1       3.035   8.055   9.797  1.00  0.00     0.053 C 
HETATM    8  C7  UNL     1       2.377   7.486  10.822  1.00  0.00    -0.068 C 
HETATM    9  C8  UNL     1       3.119   7.149  12.090  1.00  0.00     0.035 C 
HETATM   10  C9  UNL     1       2.415   7.694  13.327  1.00  0.00     0.010 C 
HETATM   11  C10 UNL     1       0.945   7.248  13.408  1.00  0.00    -0.004 C 
HETATM   12  C11 UNL     1       0.201   7.634  14.733  1.00  0.00     0.002 C 
HETATM   13  C12 UNL     1       0.923   8.613  15.670  1.00  0.00     0.009 C 
HETATM   14  C13 UNL     1       0.503   9.995  15.199  1.00  0.00     0.047 C 
HETATM   15  C14 UNL     1      -0.916   9.841  14.628  1.00  0.00     0.128 C 
HETATM   16  C27 UNL     1      -1.216   8.286  14.604  1.00  0.00    -0.002 C 
HETATM   17  C28 UNL     1      -2.041   7.872  15.857  1.00  0.00     0.019 C 
HETATM   18  C29 UNL     1      -2.032   7.814  13.379  1.00  0.00     0.013 C 
HETATM   19  C30 UNL     1      -1.258   7.150  12.246  1.00  0.00     0.007 C 
HETATM   20  C31 UNL     1       0.190   7.628  12.114  1.00  0.00     0.002 C 
ENDROOT
BRANCH  15  21
HETATM   21  O2  UNL     1      -0.850  10.381  13.294  1.00  0.00    -0.381 OA
HETATM   22  H19 UNL     1      -1.772  10.562  13.016  1.00  0.00     0.211 HD
ENDBRANCH  15  21
BRANCH  15  23
HETATM   23  C15 UNL     1      -2.020  10.695  15.299  1.00  0.00     0.185 C 
HETATM   24  O3  UNL     1      -3.088  10.880  14.696  1.00  0.00    -0.292 OA
BRANCH  23  25
HETATM   25  C16 UNL     1      -1.758  11.323  16.667  1.00  0.00     0.260 C 
BRANCH  25  26
HETATM   26  O4  UNL     1      -2.852  11.178  17.574  1.00  0.00    -0.314 OA
BRANCH  26  27
HETATM   27  C17 UNL     1      -3.572  12.311  17.788  1.00  0.00     0.259 C 
HETATM   28  O5  UNL     1      -4.469  12.714  17.059  1.00  0.00    -0.265 OA
BRANCH  27  29
HETATM   29  C18 UNL     1      -3.138  12.965  19.072  1.00  0.00     0.120 C 
BRANCH  29  30
HETATM   30  C19 UNL     1      -2.508  14.326  18.805  1.00  0.00     0.112 C 
BRANCH  30  31
HETATM   31  C20 UNL     1      -0.998  14.245  18.806  1.00  0.00     0.217 C 
HETATM   32  O6  UNL     1      -0.282  14.954  18.110  1.00  0.00    -0.274 OA
HETATM   33  N1  UNL     1      -0.514  13.284  19.669  1.00  0.00    -0.361 N 
HETATM   34  H26 UNL     1      -1.168  12.666  20.132  1.00  0.00     0.162 HD
BRANCH  33  35
HETATM   35  C21 UNL     1       0.902  12.985  19.760  1.00  0.00     0.122 C 
BRANCH  35  36
HETATM   36  C22 UNL     1       1.140  11.660  20.477  1.00  0.00     0.020 C 
BRANCH  36  37
HETATM   37  C23 UNL     1       2.162  10.748  19.791  1.00  0.00     0.002 C 
BRANCH  37  38
HETATM   38  C24 UNL     1       2.892   9.786  20.735  1.00  0.00     0.010 C 
BRANCH  38  39
HETATM   39  C25 UNL     1       2.661  10.099  22.213  1.00  0.00     0.110 C 
BRANCH  39  40
HETATM   40  C26 UNL     1       2.342   8.853  22.998  1.00  0.00     0.139 C 
HETATM   41  O7  UNL     1       2.461   8.681  24.198  1.00  0.00    -0.650 OA
BRANCH  40  42
HETATM   42  O8  UNL     1       1.899   7.860  22.204  1.00  0.00    -0.776 OA
HETATM   43  H37 UNL     1       1.727   7.121  22.825  1.00  0.00     0.167 HD
ENDBRANCH  40  42
ENDBRANCH  39  40
ENDBRANCH  38  39
ENDBRANCH  37  38
ENDBRANCH  36  37
ENDBRANCH  35  36
ENDBRANCH  33  35
ENDBRANCH  30  31
ENDBRANCH  29  30
ENDBRANCH  27  29
ENDBRANCH  26  27
ENDBRANCH  25  26
ENDBRANCH  23  25
ENDBRANCH  15  23
TORSDOF 15
ENDMDL
MODEL 6
REMARK minimizedAffinity -7.20728874
REMARK CNNscore 0.222425461
REMARK CNNaffinity 5.19658995
REMARK  15 active torsions:
REMARK  status: ('A' for Active; 'I' for Inactive)
REMARK    1  A    between atoms: C14_15  and  O2_16 
REMARK    2  A    between atoms: C14_15  and  C15_17 
REMARK    3  A    between atoms: C15_17  and  C16_19 
REMARK    4  A    between atoms: C16_19  and  O4_20 
REMARK    5  A    between atoms: O4_20  and  C17_21 
REMARK    6  A    between atoms: C17_21  and  C18_23 
REMARK    7  A    between atoms: C18_23  and  C19_24 
REMARK    8  A    between atoms: C19_24  and  C20_25 
REMARK       I    between atoms: C20_25  and  N1_27 
REMARK    9  A    between atoms: N1_27  and  C21_28 
REMARK   10  A    between atoms: C21_28  and  C22_29 
REMARK   11  A    between atoms: C22_29  and  C23_30 
REMARK   12  A    between atoms: C23_30  and  C24_31 
REMARK   13  A    between atoms: C24_31  and  C25_32 
REMARK   14  A    between atoms: C25_32  and  C26_33 
REMARK   15  A    between atoms: C26_33  and  O8_35 
ROOT
HETATM    1  C1  UNL     1       3.369  12.795  20.968  1.00  0.00     0.020 C 
HETATM    2  C2  UNL     1       4.414  11.658  21.050  1.00  0.00    -0.016 C 
HETATM    3  C3  UNL     1       3.792  10.364  20.441  1.00  0.00     0.022 C 
HETATM    4  C4  UNL     1       2.756   9.697  21.333  1.00  0.00     0.084 C 
HETATM    5  C5  UNL     1       3.336   9.418  22.694  1.00  0.00     0.149 C 
HETATM    6  O1  UNL     1       2.979   8.463  23.378  1.00  0.00    -0.293 OA
HETATM    7  C6  UNL     1       4.303  10.392  23.248  1.00  0.00     0.053 C 
HETATM    8  C7  UNL     1       4.756  11.430  22.524  1.00  0.00    -0.068 C 
HETATM    9  C8  UNL     1       5.640  12.464  23.173  1.00  0.00     0.035 C 
HETATM   10  C9  UNL     1       6.910  12.718  22.370  1.00  0.00     0.010 C 
HETATM   11  C10 UNL     1       6.613  13.081  20.906  1.00  0.00    -0.004 C 
HETATM   12  C11 UNL     1       7.859  13.515  20.058  1.00  0.00     0.002 C 
HETATM   13  C12 UNL     1       9.239  13.285  20.693  1.00  0.00     0.009 C 
HETATM   14  C13 UNL     1       9.632  11.874  20.289  1.00  0.00     0.047 C 
HETATM   15  C14 UNL     1       8.981  11.624  18.919  1.00  0.00     0.128 C 
HETATM   16  C27 UNL     1       8.035  12.864  18.645  1.00  0.00    -0.002 C 
HETATM   17  C28 UNL     1       8.752  13.903  17.735  1.00  0.00     0.019 C 
HETATM   18  C29 UNL     1       6.711  12.511  17.931  1.00  0.00     0.013 C 
HETATM   19  C30 UNL     1       5.461  12.417  18.798  1.00  0.00     0.007 C 
HETATM   20  C31 UNL     1       5.733  11.996  20.244  1.00  0.00     0.002 C 
ENDROOT
BRANCH  15  21
HETATM   21  O2  UNL     1       8.219  10.411  19.077  1.00  0.00    -0.381 OA
HETATM   22  H19 UNL     1       8.034  10.073  18.176  1.00  0.00     0.211 HD
ENDBRANCH  15  21
BRANCH  15  23
HETATM   23  C15 UNL     1       9.944  11.284  17.755  1.00  0.00     0.185 C 
HETATM   24  O3  UNL     1      10.935  12.005  17.564  1.00  0.00    -0.292 OA
BRANCH  23  25
HETATM   25  C16 UNL     1       9.634  10.097  16.844  1.00  0.00     0.260 C 
BRANCH  25  26
HETATM   26  O4  UNL     1       8.529  10.330  15.971  1.00  0.00    -0.314 OA
BRANCH  26  27
HETATM   27  C17 UNL     1       7.514   9.432  16.079  1.00  0.00     0.259 C 
HETATM   28  O5  UNL     1       7.438   8.567  16.942  1.00  0.00    -0.265 OA
BRANCH  27  29
HETATM   29  C18 UNL     1       6.479   9.689  15.017  1.00  0.00     0.120 C 
BRANCH  29  30
HETATM   30  C19 UNL     1       6.014   8.385  14.382  1.00  0.00     0.112 C 
BRANCH  30  31
HETATM   31  C20 UNL     1       6.087   8.448  12.872  1.00  0.00     0.217 C 
HETATM   32  O6  UNL     1       6.349   9.470  12.250  1.00  0.00    -0.274 OA
HETATM   33  N1  UNL     1       5.822   7.236  12.272  1.00  0.00    -0.361 N 
HETATM   34  H26 UNL     1       5.512   6.462  12.846  1.00  0.00     0.162 HD
BRANCH  33  35
HETATM   35  C21 UNL     1       5.757   7.097  10.830  1.00  0.00     0.122 C 
BRANCH  35  36
HETATM   36  C22 UNL     1       4.451   6.436  10.399  1.00  0.00     0.020 C 
BRANCH  36  37
HETATM   37  C23 UNL     1       3.223   7.345  10.498  1.00  0.00     0.002 C 
BRANCH  37  38
HETATM   38  C24 UNL     1       1.989   6.834   9.746  1.00  0.00     0.010 C 
BRANCH  38  39
HETATM   39  C25 UNL     1       2.295   6.391   8.315  1.00  0.00     0.110 C 
BRANCH  39  40
HETATM   40  C26 UNL     1       2.267   7.554   7.359  1.00  0.00     0.139 C 
HETATM   41  O7  UNL     1       2.747   8.662   7.523  1.00  0.00    -0.650 OA
BRANCH  40  42
HETATM   42  O8  UNL     1       1.601   7.257   6.227  1.00  0.00    -0.776 OA
HETATM   43  H37 UNL     1       1.657   8.081   5.698  1.00  0.00     0.167 HD
ENDBRANCH  40  42
ENDBRANCH  39  40
ENDBRANCH  38  39
ENDBRANCH  37  38
ENDBRANCH  36  37
ENDBRANCH  35  36
ENDBRANCH  33  35
ENDBRANCH  30  31
ENDBRANCH  29  30
ENDBRANCH  27  29
ENDBRANCH  26  27
ENDBRANCH  25  26
ENDBRANCH  23  25
ENDBRANCH  15  23
TORSDOF 15
ENDMDL
MODEL 7
REMARK minimizedAffinity -7.45114803
REMARK CNNscore 0.216960266
REMARK CNNaffinity 6.78060102
REMARK  15 active torsions:
REMARK  status: ('A' for Active; 'I' for Inactive)
REMARK    1  A    between atoms: C14_15  and  O2_16 
REMARK    2  A    between atoms: C14_15  and  C15_17 
REMARK    3  A    between atoms: C15_17  and  C16_19 
REMARK    4  A    between atoms: C16_19  and  O4_20 
REMARK    5  A    between atoms: O4_20  and  C17_21 
REMARK    6  A    between atoms: C17_21  and  C18_23 
REMARK    7  A    between atoms: C18_23  and  C19_24 
REMARK    8  A    between atoms: C19_24  and  C20_25 
REMARK       I    between atoms: C20_25  and  N1_27 
REMARK    9  A    between atoms: N1_27  and  C21_28 
REMARK   10  A    between atoms: C21_28  and  C22_29 
REMARK   11  A    between atoms: C22_29  and  C23_30 
REMARK   12  A    between atoms: C23_30  and  C24_31 
REMARK   13  A    between atoms: C24_31  and  C25_32 
REMARK   14  A    between atoms: C25_32  and  C26_33 
REMARK   15  A    between atoms: C26_33  and  O8_35 
ROOT
HETATM    1  C1  UNL     1       1.485   5.019  11.188  1.00  0.00     0.020 C 
HETATM    2  C2  UNL     1       1.021   6.493  11.129  1.00  0.00    -0.016 C 
HETATM    3  C3  UNL     1       0.449   6.780   9.706  1.00  0.00     0.022 C 
HETATM    4  C4  UNL     1       1.513   6.900   8.625  1.00  0.00     0.084 C 
HETATM    5  C5  UNL     1       2.534   7.938   9.006  1.00  0.00     0.149 C 
HETATM    6  O1  UNL     1       3.129   8.614   8.171  1.00  0.00    -0.293 OA
HETATM    7  C6  UNL     1       2.886   8.073  10.438  1.00  0.00     0.053 C 
HETATM    8  C7  UNL     1       2.235   7.387  11.394  1.00  0.00    -0.068 C 
HETATM    9  C8  UNL     1       2.713   7.460  12.822  1.00  0.00     0.035 C 
HETATM   10  C9  UNL     1       1.584   7.803  13.786  1.00  0.00     0.010 C 
HETATM   11  C10 UNL     1       0.386   6.849  13.650  1.00  0.00    -0.004 C 
HETATM   12  C11 UNL     1      -0.745   7.038  14.718  1.00  0.00     0.002 C 
HETATM   13  C12 UNL     1      -0.657   8.291  15.601  1.00  0.00     0.009 C 
HETATM   14  C13 UNL     1      -1.399   9.372  14.832  1.00  0.00     0.047 C 
HETATM   15  C14 UNL     1      -2.493   8.651  14.027  1.00  0.00     0.128 C 
HETATM   16  C27 UNL     1      -2.223   7.100  14.205  1.00  0.00    -0.002 C 
HETATM   17  C28 UNL     1      -3.134   6.514  15.322  1.00  0.00     0.019 C 
HETATM   18  C29 UNL     1      -2.500   6.256  12.940  1.00  0.00     0.013 C 
HETATM   19  C30 UNL     1      -1.293   5.837  12.110  1.00  0.00     0.007 C 
HETATM   20  C31 UNL     1      -0.112   6.809  12.187  1.00  0.00     0.002 C 
ENDROOT
BRANCH  15  21
HETATM   21  O2  UNL     1      -2.292   9.062  12.661  1.00  0.00    -0.381 OA
HETATM   22  H19 UNL     1      -3.122   8.862  12.180  1.00  0.00     0.211 HD
ENDBRANCH  15  21
BRANCH  15  23
HETATM   23  C15 UNL     1      -3.952   9.083  14.315  1.00  0.00     0.185 C 
HETATM   24  O3  UNL     1      -4.155  10.124  14.957  1.00  0.00    -0.292 OA
BRANCH  23  25
HETATM   25  C16 UNL     1      -5.105   8.202  13.837  1.00  0.00     0.260 C 
BRANCH  25  26
HETATM   26  O4  UNL     1      -6.334   8.465  14.515  1.00  0.00    -0.314 OA
BRANCH  26  27
HETATM   27  C17 UNL     1      -6.735   7.488  15.372  1.00  0.00     0.259 C 
HETATM   28  O5  UNL     1      -6.017   6.588  15.787  1.00  0.00    -0.265 OA
BRANCH  27  29
HETATM   29  C18 UNL     1      -8.170   7.706  15.769  1.00  0.00     0.120 C 
BRANCH  29  30
HETATM   30  C19 UNL     1      -9.118   7.157  14.711  1.00  0.00     0.112 C 
BRANCH  30  31
HETATM   31  C20 UNL     1      -8.397   6.248  13.740  1.00  0.00     0.217 C 
HETATM   32  O6  UNL     1      -8.266   6.500  12.549  1.00  0.00    -0.274 OA
HETATM   33  N1  UNL     1      -7.911   5.105  14.338  1.00  0.00    -0.361 N 
HETATM   34  H26 UNL     1      -8.149   4.917  15.304  1.00  0.00     0.162 HD
BRANCH  33  35
HETATM   35  C21 UNL     1      -7.261   4.061  13.570  1.00  0.00     0.122 C 
BRANCH  35  36
HETATM   36  C22 UNL     1      -5.959   4.560  12.952  1.00  0.00     0.020 C 
BRANCH  36  37
HETATM   37  C23 UNL     1      -4.780   3.594  13.103  1.00  0.00     0.002 C 
BRANCH  37  38
HETATM   38  C24 UNL     1      -4.213   3.069  11.779  1.00  0.00     0.010 C 
BRANCH  38  39
HETATM   39  C25 UNL     1      -4.514   1.590  11.538  1.00  0.00     0.110 C 
BRANCH  39  40
HETATM   40  C26 UNL     1      -5.939   1.382  11.098  1.00  0.00     0.139 C 
HETATM   41  O7  UNL     1      -6.409   1.565   9.990  1.00  0.00    -0.650 OA
BRANCH  40  42
HETATM   42  O8  UNL     1      -6.720   0.961  12.112  1.00  0.00    -0.776 OA
HETATM   43  H37 UNL     1      -7.605   0.861  11.702  1.00  0.00     0.167 HD
ENDBRANCH  40  42
ENDBRANCH  39  40
ENDBRANCH  38  39
ENDBRANCH  37  38
ENDBRANCH  36  37
ENDBRANCH  35  36
ENDBRANCH  33  35
ENDBRANCH  30  31
ENDBRANCH  29  30
ENDBRANCH  27  29
ENDBRANCH  26  27
ENDBRANCH  25  26
ENDBRANCH  23  25
ENDBRANCH  15  23
TORSDOF 15
ENDMDL
MODEL 8
REMARK minimizedAffinity -7.08321571
REMARK CNNscore 0.210957333
REMARK CNNaffinity 6.28295469
REMARK  15 active torsions:
REMARK  status: ('A' for Active; 'I' for Inactive)
REMARK    1  A    between atoms: C14_15  and  O2_16 
REMARK    2  A    between atoms: C14_15  and  C15_17 
REMARK    3  A    between atoms: C15_17  and  C16_19 
REMARK    4  A    between atoms: C16_19  and  O4_20 
REMARK    5  A    between atoms: O4_20  and  C17_21 
REMARK    6  A    between atoms: C17_21  and  C18_23 
REMARK    7  A    between atoms: C18_23  and  C19_24 
REMARK    8  A    between atoms: C19_24  and  C20_25 
REMARK       I    between atoms: C20_25  and  N1_27 
REMARK    9  A    between atoms: N1_27  and  C21_28 
REMARK   10  A    between atoms: C21_28  and  C22_29 
REMARK   11  A    between atoms: C22_29  and  C23_30 
REMARK   12  A    between atoms: C23_30  and  C24_31 
REMARK   13  A    between atoms: C24_31  and  C25_32 
REMARK   14  A    between atoms: C25_32  and  C26_33 
REMARK   15  A    between atoms: C26_33  and  O8_35 
ROOT
HETATM    1  C1  UNL     1       2.291   7.805   8.878  1.00  0.00     0.020 C 
HETATM    2  C2  UNL     1       2.676   7.578  10.358  1.00  0.00    -0.016 C 
HETATM    3  C3  UNL     1       3.572   8.765  10.829  1.00  0.00     0.022 C 
HETATM    4  C4  UNL     1       4.992   8.722  10.284  1.00  0.00     0.084 C 
HETATM    5  C5  UNL     1       5.640   7.404  10.611  1.00  0.00     0.149 C 
HETATM    6  O1  UNL     1       6.849   7.295  10.800  1.00  0.00    -0.293 OA
HETATM    7  C6  UNL     1       4.789   6.193  10.613  1.00  0.00     0.053 C 
HETATM    8  C7  UNL     1       3.456   6.265  10.453  1.00  0.00    -0.068 C 
HETATM    9  C8  UNL     1       2.649   4.997  10.333  1.00  0.00     0.035 C 
HETATM   10  C9  UNL     1       1.467   4.978  11.295  1.00  0.00     0.010 C 
HETATM   11  C10 UNL     1       0.574   6.221  11.148  1.00  0.00    -0.004 C 
HETATM   12  C11 UNL     1      -0.750   6.197  11.989  1.00  0.00     0.002 C 
HETATM   13  C12 UNL     1      -0.881   5.081  13.036  1.00  0.00     0.009 C 
HETATM   14  C13 UNL     1      -0.257   5.648  14.300  1.00  0.00     0.047 C 
HETATM   15  C14 UNL     1      -0.497   7.166  14.253  1.00  0.00     0.128 C 
HETATM   16  C27 UNL     1      -1.102   7.474  12.822  1.00  0.00    -0.002 C 
HETATM   17  C28 UNL     1      -2.653   7.573  12.898  1.00  0.00     0.019 C 
HETATM   18  C29 UNL     1      -0.619   8.803  12.198  1.00  0.00     0.013 C 
HETATM   19  C30 UNL     1       0.473   8.712  11.138  1.00  0.00     0.007 C 
HETATM   20  C31 UNL     1       1.409   7.512  11.305  1.00  0.00     0.002 C 
ENDROOT
BRANCH  15  21
HETATM   21  O2  UNL     1       0.806   7.763  14.408  1.00  0.00    -0.381 OA
HETATM   22  H19 UNL     1       0.661   8.696  14.668  1.00  0.00     0.211 HD
ENDBRANCH  15  21
BRANCH  15  23
HETATM   23  C15 UNL     1      -1.301   7.769  15.431  1.00  0.00     0.185 C 
HETATM   24  O3  UNL     1      -2.008   7.020  16.122  1.00  0.00    -0.292 OA
BRANCH  23  25
HETATM   25  C16 UNL     1      -1.239   9.273  15.692  1.00  0.00     0.260 C 
BRANCH  25  26
HETATM   26  O4  UNL     1      -2.382   9.773  16.387  1.00  0.00    -0.314 OA
BRANCH  26  27
HETATM   27  C17 UNL     1      -3.140  10.655  15.682  1.00  0.00     0.259 C 
HETATM   28  O5  UNL     1      -2.701  11.624  15.078  1.00  0.00    -0.265 OA
BRANCH  27  29
HETATM   29  C18 UNL     1      -4.585  10.237  15.714  1.00  0.00     0.120 C 
BRANCH  29  30
HETATM   30  C19 UNL     1      -4.712   8.724  15.845  1.00  0.00     0.112 C 
BRANCH  30  31
HETATM   31  C20 UNL     1      -6.051   8.236  15.339  1.00  0.00     0.217 C 
HETATM   32  O6  UNL     1      -6.492   8.501  14.227  1.00  0.00    -0.274 OA
HETATM   33  N1  UNL     1      -6.726   7.468  16.264  1.00  0.00    -0.361 N 
HETATM   34  H26 UNL     1      -6.346   7.379  17.198  1.00  0.00     0.162 HD
BRANCH  33  35
HETATM   35  C21 UNL     1      -8.065   6.972  16.012  1.00  0.00     0.122 C 
BRANCH  35  36
HETATM   36  C22 UNL     1      -8.054   5.871  14.956  1.00  0.00     0.020 C 
BRANCH  36  37
HETATM   37  C23 UNL     1      -9.055   6.085  13.815  1.00  0.00     0.002 C 
BRANCH  37  38
HETATM   38  C24 UNL     1     -10.094   7.181  14.076  1.00  0.00     0.010 C 
BRANCH  38  39
HETATM   39  C25 UNL     1     -11.109   7.332  12.943  1.00  0.00     0.110 C 
BRANCH  39  40
HETATM   40  C26 UNL     1     -12.523   7.231  13.452  1.00  0.00     0.139 C 
HETATM   41  O7  UNL     1     -13.035   6.297  14.043  1.00  0.00    -0.650 OA
BRANCH  40  42
HETATM   42  O8  UNL     1     -13.240   8.334  13.162  1.00  0.00    -0.776 OA
HETATM   43  H37 UNL     1     -14.124   8.147  13.543  1.00  0.00     0.167 HD
ENDBRANCH  40  42
ENDBRANCH  39  40
ENDBRANCH  38  39
ENDBRANCH  37  38
ENDBRANCH  36  37
ENDBRANCH  35  36
ENDBRANCH  33  35
ENDBRANCH  30  31
ENDBRANCH  29  30
ENDBRANCH  27  29
ENDBRANCH  26  27
ENDBRANCH  25  26
ENDBRANCH  23  25
ENDBRANCH  15  23
TORSDOF 15
ENDMDL
MODEL 9
REMARK minimizedAffinity -7.57124901
REMARK CNNscore 0.201029792
REMARK CNNaffinity 5.92823076
REMARK  15 active torsions:
REMARK  status: ('A' for Active; 'I' for Inactive)
REMARK    1  A    between atoms: C14_15  and  O2_16 
REMARK    2  A    between atoms: C14_15  and  C15_17 
REMARK    3  A    between atoms: C15_17  and  C16_19 
REMARK    4  A    between atoms: C16_19  and  O4_20 
REMARK    5  A    between atoms: O4_20  and  C17_21 
REMARK    6  A    between atoms: C17_21  and  C18_23 
REMARK    7  A    between atoms: C18_23  and  C19_24 
REMARK    8  A    between atoms: C19_24  and  C20_25 
REMARK       I    between atoms: C20_25  and  N1_27 
REMARK    9  A    between atoms: N1_27  and  C21_28 
REMARK   10  A    between atoms: C21_28  and  C22_29 
REMARK   11  A    between atoms: C22_29  and  C23_30 
REMARK   12  A    between atoms: C23_30  and  C24_31 
REMARK   13  A    between atoms: C24_31  and  C25_32 
REMARK   14  A    between atoms: C25_32  and  C26_33 
REMARK   15  A    between atoms: C26_33  and  O8_35 
ROOT
HETATM    1  C1  UNL     1      -2.306   5.528  12.146  1.00  0.00     0.020 C 
HETATM    2  C2  UNL     1      -1.133   6.276  12.821  1.00  0.00    -0.016 C 
HETATM    3  C3  UNL     1      -0.821   5.588  14.186  1.00  0.00     0.022 C 
HETATM    4  C4  UNL     1      -1.845   5.879  15.273  1.00  0.00     0.084 C 
HETATM    5  C5  UNL     1      -2.013   7.364  15.452  1.00  0.00     0.149 C 
HETATM    6  O1  UNL     1      -2.300   7.867  16.535  1.00  0.00    -0.293 OA
HETATM    7  C6  UNL     1      -1.914   8.223  14.251  1.00  0.00     0.053 C 
HETATM    8  C7  UNL     1      -1.561   7.726  13.052  1.00  0.00    -0.068 C 
HETATM    9  C8  UNL     1      -1.598   8.616  11.835  1.00  0.00     0.035 C 
HETATM   10  C9  UNL     1      -0.291   8.571  11.054  1.00  0.00     0.010 C 
HETATM   11  C10 UNL     1       0.118   7.136  10.681  1.00  0.00    -0.004 C 
HETATM   12  C11 UNL     1       1.365   7.020   9.737  1.00  0.00     0.002 C 
HETATM   13  C12 UNL     1       2.176   8.304   9.505  1.00  0.00     0.009 C 
HETATM   14  C13 UNL     1       3.203   8.333  10.623  1.00  0.00     0.047 C 
HETATM   15  C14 UNL     1       3.514   6.865  10.959  1.00  0.00     0.128 C 
HETATM   16  C27 UNL     1       2.480   5.994  10.133  1.00  0.00    -0.002 C 
HETATM   17  C28 UNL     1       3.132   5.478   8.818  1.00  0.00     0.019 C 
HETATM   18  C29 UNL     1       1.965   4.741  10.876  1.00  0.00     0.013 C 
HETATM   19  C30 UNL     1       0.582   4.831  11.510  1.00  0.00     0.007 C 
HETATM   20  C31 UNL     1       0.183   6.245  11.942  1.00  0.00     0.002 C 
ENDROOT
BRANCH  15  21
HETATM   21  O2  UNL     1       3.284   6.742  12.376  1.00  0.00    -0.381 OA
HETATM   22  H19 UNL     1       3.739   5.924  12.667  1.00  0.00     0.211 HD
ENDBRANCH  15  21
BRANCH  15  23
HETATM   23  C15 UNL     1       4.990   6.424  10.802  1.00  0.00     0.185 C 
HETATM   24  O3  UNL     1       5.236   5.304  10.330  1.00  0.00    -0.292 OA
BRANCH  23  25
HETATM   25  C16 UNL     1       6.107   7.358  11.266  1.00  0.00     0.260 C 
BRANCH  25  26
HETATM   26  O4  UNL     1       6.146   7.529  12.684  1.00  0.00    -0.314 OA
BRANCH  26  27
HETATM   27  C17 UNL     1       7.384   7.751  13.199  1.00  0.00     0.259 C 
HETATM   28  O5  UNL     1       8.325   8.224  12.575  1.00  0.00    -0.265 OA
BRANCH  27  29
HETATM   29  C18 UNL     1       7.413   7.377  14.656  1.00  0.00     0.120 C 
BRANCH  29  30
HETATM   30  C19 UNL     1       7.179   8.597  15.538  1.00  0.00     0.112 C 
BRANCH  30  31
HETATM   31  C20 UNL     1       8.277   8.754  16.567  1.00  0.00     0.217 C 
HETATM   32  O6  UNL     1       9.093   7.878  16.824  1.00  0.00    -0.274 OA
HETATM   33  N1  UNL     1       8.255   9.984  17.189  1.00  0.00    -0.361 N 
HETATM   34  H26 UNL     1       7.488  10.617  17.000  1.00  0.00     0.162 HD
BRANCH  33  35
HETATM   35  C21 UNL     1       9.168  10.309  18.268  1.00  0.00     0.122 C 
BRANCH  35  36
HETATM   36  C22 UNL     1       8.719  11.563  19.011  1.00  0.00     0.020 C 
BRANCH  36  37
HETATM   37  C23 UNL     1       9.306  11.705  20.418  1.00  0.00     0.002 C 
BRANCH  37  38
HETATM   38  C24 UNL     1      10.621  12.490  20.484  1.00  0.00     0.010 C 
BRANCH  38  39
HETATM   39  C25 UNL     1      11.834  11.673  20.041  1.00  0.00     0.110 C 
BRANCH  39  40
HETATM   40  C26 UNL     1      13.001  12.561  19.695  1.00  0.00     0.139 C 
HETATM   41  O7  UNL     1      14.185  12.275  19.717  1.00  0.00    -0.650 OA
BRANCH  40  42
HETATM   42  O8  UNL     1      12.603  13.801  19.351  1.00  0.00    -0.776 OA
HETATM   43  H37 UNL     1      13.440  14.270  19.150  1.00  0.00     0.167 HD
ENDBRANCH  40  42
ENDBRANCH  39  40
ENDBRANCH  38  39
ENDBRANCH  37  38
ENDBRANCH  36  37
ENDBRANCH  35  36
ENDBRANCH  33  35
ENDBRANCH  30  31
ENDBRANCH  29  30
ENDBRANCH  27  29
ENDBRANCH  26  27
ENDBRANCH  25  26
ENDBRANCH  23  25
ENDBRANCH  15  23
TORSDOF 15
ENDMDL
