MODEL 1
REMARK minimizedAffinity -9.93653488
REMARK  7 active torsions:
REMARK  status: ('A' for Active; 'I' for Inactive)
REMARK    1  A    between atoms: C4_4  and  C5_5 
REMARK    2  A    between atoms: C5_5  and  C6_6 
REMARK    3  A    between atoms: C6_6  and  C7_7 
REMARK    4  A    between atoms: C7_7  and  C9_9 
REMARK    5  A    between atoms: C16_16  and  O1_17 
REMARK    6  A    between atoms: C18_19  and  O2_20 
REMARK    7  A    between atoms: C19_21  and  O3_22 
ROOT
HETATM    1  C9  UNL     1       1.579   6.614  12.569  1.00  0.00    -0.002 C 
HETATM    2  C10 UNL     1       0.940   7.816  13.324  1.00  0.00     0.006 C 
HETATM    3  C11 UNL     1      -0.573   7.559  13.389  1.00  0.00     0.011 C 
HETATM    4  C12 UNL     1      -0.730   6.054  13.108  1.00  0.00    -0.032 C 
HETATM    5  C13 UNL     1      -0.424   5.309  14.445  1.00  0.00     0.016 C 
HETATM    6  C14 UNL     1      -2.130   5.646  12.575  1.00  0.00     0.006 C 
HETATM    7  C15 UNL     1      -3.245   5.706  13.630  1.00  0.00     0.038 C 
HETATM    8  C16 UNL     1      -4.597   5.364  13.007  1.00  0.00     0.126 C 
HETATM    9  C17 UNL     1      -4.621   3.888  12.578  1.00  0.00     0.055 C 
HETATM   10  C18 UNL     1      -5.892   3.536  11.771  1.00  0.00     0.154 C 
HETATM   11  C19 UNL     1      -5.875   2.067  11.272  1.00  0.00     0.147 C 
HETATM   12  C20 UNL     1      -4.714   1.252  11.847  1.00  0.00     0.035 C 
HETATM   13  C21 UNL     1      -3.348   1.917  11.636  1.00  0.00     0.013 C 
HETATM   14  C22 UNL     1      -3.400   3.435  11.792  1.00  0.00    -0.023 A 
HETATM   15  C23 UNL     1      -2.957   4.225  10.585  1.00  0.00     0.021 A 
HETATM   16  C24 UNL     1      -2.103   4.282  11.839  1.00  0.00    -0.027 A 
HETATM   17  C25 UNL     1      -0.776   3.515  11.817  1.00  0.00     0.011 C 
HETATM   18  C26 UNL     1       0.529   4.333  11.784  1.00  0.00     0.011 C 
HETATM   19  C27 UNL     1       0.350   5.843  11.978  1.00  0.00    -0.032 C 
HETATM   20  C28 UNL     1      -0.047   6.448  10.606  1.00  0.00     0.016 C 
ENDROOT
BRANCH   1  21
HETATM   21  C7  UNL     1       2.827   7.017  11.723  1.00  0.00    -0.014 C 
HETATM   22  C8  UNL     1       4.117   7.332  12.496  1.00  0.00     0.010 C 
BRANCH  21  23
HETATM   23  C6  UNL     1       2.571   8.156  10.709  1.00  0.00     0.008 C 
BRANCH  23  24
HETATM   24  C5  UNL     1       3.513   8.139   9.500  1.00  0.00     0.028 C 
BRANCH  24  25
HETATM   25  C4  UNL     1       2.729   8.116   8.215  1.00  0.00    -0.025 C 
HETATM   26  C2  UNL     1       2.408   7.056   7.448  1.00  0.00    -0.091 C 
HETATM   27  C1  UNL     1       1.599   7.242   6.190  1.00  0.00     0.042 C 
HETATM   28  C3  UNL     1       2.789   5.627   7.724  1.00  0.00     0.042 C 
ENDBRANCH  24  25
ENDBRANCH  23  24
ENDBRANCH  21  23
ENDBRANCH   1  21
BRANCH   8  29
HETATM   29  O1  UNL     1      -5.601   5.614  13.994  1.00  0.00    -0.395 OA
HETATM   30  H28 UNL     1      -6.391   5.096  13.725  1.00  0.00     0.210 HD
ENDBRANCH   8  29
BRANCH  10  31
HETATM   31  O2  UNL     1      -7.043   3.766  12.600  1.00  0.00    -0.393 OA
HETATM   32  H31 UNL     1      -7.833   3.539  12.076  1.00  0.00     0.210 HD
ENDBRANCH  10  31
BRANCH  11  33
HETATM   33  O3  UNL     1      -5.776   2.034   9.846  1.00  0.00    -0.393 OA
HETATM   34  H33 UNL     1      -6.564   2.469   9.478  1.00  0.00     0.210 HD
ENDBRANCH  11  33
TORSDOF 7
ENDMDL
MODEL 2
REMARK minimizedAffinity -9.32891846
REMARK  7 active torsions:
REMARK  status: ('A' for Active; 'I' for Inactive)
REMARK    1  A    between atoms: C4_4  and  C5_5 
REMARK    2  A    between atoms: C5_5  and  C6_6 
REMARK    3  A    between atoms: C6_6  and  C7_7 
REMARK    4  A    between atoms: C7_7  and  C9_9 
REMARK    5  A    between atoms: C16_16  and  O1_17 
REMARK    6  A    between atoms: C18_19  and  O2_20 
REMARK    7  A    between atoms: C19_21  and  O3_22 
ROOT
HETATM    1  C9  UNL     1      -3.079   7.788  13.830  1.00  0.00    -0.002 C 
HETATM    2  C10 UNL     1      -3.589   6.516  13.091  1.00  0.00     0.006 C 
HETATM    3  C11 UNL     1      -2.402   5.944  12.301  1.00  0.00     0.011 C 
HETATM    4  C12 UNL     1      -1.157   6.583  12.941  1.00  0.00    -0.032 C 
HETATM    5  C13 UNL     1      -0.844   5.769  14.235  1.00  0.00     0.016 C 
HETATM    6  C14 UNL     1       0.090   6.619  12.016  1.00  0.00     0.006 C 
HETATM    7  C15 UNL     1       0.742   5.248  11.787  1.00  0.00     0.038 C 
HETATM    8  C16 UNL     1       1.909   5.362  10.810  1.00  0.00     0.126 C 
HETATM    9  C17 UNL     1       3.051   6.172  11.444  1.00  0.00     0.055 C 
HETATM   10  C18 UNL     1       4.179   6.480  10.434  1.00  0.00     0.154 C 
HETATM   11  C19 UNL     1       5.290   7.367  11.057  1.00  0.00     0.147 C 
HETATM   12  C20 UNL     1       5.120   7.571  12.564  1.00  0.00     0.035 C 
HETATM   13  C21 UNL     1       3.728   8.089  12.948  1.00  0.00     0.013 C 
HETATM   14  C22 UNL     1       2.615   7.472  12.105  1.00  0.00    -0.023 A 
HETATM   15  C23 UNL     1       1.771   8.454  11.330  1.00  0.00     0.021 A 
HETATM   16  C24 UNL     1       1.123   7.683  12.466  1.00  0.00    -0.027 A 
HETATM   17  C25 UNL     1       0.828   8.456  13.756  1.00  0.00     0.011 C 
HETATM   18  C26 UNL     1      -0.645   8.750  14.100  1.00  0.00     0.011 C 
HETATM   19  C27 UNL     1      -1.670   8.051  13.198  1.00  0.00    -0.032 C 
HETATM   20  C28 UNL     1      -1.817   8.903  11.910  1.00  0.00     0.016 C 
ENDROOT
BRANCH   1  21
HETATM   21  C7  UNL     1      -4.174   8.890  13.977  1.00  0.00    -0.014 C 
HETATM   22  C8  UNL     1      -3.876  10.038  14.954  1.00  0.00     0.010 C 
BRANCH  21  23
HETATM   23  C6  UNL     1      -5.591   8.348  14.274  1.00  0.00     0.008 C 
BRANCH  23  24
HETATM   24  C5  UNL     1      -5.657   6.823  14.423  1.00  0.00     0.028 C 
BRANCH  24  25
HETATM   25  C4  UNL     1      -6.906   6.279  13.783  1.00  0.00    -0.025 C 
HETATM   26  C2  UNL     1      -7.108   5.065  13.236  1.00  0.00    -0.091 C 
HETATM   27  C1  UNL     1      -8.449   4.706  12.650  1.00  0.00     0.042 C 
HETATM   28  C3  UNL     1      -6.085   3.966  13.140  1.00  0.00     0.042 C 
ENDBRANCH  24  25
ENDBRANCH  23  24
ENDBRANCH  21  23
ENDBRANCH   1  21
BRANCH   8  29
HETATM   29  O1  UNL     1       2.349   4.034  10.507  1.00  0.00    -0.395 OA
HETATM   30  H28 UNL     1       3.267   4.115  10.169  1.00  0.00     0.210 HD
ENDBRANCH   8  29
BRANCH  10  31
HETATM   31  O2  UNL     1       4.735   5.239   9.971  1.00  0.00    -0.393 OA
HETATM   32  H31 UNL     1       5.444   5.453   9.336  1.00  0.00     0.210 HD
ENDBRANCH  10  31
BRANCH  11  33
HETATM   33  O3  UNL     1       5.300   8.654  10.433  1.00  0.00    -0.393 OA
HETATM   34  H33 UNL     1       5.503   8.532   9.490  1.00  0.00     0.210 HD
ENDBRANCH  11  33
TORSDOF 7
ENDMDL
MODEL 3
REMARK minimizedAffinity -9.1064415
REMARK  7 active torsions:
REMARK  status: ('A' for Active; 'I' for Inactive)
REMARK    1  A    between atoms: C4_4  and  C5_5 
REMARK    2  A    between atoms: C5_5  and  C6_6 
REMARK    3  A    between atoms: C6_6  and  C7_7 
REMARK    4  A    between atoms: C7_7  and  C9_9 
REMARK    5  A    between atoms: C16_16  and  O1_17 
REMARK    6  A    between atoms: C18_19  and  O2_20 
REMARK    7  A    between atoms: C19_21  and  O3_22 
ROOT
HETATM    1  C9  UNL     1      -2.762   8.201  14.933  1.00  0.00    -0.002 C 
HETATM    2  C10 UNL     1      -1.791   7.903  16.113  1.00  0.00     0.006 C 
HETATM    3  C11 UNL     1      -0.427   7.550  15.501  1.00  0.00     0.011 C 
HETATM    4  C12 UNL     1      -0.490   8.088  14.061  1.00  0.00    -0.032 C 
HETATM    5  C13 UNL     1      -0.195   9.618  14.135  1.00  0.00     0.016 C 
HETATM    6  C14 UNL     1       0.497   7.399  13.078  1.00  0.00     0.006 C 
HETATM    7  C15 UNL     1       1.969   7.773  13.302  1.00  0.00     0.038 C 
HETATM    8  C16 UNL     1       2.874   6.998  12.347  1.00  0.00     0.126 C 
HETATM    9  C17 UNL     1       2.629   7.454  10.900  1.00  0.00     0.055 C 
HETATM   10  C18 UNL     1       3.378   6.572   9.876  1.00  0.00     0.154 C 
HETATM   11  C19 UNL     1       3.064   6.986   8.413  1.00  0.00     0.147 C 
HETATM   12  C20 UNL     1       2.249   8.279   8.318  1.00  0.00     0.035 C 
HETATM   13  C21 UNL     1       0.971   8.249   9.164  1.00  0.00     0.013 C 
HETATM   14  C22 UNL     1       1.163   7.534  10.500  1.00  0.00    -0.023 A 
HETATM   15  C23 UNL     1       0.262   6.346  10.733  1.00  0.00     0.021 A 
HETATM   16  C24 UNL     1       0.071   7.579  11.599  1.00  0.00    -0.027 A 
HETATM   17  C25 UNL     1      -1.158   8.449  11.316  1.00  0.00     0.011 C 
HETATM   18  C26 UNL     1      -2.295   8.451  12.355  1.00  0.00     0.011 C 
HETATM   19  C27 UNL     1      -1.972   7.724  13.667  1.00  0.00    -0.032 C 
HETATM   20  C28 UNL     1      -2.209   6.209  13.433  1.00  0.00     0.016 C 
ENDROOT
BRANCH   1  21
HETATM   21  C7  UNL     1      -4.236   7.785  15.233  1.00  0.00    -0.014 C 
HETATM   22  C8  UNL     1      -4.445   6.435  15.936  1.00  0.00     0.010 C 
BRANCH  21  23
HETATM   23  C6  UNL     1      -5.181   7.855  14.012  1.00  0.00     0.008 C 
BRANCH  23  24
HETATM   24  C5  UNL     1      -6.237   6.744  13.975  1.00  0.00     0.028 C 
BRANCH  24  25
HETATM   25  C4  UNL     1      -5.793   5.617  13.081  1.00  0.00    -0.025 C 
HETATM   26  C2  UNL     1      -6.266   4.357  13.021  1.00  0.00    -0.091 C 
HETATM   27  C1  UNL     1      -5.688   3.371  12.040  1.00  0.00     0.042 C 
HETATM   28  C3  UNL     1      -7.370   3.795  13.875  1.00  0.00     0.042 C 
ENDBRANCH  24  25
ENDBRANCH  23  24
ENDBRANCH  21  23
ENDBRANCH   1  21
BRANCH   8  29
HETATM   29  O1  UNL     1       4.227   7.258  12.730  1.00  0.00    -0.395 OA
HETATM   30  H28 UNL     1       4.783   7.048  11.948  1.00  0.00     0.210 HD
ENDBRANCH   8  29
BRANCH  10  31
HETATM   31  O2  UNL     1       4.789   6.671  10.127  1.00  0.00    -0.393 OA
HETATM   32  H31 UNL     1       5.244   6.109   9.473  1.00  0.00     0.210 HD
ENDBRANCH  10  31
BRANCH  11  33
HETATM   33  O3  UNL     1       2.329   5.950   7.756  1.00  0.00    -0.393 OA
HETATM   34  H33 UNL     1       2.886   5.153   7.732  1.00  0.00     0.210 HD
ENDBRANCH  11  33
TORSDOF 7
ENDMDL
MODEL 4
REMARK minimizedAffinity -8.95708752
REMARK  7 active torsions:
REMARK  status: ('A' for Active; 'I' for Inactive)
REMARK    1  A    between atoms: C4_4  and  C5_5 
REMARK    2  A    between atoms: C5_5  and  C6_6 
REMARK    3  A    between atoms: C6_6  and  C7_7 
REMARK    4  A    between atoms: C7_7  and  C9_9 
REMARK    5  A    between atoms: C16_16  and  O1_17 
REMARK    6  A    between atoms: C18_19  and  O2_20 
REMARK    7  A    between atoms: C19_21  and  O3_22 
ROOT
HETATM    1  C9  UNL     1       0.793   6.346  12.541  1.00  0.00    -0.002 C 
HETATM    2  C10 UNL     1       1.190   4.993  11.880  1.00  0.00     0.006 C 
HETATM    3  C11 UNL     1      -0.078   4.128  11.821  1.00  0.00     0.011 C 
HETATM    4  C12 UNL     1      -1.242   5.118  12.000  1.00  0.00    -0.032 C 
HETATM    5  C13 UNL     1      -1.487   5.785  10.611  1.00  0.00     0.016 C 
HETATM    6  C14 UNL     1      -2.554   4.474  12.525  1.00  0.00     0.006 C 
HETATM    7  C15 UNL     1      -3.278   3.597  11.495  1.00  0.00     0.038 C 
HETATM    8  C16 UNL     1      -4.512   2.944  12.113  1.00  0.00     0.126 C 
HETATM    9  C17 UNL     1      -5.566   4.014  12.440  1.00  0.00     0.055 C 
HETATM   10  C18 UNL     1      -6.755   3.436  13.240  1.00  0.00     0.154 C 
HETATM   11  C19 UNL     1      -7.777   4.535  13.637  1.00  0.00     0.147 C 
HETATM   12  C20 UNL     1      -7.482   5.890  12.990  1.00  0.00     0.035 C 
HETATM   13  C21 UNL     1      -6.044   6.370  13.225  1.00  0.00     0.013 C 
HETATM   14  C22 UNL     1      -5.026   5.233  13.174  1.00  0.00    -0.023 A 
HETATM   15  C23 UNL     1      -4.205   5.044  14.426  1.00  0.00     0.021 A 
HETATM   16  C24 UNL     1      -3.504   5.519  13.165  1.00  0.00    -0.027 A 
HETATM   17  C25 UNL     1      -3.077   6.989  13.114  1.00  0.00     0.011 C 
HETATM   18  C26 UNL     1      -1.571   7.307  13.184  1.00  0.00     0.011 C 
HETATM   19  C27 UNL     1      -0.649   6.085  13.096  1.00  0.00    -0.032 C 
HETATM   20  C28 UNL     1      -0.567   5.457  14.512  1.00  0.00     0.016 C 
ENDROOT
BRANCH   1  21
HETATM   21  C7  UNL     1       1.941   6.971  13.393  1.00  0.00    -0.014 C 
HETATM   22  C8  UNL     1       1.545   7.586  14.744  1.00  0.00     0.010 C 
BRANCH  21  23
HETATM   23  C6  UNL     1       2.824   7.985  12.630  1.00  0.00     0.008 C 
BRANCH  23  24
HETATM   24  C5  UNL     1       3.670   7.360  11.514  1.00  0.00     0.028 C 
BRANCH  24  25
HETATM   25  C4  UNL     1       3.428   8.063  10.206  1.00  0.00    -0.025 C 
HETATM   26  C2  UNL     1       3.047   7.534   9.028  1.00  0.00    -0.091 C 
HETATM   27  C1  UNL     1       2.846   8.417   7.824  1.00  0.00     0.042 C 
HETATM   28  C3  UNL     1       2.784   6.075   8.766  1.00  0.00     0.042 C 
ENDBRANCH  24  25
ENDBRANCH  23  24
ENDBRANCH  21  23
ENDBRANCH   1  21
BRANCH   8  29
HETATM   29  O1  UNL     1      -5.029   2.010  11.161  1.00  0.00    -0.395 OA
HETATM   30  H28 UNL     1      -5.966   1.852  11.406  1.00  0.00     0.210 HD
ENDBRANCH   8  29
BRANCH  10  31
HETATM   31  O2  UNL     1      -7.397   2.425  12.447  1.00  0.00    -0.393 OA
HETATM   32  H31 UNL     1      -8.143   2.073  12.967  1.00  0.00     0.210 HD
ENDBRANCH  10  31
BRANCH  11  33
HETATM   33  O3  UNL     1      -7.780   4.713  15.057  1.00  0.00    -0.393 OA
HETATM   34  H33 UNL     1      -8.062   3.877  15.466  1.00  0.00     0.210 HD
ENDBRANCH  11  33
TORSDOF 7
ENDMDL
MODEL 5
REMARK minimizedAffinity -8.88834953
REMARK  7 active torsions:
REMARK  status: ('A' for Active; 'I' for Inactive)
REMARK    1  A    between atoms: C4_4  and  C5_5 
REMARK    2  A    between atoms: C5_5  and  C6_6 
REMARK    3  A    between atoms: C6_6  and  C7_7 
REMARK    4  A    between atoms: C7_7  and  C9_9 
REMARK    5  A    between atoms: C16_16  and  O1_17 
REMARK    6  A    between atoms: C18_19  and  O2_20 
REMARK    7  A    between atoms: C19_21  and  O3_22 
ROOT
HETATM    1  C9  UNL     1      -5.638   7.086  13.885  1.00  0.00    -0.002 C 
HETATM    2  C10 UNL     1      -6.010   8.471  14.490  1.00  0.00     0.006 C 
HETATM    3  C11 UNL     1      -4.700   9.137  14.940  1.00  0.00     0.011 C 
HETATM    4  C12 UNL     1      -3.593   8.376  14.190  1.00  0.00    -0.032 C 
HETATM    5  C13 UNL     1      -3.537   8.964  12.746  1.00  0.00     0.016 C 
HETATM    6  C14 UNL     1      -2.194   8.462  14.858  1.00  0.00     0.006 C 
HETATM    7  C15 UNL     1      -1.523   9.837  14.735  1.00  0.00     0.038 C 
HETATM    8  C16 UNL     1      -0.191   9.857  15.481  1.00  0.00     0.126 C 
HETATM    9  C17 UNL     1       0.818   8.930  14.784  1.00  0.00     0.055 C 
HETATM   10  C18 UNL     1       2.119   8.764  15.601  1.00  0.00     0.154 C 
HETATM   11  C19 UNL     1       3.101   7.765  14.933  1.00  0.00     0.147 C 
HETATM   12  C20 UNL     1       2.651   7.324  13.538  1.00  0.00     0.035 C 
HETATM   13  C21 UNL     1       1.217   6.782  13.511  1.00  0.00     0.013 C 
HETATM   14  C22 UNL     1       0.277   7.551  14.437  1.00  0.00    -0.023 A 
HETATM   15  C23 UNL     1      -0.397   6.725  15.505  1.00  0.00     0.021 A 
HETATM   16  C24 UNL     1      -1.254   7.317  14.401  1.00  0.00    -0.027 A 
HETATM   17  C25 UNL     1      -1.781   6.353  13.332  1.00  0.00     0.011 C 
HETATM   18  C26 UNL     1      -3.289   6.040  13.322  1.00  0.00     0.011 C 
HETATM   19  C27 UNL     1      -4.132   6.897  14.275  1.00  0.00    -0.032 C 
HETATM   20  C28 UNL     1      -4.025   6.268  15.689  1.00  0.00     0.016 C 
ENDROOT
BRANCH   1  21
HETATM   21  C7  UNL     1      -6.731   5.999  14.126  1.00  0.00    -0.014 C 
HETATM   22  C8  UNL     1      -7.221   5.818  15.571  1.00  0.00     0.010 C 
BRANCH  21  23
HETATM   23  C6  UNL     1      -6.388   4.608  13.545  1.00  0.00     0.008 C 
BRANCH  23  24
HETATM   24  C5  UNL     1      -7.577   3.641  13.498  1.00  0.00     0.028 C 
BRANCH  24  25
HETATM   25  C4  UNL     1      -7.267   2.459  12.619  1.00  0.00    -0.025 C 
HETATM   26  C2  UNL     1      -6.214   2.278  11.798  1.00  0.00    -0.091 C 
HETATM   27  C1  UNL     1      -6.079   1.006  11.001  1.00  0.00     0.042 C 
HETATM   28  C3  UNL     1      -5.096   3.261  11.576  1.00  0.00     0.042 C 
ENDBRANCH  24  25
ENDBRANCH  23  24
ENDBRANCH  21  23
ENDBRANCH   1  21
BRANCH   8  29
HETATM   29  O1  UNL     1       0.286  11.206  15.477  1.00  0.00    -0.395 OA
HETATM   30  H28 UNL     1       1.252  11.161  15.646  1.00  0.00     0.210 HD
ENDBRANCH   8  29
BRANCH  10  31
HETATM   31  O2  UNL     1       2.741  10.051  15.744  1.00  0.00    -0.393 OA
HETATM   32  H31 UNL     1       3.559   9.927  16.261  1.00  0.00     0.210 HD
ENDBRANCH  10  31
BRANCH  11  33
HETATM   33  O3  UNL     1       3.239   6.595  15.744  1.00  0.00    -0.393 OA
HETATM   34  H33 UNL     1       3.616   6.863  16.600  1.00  0.00     0.210 HD
ENDBRANCH  11  33
TORSDOF 7
ENDMDL
MODEL 6
REMARK minimizedAffinity -8.8608675
REMARK  7 active torsions:
REMARK  status: ('A' for Active; 'I' for Inactive)
REMARK    1  A    between atoms: C4_4  and  C5_5 
REMARK    2  A    between atoms: C5_5  and  C6_6 
REMARK    3  A    between atoms: C6_6  and  C7_7 
REMARK    4  A    between atoms: C7_7  and  C9_9 
REMARK    5  A    between atoms: C16_16  and  O1_17 
REMARK    6  A    between atoms: C18_19  and  O2_20 
REMARK    7  A    between atoms: C19_21  and  O3_22 
ROOT
HETATM    1  C9  UNL     1      -2.462   6.195  13.123  1.00  0.00    -0.002 C 
HETATM    2  C10 UNL     1      -2.492   5.174  11.948  1.00  0.00     0.006 C 
HETATM    3  C11 UNL     1      -1.106   5.202  11.287  1.00  0.00     0.011 C 
HETATM    4  C12 UNL     1      -0.183   5.853  12.332  1.00  0.00    -0.032 C 
HETATM    5  C13 UNL     1       0.196   4.739  13.358  1.00  0.00     0.016 C 
HETATM    6  C14 UNL     1       1.101   6.494  11.739  1.00  0.00     0.006 C 
HETATM    7  C15 UNL     1       2.143   5.478  11.250  1.00  0.00     0.038 C 
HETATM    8  C16 UNL     1       3.335   6.190  10.615  1.00  0.00     0.126 C 
HETATM    9  C17 UNL     1       4.111   6.974  11.685  1.00  0.00     0.055 C 
HETATM   10  C18 UNL     1       5.214   7.865  11.070  1.00  0.00     0.154 C 
HETATM   11  C19 UNL     1       5.941   8.716  12.145  1.00  0.00     0.147 C 
HETATM   12  C20 UNL     1       5.542   8.343  13.575  1.00  0.00     0.035 C 
HETATM   13  C21 UNL     1       4.025   8.357  13.800  1.00  0.00     0.013 C 
HETATM   14  C22 UNL     1       3.244   7.827  12.599  1.00  0.00    -0.023 A 
HETATM   15  C23 UNL     1       2.251   8.791  11.997  1.00  0.00     0.021 A 
HETATM   16  C24 UNL     1       1.723   7.548  12.691  1.00  0.00    -0.027 A 
HETATM   17  C25 UNL     1       1.067   7.738  14.062  1.00  0.00     0.011 C 
HETATM   18  C26 UNL     1      -0.458   7.544  14.167  1.00  0.00     0.011 C 
HETATM   19  C27 UNL     1      -1.124   6.980  12.905  1.00  0.00    -0.032 C 
HETATM   20  C28 UNL     1      -1.356   8.164  11.930  1.00  0.00     0.016 C 
ENDROOT
BRANCH   1  21
HETATM   21  C7  UNL     1      -3.838   6.891  13.364  1.00  0.00    -0.014 C 
HETATM   22  C8  UNL     1      -3.816   8.218  14.139  1.00  0.00     0.010 C 
BRANCH  21  23
HETATM   23  C6  UNL     1      -4.917   5.976  13.985  1.00  0.00     0.008 C 
BRANCH  23  24
HETATM   24  C5  UNL     1      -6.262   6.008  13.248  1.00  0.00     0.028 C 
BRANCH  24  25
HETATM   25  C4  UNL     1      -6.954   4.675  13.345  1.00  0.00    -0.025 C 
HETATM   26  C2  UNL     1      -6.734   3.562  12.620  1.00  0.00    -0.091 C 
HETATM   27  C1  UNL     1      -7.535   2.312  12.880  1.00  0.00     0.042 C 
HETATM   28  C3  UNL     1      -5.720   3.419  11.518  1.00  0.00     0.042 C 
ENDBRANCH  24  25
ENDBRANCH  23  24
ENDBRANCH  21  23
ENDBRANCH   1  21
BRANCH   8  29
HETATM   29  O1  UNL     1       4.171   5.189  10.026  1.00  0.00    -0.395 OA
HETATM   30  H28 UNL     1       5.060   5.592   9.925  1.00  0.00     0.210 HD
ENDBRANCH   8  29
BRANCH  10  31
HETATM   31  O2  UNL     1       6.155   7.025  10.382  1.00  0.00    -0.393 OA
HETATM   32  H31 UNL     1       6.842   7.604  10.001  1.00  0.00     0.210 HD
ENDBRANCH  10  31
BRANCH  11  33
HETATM   33  O3  UNL     1       5.653  10.103  11.952  1.00  0.00    -0.393 OA
HETATM   34  H33 UNL     1       5.993  10.364  11.079  1.00  0.00     0.210 HD
ENDBRANCH  11  33
TORSDOF 7
ENDMDL
MODEL 7
REMARK minimizedAffinity -8.78958893
REMARK  7 active torsions:
REMARK  status: ('A' for Active; 'I' for Inactive)
REMARK    1  A    between atoms: C4_4  and  C5_5 
REMARK    2  A    between atoms: C5_5  and  C6_6 
REMARK    3  A    between atoms: C6_6  and  C7_7 
REMARK    4  A    between atoms: C7_7  and  C9_9 
REMARK    5  A    between atoms: C16_16  and  O1_17 
REMARK    6  A    between atoms: C18_19  and  O2_20 
REMARK    7  A    between atoms: C19_21  and  O3_22 
ROOT
HETATM    1  C9  UNL     1      -2.030   7.833  13.698  1.00  0.00    -0.002 C 
HETATM    2  C10 UNL     1      -1.818   7.570  15.217  1.00  0.00     0.006 C 
HETATM    3  C11 UNL     1      -0.305   7.444  15.449  1.00  0.00     0.011 C 
HETATM    4  C12 UNL     1       0.340   8.081  14.206  1.00  0.00    -0.032 C 
HETATM    5  C13 UNL     1       0.314   9.626  14.423  1.00  0.00     0.016 C 
HETATM    6  C14 UNL     1       1.791   7.603  13.923  1.00  0.00     0.006 C 
HETATM    7  C15 UNL     1       2.834   8.144  14.911  1.00  0.00     0.038 C 
HETATM    8  C16 UNL     1       4.215   7.568  14.608  1.00  0.00     0.126 C 
HETATM    9  C17 UNL     1       4.724   8.101  13.259  1.00  0.00     0.055 C 
HETATM   10  C18 UNL     1       6.030   7.406  12.812  1.00  0.00     0.154 C 
HETATM   11  C19 UNL     1       6.496   7.890  11.414  1.00  0.00     0.147 C 
HETATM   12  C20 UNL     1       5.679   9.071  10.884  1.00  0.00     0.035 C 
HETATM   13  C21 UNL     1       4.168   8.812  10.897  1.00  0.00     0.013 C 
HETATM   14  C22 UNL     1       3.713   8.025  12.125  1.00  0.00    -0.023 A 
HETATM   15  C23 UNL     1       3.020   6.716  11.833  1.00  0.00     0.021 A 
HETATM   16  C24 UNL     1       2.210   7.843  12.450  1.00  0.00    -0.027 A 
HETATM   17  C25 UNL     1       1.213   8.568  11.539  1.00  0.00     0.011 C 
HETATM   18  C26 UNL     1      -0.290   8.343  11.790  1.00  0.00     0.011 C 
HETATM   19  C27 UNL     1      -0.621   7.562  13.069  1.00  0.00    -0.032 C 
HETATM   20  C28 UNL     1      -0.463   6.053  12.749  1.00  0.00     0.016 C 
ENDROOT
BRANCH   1  21
HETATM   21  C7  UNL     1      -3.351   7.209  13.147  1.00  0.00    -0.014 C 
HETATM   22  C8  UNL     1      -4.581   8.128  13.092  1.00  0.00     0.010 C 
BRANCH  21  23
HETATM   23  C6  UNL     1      -3.759   5.880  13.822  1.00  0.00     0.008 C 
BRANCH  23  24
HETATM   24  C5  UNL     1      -4.277   4.817  12.846  1.00  0.00     0.028 C 
BRANCH  24  25
HETATM   25  C4  UNL     1      -5.706   4.460  13.158  1.00  0.00    -0.025 C 
HETATM   26  C2  UNL     1      -6.441   3.442  12.669  1.00  0.00    -0.091 C 
HETATM   27  C1  UNL     1      -7.866   3.246  13.120  1.00  0.00     0.042 C 
HETATM   28  C3  UNL     1      -5.971   2.423  11.668  1.00  0.00     0.042 C 
ENDBRANCH  24  25
ENDBRANCH  23  24
ENDBRANCH  21  23
ENDBRANCH   1  21
BRANCH   8  29
HETATM   29  O1  UNL     1       5.091   7.969  15.666  1.00  0.00    -0.395 OA
HETATM   30  H28 UNL     1       6.005   7.893  15.314  1.00  0.00     0.210 HD
ENDBRANCH   8  29
BRANCH  10  31
HETATM   31  O2  UNL     1       7.048   7.664  13.793  1.00  0.00    -0.393 OA
HETATM   32  H31 UNL     1       7.863   7.219  13.494  1.00  0.00     0.210 HD
ENDBRANCH  10  31
BRANCH  11  33
HETATM   33  O3  UNL     1       6.398   6.823  10.466  1.00  0.00    -0.393 OA
HETATM   34  H33 UNL     1       6.992   6.108  10.753  1.00  0.00     0.210 HD
ENDBRANCH  11  33
TORSDOF 7
ENDMDL
MODEL 8
REMARK minimizedAffinity -8.74517059
REMARK  7 active torsions:
REMARK  status: ('A' for Active; 'I' for Inactive)
REMARK    1  A    between atoms: C4_4  and  C5_5 
REMARK    2  A    between atoms: C5_5  and  C6_6 
REMARK    3  A    between atoms: C6_6  and  C7_7 
REMARK    4  A    between atoms: C7_7  and  C9_9 
REMARK    5  A    between atoms: C16_16  and  O1_17 
REMARK    6  A    between atoms: C18_19  and  O2_20 
REMARK    7  A    between atoms: C19_21  and  O3_22 
ROOT
HETATM    1  C9  UNL     1       3.216   7.609  11.250  1.00  0.00    -0.002 C 
HETATM    2  C10 UNL     1       3.372   6.142  10.753  1.00  0.00     0.006 C 
HETATM    3  C11 UNL     1       2.060   5.411  11.074  1.00  0.00     0.011 C 
HETATM    4  C12 UNL     1       1.031   6.532  11.307  1.00  0.00    -0.032 C 
HETATM    5  C13 UNL     1       0.559   7.014   9.900  1.00  0.00     0.016 C 
HETATM    6  C14 UNL     1      -0.191   6.108  12.167  1.00  0.00     0.006 C 
HETATM    7  C15 UNL     1      -1.170   5.170  11.447  1.00  0.00     0.038 C 
HETATM    8  C16 UNL     1      -2.298   4.744  12.384  1.00  0.00     0.126 C 
HETATM    9  C17 UNL     1      -3.183   5.952  12.727  1.00  0.00     0.055 C 
HETATM   10  C18 UNL     1      -4.225   5.620  13.820  1.00  0.00     0.154 C 
HETATM   11  C19 UNL     1      -5.063   6.864  14.220  1.00  0.00     0.147 C 
HETATM   12  C20 UNL     1      -4.807   8.075  13.319  1.00  0.00     0.035 C 
HETATM   13  C21 UNL     1      -3.321   8.433  13.198  1.00  0.00     0.013 C 
HETATM   14  C22 UNL     1      -2.419   7.202  13.140  1.00  0.00    -0.023 A 
HETATM   15  C23 UNL     1      -1.378   7.111  14.228  1.00  0.00     0.021 A 
HETATM   16  C24 UNL     1      -0.914   7.325  12.799  1.00  0.00    -0.027 A 
HETATM   17  C25 UNL     1      -0.401   8.722  12.432  1.00  0.00     0.011 C 
HETATM   18  C26 UNL     1       1.107   8.890  12.164  1.00  0.00     0.011 C 
HETATM   19  C27 UNL     1       1.901   7.579  12.102  1.00  0.00    -0.032 C 
HETATM   20  C28 UNL     1       2.222   7.157  13.559  1.00  0.00     0.016 C 
ENDROOT
BRANCH   1  21
HETATM   21  C7  UNL     1       4.555   8.228  11.759  1.00  0.00    -0.014 C 
HETATM   22  C8  UNL     1       5.290   9.175  10.797  1.00  0.00     0.010 C 
BRANCH  21  23
HETATM   23  C6  UNL     1       5.569   7.197  12.304  1.00  0.00     0.008 C 
BRANCH  23  24
HETATM   24  C5  UNL     1       6.269   7.634  13.597  1.00  0.00     0.028 C 
BRANCH  24  25
HETATM   25  C4  UNL     1       7.756   7.744  13.386  1.00  0.00    -0.025 C 
HETATM   26  C2  UNL     1       8.723   7.914  14.308  1.00  0.00    -0.091 C 
HETATM   27  C1  UNL     1      10.169   7.991  13.891  1.00  0.00     0.042 C 
HETATM   28  C3  UNL     1       8.507   8.043  15.792  1.00  0.00     0.042 C 
ENDBRANCH  24  25
ENDBRANCH  23  24
ENDBRANCH  21  23
ENDBRANCH   1  21
BRANCH   8  29
HETATM   29  O1  UNL     1      -3.062   3.740  11.710  1.00  0.00    -0.395 OA
HETATM   30  H28 UNL     1      -3.940   3.716  12.149  1.00  0.00     0.210 HD
ENDBRANCH   8  29
BRANCH  10  31
HETATM   31  O2  UNL     1      -5.085   4.577  13.335  1.00  0.00    -0.393 OA
HETATM   32  H31 UNL     1      -5.735   4.382  14.036  1.00  0.00     0.210 HD
ENDBRANCH  10  31
BRANCH  11  33
HETATM   33  O3  UNL     1      -4.766   7.244  15.567  1.00  0.00    -0.393 OA
HETATM   34  H33 UNL     1      -5.019   6.508  16.151  1.00  0.00     0.210 HD
ENDBRANCH  11  33
TORSDOF 7
ENDMDL
MODEL 9
REMARK minimizedAffinity -8.66364098
REMARK  7 active torsions:
REMARK  status: ('A' for Active; 'I' for Inactive)
REMARK    1  A    between atoms: C4_4  and  C5_5 
REMARK    2  A    between atoms: C5_5  and  C6_6 
REMARK    3  A    between atoms: C6_6  and  C7_7 
REMARK    4  A    between atoms: C7_7  and  C9_9 
REMARK    5  A    between atoms: C16_16  and  O1_17 
REMARK    6  A    between atoms: C18_19  and  O2_20 
REMARK    7  A    between atoms: C19_21  and  O3_22 
ROOT
HETATM    1  C9  UNL     1      -3.740   6.359  13.344  1.00  0.00    -0.002 C 
HETATM    2  C10 UNL     1      -3.887   7.553  14.333  1.00  0.00     0.006 C 
HETATM    3  C11 UNL     1      -2.513   8.234  14.429  1.00  0.00     0.011 C 
HETATM    4  C12 UNL     1      -1.743   7.747  13.190  1.00  0.00    -0.032 C 
HETATM    5  C13 UNL     1      -2.223   8.616  11.987  1.00  0.00     0.016 C 
HETATM    6  C14 UNL     1      -0.198   7.827  13.326  1.00  0.00     0.006 C 
HETATM    7  C15 UNL     1       0.363   9.256  13.284  1.00  0.00     0.038 C 
HETATM    8  C16 UNL     1       1.874   9.249  13.500  1.00  0.00     0.126 C 
HETATM    9  C17 UNL     1       2.574   8.580  12.306  1.00  0.00     0.055 C 
HETATM   10  C18 UNL     1       4.086   8.375  12.556  1.00  0.00     0.154 C 
HETATM   11  C19 UNL     1       4.773   7.627  11.383  1.00  0.00     0.147 C 
HETATM   12  C20 UNL     1       3.854   7.436  10.174  1.00  0.00     0.035 C 
HETATM   13  C21 UNL     1       2.515   6.779  10.532  1.00  0.00     0.013 C 
HETATM   14  C22 UNL     1       1.964   7.255  11.875  1.00  0.00    -0.023 A 
HETATM   15  C23 UNL     1       1.737   6.171  12.900  1.00  0.00     0.021 A 
HETATM   16  C24 UNL     1       0.528   6.890  12.327  1.00  0.00    -0.027 A 
HETATM   17  C25 UNL     1      -0.336   6.116  11.326  1.00  0.00     0.011 C 
HETATM   18  C26 UNL     1      -1.740   5.672  11.777  1.00  0.00     0.011 C 
HETATM   19  C27 UNL     1      -2.192   6.237  13.130  1.00  0.00    -0.032 C 
HETATM   20  C28 UNL     1      -1.571   5.349  14.239  1.00  0.00     0.016 C 
ENDROOT
BRANCH   1  21
HETATM   21  C7  UNL     1      -4.655   5.148  13.707  1.00  0.00    -0.014 C 
HETATM   22  C8  UNL     1      -4.646   3.957  12.736  1.00  0.00     0.010 C 
BRANCH  21  23
HETATM   23  C6  UNL     1      -6.123   5.525  14.010  1.00  0.00     0.008 C 
BRANCH  23  24
HETATM   24  C5  UNL     1      -7.144   4.476  13.553  1.00  0.00     0.028 C 
BRANCH  24  25
HETATM   25  C4  UNL     1      -7.921   4.973  12.363  1.00  0.00    -0.025 C 
HETATM   26  C2  UNL     1      -8.946   5.846  12.337  1.00  0.00    -0.091 C 
HETATM   27  C1  UNL     1      -9.590   6.226  11.028  1.00  0.00     0.042 C 
HETATM   28  C3  UNL     1      -9.554   6.521  13.536  1.00  0.00     0.042 C 
ENDBRANCH  24  25
ENDBRANCH  23  24
ENDBRANCH  21  23
ENDBRANCH   1  21
BRANCH   8  29
HETATM   29  O1  UNL     1       2.297  10.610  13.627  1.00  0.00    -0.395 OA
HETATM   30  H28 UNL     1       3.259  10.623  13.431  1.00  0.00     0.210 HD
ENDBRANCH   8  29
BRANCH  10  31
HETATM   31  O2  UNL     1       4.699   9.660  12.753  1.00  0.00    -0.393 OA
HETATM   32  H31 UNL     1       5.650   9.511  12.909  1.00  0.00     0.210 HD
ENDBRANCH  10  31
BRANCH  11  33
HETATM   33  O3  UNL     1       5.213   6.336  11.813  1.00  0.00    -0.393 OA
HETATM   34  H33 UNL     1       5.871   6.461  12.519  1.00  0.00     0.210 HD
ENDBRANCH  11  33
TORSDOF 7
ENDMDL
