MODEL 1
REMARK minimizedAffinity -8.12101746
REMARK CNNscore 0.303959072
REMARK CNNaffinity 6.9036355
REMARK  13 active torsions:
REMARK  status: ('A' for Active; 'I' for Inactive)
REMARK    1  A    between atoms: C2_2  and  C3_3 
REMARK    2  A    between atoms: C2_2  and  C11_12 
REMARK    3  A    between atoms: C3_3  and  C4_4 
REMARK    4  A    between atoms: C4_4  and  C5_5 
REMARK    5  A    between atoms: C5_5  and  O1_7 
REMARK    6  A    between atoms: C5_5  and  C7_8 
REMARK    7  A    between atoms: C28_32  and  O5_33 
REMARK    8  A    between atoms: O5_33  and  C29_34 
REMARK    9  A    between atoms: C30_36  and  C31_37 
REMARK   10  A    between atoms: C31_37  and  O7_38 
REMARK   11  A    between atoms: C32_39  and  O8_40 
REMARK   12  A    between atoms: C33_41  and  O9_42 
REMARK   13  A    between atoms: C34_43  and  O10_44 
ROOT
HETATM    1  C11 UNL     1       4.644  50.371 -10.212  1.00  0.00    -0.001 C 
HETATM    2  C12 UNL     1       4.493  48.827 -10.141  1.00  0.00     0.007 C 
HETATM    3  C13 UNL     1       3.457  48.420 -11.206  1.00  0.00     0.024 C 
HETATM    4  C14 UNL     1       3.121  49.702 -11.942  1.00  0.00     0.092 C 
HETATM    5  C15 UNL     1       4.038  49.925 -13.187  1.00  0.00     0.272 C 
HETATM    6  O2  UNL     1       5.188  49.557 -13.341  1.00  0.00    -0.264 OA
HETATM    7  O3  UNL     1       3.331  50.654 -14.132  1.00  0.00    -0.305 OA
HETATM    8  C16 UNL     1       2.046  50.999 -13.578  1.00  0.00     0.113 C 
HETATM    9  C17 UNL     1       2.289  52.290 -12.709  1.00  0.00     0.043 C 
HETATM   10  C18 UNL     1       3.391  52.173 -11.644  1.00  0.00     0.014 C 
HETATM   11  C19 UNL     1       3.314  50.831 -10.884  1.00  0.00    -0.020 C 
HETATM   12  C20 UNL     1       2.134  50.856  -9.890  1.00  0.00     0.017 C 
HETATM   13  C21 UNL     1       1.804  49.828 -12.648  1.00  0.00     0.137 A 
HETATM   14  O4  UNL     1       1.610  48.514 -13.257  1.00  0.00    -0.364 OA
HETATM   15  C22 UNL     1       0.472  49.087 -12.665  1.00  0.00     0.162 A 
HETATM   16  C23 UNL     1      -0.553  49.357 -13.733  1.00  0.00     0.041 C 
HETATM   17  C24 UNL     1       0.131  49.900 -15.023  1.00  0.00     0.009 C 
HETATM   18  C25 UNL     1      -0.798  49.880 -16.299  1.00  0.00    -0.017 C 
HETATM   19  C26 UNL     1      -1.021  48.400 -16.751  1.00  0.00     0.018 C 
HETATM   20  C27 UNL     1      -2.219  50.425 -16.044  1.00  0.00     0.018 C 
HETATM   21  C28 UNL     1      -0.080  50.582 -17.510  1.00  0.00     0.133 C 
HETATM   22  C35 UNL     1       0.598  51.901 -17.152  1.00  0.00     0.034 C 
HETATM   23  C36 UNL     1       1.570  51.741 -15.995  1.00  0.00     0.015 C 
HETATM   24  C37 UNL     1       0.906  51.242 -14.692  1.00  0.00    -0.004 C 
HETATM   25  C38 UNL     1      -0.075  52.354 -14.212  1.00  0.00     0.019 C 
ENDROOT
BRANCH  21  26
HETATM   26  O5  UNL     1      -1.020  50.789 -18.573  1.00  0.00    -0.352 OA
BRANCH  26  27
HETATM   27  C29 UNL     1      -0.783  49.995 -19.743  1.00  0.00     0.292 C 
HETATM   28  O6  UNL     1       0.360  50.426 -20.487  1.00  0.00    -0.348 OA
HETATM   29  C30 UNL     1       0.119  51.378 -21.543  1.00  0.00     0.179 C 
HETATM   30  C32 UNL     1      -0.963  50.925 -22.546  1.00  0.00     0.180 C 
HETATM   31  C33 UNL     1      -1.764  49.728 -22.028  1.00  0.00     0.183 C 
HETATM   32  C34 UNL     1      -2.094  49.957 -20.560  1.00  0.00     0.204 C 
BRANCH  29  33
HETATM   33  C31 UNL     1      -0.075  52.792 -20.968  1.00  0.00     0.198 C 
BRANCH  33  34
HETATM   34  O7  UNL     1       1.082  53.177 -20.215  1.00  0.00    -0.398 OA
HETATM   35  H49 UNL     1       1.466  52.355 -19.862  1.00  0.00     0.209 HD
ENDBRANCH  33  34
ENDBRANCH  29  33
BRANCH  30  36
HETATM   36  O8  UNL     1      -1.874  51.989 -22.854  1.00  0.00    -0.390 OA
HETATM   37  H51 UNL     1      -2.651  51.542 -23.246  1.00  0.00     0.210 HD
ENDBRANCH  30  36
BRANCH  31  38
HETATM   38  O9  UNL     1      -2.980  49.621 -22.783  1.00  0.00    -0.390 OA
HETATM   39  H53 UNL     1      -3.527  48.996 -22.254  1.00  0.00     0.210 HD
ENDBRANCH  31  38
BRANCH  32  40
HETATM   40  O10 UNL     1      -2.972  48.905 -20.113  1.00  0.00    -0.388 OA
HETATM   41  H55 UNL     1      -3.205  49.119 -19.188  1.00  0.00     0.210 HD
ENDBRANCH  32  40
ENDBRANCH  26  27
ENDBRANCH  21  26
BRANCH   1  42
HETATM   42  C2  UNL     1       5.214  50.999  -8.906  1.00  0.00    -0.014 C 
HETATM   43  C1  UNL     1       4.450  50.750  -7.600  1.00  0.00     0.010 C 
BRANCH  42  44
HETATM   44  C3  UNL     1       5.665  52.482  -9.065  1.00  0.00     0.007 C 
BRANCH  44  45
HETATM   45  C4  UNL     1       4.731  53.552  -8.469  1.00  0.00     0.038 C 
BRANCH  45  46
HETATM   46  C5  UNL     1       5.051  55.031  -8.845  1.00  0.00     0.061 C 
HETATM   47  C6  UNL     1       5.658  55.734  -7.613  1.00  0.00     0.046 C 
BRANCH  46  48
HETATM   48  O1  UNL     1       6.059  55.014  -9.862  1.00  0.00    -0.389 OA
HETATM   49  H12 UNL     1       6.425  55.914  -9.940  1.00  0.00     0.210 HD
ENDBRANCH  46  48
BRANCH  46  50
HETATM   50  C7  UNL     1       3.779  55.792  -9.423  1.00  0.00    -0.021 C 
HETATM   51  C8  UNL     1       3.858  55.945 -10.963  1.00  0.00     0.017 C 
HETATM   52  C9  UNL     1       3.664  57.229  -8.854  1.00  0.00     0.017 C 
HETATM   53  C10 UNL     1       2.466  55.054  -9.094  1.00  0.00     0.017 C 
ENDBRANCH  46  50
ENDBRANCH  45  46
ENDBRANCH  44  45
ENDBRANCH  42  44
ENDBRANCH   1  42
TORSDOF 13
ENDMDL
MODEL 2
REMARK minimizedAffinity -8.07184505
REMARK CNNscore 0.265718341
REMARK CNNaffinity 6.1461463
REMARK  13 active torsions:
REMARK  status: ('A' for Active; 'I' for Inactive)
REMARK    1  A    between atoms: C2_2  and  C3_3 
REMARK    2  A    between atoms: C2_2  and  C11_12 
REMARK    3  A    between atoms: C3_3  and  C4_4 
REMARK    4  A    between atoms: C4_4  and  C5_5 
REMARK    5  A    between atoms: C5_5  and  O1_7 
REMARK    6  A    between atoms: C5_5  and  C7_8 
REMARK    7  A    between atoms: C28_32  and  O5_33 
REMARK    8  A    between atoms: O5_33  and  C29_34 
REMARK    9  A    between atoms: C30_36  and  C31_37 
REMARK   10  A    between atoms: C31_37  and  O7_38 
REMARK   11  A    between atoms: C32_39  and  O8_40 
REMARK   12  A    between atoms: C33_41  and  O9_42 
REMARK   13  A    between atoms: C34_43  and  O10_44 
ROOT
HETATM    1  C11 UNL     1     -16.805  45.897 -20.410  1.00  0.00    -0.001 C 
HETATM    2  C12 UNL     1     -17.162  47.137 -19.546  1.00  0.00     0.007 C 
HETATM    3  C13 UNL     1     -15.839  47.722 -19.017  1.00  0.00     0.024 C 
HETATM    4  C14 UNL     1     -14.750  46.892 -19.670  1.00  0.00     0.092 C 
HETATM    5  C15 UNL     1     -14.268  47.511 -21.022  1.00  0.00     0.272 C 
HETATM    6  O2  UNL     1     -14.914  48.181 -21.807  1.00  0.00    -0.264 OA
HETATM    7  O3  UNL     1     -12.943  47.157 -21.222  1.00  0.00    -0.305 OA
HETATM    8  C16 UNL     1     -12.533  46.286 -20.149  1.00  0.00     0.113 C 
HETATM    9  C17 UNL     1     -13.018  44.845 -20.559  1.00  0.00     0.043 C 
HETATM   10  C18 UNL     1     -14.513  44.723 -20.896  1.00  0.00     0.014 C 
HETATM   11  C19 UNL     1     -15.395  45.489 -19.886  1.00  0.00    -0.020 C 
HETATM   12  C20 UNL     1     -15.466  44.711 -18.555  1.00  0.00     0.017 C 
HETATM   13  C21 UNL     1     -13.405  46.787 -19.016  1.00  0.00     0.137 A 
HETATM   14  O4  UNL     1     -13.154  48.138 -18.521  1.00  0.00    -0.364 OA
HETATM   15  C22 UNL     1     -12.802  47.093 -17.649  1.00  0.00     0.162 A 
HETATM   16  C23 UNL     1     -11.312  47.107 -17.445  1.00  0.00     0.041 C 
HETATM   17  C24 UNL     1     -10.577  47.417 -18.784  1.00  0.00     0.009 C 
HETATM   18  C25 UNL     1      -9.056  47.798 -18.609  1.00  0.00    -0.017 C 
HETATM   19  C26 UNL     1      -8.951  49.210 -17.945  1.00  0.00     0.018 C 
HETATM   20  C27 UNL     1      -8.286  46.863 -17.652  1.00  0.00     0.018 C 
HETATM   21  C28 UNL     1      -8.363  47.945 -20.013  1.00  0.00     0.133 C 
HETATM   22  C35 UNL     1      -8.702  46.826 -20.994  1.00  0.00     0.034 C 
HETATM   23  C36 UNL     1     -10.203  46.665 -21.170  1.00  0.00     0.015 C 
HETATM   24  C37 UNL     1     -10.946  46.316 -19.862  1.00  0.00    -0.004 C 
HETATM   25  C38 UNL     1     -10.463  44.904 -19.411  1.00  0.00     0.019 C 
ENDROOT
BRANCH  21  26
HETATM   26  O5  UNL     1      -6.942  48.031 -19.843  1.00  0.00    -0.352 OA
BRANCH  26  27
HETATM   27  C29 UNL     1      -6.411  49.361 -19.911  1.00  0.00     0.292 C 
HETATM   28  O6  UNL     1      -6.819  50.064 -21.087  1.00  0.00    -0.348 OA
HETATM   29  C30 UNL     1      -5.943  49.974 -22.228  1.00  0.00     0.179 C 
HETATM   30  C32 UNL     1      -4.482  50.367 -21.916  1.00  0.00     0.180 C 
HETATM   31  C33 UNL     1      -4.220  50.455 -20.411  1.00  0.00     0.183 C 
HETATM   32  C34 UNL     1      -4.879  49.267 -19.727  1.00  0.00     0.204 C 
BRANCH  29  33
HETATM   33  C31 UNL     1      -6.115  48.621 -22.942  1.00  0.00     0.198 C 
BRANCH  33  34
HETATM   34  O7  UNL     1      -5.439  47.592 -22.211  1.00  0.00    -0.398 OA
HETATM   35  H49 UNL     1      -4.692  48.022 -21.758  1.00  0.00     0.209 HD
ENDBRANCH  33  34
ENDBRANCH  29  33
BRANCH  30  36
HETATM   36  O8  UNL     1      -3.553  49.440 -22.492  1.00  0.00    -0.390 OA
HETATM   37  H51 UNL     1      -2.714  49.604 -22.015  1.00  0.00     0.210 HD
ENDBRANCH  30  36
BRANCH  31  38
HETATM   38  O9  UNL     1      -2.802  50.413 -20.184  1.00  0.00    -0.390 OA
HETATM   39  H53 UNL     1      -2.727  50.243 -19.217  1.00  0.00     0.210 HD
ENDBRANCH  31  38
BRANCH  32  40
HETATM   40  O10 UNL     1      -4.507  49.269 -18.334  1.00  0.00    -0.388 OA
HETATM   41  H55 UNL     1      -4.903  48.463 -17.946  1.00  0.00     0.210 HD
ENDBRANCH  32  40
ENDBRANCH  26  27
ENDBRANCH  21  26
BRANCH   1  42
HETATM   42  C2  UNL     1     -17.988  44.896 -20.576  1.00  0.00    -0.014 C 
HETATM   43  C1  UNL     1     -17.648  43.414 -20.774  1.00  0.00     0.010 C 
BRANCH  42  44
HETATM   44  C3  UNL     1     -19.099  45.394 -21.549  1.00  0.00     0.007 C 
BRANCH  44  45
HETATM   45  C4  UNL     1     -18.670  46.418 -22.616  1.00  0.00     0.038 C 
BRANCH  45  46
HETATM   46  C5  UNL     1     -18.880  45.993 -24.102  1.00  0.00     0.061 C 
HETATM   47  C6  UNL     1     -19.916  44.851 -24.148  1.00  0.00     0.046 C 
BRANCH  46  48
HETATM   48  O1  UNL     1     -19.448  47.109 -24.797  1.00  0.00    -0.389 OA
HETATM   49  H12 UNL     1     -19.789  46.789 -25.653  1.00  0.00     0.210 HD
ENDBRANCH  46  48
BRANCH  46  50
HETATM   50  C7  UNL     1     -17.510  45.611 -24.816  1.00  0.00    -0.021 C 
HETATM   51  C8  UNL     1     -16.907  44.308 -24.231  1.00  0.00     0.017 C 
HETATM   52  C9  UNL     1     -16.435  46.709 -24.615  1.00  0.00     0.017 C 
HETATM   53  C10 UNL     1     -17.687  45.403 -26.333  1.00  0.00     0.017 C 
ENDBRANCH  46  50
ENDBRANCH  45  46
ENDBRANCH  44  45
ENDBRANCH  42  44
ENDBRANCH   1  42
TORSDOF 13
ENDMDL
MODEL 3
REMARK minimizedAffinity -8.35164642
REMARK CNNscore 0.243897334
REMARK CNNaffinity 6.42427683
REMARK  13 active torsions:
REMARK  status: ('A' for Active; 'I' for Inactive)
REMARK    1  A    between atoms: C2_2  and  C3_3 
REMARK    2  A    between atoms: C2_2  and  C11_12 
REMARK    3  A    between atoms: C3_3  and  C4_4 
REMARK    4  A    between atoms: C4_4  and  C5_5 
REMARK    5  A    between atoms: C5_5  and  O1_7 
REMARK    6  A    between atoms: C5_5  and  C7_8 
REMARK    7  A    between atoms: C28_32  and  O5_33 
REMARK    8  A    between atoms: O5_33  and  C29_34 
REMARK    9  A    between atoms: C30_36  and  C31_37 
REMARK   10  A    between atoms: C31_37  and  O7_38 
REMARK   11  A    between atoms: C32_39  and  O8_40 
REMARK   12  A    between atoms: C33_41  and  O9_42 
REMARK   13  A    between atoms: C34_43  and  O10_44 
ROOT
HETATM    1  C11 UNL     1      -8.386  47.229 -23.141  1.00  0.00    -0.001 C 
HETATM    2  C12 UNL     1      -9.901  46.904 -23.025  1.00  0.00     0.007 C 
HETATM    3  C13 UNL     1     -10.421  46.637 -24.450  1.00  0.00     0.024 C 
HETATM    4  C14 UNL     1      -9.192  46.694 -25.338  1.00  0.00     0.092 C 
HETATM    5  C15 UNL     1      -8.528  45.291 -25.516  1.00  0.00     0.272 C 
HETATM    6  O2  UNL     1      -8.522  44.364 -24.728  1.00  0.00    -0.264 OA
HETATM    7  O3  UNL     1      -7.897  45.255 -26.751  1.00  0.00    -0.305 OA
HETATM    8  C16 UNL     1      -8.025  46.551 -27.370  1.00  0.00     0.113 C 
HETATM    9  C17 UNL     1      -6.867  47.429 -26.763  1.00  0.00     0.043 C 
HETATM   10  C18 UNL     1      -6.824  47.496 -25.228  1.00  0.00     0.014 C 
HETATM   11  C19 UNL     1      -8.231  47.691 -24.622  1.00  0.00    -0.020 C 
HETATM   12  C20 UNL     1      -8.698  49.147 -24.834  1.00  0.00     0.017 C 
HETATM   13  C21 UNL     1      -9.344  47.022 -26.793  1.00  0.00     0.137 A 
HETATM   14  O4  UNL     1     -10.549  46.296 -27.188  1.00  0.00    -0.364 OA
HETATM   15  C22 UNL     1     -10.425  47.600 -27.700  1.00  0.00     0.162 A 
HETATM   16  C23 UNL     1     -10.300  47.528 -29.197  1.00  0.00     0.041 C 
HETATM   17  C24 UNL     1      -9.394  46.333 -29.616  1.00  0.00     0.009 C 
HETATM   18  C25 UNL     1      -9.484  45.963 -31.148  1.00  0.00    -0.017 C 
HETATM   19  C26 UNL     1     -10.880  45.320 -31.441  1.00  0.00     0.018 C 
HETATM   20  C27 UNL     1      -9.417  47.184 -32.088  1.00  0.00     0.018 C 
HETATM   21  C28 UNL     1      -8.430  44.852 -31.506  1.00  0.00     0.133 C 
HETATM   22  C35 UNL     1      -7.042  45.100 -30.922  1.00  0.00     0.034 C 
HETATM   23  C36 UNL     1      -7.091  45.302 -29.416  1.00  0.00     0.015 C 
HETATM   24  C37 UNL     1      -7.953  46.508 -28.980  1.00  0.00    -0.004 C 
HETATM   25  C38 UNL     1      -7.256  47.797 -29.513  1.00  0.00     0.019 C 
ENDROOT
BRANCH  21  26
HETATM   26  O5  UNL     1      -8.342  44.714 -32.930  1.00  0.00    -0.352 OA
BRANCH  26  27
HETATM   27  C29 UNL     1      -8.883  43.491 -33.447  1.00  0.00     0.292 C 
HETATM   28  O6  UNL     1      -8.279  42.328 -32.874  1.00  0.00    -0.348 OA
HETATM   29  C30 UNL     1      -7.148  41.778 -33.578  1.00  0.00     0.179 C 
HETATM   30  C32 UNL     1      -7.430  41.488 -35.068  1.00  0.00     0.180 C 
HETATM   31  C33 UNL     1      -8.729  42.139 -35.544  1.00  0.00     0.183 C 
HETATM   32  C34 UNL     1      -8.803  43.554 -34.989  1.00  0.00     0.204 C 
BRANCH  29  33
HETATM   33  C31 UNL     1      -5.880  42.607 -33.303  1.00  0.00     0.198 C 
BRANCH  33  34
HETATM   34  O7  UNL     1      -5.285  42.196 -32.066  1.00  0.00    -0.398 OA
HETATM   35  H49 UNL     1      -6.013  41.875 -31.504  1.00  0.00     0.209 HD
ENDBRANCH  33  34
ENDBRANCH  29  33
BRANCH  30  36
HETATM   36  O8  UNL     1      -6.356  41.937 -35.904  1.00  0.00    -0.390 OA
HETATM   37  H51 UNL     1      -6.742  41.973 -36.803  1.00  0.00     0.210 HD
ENDBRANCH  30  36
BRANCH  31  38
HETATM   38  O9  UNL     1      -8.726  42.186 -36.980  1.00  0.00    -0.390 OA
HETATM   39  H53 UNL     1      -9.460  42.808 -37.193  1.00  0.00     0.210 HD
ENDBRANCH  31  38
BRANCH  32  40
HETATM   40  O10 UNL     1      -9.950  44.216 -35.557  1.00  0.00    -0.388 OA
HETATM   41  H55 UNL     1      -9.928  45.134 -35.221  1.00  0.00     0.210 HD
ENDBRANCH  32  40
ENDBRANCH  26  27
ENDBRANCH  21  26
BRANCH   1  42
HETATM   42  C2  UNL     1      -7.828  48.025 -21.924  1.00  0.00    -0.014 C 
HETATM   43  C1  UNL     1      -8.727  48.168 -20.691  1.00  0.00     0.010 C 
BRANCH  42  44
HETATM   44  C3  UNL     1      -7.126  49.360 -22.315  1.00  0.00     0.007 C 
BRANCH  44  45
HETATM   45  C4  UNL     1      -5.642  49.495 -21.925  1.00  0.00     0.038 C 
BRANCH  45  46
HETATM   46  C5  UNL     1      -4.668  49.924 -23.065  1.00  0.00     0.061 C 
HETATM   47  C6  UNL     1      -4.001  48.661 -23.648  1.00  0.00     0.046 C 
BRANCH  46  48
HETATM   48  O1  UNL     1      -5.452  50.510 -24.110  1.00  0.00    -0.389 OA
HETATM   49  H12 UNL     1      -4.894  50.572 -24.907  1.00  0.00     0.210 HD
ENDBRANCH  46  48
BRANCH  46  50
HETATM   50  C7  UNL     1      -3.610  51.008 -22.574  1.00  0.00    -0.021 C 
HETATM   51  C8  UNL     1      -3.939  51.518 -21.148  1.00  0.00     0.017 C 
HETATM   52  C9  UNL     1      -3.607  52.259 -23.488  1.00  0.00     0.017 C 
HETATM   53  C10 UNL     1      -2.175  50.444 -22.549  1.00  0.00     0.017 C 
ENDBRANCH  46  50
ENDBRANCH  45  46
ENDBRANCH  44  45
ENDBRANCH  42  44
ENDBRANCH   1  42
TORSDOF 13
ENDMDL
MODEL 4
REMARK minimizedAffinity -8.43262482
REMARK CNNscore 0.182812572
REMARK CNNaffinity 6.59970999
REMARK  13 active torsions:
REMARK  status: ('A' for Active; 'I' for Inactive)
REMARK    1  A    between atoms: C2_2  and  C3_3 
REMARK    2  A    between atoms: C2_2  and  C11_12 
REMARK    3  A    between atoms: C3_3  and  C4_4 
REMARK    4  A    between atoms: C4_4  and  C5_5 
REMARK    5  A    between atoms: C5_5  and  O1_7 
REMARK    6  A    between atoms: C5_5  and  C7_8 
REMARK    7  A    between atoms: C28_32  and  O5_33 
REMARK    8  A    between atoms: O5_33  and  C29_34 
REMARK    9  A    between atoms: C30_36  and  C31_37 
REMARK   10  A    between atoms: C31_37  and  O7_38 
REMARK   11  A    between atoms: C32_39  and  O8_40 
REMARK   12  A    between atoms: C33_41  and  O9_42 
REMARK   13  A    between atoms: C34_43  and  O10_44 
ROOT
HETATM    1  C11 UNL     1      -8.394  46.273 -19.123  1.00  0.00    -0.001 C 
HETATM    2  C12 UNL     1      -8.816  47.631 -18.499  1.00  0.00     0.007 C 
HETATM    3  C13 UNL     1      -7.780  48.680 -18.944  1.00  0.00     0.024 C 
HETATM    4  C14 UNL     1      -6.858  47.946 -19.899  1.00  0.00     0.092 C 
HETATM    5  C15 UNL     1      -7.335  48.059 -21.383  1.00  0.00     0.272 C 
HETATM    6  O2  UNL     1      -8.476  48.175 -21.792  1.00  0.00    -0.264 OA
HETATM    7  O3  UNL     1      -6.225  47.985 -22.211  1.00  0.00    -0.305 OA
HETATM    8  C16 UNL     1      -5.060  47.753 -21.396  1.00  0.00     0.113 C 
HETATM    9  C17 UNL     1      -5.020  46.199 -21.142  1.00  0.00     0.043 C 
HETATM   10  C18 UNL     1      -6.301  45.593 -20.546  1.00  0.00     0.014 C 
HETATM   11  C19 UNL     1      -6.874  46.467 -19.408  1.00  0.00    -0.020 C 
HETATM   12  C20 UNL     1      -6.014  46.305 -18.137  1.00  0.00     0.017 C 
HETATM   13  C21 UNL     1      -5.460  48.444 -20.109  1.00  0.00     0.137 A 
HETATM   14  O4  UNL     1      -5.610  49.897 -20.144  1.00  0.00    -0.364 OA
HETATM   15  C22 UNL     1      -4.506  49.414 -19.420  1.00  0.00     0.162 A 
HETATM   16  C23 UNL     1      -3.241  49.869 -20.096  1.00  0.00     0.041 C 
HETATM   17  C24 UNL     1      -3.382  49.775 -21.645  1.00  0.00     0.009 C 
HETATM   18  C25 UNL     1      -2.260  50.549 -22.441  1.00  0.00    -0.017 C 
HETATM   19  C26 UNL     1      -2.478  52.088 -22.272  1.00  0.00     0.018 C 
HETATM   20  C27 UNL     1      -0.834  50.299 -21.907  1.00  0.00     0.018 C 
HETATM   21  C28 UNL     1      -2.396  50.275 -23.984  1.00  0.00     0.133 C 
HETATM   22  C35 UNL     1      -2.627  48.809 -24.337  1.00  0.00     0.034 C 
HETATM   23  C36 UNL     1      -3.826  48.233 -23.601  1.00  0.00     0.015 C 
HETATM   24  C37 UNL     1      -3.689  48.278 -22.063  1.00  0.00    -0.004 C 
HETATM   25  C38 UNL     1      -2.513  47.333 -21.670  1.00  0.00     0.019 C 
ENDROOT
BRANCH  21  26
HETATM   26  O5  UNL     1      -1.231  50.763 -24.663  1.00  0.00    -0.352 OA
BRANCH  26  27
HETATM   27  C29 UNL     1      -1.394  50.940 -26.076  1.00  0.00     0.292 C 
HETATM   28  O6  UNL     1      -0.249  50.525 -26.826  1.00  0.00    -0.348 OA
HETATM   29  C30 UNL     1       0.735  51.539 -27.112  1.00  0.00     0.179 C 
HETATM   30  C32 UNL     1       0.147  52.795 -27.790  1.00  0.00     0.180 C 
HETATM   31  C33 UNL     1      -1.381  52.825 -27.718  1.00  0.00     0.183 C 
HETATM   32  C34 UNL     1      -1.816  52.406 -26.322  1.00  0.00     0.204 C 
BRANCH  29  33
HETATM   33  C31 UNL     1       1.609  51.814 -25.874  1.00  0.00     0.198 C 
BRANCH  33  34
HETATM   34  O7  UNL     1       0.896  52.637 -24.945  1.00  0.00    -0.398 OA
HETATM   35  H49 UNL     1       0.287  53.185 -25.473  1.00  0.00     0.209 HD
ENDBRANCH  33  34
ENDBRANCH  29  33
BRANCH  30  36
HETATM   36  O8  UNL     1       0.659  53.999 -27.202  1.00  0.00    -0.390 OA
HETATM   37  H51 UNL     1       0.036  54.697 -27.489  1.00  0.00     0.210 HD
ENDBRANCH  30  36
BRANCH  31  38
HETATM   38  O9  UNL     1      -1.832  54.163 -27.981  1.00  0.00    -0.390 OA
HETATM   39  H53 UNL     1      -2.774  54.151 -27.695  1.00  0.00     0.210 HD
ENDBRANCH  31  38
BRANCH  32  40
HETATM   40  O10 UNL     1      -3.243  52.578 -26.210  1.00  0.00    -0.388 OA
HETATM   41  H55 UNL     1      -3.472  52.354 -25.286  1.00  0.00     0.210 HD
ENDBRANCH  32  40
ENDBRANCH  26  27
ENDBRANCH  21  26
BRANCH   1  42
HETATM   42  C2  UNL     1      -8.983  45.039 -18.378  1.00  0.00    -0.014 C 
HETATM   43  C1  UNL     1      -9.677  43.960 -19.219  1.00  0.00     0.010 C 
BRANCH  42  44
HETATM   44  C3  UNL     1      -9.782  45.404 -17.090  1.00  0.00     0.007 C 
BRANCH  44  45
HETATM   45  C4  UNL     1     -10.104  44.243 -16.130  1.00  0.00     0.038 C 
BRANCH  45  46
HETATM   46  C5  UNL     1     -10.961  44.604 -14.878  1.00  0.00     0.061 C 
HETATM   47  C6  UNL     1     -10.188  44.185 -13.611  1.00  0.00     0.046 C 
BRANCH  46  48
HETATM   48  O1  UNL     1     -11.097  46.029 -14.840  1.00  0.00    -0.389 OA
HETATM   49  H12 UNL     1     -11.429  46.277 -13.957  1.00  0.00     0.210 HD
ENDBRANCH  46  48
BRANCH  46  50
HETATM   50  C7  UNL     1     -12.420  43.970 -14.948  1.00  0.00    -0.021 C 
HETATM   51  C8  UNL     1     -12.644  43.202 -16.275  1.00  0.00     0.017 C 
HETATM   52  C9  UNL     1     -13.520  45.059 -14.891  1.00  0.00     0.017 C 
HETATM   53  C10 UNL     1     -12.677  42.986 -13.789  1.00  0.00     0.017 C 
ENDBRANCH  46  50
ENDBRANCH  45  46
ENDBRANCH  44  45
ENDBRANCH  42  44
ENDBRANCH   1  42
TORSDOF 13
ENDMDL
MODEL 5
REMARK minimizedAffinity -8.63926792
REMARK CNNscore 0.171749562
REMARK CNNaffinity 6.48314619
REMARK  13 active torsions:
REMARK  status: ('A' for Active; 'I' for Inactive)
REMARK    1  A    between atoms: C2_2  and  C3_3 
REMARK    2  A    between atoms: C2_2  and  C11_12 
REMARK    3  A    between atoms: C3_3  and  C4_4 
REMARK    4  A    between atoms: C4_4  and  C5_5 
REMARK    5  A    between atoms: C5_5  and  O1_7 
REMARK    6  A    between atoms: C5_5  and  C7_8 
REMARK    7  A    between atoms: C28_32  and  O5_33 
REMARK    8  A    between atoms: O5_33  and  C29_34 
REMARK    9  A    between atoms: C30_36  and  C31_37 
REMARK   10  A    between atoms: C31_37  and  O7_38 
REMARK   11  A    between atoms: C32_39  and  O8_40 
REMARK   12  A    between atoms: C33_41  and  O9_42 
REMARK   13  A    between atoms: C34_43  and  O10_44 
ROOT
HETATM    1  C11 UNL     1      -8.223  46.528 -18.896  1.00  0.00    -0.001 C 
HETATM    2  C12 UNL     1      -8.614  47.908 -18.302  1.00  0.00     0.007 C 
HETATM    3  C13 UNL     1      -7.587  48.935 -18.817  1.00  0.00     0.024 C 
HETATM    4  C14 UNL     1      -6.705  48.163 -19.780  1.00  0.00     0.092 C 
HETATM    5  C15 UNL     1      -7.234  48.231 -21.248  1.00  0.00     0.272 C 
HETATM    6  O2  UNL     1      -8.387  48.343 -21.621  1.00  0.00    -0.264 OA
HETATM    7  O3  UNL     1      -6.154  48.122 -22.112  1.00  0.00    -0.305 OA
HETATM    8  C16 UNL     1      -4.962  47.906 -21.331  1.00  0.00     0.113 C 
HETATM    9  C17 UNL     1      -4.924  46.361 -21.029  1.00  0.00     0.043 C 
HETATM   10  C18 UNL     1      -6.187  45.786 -20.369  1.00  0.00     0.014 C 
HETATM   11  C19 UNL     1      -6.713  46.700 -19.240  1.00  0.00    -0.020 C 
HETATM   12  C20 UNL     1      -5.810  46.572 -17.996  1.00  0.00     0.017 C 
HETATM   13  C21 UNL     1      -5.312  48.642 -20.054  1.00  0.00     0.137 A 
HETATM   14  O4  UNL     1      -5.453  50.094 -20.132  1.00  0.00    -0.364 OA
HETATM   15  C22 UNL     1      -4.327  49.626 -19.432  1.00  0.00     0.162 A 
HETATM   16  C23 UNL     1      -3.084  50.049 -20.167  1.00  0.00     0.041 C 
HETATM   17  C24 UNL     1      -3.281  49.907 -21.706  1.00  0.00     0.009 C 
HETATM   18  C25 UNL     1      -2.182  50.645 -22.565  1.00  0.00    -0.017 C 
HETATM   19  C26 UNL     1      -2.383  52.191 -22.440  1.00  0.00     0.018 C 
HETATM   20  C27 UNL     1      -0.740  50.401 -22.074  1.00  0.00     0.018 C 
HETATM   21  C28 UNL     1      -2.374  50.322 -24.093  1.00  0.00     0.133 C 
HETATM   22  C35 UNL     1      -2.628  48.847 -24.390  1.00  0.00     0.034 C 
HETATM   23  C36 UNL     1      -3.804  48.305 -23.594  1.00  0.00     0.015 C 
HETATM   24  C37 UNL     1      -3.612  48.399 -22.063  1.00  0.00    -0.004 C 
HETATM   25  C38 UNL     1      -2.429  47.457 -21.682  1.00  0.00     0.019 C 
ENDROOT
BRANCH  21  26
HETATM   26  O5  UNL     1      -1.231  50.778 -24.828  1.00  0.00    -0.352 OA
BRANCH  26  27
HETATM   27  C29 UNL     1      -1.459  50.967 -26.231  1.00  0.00     0.292 C 
HETATM   28  O6  UNL     1      -0.369  50.515 -27.039  1.00  0.00    -0.348 OA
HETATM   29  C30 UNL     1       0.634  51.495 -27.372  1.00  0.00     0.179 C 
HETATM   30  C32 UNL     1       0.057  52.774 -28.017  1.00  0.00     0.180 C 
HETATM   31  C33 UNL     1      -1.463  52.857 -27.868  1.00  0.00     0.183 C 
HETATM   32  C34 UNL     1      -1.841  52.448 -26.452  1.00  0.00     0.204 C 
BRANCH  29  33
HETATM   33  C31 UNL     1       1.579  51.734 -26.180  1.00  0.00     0.198 C 
BRANCH  33  34
HETATM   34  O7  UNL     1       2.889  52.070 -26.654  1.00  0.00    -0.398 OA
HETATM   35  H49 UNL     1       2.992  51.627 -27.515  1.00  0.00     0.209 HD
ENDBRANCH  33  34
ENDBRANCH  29  33
BRANCH  30  36
HETATM   36  O8  UNL     1       0.640  53.956 -27.454  1.00  0.00    -0.390 OA
HETATM   37  H51 UNL     1       0.028  54.677 -27.707  1.00  0.00     0.210 HD
ENDBRANCH  30  36
BRANCH  31  38
HETATM   38  O9  UNL     1      -1.880  54.211 -28.104  1.00  0.00    -0.390 OA
HETATM   39  H53 UNL     1      -2.806  54.230 -27.771  1.00  0.00     0.210 HD
ENDBRANCH  31  38
BRANCH  32  40
HETATM   40  O10 UNL     1      -3.254  52.669 -26.267  1.00  0.00    -0.388 OA
HETATM   41  H55 UNL     1      -3.443  52.449 -25.333  1.00  0.00     0.210 HD
ENDBRANCH  32  40
ENDBRANCH  26  27
ENDBRANCH  21  26
BRANCH   1  42
HETATM   42  C2  UNL     1      -8.795  45.323 -18.091  1.00  0.00    -0.014 C 
HETATM   43  C1  UNL     1      -8.650  45.350 -16.565  1.00  0.00     0.010 C 
BRANCH  42  44
HETATM   44  C3  UNL     1      -8.443  43.934 -18.703  1.00  0.00     0.007 C 
BRANCH  44  45
HETATM   45  C4  UNL     1      -7.749  42.926 -17.767  1.00  0.00     0.038 C 
BRANCH  45  46
HETATM   46  C5  UNL     1      -6.597  42.083 -18.395  1.00  0.00     0.061 C 
HETATM   47  C6  UNL     1      -6.967  40.589 -18.300  1.00  0.00     0.046 C 
BRANCH  46  48
HETATM   48  O1  UNL     1      -6.525  42.414 -19.787  1.00  0.00    -0.389 OA
HETATM   49  H12 UNL     1      -5.974  41.742 -20.229  1.00  0.00     0.210 HD
ENDBRANCH  46  48
BRANCH  46  50
HETATM   50  C7  UNL     1      -5.186  42.412 -17.736  1.00  0.00    -0.021 C 
HETATM   51  C8  UNL     1      -4.472  41.125 -17.250  1.00  0.00     0.017 C 
HETATM   52  C9  UNL     1      -5.335  43.318 -16.487  1.00  0.00     0.017 C 
HETATM   53  C10 UNL     1      -4.240  43.127 -18.721  1.00  0.00     0.017 C 
ENDBRANCH  46  50
ENDBRANCH  45  46
ENDBRANCH  44  45
ENDBRANCH  42  44
ENDBRANCH   1  42
TORSDOF 13
ENDMDL
MODEL 6
REMARK minimizedAffinity -9.92075348
REMARK CNNscore 0.160077035
REMARK CNNaffinity 6.86232042
REMARK  13 active torsions:
REMARK  status: ('A' for Active; 'I' for Inactive)
REMARK    1  A    between atoms: C2_2  and  C3_3 
REMARK    2  A    between atoms: C2_2  and  C11_12 
REMARK    3  A    between atoms: C3_3  and  C4_4 
REMARK    4  A    between atoms: C4_4  and  C5_5 
REMARK    5  A    between atoms: C5_5  and  O1_7 
REMARK    6  A    between atoms: C5_5  and  C7_8 
REMARK    7  A    between atoms: C28_32  and  O5_33 
REMARK    8  A    between atoms: O5_33  and  C29_34 
REMARK    9  A    between atoms: C30_36  and  C31_37 
REMARK   10  A    between atoms: C31_37  and  O7_38 
REMARK   11  A    between atoms: C32_39  and  O8_40 
REMARK   12  A    between atoms: C33_41  and  O9_42 
REMARK   13  A    between atoms: C34_43  and  O10_44 
ROOT
HETATM    1  C11 UNL     1      -0.437  51.427 -20.937  1.00  0.00    -0.001 C 
HETATM    2  C12 UNL     1      -0.898  52.077 -19.604  1.00  0.00     0.007 C 
HETATM    3  C13 UNL     1      -2.266  51.466 -19.247  1.00  0.00     0.024 C 
HETATM    4  C14 UNL     1      -2.513  50.403 -20.301  1.00  0.00     0.092 C 
HETATM    5  C15 UNL     1      -1.980  49.002 -19.862  1.00  0.00     0.272 C 
HETATM    6  O2  UNL     1      -1.038  48.759 -19.130  1.00  0.00    -0.264 OA
HETATM    7  O3  UNL     1      -2.755  48.024 -20.468  1.00  0.00    -0.305 OA
HETATM    8  C16 UNL     1      -3.709  48.668 -21.336  1.00  0.00     0.113 C 
HETATM    9  C17 UNL     1      -2.940  48.946 -22.682  1.00  0.00     0.043 C 
HETATM   10  C18 UNL     1      -1.626  49.732 -22.543  1.00  0.00     0.014 C 
HETATM   11  C19 UNL     1      -1.770  50.922 -21.570  1.00  0.00    -0.020 C 
HETATM   12  C20 UNL     1      -2.567  52.060 -22.242  1.00  0.00     0.017 C 
HETATM   13  C21 UNL     1      -3.917  49.985 -20.616  1.00  0.00     0.137 A 
HETATM   14  O4  UNL     1      -4.568  49.941 -19.309  1.00  0.00    -0.364 OA
HETATM   15  C22 UNL     1      -5.324  50.508 -20.349  1.00  0.00     0.162 A 
HETATM   16  C23 UNL     1      -6.532  49.648 -20.602  1.00  0.00     0.041 C 
HETATM   17  C24 UNL     1      -6.160  48.138 -20.512  1.00  0.00     0.009 C 
HETATM   18  C25 UNL     1      -7.405  47.173 -20.412  1.00  0.00    -0.017 C 
HETATM   19  C26 UNL     1      -8.073  47.339 -19.008  1.00  0.00     0.018 C 
HETATM   20  C27 UNL     1      -8.529  47.502 -21.417  1.00  0.00     0.018 C 
HETATM   21  C28 UNL     1      -6.940  45.672 -20.478  1.00  0.00     0.133 C 
HETATM   22  C35 UNL     1      -5.913  45.386 -21.569  1.00  0.00     0.034 C 
HETATM   23  C36 UNL     1      -4.702  46.299 -21.458  1.00  0.00     0.015 C 
HETATM   24  C37 UNL     1      -5.044  47.800 -21.586  1.00  0.00    -0.004 C 
HETATM   25  C38 UNL     1      -5.568  48.039 -23.035  1.00  0.00     0.019 C 
ENDROOT
BRANCH  21  26
HETATM   26  O5  UNL     1      -8.082  44.822 -20.649  1.00  0.00    -0.352 OA
BRANCH  26  27
HETATM   27  C29 UNL     1      -7.943  43.513 -20.081  1.00  0.00     0.292 C 
HETATM   28  O6  UNL     1      -7.772  43.536 -18.661  1.00  0.00    -0.348 OA
HETATM   29  C30 UNL     1      -6.414  43.567 -18.178  1.00  0.00     0.179 C 
HETATM   30  C32 UNL     1      -5.530  42.437 -18.750  1.00  0.00     0.180 C 
HETATM   31  C33 UNL     1      -6.192  41.735 -19.938  1.00  0.00     0.183 C 
HETATM   32  C34 UNL     1      -6.814  42.785 -20.845  1.00  0.00     0.204 C 
BRANCH  29  33
HETATM   33  C31 UNL     1      -5.823  44.983 -18.301  1.00  0.00     0.198 C 
BRANCH  33  34
HETATM   34  O7  UNL     1      -4.770  45.159 -17.346  1.00  0.00    -0.398 OA
HETATM   35  H49 UNL     1      -4.986  44.584 -16.590  1.00  0.00     0.209 HD
ENDBRANCH  33  34
ENDBRANCH  29  33
BRANCH  30  36
HETATM   36  O8  UNL     1      -4.248  42.929 -19.162  1.00  0.00    -0.390 OA
HETATM   37  H51 UNL     1      -3.894  42.231 -19.750  1.00  0.00     0.210 HD
ENDBRANCH  30  36
BRANCH  31  38
HETATM   38  O9  UNL     1      -5.189  41.006 -20.663  1.00  0.00    -0.390 OA
HETATM   39  H53 UNL     1      -5.634  40.783 -21.513  1.00  0.00     0.210 HD
ENDBRANCH  31  38
BRANCH  32  40
HETATM   40  O10 UNL     1      -7.305  42.137 -22.035  1.00  0.00    -0.388 OA
HETATM   41  H55 UNL     1      -7.643  42.850 -22.613  1.00  0.00     0.210 HD
ENDBRANCH  32  40
ENDBRANCH  26  27
ENDBRANCH  21  26
BRANCH   1  42
HETATM   42  C2  UNL     1       0.619  52.275 -21.708  1.00  0.00    -0.014 C 
HETATM   43  C1  UNL     1       1.465  53.266 -20.901  1.00  0.00     0.010 C 
BRANCH  42  44
HETATM   44  C3  UNL     1       0.086  52.883 -23.040  1.00  0.00     0.007 C 
BRANCH  44  45
HETATM   45  C4  UNL     1       1.001  52.746 -24.271  1.00  0.00     0.038 C 
BRANCH  45  46
HETATM   46  C5  UNL     1       0.303  52.851 -25.662  1.00  0.00     0.061 C 
HETATM   47  C6  UNL     1      -1.224  52.787 -25.456  1.00  0.00     0.046 C 
BRANCH  46  48
HETATM   48  O1  UNL     1       0.604  54.143 -26.203  1.00  0.00    -0.389 OA
HETATM   49  H12 UNL     1      -0.001  54.305 -26.951  1.00  0.00     0.210 HD
ENDBRANCH  46  48
BRANCH  46  50
HETATM   50  C7  UNL     1       0.833  51.752 -26.684  1.00  0.00    -0.021 C 
HETATM   51  C8  UNL     1       2.321  51.404 -26.424  1.00  0.00     0.017 C 
HETATM   52  C9  UNL     1       0.757  52.248 -28.149  1.00  0.00     0.017 C 
HETATM   53  C10 UNL     1       0.025  50.442 -26.593  1.00  0.00     0.017 C 
ENDBRANCH  46  50
ENDBRANCH  45  46
ENDBRANCH  44  45
ENDBRANCH  42  44
ENDBRANCH   1  42
TORSDOF 13
ENDMDL
MODEL 7
REMARK minimizedAffinity -10.220912
REMARK CNNscore 0.158657044
REMARK CNNaffinity 6.38526773
REMARK  13 active torsions:
REMARK  status: ('A' for Active; 'I' for Inactive)
REMARK    1  A    between atoms: C2_2  and  C3_3 
REMARK    2  A    between atoms: C2_2  and  C11_12 
REMARK    3  A    between atoms: C3_3  and  C4_4 
REMARK    4  A    between atoms: C4_4  and  C5_5 
REMARK    5  A    between atoms: C5_5  and  O1_7 
REMARK    6  A    between atoms: C5_5  and  C7_8 
REMARK    7  A    between atoms: C28_32  and  O5_33 
REMARK    8  A    between atoms: O5_33  and  C29_34 
REMARK    9  A    between atoms: C30_36  and  C31_37 
REMARK   10  A    between atoms: C31_37  and  O7_38 
REMARK   11  A    between atoms: C32_39  and  O8_40 
REMARK   12  A    between atoms: C33_41  and  O9_42 
REMARK   13  A    between atoms: C34_43  and  O10_44 
ROOT
HETATM    1  C11 UNL     1      -8.770  47.164 -19.147  1.00  0.00    -0.001 C 
HETATM    2  C12 UNL     1      -9.093  48.602 -18.656  1.00  0.00     0.007 C 
HETATM    3  C13 UNL     1      -7.969  49.523 -19.169  1.00  0.00     0.024 C 
HETATM    4  C14 UNL     1      -7.094  48.636 -20.034  1.00  0.00     0.092 C 
HETATM    5  C15 UNL     1      -7.538  48.651 -21.532  1.00  0.00     0.272 C 
HETATM    6  O2  UNL     1      -8.659  48.818 -21.976  1.00  0.00    -0.264 OA
HETATM    7  O3  UNL     1      -6.425  48.417 -22.325  1.00  0.00    -0.305 OA
HETATM    8  C16 UNL     1      -5.294  48.169 -21.466  1.00  0.00     0.113 C 
HETATM    9  C17 UNL     1      -5.382  46.646 -21.075  1.00  0.00     0.043 C 
HETATM   10  C18 UNL     1      -6.716  46.198 -20.457  1.00  0.00     0.014 C 
HETATM   11  C19 UNL     1      -7.235  47.212 -19.414  1.00  0.00    -0.020 C 
HETATM   12  C20 UNL     1      -6.410  47.099 -18.114  1.00  0.00     0.017 C 
HETATM   13  C21 UNL     1      -5.658  49.002 -20.255  1.00  0.00     0.137 A 
HETATM   14  O4  UNL     1      -5.691  50.453 -20.423  1.00  0.00    -0.364 OA
HETATM   15  C22 UNL     1      -4.640  49.953 -19.634  1.00  0.00     0.162 A 
HETATM   16  C23 UNL     1      -3.333  50.245 -20.319  1.00  0.00     0.041 C 
HETATM   17  C24 UNL     1      -3.457  50.024 -21.856  1.00  0.00     0.009 C 
HETATM   18  C25 UNL     1      -2.265  50.632 -22.692  1.00  0.00    -0.017 C 
HETATM   19  C26 UNL     1      -2.362  52.193 -22.666  1.00  0.00     0.018 C 
HETATM   20  C27 UNL     1      -0.871  50.322 -22.107  1.00  0.00     0.018 C 
HETATM   21  C28 UNL     1      -2.398  50.232 -24.207  1.00  0.00     0.133 C 
HETATM   22  C35 UNL     1      -2.740  48.762 -24.435  1.00  0.00     0.034 C 
HETATM   23  C36 UNL     1      -3.992  48.350 -23.678  1.00  0.00     0.015 C 
HETATM   24  C37 UNL     1      -3.875  48.523 -22.147  1.00  0.00    -0.004 C 
HETATM   25  C38 UNL     1      -2.785  47.528 -21.645  1.00  0.00     0.019 C 
ENDROOT
BRANCH  21  26
HETATM   26  O5  UNL     1      -1.188  50.564 -24.901  1.00  0.00    -0.352 OA
BRANCH  26  27
HETATM   27  C29 UNL     1      -1.356  50.842 -26.297  1.00  0.00     0.292 C 
HETATM   28  O6  UNL     1      -0.219  50.470 -27.081  1.00  0.00    -0.348 OA
HETATM   29  C30 UNL     1       0.773  51.493 -27.300  1.00  0.00     0.179 C 
HETATM   30  C32 UNL     1       0.194  52.799 -27.885  1.00  0.00     0.180 C 
HETATM   31  C33 UNL     1      -1.334  52.838 -27.803  1.00  0.00     0.183 C 
HETATM   32  C34 UNL     1      -1.766  52.326 -26.437  1.00  0.00     0.204 C 
BRANCH  29  33
HETATM   33  C31 UNL     1       1.656  51.673 -26.052  1.00  0.00     0.198 C 
BRANCH  33  34
HETATM   34  O7  UNL     1       2.944  51.086 -26.275  1.00  0.00    -0.398 OA
HETATM   35  H49 UNL     1       2.807  50.353 -26.902  1.00  0.00     0.209 HD
ENDBRANCH  33  34
ENDBRANCH  29  33
BRANCH  30  36
HETATM   36  O8  UNL     1       0.719  53.954 -27.217  1.00  0.00    -0.390 OA
HETATM   37  H51 UNL     1       0.101  54.676 -27.450  1.00  0.00     0.210 HD
ENDBRANCH  30  36
BRANCH  31  38
HETATM   38  O9  UNL     1      -1.774  54.195 -27.968  1.00  0.00    -0.390 OA
HETATM   39  H53 UNL     1      -2.715  54.171 -27.678  1.00  0.00     0.210 HD
ENDBRANCH  31  38
BRANCH  32  40
HETATM   40  O10 UNL     1      -3.190  52.501 -26.305  1.00  0.00    -0.388 OA
HETATM   41  H55 UNL     1      -3.417  52.215 -25.398  1.00  0.00     0.210 HD
ENDBRANCH  32  40
ENDBRANCH  26  27
ENDBRANCH  21  26
BRANCH   1  42
HETATM   42  C2  UNL     1      -9.467  46.052 -18.309  1.00  0.00    -0.014 C 
HETATM   43  C1  UNL     1      -9.572  44.652 -18.925  1.00  0.00     0.010 C 
BRANCH  42  44
HETATM   44  C3  UNL     1     -10.794  46.512 -17.633  1.00  0.00     0.007 C 
BRANCH  44  45
HETATM   45  C4  UNL     1     -11.933  46.942 -18.577  1.00  0.00     0.038 C 
BRANCH  45  46
HETATM   46  C5  UNL     1     -13.365  46.963 -17.961  1.00  0.00     0.061 C 
HETATM   47  C6  UNL     1     -13.806  45.512 -17.681  1.00  0.00     0.046 C 
BRANCH  46  48
HETATM   48  O1  UNL     1     -13.286  47.634 -16.699  1.00  0.00    -0.389 OA
HETATM   49  H12 UNL     1     -14.111  47.456 -16.210  1.00  0.00     0.210 HD
ENDBRANCH  46  48
BRANCH  46  50
HETATM   50  C7  UNL     1     -14.399  47.754 -18.877  1.00  0.00    -0.021 C 
HETATM   51  C8  UNL     1     -13.695  48.419 -20.087  1.00  0.00     0.017 C 
HETATM   52  C9  UNL     1     -15.092  48.902 -18.099  1.00  0.00     0.017 C 
HETATM   53  C10 UNL     1     -15.505  46.832 -19.430  1.00  0.00     0.017 C 
ENDBRANCH  46  50
ENDBRANCH  45  46
ENDBRANCH  44  45
ENDBRANCH  42  44
ENDBRANCH   1  42
TORSDOF 13
ENDMDL
MODEL 8
REMARK minimizedAffinity -8.36786461
REMARK CNNscore 0.151213214
REMARK CNNaffinity 6.19997835
REMARK  13 active torsions:
REMARK  status: ('A' for Active; 'I' for Inactive)
REMARK    1  A    between atoms: C2_2  and  C3_3 
REMARK    2  A    between atoms: C2_2  and  C11_12 
REMARK    3  A    between atoms: C3_3  and  C4_4 
REMARK    4  A    between atoms: C4_4  and  C5_5 
REMARK    5  A    between atoms: C5_5  and  O1_7 
REMARK    6  A    between atoms: C5_5  and  C7_8 
REMARK    7  A    between atoms: C28_32  and  O5_33 
REMARK    8  A    between atoms: O5_33  and  C29_34 
REMARK    9  A    between atoms: C30_36  and  C31_37 
REMARK   10  A    between atoms: C31_37  and  O7_38 
REMARK   11  A    between atoms: C32_39  and  O8_40 
REMARK   12  A    between atoms: C33_41  and  O9_42 
REMARK   13  A    between atoms: C34_43  and  O10_44 
ROOT
HETATM    1  C11 UNL     1      -7.527  47.349 -22.838  1.00  0.00    -0.001 C 
HETATM    2  C12 UNL     1      -8.967  46.970 -22.394  1.00  0.00     0.007 C 
HETATM    3  C13 UNL     1      -9.778  46.683 -23.672  1.00  0.00     0.024 C 
HETATM    4  C14 UNL     1      -8.777  46.783 -24.807  1.00  0.00     0.092 C 
HETATM    5  C15 UNL     1      -8.120  45.404 -25.136  1.00  0.00     0.272 C 
HETATM    6  O2  UNL     1      -7.908  44.478 -24.375  1.00  0.00    -0.264 OA
HETATM    7  O3  UNL     1      -7.776  45.389 -26.480  1.00  0.00    -0.305 OA
HETATM    8  C16 UNL     1      -8.081  46.678 -27.047  1.00  0.00     0.113 C 
HETATM    9  C17 UNL     1      -6.849  47.598 -26.704  1.00  0.00     0.043 C 
HETATM   10  C18 UNL     1      -6.472  47.669 -25.215  1.00  0.00     0.014 C 
HETATM   11  C19 UNL     1      -7.717  47.814 -24.313  1.00  0.00    -0.020 C 
HETATM   12  C20 UNL     1      -8.270  49.252 -24.407  1.00  0.00     0.017 C 
HETATM   13  C21 UNL     1      -9.256  47.103 -26.191  1.00  0.00     0.137 A 
HETATM   14  O4  UNL     1     -10.493  46.335 -26.317  1.00  0.00    -0.364 OA
HETATM   15  C22 UNL     1     -10.530  47.641 -26.834  1.00  0.00     0.162 A 
HETATM   16  C23 UNL     1     -10.735  47.572 -28.323  1.00  0.00     0.041 C 
HETATM   17  C24 UNL     1      -9.902  46.409 -28.939  1.00  0.00     0.009 C 
HETATM   18  C25 UNL     1     -10.314  46.034 -30.415  1.00  0.00    -0.017 C 
HETATM   19  C26 UNL     1     -11.716  45.342 -30.398  1.00  0.00     0.018 C 
HETATM   20  C27 UNL     1     -10.497  47.256 -31.340  1.00  0.00     0.018 C 
HETATM   21  C28 UNL     1      -9.326  44.961 -31.004  1.00  0.00     0.133 C 
HETATM   22  C35 UNL     1      -7.853  45.259 -30.737  1.00  0.00     0.034 C 
HETATM   23  C36 UNL     1      -7.577  45.461 -29.256  1.00  0.00     0.015 C 
HETATM   24  C37 UNL     1      -8.364  46.637 -28.634  1.00  0.00    -0.004 C 
HETATM   25  C38 UNL     1      -7.846  47.949 -29.298  1.00  0.00     0.019 C 
ENDROOT
BRANCH  21  26
HETATM   26  O5  UNL     1      -9.549  44.824 -32.414  1.00  0.00    -0.352 OA
BRANCH  26  27
HETATM   27  C29 UNL     1      -9.556  46.061 -33.140  1.00  0.00     0.292 C 
HETATM   28  O6  UNL     1     -10.821  46.344 -33.745  1.00  0.00    -0.348 OA
HETATM   29  C30 UNL     1     -11.001  45.888 -35.101  1.00  0.00     0.179 C 
HETATM   30  C32 UNL     1      -9.892  46.362 -36.064  1.00  0.00     0.180 C 
HETATM   31  C33 UNL     1      -8.686  46.934 -35.315  1.00  0.00     0.183 C 
HETATM   32  C34 UNL     1      -8.370  46.032 -34.131  1.00  0.00     0.204 C 
BRANCH  29  33
HETATM   33  C31 UNL     1     -11.292  44.377 -35.134  1.00  0.00     0.198 C 
BRANCH  33  34
HETATM   34  O7  UNL     1     -12.439  44.082 -34.328  1.00  0.00    -0.398 OA
HETATM   35  H49 UNL     1     -12.461  44.756 -33.625  1.00  0.00     0.209 HD
ENDBRANCH  33  34
ENDBRANCH  29  33
BRANCH  30  36
HETATM   36  O8  UNL     1      -9.443  45.299 -36.915  1.00  0.00    -0.390 OA
HETATM   37  H51 UNL     1      -8.583  45.609 -37.263  1.00  0.00     0.210 HD
ENDBRANCH  30  36
BRANCH  31  38
HETATM   38  O9  UNL     1      -7.560  46.969 -36.206  1.00  0.00    -0.390 OA
HETATM   39  H53 UNL     1      -6.794  47.122 -35.606  1.00  0.00     0.210 HD
ENDBRANCH  31  38
BRANCH  32  40
HETATM   40  O10 UNL     1      -7.149  46.486 -33.515  1.00  0.00    -0.388 OA
HETATM   41  H55 UNL     1      -6.952  45.850 -32.799  1.00  0.00     0.210 HD
ENDBRANCH  32  40
ENDBRANCH  26  27
ENDBRANCH  21  26
BRANCH   1  42
HETATM   42  C2  UNL     1      -6.743  48.166 -21.768  1.00  0.00    -0.014 C 
HETATM   43  C1  UNL     1      -7.423  49.406 -21.176  1.00  0.00     0.010 C 
BRANCH  42  44
HETATM   44  C3  UNL     1      -5.250  48.416 -22.138  1.00  0.00     0.007 C 
BRANCH  44  45
HETATM   45  C4  UNL     1      -4.913  49.798 -22.730  1.00  0.00     0.038 C 
BRANCH  45  46
HETATM   46  C5  UNL     1      -3.527  49.924 -23.434  1.00  0.00     0.061 C 
HETATM   47  C6  UNL     1      -2.814  48.558 -23.374  1.00  0.00     0.046 C 
BRANCH  46  48
HETATM   48  O1  UNL     1      -3.766  50.216 -24.815  1.00  0.00    -0.389 OA
HETATM   49  H12 UNL     1      -2.933  50.074 -25.302  1.00  0.00     0.210 HD
ENDBRANCH  46  48
BRANCH  46  50
HETATM   50  C7  UNL     1      -2.649  51.104 -22.824  1.00  0.00    -0.021 C 
HETATM   51  C8  UNL     1      -2.670  51.086 -21.274  1.00  0.00     0.017 C 
HETATM   52  C9  UNL     1      -3.189  52.495 -23.244  1.00  0.00     0.017 C 
HETATM   53  C10 UNL     1      -1.177  51.020 -23.272  1.00  0.00     0.017 C 
ENDBRANCH  46  50
ENDBRANCH  45  46
ENDBRANCH  44  45
ENDBRANCH  42  44
ENDBRANCH   1  42
TORSDOF 13
ENDMDL
MODEL 9
REMARK minimizedAffinity -9.4856472
REMARK CNNscore 0.14900434
REMARK CNNaffinity 6.823627
REMARK  13 active torsions:
REMARK  status: ('A' for Active; 'I' for Inactive)
REMARK    1  A    between atoms: C2_2  and  C3_3 
REMARK    2  A    between atoms: C2_2  and  C11_12 
REMARK    3  A    between atoms: C3_3  and  C4_4 
REMARK    4  A    between atoms: C4_4  and  C5_5 
REMARK    5  A    between atoms: C5_5  and  O1_7 
REMARK    6  A    between atoms: C5_5  and  C7_8 
REMARK    7  A    between atoms: C28_32  and  O5_33 
REMARK    8  A    between atoms: O5_33  and  C29_34 
REMARK    9  A    between atoms: C30_36  and  C31_37 
REMARK   10  A    between atoms: C31_37  and  O7_38 
REMARK   11  A    between atoms: C32_39  and  O8_40 
REMARK   12  A    between atoms: C33_41  and  O9_42 
REMARK   13  A    between atoms: C34_43  and  O10_44 
ROOT
HETATM    1  C11 UNL     1      -0.337  51.577 -20.843  1.00  0.00    -0.001 C 
HETATM    2  C12 UNL     1      -0.848  52.222 -19.526  1.00  0.00     0.007 C 
HETATM    3  C13 UNL     1      -2.178  51.532 -19.166  1.00  0.00     0.024 C 
HETATM    4  C14 UNL     1      -2.349  50.437 -20.201  1.00  0.00     0.092 C 
HETATM    5  C15 UNL     1      -1.732  49.081 -19.732  1.00  0.00     0.272 C 
HETATM    6  O2  UNL     1      -0.783  48.911 -18.989  1.00  0.00    -0.264 OA
HETATM    7  O3  UNL     1      -2.440  48.045 -20.324  1.00  0.00    -0.305 OA
HETATM    8  C16 UNL     1      -3.425  48.611 -21.211  1.00  0.00     0.113 C 
HETATM    9  C17 UNL     1      -2.665  48.911 -22.557  1.00  0.00     0.043 C 
HETATM   10  C18 UNL     1      -1.404  49.781 -22.424  1.00  0.00     0.014 C 
HETATM   11  C19 UNL     1      -1.630  50.978 -21.475  1.00  0.00    -0.020 C 
HETATM   12  C20 UNL     1      -2.492  52.050 -22.174  1.00  0.00     0.017 C 
HETATM   13  C21 UNL     1      -3.721  49.925 -20.518  1.00  0.00     0.137 A 
HETATM   14  O4  UNL     1      -4.379  49.865 -19.215  1.00  0.00    -0.364 OA
HETATM   15  C22 UNL     1      -5.161  50.364 -20.271  1.00  0.00     0.162 A 
HETATM   16  C23 UNL     1      -6.311  49.425 -20.515  1.00  0.00     0.041 C 
HETATM   17  C24 UNL     1      -5.844  47.943 -20.394  1.00  0.00     0.009 C 
HETATM   18  C25 UNL     1      -7.027  46.904 -20.284  1.00  0.00    -0.017 C 
HETATM   19  C26 UNL     1      -7.716  47.054 -18.888  1.00  0.00     0.018 C 
HETATM   20  C27 UNL     1      -8.162  47.142 -21.302  1.00  0.00     0.018 C 
HETATM   21  C28 UNL     1      -6.469  45.434 -20.317  1.00  0.00     0.133 C 
HETATM   22  C35 UNL     1      -5.417  45.193 -21.396  1.00  0.00     0.034 C 
HETATM   23  C36 UNL     1      -4.267  46.182 -21.294  1.00  0.00     0.015 C 
HETATM   24  C37 UNL     1      -4.702  47.656 -21.453  1.00  0.00    -0.004 C 
HETATM   25  C38 UNL     1      -5.227  47.834 -22.910  1.00  0.00     0.019 C 
ENDROOT
BRANCH  21  26
HETATM   26  O5  UNL     1      -7.554  44.511 -20.480  1.00  0.00    -0.352 OA
BRANCH  26  27
HETATM   27  C29 UNL     1      -7.443  43.653 -21.623  1.00  0.00     0.292 C 
HETATM   28  O6  UNL     1      -8.450  43.904 -22.608  1.00  0.00    -0.348 OA
HETATM   29  C30 UNL     1      -9.656  43.122 -22.509  1.00  0.00     0.179 C 
HETATM   30  C32 UNL     1      -9.402  41.600 -22.459  1.00  0.00     0.180 C 
HETATM   31  C33 UNL     1      -7.930  41.271 -22.204  1.00  0.00     0.183 C 
HETATM   32  C34 UNL     1      -7.401  42.194 -21.116  1.00  0.00     0.204 C 
BRANCH  29  33
HETATM   33  C31 UNL     1     -10.569  43.667 -21.395  1.00  0.00     0.198 C 
BRANCH  33  34
HETATM   34  O7  UNL     1     -10.047  43.303 -20.112  1.00  0.00    -0.398 OA
HETATM   35  H49 UNL     1      -9.569  42.463 -20.238  1.00  0.00     0.209 HD
ENDBRANCH  33  34
ENDBRANCH  29  33
BRANCH  30  36
HETATM   36  O8  UNL     1     -10.197  40.965 -21.449  1.00  0.00    -0.390 OA
HETATM   37  H51 UNL     1      -9.768  40.097 -21.307  1.00  0.00     0.210 HD
ENDBRANCH  30  36
BRANCH  31  38
HETATM   38  O9  UNL     1      -7.828  39.906 -21.767  1.00  0.00    -0.390 OA
HETATM   39  H53 UNL     1      -6.912  39.844 -21.411  1.00  0.00     0.210 HD
ENDBRANCH  31  38
BRANCH  32  40
HETATM   40  O10 UNL     1      -6.062  41.786 -20.772  1.00  0.00    -0.388 OA
HETATM   41  H55 UNL     1      -5.783  42.365 -20.034  1.00  0.00     0.210 HD
ENDBRANCH  32  40
ENDBRANCH  26  27
ENDBRANCH  21  26
BRANCH   1  42
HETATM   42  C2  UNL     1       0.670  52.475 -21.622  1.00  0.00    -0.014 C 
HETATM   43  C1  UNL     1       1.391  53.582 -20.844  1.00  0.00     0.010 C 
BRANCH  42  44
HETATM   44  C3  UNL     1       0.140  52.960 -23.005  1.00  0.00     0.007 C 
BRANCH  44  45
HETATM   45  C4  UNL     1       0.996  52.597 -24.234  1.00  0.00     0.038 C 
BRANCH  45  46
HETATM   46  C5  UNL     1       0.322  52.801 -25.626  1.00  0.00     0.061 C 
HETATM   47  C6  UNL     1      -1.210  52.786 -25.442  1.00  0.00     0.046 C 
BRANCH  46  48
HETATM   48  O1  UNL     1       0.679  54.106 -26.095  1.00  0.00    -0.389 OA
HETATM   49  H12 UNL     1       0.092  54.330 -26.841  1.00  0.00     0.210 HD
ENDBRANCH  46  48
BRANCH  46  50
HETATM   50  C7  UNL     1       0.824  51.736 -26.697  1.00  0.00    -0.021 C 
HETATM   51  C8  UNL     1       0.581  52.228 -28.146  1.00  0.00     0.017 C 
HETATM   52  C9  UNL     1       0.064  50.392 -26.566  1.00  0.00     0.017 C 
HETATM   53  C10 UNL     1       2.329  51.437 -26.552  1.00  0.00     0.017 C 
ENDBRANCH  46  50
ENDBRANCH  45  46
ENDBRANCH  44  45
ENDBRANCH  42  44
ENDBRANCH   1  42
TORSDOF 13
ENDMDL
