MODEL 1
REMARK minimizedAffinity -7.02040243
REMARK CNNscore 0.607034564
REMARK CNNaffinity 6.8494339
REMARK  10 active torsions:
REMARK  status: ('A' for Active; 'I' for Inactive)
REMARK    1  A    between atoms: C2_2  and  O2_4 
REMARK    2  A    between atoms: O2_4  and  C3_5 
REMARK    3  A    between atoms: C3_5  and  C4_6 
REMARK    4  A    between atoms: C3_5  and  C30_36 
REMARK    5  A    between atoms: C4_6  and  O3_7 
REMARK    6  A    between atoms: C4_6  and  C5_8 
REMARK    7  A    between atoms: C5_8  and  C6_9 
REMARK    8  A    between atoms: C6_9  and  C8_11 
REMARK    9  A    between atoms: C27_31  and  O5_32 
REMARK   10  A    between atoms: C30_36  and  O7_39 
ROOT
HETATM    1  C8  UNL     1       4.708   7.606  10.592  1.00  0.00     0.097 A 
HETATM    2  C9  UNL     1       4.365   8.935   9.982  1.00  0.00     0.042 C 
HETATM    3  C10 UNL     1       3.345   8.613   8.869  1.00  0.00     0.016 C 
HETATM    4  C11 UNL     1       2.639   7.268   9.266  1.00  0.00    -0.002 C 
HETATM    5  C12 UNL     1       2.482   6.409   7.981  1.00  0.00     0.019 C 
HETATM    6  C13 UNL     1       1.235   7.456  10.036  1.00  0.00    -0.027 C 
HETATM    7  C14 UNL     1       0.194   7.838   8.942  1.00  0.00     0.016 C 
HETATM    8  C15 UNL     1       1.267   8.612  11.070  1.00  0.00     0.011 C 
HETATM    9  C16 UNL     1      -0.021   8.785  11.883  1.00  0.00     0.007 C 
HETATM   10  C17 UNL     1      -0.467   7.514  12.629  1.00  0.00     0.009 C 
HETATM   11  C18 UNL     1      -1.729   7.725  13.545  1.00  0.00     0.017 C 
HETATM   12  C19 UNL     1      -1.268   8.250  14.925  1.00  0.00     0.023 C 
HETATM   13  C20 UNL     1      -2.733   8.750  12.972  1.00  0.00     0.023 C 
HETATM   14  C21 UNL     1      -2.515   6.435  13.830  1.00  0.00     0.135 C 
HETATM   15  O4  UNL     1      -3.645   6.477  14.335  1.00  0.00    -0.297 OA
HETATM   16  C22 UNL     1      -1.898   5.079  13.572  1.00  0.00     0.080 C 
HETATM   17  C23 UNL     1      -0.682   5.047  12.661  1.00  0.00     0.017 C 
HETATM   18  C24 UNL     1      -0.525   6.260  11.702  1.00  0.00    -0.032 C 
HETATM   19  C25 UNL     1      -1.765   6.261  10.766  1.00  0.00     0.016 C 
HETATM   20  C26 UNL     1       0.816   6.120  10.812  1.00  0.00     0.032 C 
HETATM   21  C27 UNL     1       2.014   5.492  11.619  1.00  0.00     0.126 C 
HETATM   22  C28 UNL     1       3.299   5.330  10.819  1.00  0.00     0.074 C 
HETATM   23  C29 UNL     1       3.666   6.606  10.160  1.00  0.00     0.104 A 
HETATM   24  O6  UNL     1       5.001   6.586   9.620  1.00  0.00    -0.362 OA
ENDROOT
BRANCH   1  25
HETATM   25  C6  UNL     1       5.564   7.505  11.837  1.00  0.00     0.022 C 
HETATM   26  C7  UNL     1       6.266   6.148  11.929  1.00  0.00     0.013 C 
BRANCH  25  27
HETATM   27  C5  UNL     1       4.706   7.798  13.094  1.00  0.00     0.041 C 
BRANCH  27  28
HETATM   28  C4  UNL     1       5.505   7.866  14.403  1.00  0.00     0.151 C 
BRANCH  28  29
HETATM   29  C3  UNL     1       6.487   9.068  14.511  1.00  0.00     0.194 C 
BRANCH  29  30
HETATM   30  O2  UNL     1       7.018   9.406  13.209  1.00  0.00    -0.311 OA
BRANCH  30  31
HETATM   31  C2  UNL     1       6.795  10.672  12.766  1.00  0.00     0.255 C 
HETATM   32  C1  UNL     1       7.949  11.133  11.926  1.00  0.00     0.126 C 
HETATM   33  O1  UNL     1       5.794  11.339  12.982  1.00  0.00    -0.266 OA
ENDBRANCH  30  31
ENDBRANCH  29  30
BRANCH  29  34
HETATM   34  C30 UNL     1       7.677   8.917  15.520  1.00  0.00     0.080 C 
HETATM   35  C31 UNL     1       8.025  10.304  16.090  1.00  0.00     0.048 C 
HETATM   36  C32 UNL     1       8.954   8.332  14.898  1.00  0.00     0.048 C 
BRANCH  34  37
HETATM   37  O7  UNL     1       7.286   8.087  16.626  1.00  0.00    -0.388 OA
HETATM   38  H52 UNL     1       8.035   8.053  17.250  1.00  0.00     0.210 HD
ENDBRANCH  34  37
ENDBRANCH  29  34
ENDBRANCH  28  29
BRANCH  28  39
HETATM   39  O3  UNL     1       6.191   6.626  14.599  1.00  0.00    -0.393 OA
HETATM   40  H6  UNL     1       6.970   6.651  13.999  1.00  0.00     0.210 HD
ENDBRANCH  28  39
ENDBRANCH  27  28
ENDBRANCH  25  27
ENDBRANCH   1  25
BRANCH  21  41
HETATM   41  O5  UNL     1       2.301   6.229  12.802  1.00  0.00    -0.395 OA
HETATM   42  H43 UNL     1       3.059   5.808  13.246  1.00  0.00     0.210 HD
ENDBRANCH  21  41
TORSDOF 10
ENDMDL
MODEL 2
REMARK minimizedAffinity -8.39683342
REMARK CNNscore 0.543429136
REMARK CNNaffinity 6.91171503
REMARK  10 active torsions:
REMARK  status: ('A' for Active; 'I' for Inactive)
REMARK    1  A    between atoms: C2_2  and  O2_4 
REMARK    2  A    between atoms: O2_4  and  C3_5 
REMARK    3  A    between atoms: C3_5  and  C4_6 
REMARK    4  A    between atoms: C3_5  and  C30_36 
REMARK    5  A    between atoms: C4_6  and  O3_7 
REMARK    6  A    between atoms: C4_6  and  C5_8 
REMARK    7  A    between atoms: C5_8  and  C6_9 
REMARK    8  A    between atoms: C6_9  and  C8_11 
REMARK    9  A    between atoms: C27_31  and  O5_32 
REMARK   10  A    between atoms: C30_36  and  O7_39 
ROOT
HETATM    1  C8  UNL     1      -0.965   7.856  12.922  1.00  0.00     0.097 A 
HETATM    2  C9  UNL     1      -1.962   8.648  12.126  1.00  0.00     0.042 C 
HETATM    3  C10 UNL     1      -3.264   8.600  12.953  1.00  0.00     0.016 C 
HETATM    4  C11 UNL     1      -2.850   8.368  14.450  1.00  0.00    -0.002 C 
HETATM    5  C12 UNL     1      -3.849   7.356  15.074  1.00  0.00     0.019 C 
HETATM    6  C13 UNL     1      -2.739   9.718  15.325  1.00  0.00    -0.027 C 
HETATM    7  C14 UNL     1      -4.204  10.138  15.652  1.00  0.00     0.016 C 
HETATM    8  C15 UNL     1      -2.085  10.888  14.545  1.00  0.00     0.011 C 
HETATM    9  C16 UNL     1      -1.888  12.173  15.357  1.00  0.00     0.007 C 
HETATM   10  C17 UNL     1      -1.082  11.978  16.655  1.00  0.00     0.009 C 
HETATM   11  C18 UNL     1      -0.793  13.317  17.430  1.00  0.00     0.017 C 
HETATM   12  C19 UNL     1       0.487  13.966  16.853  1.00  0.00     0.023 C 
HETATM   13  C20 UNL     1      -1.934  14.351  17.306  1.00  0.00     0.023 C 
HETATM   14  C21 UNL     1      -0.523  13.122  18.931  1.00  0.00     0.135 C 
HETATM   15  O4  UNL     1      -0.511  14.087  19.706  1.00  0.00    -0.297 OA
HETATM   16  C22 UNL     1      -0.191  11.756  19.487  1.00  0.00     0.080 C 
HETATM   17  C23 UNL     1      -0.536  10.562  18.612  1.00  0.00     0.017 C 
HETATM   18  C24 UNL     1      -1.628  10.809  17.533  1.00  0.00    -0.032 C 
HETATM   19  C25 UNL     1      -2.934  11.184  18.287  1.00  0.00     0.016 C 
HETATM   20  C26 UNL     1      -1.881   9.477  16.655  1.00  0.00     0.032 C 
HETATM   21  C27 UNL     1      -0.554   8.675  16.377  1.00  0.00     0.126 C 
HETATM   22  C28 UNL     1      -0.743   7.404  15.560  1.00  0.00     0.074 C 
HETATM   23  C29 UNL     1      -1.502   7.691  14.321  1.00  0.00     0.104 A 
HETATM   24  O6  UNL     1      -1.474   6.593  13.388  1.00  0.00    -0.362 OA
ENDROOT
BRANCH   1  25
HETATM   25  C6  UNL     1       0.496   7.798  12.527  1.00  0.00     0.022 C 
HETATM   26  C7  UNL     1       1.162   9.172  12.631  1.00  0.00     0.013 C 
BRANCH  25  27
HETATM   27  C5  UNL     1       0.636   7.195  11.105  1.00  0.00     0.041 C 
BRANCH  27  28
HETATM   28  C4  UNL     1       2.001   6.553  10.823  1.00  0.00     0.151 C 
BRANCH  28  29
HETATM   29  C3  UNL     1       3.021   7.472  10.091  1.00  0.00     0.194 C 
BRANCH  29  30
HETATM   30  O2  UNL     1       3.167   7.067   8.710  1.00  0.00    -0.311 OA
BRANCH  30  31
HETATM   31  C2  UNL     1       2.728   7.940   7.765  1.00  0.00     0.255 C 
HETATM   32  C1  UNL     1       1.636   7.312   6.951  1.00  0.00     0.126 C 
HETATM   33  O1  UNL     1       3.128   9.084   7.608  1.00  0.00    -0.266 OA
ENDBRANCH  30  31
ENDBRANCH  29  30
BRANCH  29  34
HETATM   34  C30 UNL     1       4.444   7.600  10.734  1.00  0.00     0.080 C 
HETATM   35  C31 UNL     1       4.316   7.452  12.260  1.00  0.00     0.048 C 
HETATM   36  C32 UNL     1       5.142   8.939  10.450  1.00  0.00     0.048 C 
BRANCH  34  37
HETATM   37  O7  UNL     1       5.293   6.536  10.272  1.00  0.00    -0.388 OA
HETATM   38  H52 UNL     1       6.152   6.625  10.727  1.00  0.00     0.210 HD
ENDBRANCH  34  37
ENDBRANCH  29  34
ENDBRANCH  28  29
BRANCH  28  39
HETATM   39  O3  UNL     1       1.805   5.332  10.102  1.00  0.00    -0.393 OA
HETATM   40  H6  UNL     1       1.618   5.594   9.173  1.00  0.00     0.210 HD
ENDBRANCH  28  39
ENDBRANCH  27  28
ENDBRANCH  25  27
ENDBRANCH   1  25
BRANCH  21  41
HETATM   41  O5  UNL     1       0.433   9.483  15.746  1.00  0.00    -0.395 OA
HETATM   42  H43 UNL     1       1.218   8.931  15.582  1.00  0.00     0.210 HD
ENDBRANCH  21  41
TORSDOF 10
ENDMDL
MODEL 3
REMARK minimizedAffinity -7.5960021
REMARK CNNscore 0.531493366
REMARK CNNaffinity 7.1468339
REMARK  10 active torsions:
REMARK  status: ('A' for Active; 'I' for Inactive)
REMARK    1  A    between atoms: C2_2  and  O2_4 
REMARK    2  A    between atoms: O2_4  and  C3_5 
REMARK    3  A    between atoms: C3_5  and  C4_6 
REMARK    4  A    between atoms: C3_5  and  C30_36 
REMARK    5  A    between atoms: C4_6  and  O3_7 
REMARK    6  A    between atoms: C4_6  and  C5_8 
REMARK    7  A    between atoms: C5_8  and  C6_9 
REMARK    8  A    between atoms: C6_9  and  C8_11 
REMARK    9  A    between atoms: C27_31  and  O5_32 
REMARK   10  A    between atoms: C30_36  and  O7_39 
ROOT
HETATM    1  C8  UNL     1     -10.298   8.994  15.328  1.00  0.00     0.097 A 
HETATM    2  C9  UNL     1     -10.657   9.389  16.731  1.00  0.00     0.042 C 
HETATM    3  C10 UNL     1     -11.663  10.549  16.576  1.00  0.00     0.016 C 
HETATM    4  C11 UNL     1     -12.350  10.379  15.174  1.00  0.00    -0.002 C 
HETATM    5  C12 UNL     1     -12.482  11.785  14.529  1.00  0.00     0.019 C 
HETATM    6  C13 UNL     1     -13.763   9.603  15.217  1.00  0.00    -0.027 C 
HETATM    7  C14 UNL     1     -14.801  10.635  15.753  1.00  0.00     0.016 C 
HETATM    8  C15 UNL     1     -13.759   8.399  16.195  1.00  0.00     0.011 C 
HETATM    9  C16 UNL     1     -15.056   7.583  16.218  1.00  0.00     0.007 C 
HETATM   10  C17 UNL     1     -15.487   7.053  14.838  1.00  0.00     0.009 C 
HETATM   11  C18 UNL     1     -16.760   6.128  14.883  1.00  0.00     0.017 C 
HETATM   12  C19 UNL     1     -16.319   4.677  15.188  1.00  0.00     0.023 C 
HETATM   13  C20 UNL     1     -17.776   6.543  15.971  1.00  0.00     0.023 C 
HETATM   14  C21 UNL     1     -17.528   6.060  13.552  1.00  0.00     0.135 C 
HETATM   15  O4  UNL     1     -18.663   5.568  13.497  1.00  0.00    -0.297 OA
HETATM   16  C22 UNL     1     -16.887   6.524  12.264  1.00  0.00     0.080 C 
HETATM   17  C23 UNL     1     -15.663   7.415  12.394  1.00  0.00     0.017 C 
HETATM   18  C24 UNL     1     -15.518   8.168  13.747  1.00  0.00    -0.032 C 
HETATM   19  C25 UNL     1     -16.750   9.105  13.878  1.00  0.00     0.016 C 
HETATM   20  C26 UNL     1     -14.167   9.054  13.769  1.00  0.00     0.032 C 
HETATM   21  C27 UNL     1     -12.966   8.344  13.039  1.00  0.00     0.126 C 
HETATM   22  C28 UNL     1     -11.671   9.146  13.024  1.00  0.00     0.074 C 
HETATM   23  C29 UNL     1     -11.320   9.590  14.394  1.00  0.00     0.104 A 
HETATM   24  O6  UNL     1      -9.980  10.112  14.479  1.00  0.00    -0.362 OA
ENDROOT
BRANCH   1  25
HETATM   25  C6  UNL     1      -9.451   7.771  15.043  1.00  0.00     0.022 C 
HETATM   26  C7  UNL     1     -10.314   6.557  14.692  1.00  0.00     0.013 C 
BRANCH  25  27
HETATM   27  C5  UNL     1      -8.513   7.485  16.244  1.00  0.00     0.041 C 
BRANCH  27  28
HETATM   28  C4  UNL     1      -7.517   6.342  16.010  1.00  0.00     0.151 C 
BRANCH  28  29
HETATM   29  C3  UNL     1      -6.823   6.349  14.617  1.00  0.00     0.194 C 
BRANCH  29  30
HETATM   30  O2  UNL     1      -6.794   5.014  14.061  1.00  0.00    -0.311 OA
BRANCH  30  31
HETATM   31  C2  UNL     1      -7.601   4.778  12.992  1.00  0.00     0.255 C 
HETATM   32  C1  UNL     1      -7.940   3.319  12.917  1.00  0.00     0.126 C 
HETATM   33  O1  UNL     1      -8.025   5.621  12.216  1.00  0.00    -0.266 OA
ENDBRANCH  30  31
ENDBRANCH  29  30
BRANCH  29  34
HETATM   34  C30 UNL     1      -5.381   6.957  14.551  1.00  0.00     0.080 C 
HETATM   35  C31 UNL     1      -5.335   8.009  13.428  1.00  0.00     0.048 C 
HETATM   36  C32 UNL     1      -4.278   5.925  14.269  1.00  0.00     0.048 C 
BRANCH  34  37
HETATM   37  O7  UNL     1      -5.071   7.632  15.781  1.00  0.00    -0.388 OA
HETATM   38  H52 UNL     1      -4.186   8.032  15.684  1.00  0.00     0.210 HD
ENDBRANCH  34  37
ENDBRANCH  29  34
ENDBRANCH  28  29
BRANCH  28  39
HETATM   39  O3  UNL     1      -8.173   5.092  16.248  1.00  0.00    -0.393 OA
HETATM   40  H6  UNL     1      -8.720   4.919  15.450  1.00  0.00     0.210 HD
ENDBRANCH  28  39
ENDBRANCH  27  28
ENDBRANCH  25  27
ENDBRANCH   1  25
BRANCH  21  41
HETATM   41  O5  UNL     1     -12.700   7.055  13.582  1.00  0.00    -0.395 OA
HETATM   42  H43 UNL     1     -11.939   6.676  13.107  1.00  0.00     0.210 HD
ENDBRANCH  21  41
TORSDOF 10
ENDMDL
MODEL 4
REMARK minimizedAffinity -8.39945984
REMARK CNNscore 0.527193904
REMARK CNNaffinity 7.02320814
REMARK  10 active torsions:
REMARK  status: ('A' for Active; 'I' for Inactive)
REMARK    1  A    between atoms: C2_2  and  O2_4 
REMARK    2  A    between atoms: O2_4  and  C3_5 
REMARK    3  A    between atoms: C3_5  and  C4_6 
REMARK    4  A    between atoms: C3_5  and  C30_36 
REMARK    5  A    between atoms: C4_6  and  O3_7 
REMARK    6  A    between atoms: C4_6  and  C5_8 
REMARK    7  A    between atoms: C5_8  and  C6_9 
REMARK    8  A    between atoms: C6_9  and  C8_11 
REMARK    9  A    between atoms: C27_31  and  O5_32 
REMARK   10  A    between atoms: C30_36  and  O7_39 
ROOT
HETATM    1  C8  UNL     1      -0.581   6.678  12.670  1.00  0.00     0.097 A 
HETATM    2  C9  UNL     1      -0.381   5.500  11.760  1.00  0.00     0.042 C 
HETATM    3  C10 UNL     1      -0.046   6.110  10.383  1.00  0.00     0.016 C 
HETATM    4  C11 UNL     1       0.572   7.529  10.645  1.00  0.00    -0.002 C 
HETATM    5  C12 UNL     1      -0.003   8.507   9.584  1.00  0.00     0.019 C 
HETATM    6  C13 UNL     1       2.183   7.557  10.676  1.00  0.00    -0.027 C 
HETATM    7  C14 UNL     1       2.642   7.482   9.188  1.00  0.00     0.016 C 
HETATM    8  C15 UNL     1       2.792   6.334  11.410  1.00  0.00     0.011 C 
HETATM    9  C16 UNL     1       4.320   6.350  11.533  1.00  0.00     0.007 C 
HETATM   10  C17 UNL     1       4.881   7.617  12.205  1.00  0.00     0.009 C 
HETATM   11  C18 UNL     1       6.440   7.582  12.423  1.00  0.00     0.017 C 
HETATM   12  C19 UNL     1       6.746   6.861  13.757  1.00  0.00     0.023 C 
HETATM   13  C20 UNL     1       7.194   6.828  11.305  1.00  0.00     0.023 C 
HETATM   14  C21 UNL     1       7.084   8.973  12.542  1.00  0.00     0.135 C 
HETATM   15  O4  UNL     1       8.313   9.113  12.483  1.00  0.00    -0.297 OA
HETATM   16  C22 UNL     1       6.238  10.197  12.810  1.00  0.00     0.080 C 
HETATM   17  C23 UNL     1       4.747  10.066  12.547  1.00  0.00     0.017 C 
HETATM   18  C24 UNL     1       4.332   8.932  11.569  1.00  0.00    -0.032 C 
HETATM   19  C25 UNL     1       4.985   9.254  10.197  1.00  0.00     0.016 C 
HETATM   20  C26 UNL     1       2.727   8.879  11.397  1.00  0.00     0.032 C 
HETATM   21  C27 UNL     1       1.965   9.187  12.740  1.00  0.00     0.126 C 
HETATM   22  C28 UNL     1       0.446   9.160  12.627  1.00  0.00     0.074 C 
HETATM   23  C29 UNL     1      -0.005   7.898  11.996  1.00  0.00     0.104 A 
HETATM   24  O6  UNL     1      -1.427   7.699  12.110  1.00  0.00    -0.362 OA
ENDROOT
BRANCH   1  25
HETATM   25  C6  UNL     1      -0.769   6.503  14.162  1.00  0.00     0.022 C 
HETATM   26  C7  UNL     1      -0.595   5.042  14.583  1.00  0.00     0.013 C 
BRANCH  25  27
HETATM   27  C5  UNL     1      -2.147   7.068  14.592  1.00  0.00     0.041 C 
BRANCH  27  28
HETATM   28  C4  UNL     1      -3.136   6.007  15.094  1.00  0.00     0.151 C 
BRANCH  28  29
HETATM   29  C3  UNL     1      -4.472   5.924  14.299  1.00  0.00     0.194 C 
BRANCH  29  30
HETATM   30  O2  UNL     1      -4.218   5.570  12.921  1.00  0.00    -0.311 OA
BRANCH  30  31
HETATM   31  C2  UNL     1      -4.184   4.242  12.626  1.00  0.00     0.255 C 
HETATM   32  C1  UNL     1      -5.558   3.760  12.267  1.00  0.00     0.126 C 
HETATM   33  O1  UNL     1      -3.185   3.538  12.617  1.00  0.00    -0.266 OA
ENDBRANCH  30  31
ENDBRANCH  29  30
BRANCH  29  34
HETATM   34  C30 UNL     1      -5.393   7.191  14.335  1.00  0.00     0.080 C 
HETATM   35  C31 UNL     1      -6.831   6.772  13.982  1.00  0.00     0.048 C 
HETATM   36  C32 UNL     1      -4.974   8.298  13.355  1.00  0.00     0.048 C 
BRANCH  34  37
HETATM   37  O7  UNL     1      -5.423   7.744  15.661  1.00  0.00    -0.388 OA
HETATM   38  H52 UNL     1      -6.038   8.501  15.652  1.00  0.00     0.210 HD
ENDBRANCH  34  37
ENDBRANCH  29  34
ENDBRANCH  28  29
BRANCH  28  39
HETATM   39  O3  UNL     1      -3.384   6.219  16.488  1.00  0.00    -0.393 OA
HETATM   40  H6  UNL     1      -4.008   6.977  16.539  1.00  0.00     0.210 HD
ENDBRANCH  28  39
ENDBRANCH  27  28
ENDBRANCH  25  27
ENDBRANCH   1  25
BRANCH  21  41
HETATM   41  O5  UNL     1       2.361   8.311  13.789  1.00  0.00    -0.395 OA
HETATM   42  H43 UNL     1       1.845   8.535  14.584  1.00  0.00     0.210 HD
ENDBRANCH  21  41
TORSDOF 10
ENDMDL
MODEL 5
REMARK minimizedAffinity -7.92714071
REMARK CNNscore 0.498783827
REMARK CNNaffinity 6.55770826
REMARK  10 active torsions:
REMARK  status: ('A' for Active; 'I' for Inactive)
REMARK    1  A    between atoms: C2_2  and  O2_4 
REMARK    2  A    between atoms: O2_4  and  C3_5 
REMARK    3  A    between atoms: C3_5  and  C4_6 
REMARK    4  A    between atoms: C3_5  and  C30_36 
REMARK    5  A    between atoms: C4_6  and  O3_7 
REMARK    6  A    between atoms: C4_6  and  C5_8 
REMARK    7  A    between atoms: C5_8  and  C6_9 
REMARK    8  A    between atoms: C6_9  and  C8_11 
REMARK    9  A    between atoms: C27_31  and  O5_32 
REMARK   10  A    between atoms: C30_36  and  O7_39 
ROOT
HETATM    1  C8  UNL     1      -1.203  11.492  18.187  1.00  0.00     0.097 A 
HETATM    2  C9  UNL     1      -2.061  10.555  18.988  1.00  0.00     0.042 C 
HETATM    3  C10 UNL     1      -3.417  10.526  18.252  1.00  0.00     0.016 C 
HETATM    4  C11 UNL     1      -3.135  10.893  16.751  1.00  0.00    -0.002 C 
HETATM    5  C12 UNL     1      -4.267  11.839  16.266  1.00  0.00     0.019 C 
HETATM    6  C13 UNL     1      -2.958   9.620  15.778  1.00  0.00    -0.027 C 
HETATM    7  C14 UNL     1      -4.396   9.078  15.517  1.00  0.00     0.016 C 
HETATM    8  C15 UNL     1      -2.142   8.473  16.429  1.00  0.00     0.011 C 
HETATM    9  C16 UNL     1      -1.881   7.269  15.517  1.00  0.00     0.007 C 
HETATM   10  C17 UNL     1      -1.192   7.627  14.188  1.00  0.00     0.009 C 
HETATM   11  C18 UNL     1      -0.832   6.376  13.303  1.00  0.00     0.017 C 
HETATM   12  C19 UNL     1       0.541   5.822  13.748  1.00  0.00     0.023 C 
HETATM   13  C20 UNL     1      -1.858   5.227  13.426  1.00  0.00     0.023 C 
HETATM   14  C21 UNL     1      -0.690   6.693  11.805  1.00  0.00     0.135 C 
HETATM   15  O4  UNL     1      -0.640   5.785  10.964  1.00  0.00    -0.297 OA
HETATM   16  C22 UNL     1      -0.530   8.118  11.326  1.00  0.00     0.080 C 
HETATM   17  C23 UNL     1      -0.924   9.213  12.304  1.00  0.00     0.017 C 
HETATM   18  C24 UNL     1      -1.908   8.789  13.431  1.00  0.00    -0.032 C 
HETATM   19  C25 UNL     1      -3.222   8.335  12.738  1.00  0.00     0.016 C 
HETATM   20  C26 UNL     1      -2.223  10.030  14.416  1.00  0.00     0.032 C 
HETATM   21  C27 UNL     1      -0.963  10.941  14.663  1.00  0.00     0.126 C 
HETATM   22  C28 UNL     1      -1.213  12.132  15.579  1.00  0.00     0.074 C 
HETATM   23  C29 UNL     1      -1.851  11.692  16.841  1.00  0.00     0.104 A 
HETATM   24  O6  UNL     1      -1.862  12.725  17.846  1.00  0.00    -0.362 OA
ENDROOT
BRANCH   1  25
HETATM   25  C6  UNL     1       0.270  11.669  18.491  1.00  0.00     0.022 C 
HETATM   26  C7  UNL     1       1.100  10.497  17.962  1.00  0.00     0.013 C 
BRANCH  25  27
HETATM   27  C5  UNL     1       0.475  11.882  20.013  1.00  0.00     0.041 C 
BRANCH  27  28
HETATM   28  C4  UNL     1       1.692  12.744  20.373  1.00  0.00     0.151 C 
BRANCH  28  29
HETATM   29  C3  UNL     1       2.814  12.005  21.157  1.00  0.00     0.194 C 
BRANCH  29  30
HETATM   30  O2  UNL     1       2.248  10.967  21.989  1.00  0.00    -0.311 OA
BRANCH  30  31
HETATM   31  C2  UNL     1       2.615   9.688  21.709  1.00  0.00     0.255 C 
HETATM   32  C1  UNL     1       2.706   8.889  22.976  1.00  0.00     0.126 C 
HETATM   33  O1  UNL     1       2.814   9.229  20.594  1.00  0.00    -0.266 OA
ENDBRANCH  30  31
ENDBRANCH  29  30
BRANCH  29  34
HETATM   34  C30 UNL     1       3.766  12.891  22.030  1.00  0.00     0.080 C 
HETATM   35  C31 UNL     1       4.354  14.008  21.149  1.00  0.00     0.048 C 
HETATM   36  C32 UNL     1       4.939  12.122  22.656  1.00  0.00     0.048 C 
BRANCH  34  37
HETATM   37  O7  UNL     1       3.023  13.526  23.084  1.00  0.00    -0.388 OA
HETATM   38  H52 UNL     1       3.640  14.100  23.576  1.00  0.00     0.210 HD
ENDBRANCH  34  37
ENDBRANCH  29  34
ENDBRANCH  28  29
BRANCH  28  39
HETATM   39  O3  UNL     1       1.250  13.905  21.085  1.00  0.00    -0.393 OA
HETATM   40  H6  UNL     1       1.061  13.602  22.002  1.00  0.00     0.210 HD
ENDBRANCH  28  39
ENDBRANCH  27  28
ENDBRANCH  25  27
ENDBRANCH   1  25
BRANCH  21  41
HETATM   41  O5  UNL     1       0.139  10.197  15.171  1.00  0.00    -0.395 OA
HETATM   42  H43 UNL     1       0.878  10.813  15.323  1.00  0.00     0.210 HD
ENDBRANCH  21  41
TORSDOF 10
ENDMDL
MODEL 6
REMARK minimizedAffinity -8.58559608
REMARK CNNscore 0.488587022
REMARK CNNaffinity 7.17789841
REMARK  10 active torsions:
REMARK  status: ('A' for Active; 'I' for Inactive)
REMARK    1  A    between atoms: C2_2  and  O2_4 
REMARK    2  A    between atoms: O2_4  and  C3_5 
REMARK    3  A    between atoms: C3_5  and  C4_6 
REMARK    4  A    between atoms: C3_5  and  C30_36 
REMARK    5  A    between atoms: C4_6  and  O3_7 
REMARK    6  A    between atoms: C4_6  and  C5_8 
REMARK    7  A    between atoms: C5_8  and  C6_9 
REMARK    8  A    between atoms: C6_9  and  C8_11 
REMARK    9  A    between atoms: C27_31  and  O5_32 
REMARK   10  A    between atoms: C30_36  and  O7_39 
ROOT
HETATM    1  C8  UNL     1      -0.483   8.074  12.869  1.00  0.00     0.097 A 
HETATM    2  C9  UNL     1      -1.545   8.800  12.094  1.00  0.00     0.042 C 
HETATM    3  C10 UNL     1      -2.841   8.600  12.908  1.00  0.00     0.016 C 
HETATM    4  C11 UNL     1      -2.416   8.353  14.399  1.00  0.00    -0.002 C 
HETATM    5  C12 UNL     1      -3.319   7.230  14.977  1.00  0.00     0.019 C 
HETATM    6  C13 UNL     1      -2.434   9.673  15.324  1.00  0.00    -0.027 C 
HETATM    7  C14 UNL     1      -3.934   9.944  15.653  1.00  0.00     0.016 C 
HETATM    8  C15 UNL     1      -1.888  10.928  14.592  1.00  0.00     0.011 C 
HETATM    9  C16 UNL     1      -1.815  12.194  15.452  1.00  0.00     0.007 C 
HETATM   10  C17 UNL     1      -1.001  12.026  16.749  1.00  0.00     0.009 C 
HETATM   11  C18 UNL     1      -0.841  13.357  17.574  1.00  0.00     0.017 C 
HETATM   12  C19 UNL     1       0.376  14.143  17.033  1.00  0.00     0.023 C 
HETATM   13  C20 UNL     1      -2.073  14.285  17.479  1.00  0.00     0.023 C 
HETATM   14  C21 UNL     1      -0.562  13.132  19.070  1.00  0.00     0.135 C 
HETATM   15  O4  UNL     1      -0.643  14.065  19.880  1.00  0.00    -0.297 OA
HETATM   16  C22 UNL     1      -0.108  11.783  19.579  1.00  0.00     0.080 C 
HETATM   17  C23 UNL     1      -0.336  10.595  18.657  1.00  0.00     0.017 C 
HETATM   18  C24 UNL     1      -1.441  10.781  17.579  1.00  0.00    -0.032 C 
HETATM   19  C25 UNL     1      -2.779  11.004  18.335  1.00  0.00     0.016 C 
HETATM   20  C26 UNL     1      -1.564   9.464  16.651  1.00  0.00     0.032 C 
HETATM   21  C27 UNL     1      -0.168   8.800  16.356  1.00  0.00     0.126 C 
HETATM   22  C28 UNL     1      -0.233   7.547  15.491  1.00  0.00     0.074 C 
HETATM   23  C29 UNL     1      -1.010   7.809  14.257  1.00  0.00     0.104 A 
HETATM   24  O6  UNL     1      -0.875   6.754  13.285  1.00  0.00    -0.362 OA
ENDROOT
BRANCH   1  25
HETATM   25  C6  UNL     1       0.979   8.167  12.485  1.00  0.00     0.022 C 
HETATM   26  C7  UNL     1       1.631   9.431  13.050  1.00  0.00     0.013 C 
BRANCH  25  27
HETATM   27  C5  UNL     1       1.127   8.080  10.944  1.00  0.00     0.041 C 
BRANCH  27  28
HETATM   28  C4  UNL     1       1.930   6.868  10.453  1.00  0.00     0.151 C 
BRANCH  28  29
HETATM   29  C3  UNL     1       2.891   7.153   9.263  1.00  0.00     0.194 C 
BRANCH  29  30
HETATM   30  O2  UNL     1       3.984   7.999   9.688  1.00  0.00    -0.311 OA
BRANCH  30  31
HETATM   31  C2  UNL     1       4.889   7.449  10.541  1.00  0.00     0.255 C 
HETATM   32  C1  UNL     1       5.045   8.315  11.755  1.00  0.00     0.126 C 
HETATM   33  O1  UNL     1       5.474   6.388  10.376  1.00  0.00    -0.266 OA
ENDBRANCH  30  31
ENDBRANCH  29  30
BRANCH  29  34
HETATM   34  C30 UNL     1       2.250   7.765   7.971  1.00  0.00     0.080 C 
HETATM   35  C31 UNL     1       0.842   8.284   8.310  1.00  0.00     0.048 C 
HETATM   36  C32 UNL     1       2.115   6.770   6.808  1.00  0.00     0.048 C 
BRANCH  34  37
HETATM   37  O7  UNL     1       3.023   8.890   7.520  1.00  0.00    -0.388 OA
HETATM   38  H52 UNL     1       2.569   9.268   6.743  1.00  0.00     0.210 HD
ENDBRANCH  34  37
ENDBRANCH  29  34
ENDBRANCH  28  29
BRANCH  28  39
HETATM   39  O3  UNL     1       1.027   5.804  10.136  1.00  0.00    -0.393 OA
HETATM   40  H6  UNL     1       0.637   6.032   9.263  1.00  0.00     0.210 HD
ENDBRANCH  28  39
ENDBRANCH  27  28
ENDBRANCH  25  27
ENDBRANCH   1  25
BRANCH  21  41
HETATM   41  O5  UNL     1       0.743   9.718  15.762  1.00  0.00    -0.395 OA
HETATM   42  H43 UNL     1       1.577   9.247  15.585  1.00  0.00     0.210 HD
ENDBRANCH  21  41
TORSDOF 10
ENDMDL
MODEL 7
REMARK minimizedAffinity -7.74754333
REMARK CNNscore 0.485081464
REMARK CNNaffinity 6.57524109
REMARK  10 active torsions:
REMARK  status: ('A' for Active; 'I' for Inactive)
REMARK    1  A    between atoms: C2_2  and  O2_4 
REMARK    2  A    between atoms: O2_4  and  C3_5 
REMARK    3  A    between atoms: C3_5  and  C4_6 
REMARK    4  A    between atoms: C3_5  and  C30_36 
REMARK    5  A    between atoms: C4_6  and  O3_7 
REMARK    6  A    between atoms: C4_6  and  C5_8 
REMARK    7  A    between atoms: C5_8  and  C6_9 
REMARK    8  A    between atoms: C6_9  and  C8_11 
REMARK    9  A    between atoms: C27_31  and  O5_32 
REMARK   10  A    between atoms: C30_36  and  O7_39 
ROOT
HETATM    1  C8  UNL     1       1.497   8.127  13.065  1.00  0.00     0.097 A 
HETATM    2  C9  UNL     1       0.708   8.488  11.839  1.00  0.00     0.042 C 
HETATM    3  C10 UNL     1      -0.671   7.827  12.042  1.00  0.00     0.016 C 
HETATM    4  C11 UNL     1      -0.884   7.668  13.590  1.00  0.00    -0.002 C 
HETATM    5  C12 UNL     1      -1.533   6.281  13.846  1.00  0.00     0.019 C 
HETATM    6  C13 UNL     1      -1.727   8.861  14.271  1.00  0.00    -0.027 C 
HETATM    7  C14 UNL     1      -3.218   8.595  13.902  1.00  0.00     0.016 C 
HETATM    8  C15 UNL     1      -1.353  10.258  13.711  1.00  0.00     0.011 C 
HETATM    9  C16 UNL     1      -2.074  11.434  14.379  1.00  0.00     0.007 C 
HETATM   10  C17 UNL     1      -1.901  11.490  15.908  1.00  0.00     0.009 C 
HETATM   11  C18 UNL     1      -2.554  12.756  16.575  1.00  0.00     0.017 C 
HETATM   12  C19 UNL     1      -1.549  13.930  16.521  1.00  0.00     0.023 C 
HETATM   13  C20 UNL     1      -3.847  13.219  15.866  1.00  0.00     0.023 C 
HETATM   14  C21 UNL     1      -2.899  12.569  18.062  1.00  0.00     0.135 C 
HETATM   15  O4  UNL     1      -3.620  13.382  18.655  1.00  0.00    -0.297 OA
HETATM   16  C22 UNL     1      -2.304  11.429  18.857  1.00  0.00     0.080 C 
HETATM   17  C23 UNL     1      -1.712  10.279  18.060  1.00  0.00     0.017 C 
HETATM   18  C24 UNL     1      -2.231  10.132  16.602  1.00  0.00    -0.032 C 
HETATM   19  C25 UNL     1      -3.757   9.857  16.689  1.00  0.00     0.016 C 
HETATM   20  C26 UNL     1      -1.507   8.895  15.856  1.00  0.00     0.032 C 
HETATM   21  C27 UNL     1       0.010   8.753  16.255  1.00  0.00     0.126 C 
HETATM   22  C28 UNL     1       0.735   7.593  15.585  1.00  0.00     0.074 C 
HETATM   23  C29 UNL     1       0.536   7.635  14.117  1.00  0.00     0.104 A 
HETATM   24  O6  UNL     1       1.412   6.733  13.414  1.00  0.00    -0.362 OA
ENDROOT
BRANCH   1  25
HETATM   25  C6  UNL     1       2.864   8.723  13.330  1.00  0.00     0.022 C 
HETATM   26  C7  UNL     1       2.870  10.238  13.107  1.00  0.00     0.013 C 
BRANCH  25  27
HETATM   27  C5  UNL     1       3.930   8.007  12.462  1.00  0.00     0.041 C 
BRANCH  27  28
HETATM   28  C4  UNL     1       4.062   8.562  11.037  1.00  0.00     0.151 C 
BRANCH  28  29
HETATM   29  C3  UNL     1       3.901   7.509   9.903  1.00  0.00     0.194 C 
BRANCH  29  30
HETATM   30  O2  UNL     1       2.644   7.698   9.213  1.00  0.00    -0.311 OA
BRANCH  30  31
HETATM   31  C2  UNL     1       2.707   8.206   7.954  1.00  0.00     0.255 C 
HETATM   32  C1  UNL     1       1.883   7.371   7.020  1.00  0.00     0.126 C 
HETATM   33  O1  UNL     1       3.313   9.214   7.619  1.00  0.00    -0.266 OA
ENDBRANCH  30  31
ENDBRANCH  29  30
BRANCH  29  34
HETATM   34  C30 UNL     1       4.030   6.003  10.317  1.00  0.00     0.080 C 
HETATM   35  C31 UNL     1       5.475   5.735  10.774  1.00  0.00     0.048 C 
HETATM   36  C32 UNL     1       3.706   5.014   9.187  1.00  0.00     0.048 C 
BRANCH  34  37
HETATM   37  O7  UNL     1       3.169   5.720  11.432  1.00  0.00    -0.388 OA
HETATM   38  H52 UNL     1       3.311   4.788  11.686  1.00  0.00     0.210 HD
ENDBRANCH  34  37
ENDBRANCH  29  34
ENDBRANCH  28  29
BRANCH  28  39
HETATM   39  O3  UNL     1       5.309   9.255  10.917  1.00  0.00    -0.393 OA
HETATM   40  H6  UNL     1       5.996   8.559  10.822  1.00  0.00     0.210 HD
ENDBRANCH  28  39
ENDBRANCH  27  28
ENDBRANCH  25  27
ENDBRANCH   1  25
BRANCH  21  41
HETATM   41  O5  UNL     1       0.739   9.951  16.010  1.00  0.00    -0.395 OA
HETATM   42  H43 UNL     1       1.668   9.797  16.255  1.00  0.00     0.210 HD
ENDBRANCH  21  41
TORSDOF 10
ENDMDL
MODEL 8
REMARK minimizedAffinity -7.24902344
REMARK CNNscore 0.479642779
REMARK CNNaffinity 6.75486612
REMARK  10 active torsions:
REMARK  status: ('A' for Active; 'I' for Inactive)
REMARK    1  A    between atoms: C2_2  and  O2_4 
REMARK    2  A    between atoms: O2_4  and  C3_5 
REMARK    3  A    between atoms: C3_5  and  C4_6 
REMARK    4  A    between atoms: C3_5  and  C30_36 
REMARK    5  A    between atoms: C4_6  and  O3_7 
REMARK    6  A    between atoms: C4_6  and  C5_8 
REMARK    7  A    between atoms: C5_8  and  C6_9 
REMARK    8  A    between atoms: C6_9  and  C8_11 
REMARK    9  A    between atoms: C27_31  and  O5_32 
REMARK   10  A    between atoms: C30_36  and  O7_39 
ROOT
HETATM    1  C8  UNL     1       1.289   7.983  12.973  1.00  0.00     0.097 A 
HETATM    2  C9  UNL     1       0.738   8.658  11.750  1.00  0.00     0.042 C 
HETATM    3  C10 UNL     1      -0.701   8.119  11.609  1.00  0.00     0.016 C 
HETATM    4  C11 UNL     1      -1.173   7.683  13.041  1.00  0.00    -0.002 C 
HETATM    5  C12 UNL     1      -1.955   6.348  12.905  1.00  0.00     0.019 C 
HETATM    6  C13 UNL     1      -2.026   8.801  13.829  1.00  0.00    -0.027 C 
HETATM    7  C14 UNL     1      -3.453   8.771  13.202  1.00  0.00     0.016 C 
HETATM    8  C15 UNL     1      -1.464  10.234  13.635  1.00  0.00     0.011 C 
HETATM    9  C16 UNL     1      -2.196  11.325  14.424  1.00  0.00     0.007 C 
HETATM   10  C17 UNL     1      -2.270  11.061  15.939  1.00  0.00     0.009 C 
HETATM   11  C18 UNL     1      -2.928  12.234  16.757  1.00  0.00     0.017 C 
HETATM   12  C19 UNL     1      -1.844  13.284  17.095  1.00  0.00     0.023 C 
HETATM   13  C20 UNL     1      -4.051  12.960  15.982  1.00  0.00     0.023 C 
HETATM   14  C21 UNL     1      -3.522  11.796  18.106  1.00  0.00     0.135 C 
HETATM   15  O4  UNL     1      -4.269  12.549  18.746  1.00  0.00    -0.297 OA
HETATM   16  C22 UNL     1      -3.150  10.467  18.721  1.00  0.00     0.080 C 
HETATM   17  C23 UNL     1      -2.522   9.439  17.794  1.00  0.00     0.017 C 
HETATM   18  C24 UNL     1      -2.807   9.636  16.278  1.00  0.00    -0.032 C 
HETATM   19  C25 UNL     1      -4.343   9.511  16.085  1.00  0.00     0.016 C 
HETATM   20  C26 UNL     1      -2.064   8.500  15.402  1.00  0.00     0.032 C 
HETATM   21  C27 UNL     1      -0.647   8.124  15.976  1.00  0.00     0.126 C 
HETATM   22  C28 UNL     1       0.090   7.049  15.188  1.00  0.00     0.074 C 
HETATM   23  C29 UNL     1       0.136   7.399  13.749  1.00  0.00     0.104 A 
HETATM   24  O6  UNL     1       1.046   6.565  13.006  1.00  0.00    -0.362 OA
ENDROOT
BRANCH   1  25
HETATM   25  C6  UNL     1       2.634   8.369  13.552  1.00  0.00     0.022 C 
HETATM   26  C7  UNL     1       3.075   9.756  13.076  1.00  0.00     0.013 C 
BRANCH  25  27
HETATM   27  C5  UNL     1       3.687   7.282  13.214  1.00  0.00     0.041 C 
BRANCH  27  28
HETATM   28  C4  UNL     1       4.786   7.744  12.248  1.00  0.00     0.151 C 
BRANCH  28  29
HETATM   29  C3  UNL     1       5.904   8.614  12.892  1.00  0.00     0.194 C 
BRANCH  29  30
HETATM   30  O2  UNL     1       6.801   9.117  11.875  1.00  0.00    -0.311 OA
BRANCH  30  31
HETATM   31  C2  UNL     1       6.735  10.448  11.603  1.00  0.00     0.255 C 
HETATM   32  C1  UNL     1       8.094  11.068  11.737  1.00  0.00     0.126 C 
HETATM   33  O1  UNL     1       5.732  11.059  11.264  1.00  0.00    -0.266 OA
ENDBRANCH  30  31
ENDBRANCH  29  30
BRANCH  29  34
HETATM   34  C30 UNL     1       6.750   7.947  14.029  1.00  0.00     0.080 C 
HETATM   35  C31 UNL     1       6.459   8.669  15.356  1.00  0.00     0.048 C 
HETATM   36  C32 UNL     1       8.267   7.996  13.791  1.00  0.00     0.048 C 
BRANCH  34  37
HETATM   37  O7  UNL     1       6.359   6.574  14.196  1.00  0.00    -0.388 OA
HETATM   38  H52 UNL     1       6.876   6.207  14.938  1.00  0.00     0.210 HD
ENDBRANCH  34  37
ENDBRANCH  29  34
ENDBRANCH  28  29
BRANCH  28  39
HETATM   39  O3  UNL     1       4.182   8.424  11.142  1.00  0.00    -0.393 OA
HETATM   40  H6  UNL     1       3.948   9.320  11.472  1.00  0.00     0.210 HD
ENDBRANCH  28  39
ENDBRANCH  27  28
ENDBRANCH  25  27
ENDBRANCH   1  25
BRANCH  21  41
HETATM   41  O5  UNL     1       0.198   9.264  16.095  1.00  0.00    -0.395 OA
HETATM   42  H43 UNL     1       1.062   8.968  16.434  1.00  0.00     0.210 HD
ENDBRANCH  21  41
TORSDOF 10
ENDMDL
MODEL 9
REMARK minimizedAffinity -7.96000195
REMARK CNNscore 0.426944613
REMARK CNNaffinity 7.06218767
REMARK  10 active torsions:
REMARK  status: ('A' for Active; 'I' for Inactive)
REMARK    1  A    between atoms: C2_2  and  O2_4 
REMARK    2  A    between atoms: O2_4  and  C3_5 
REMARK    3  A    between atoms: C3_5  and  C4_6 
REMARK    4  A    between atoms: C3_5  and  C30_36 
REMARK    5  A    between atoms: C4_6  and  O3_7 
REMARK    6  A    between atoms: C4_6  and  C5_8 
REMARK    7  A    between atoms: C5_8  and  C6_9 
REMARK    8  A    between atoms: C6_9  and  C8_11 
REMARK    9  A    between atoms: C27_31  and  O5_32 
REMARK   10  A    between atoms: C30_36  and  O7_39 
ROOT
HETATM    1  C8  UNL     1      -8.127   6.071  14.614  1.00  0.00     0.097 A 
HETATM    2  C9  UNL     1      -7.734   4.960  15.546  1.00  0.00     0.042 C 
HETATM    3  C10 UNL     1      -6.788   4.062  14.722  1.00  0.00     0.016 C 
HETATM    4  C11 UNL     1      -6.146   4.966  13.610  1.00  0.00    -0.002 C 
HETATM    5  C12 UNL     1      -6.101   4.148  12.291  1.00  0.00     0.019 C 
HETATM    6  C13 UNL     1      -4.699   5.565  13.994  1.00  0.00    -0.027 C 
HETATM    7  C14 UNL     1      -3.689   4.392  13.815  1.00  0.00     0.016 C 
HETATM    8  C15 UNL     1      -4.614   6.030  15.472  1.00  0.00     0.011 C 
HETATM    9  C16 UNL     1      -3.282   6.676  15.868  1.00  0.00     0.007 C 
HETATM   10  C17 UNL     1      -2.878   7.872  14.986  1.00  0.00     0.009 C 
HETATM   11  C18 UNL     1      -1.565   8.597  15.462  1.00  0.00     0.017 C 
HETATM   12  C19 UNL     1      -1.929   9.645  16.540  1.00  0.00     0.023 C 
HETATM   13  C20 UNL     1      -0.529   7.633  16.084  1.00  0.00     0.023 C 
HETATM   14  C21 UNL     1      -0.844   9.375  14.349  1.00  0.00     0.135 C 
HETATM   15  O4  UNL     1       0.309   9.797  14.511  1.00  0.00    -0.297 OA
HETATM   16  C22 UNL     1      -1.552   9.711  13.056  1.00  0.00     0.080 C 
HETATM   17  C23 UNL     1      -2.810   8.916  12.742  1.00  0.00     0.017 C 
HETATM   18  C24 UNL     1      -2.938   7.545  13.462  1.00  0.00    -0.032 C 
HETATM   19  C25 UNL     1      -1.745   6.670  12.988  1.00  0.00     0.016 C 
HETATM   20  C26 UNL     1      -4.325   6.816  13.068  1.00  0.00     0.032 C 
HETATM   21  C27 UNL     1      -5.519   7.831  12.917  1.00  0.00     0.126 C 
HETATM   22  C28 UNL     1      -6.848   7.192  12.535  1.00  0.00     0.074 C 
HETATM   23  C29 UNL     1      -7.168   6.072  13.451  1.00  0.00     0.104 A 
HETATM   24  O6  UNL     1      -8.526   5.612  13.309  1.00  0.00    -0.362 OA
ENDROOT
BRANCH   1  25
HETATM   25  C6  UNL     1      -8.929   7.262  15.096  1.00  0.00     0.022 C 
HETATM   26  C7  UNL     1      -8.718   7.515  16.591  1.00  0.00     0.013 C 
BRANCH  25  27
HETATM   27  C5  UNL     1     -10.428   7.065  14.750  1.00  0.00     0.041 C 
BRANCH  27  28
HETATM   28  C4  UNL     1     -10.902   7.857  13.524  1.00  0.00     0.151 C 
BRANCH  28  29
HETATM   29  C3  UNL     1     -12.413   8.226  13.524  1.00  0.00     0.194 C 
BRANCH  29  30
HETATM   30  O2  UNL     1     -13.191   7.170  12.915  1.00  0.00    -0.311 OA
BRANCH  30  31
HETATM   31  C2  UNL     1     -14.273   6.728  13.610  1.00  0.00     0.255 C 
HETATM   32  C1  UNL     1     -13.991   6.766  15.083  1.00  0.00     0.126 C 
HETATM   33  O1  UNL     1     -15.340   6.379  13.126  1.00  0.00    -0.266 OA
ENDBRANCH  30  31
ENDBRANCH  29  30
BRANCH  29  34
HETATM   34  C30 UNL     1     -12.806   9.590  12.860  1.00  0.00     0.080 C 
HETATM   35  C31 UNL     1     -12.404  10.737  13.804  1.00  0.00     0.048 C 
HETATM   36  C32 UNL     1     -14.307   9.733  12.563  1.00  0.00     0.048 C 
BRANCH  34  37
HETATM   37  O7  UNL     1     -12.079   9.772  11.634  1.00  0.00    -0.388 OA
HETATM   38  H52 UNL     1     -12.317  10.648  11.276  1.00  0.00     0.210 HD
ENDBRANCH  34  37
ENDBRANCH  29  34
ENDBRANCH  28  29
BRANCH  28  39
HETATM   39  O3  UNL     1     -10.551   7.138  12.337  1.00  0.00    -0.393 OA
HETATM   40  H6  UNL     1     -11.211   6.414  12.255  1.00  0.00     0.210 HD
ENDBRANCH  28  39
ENDBRANCH  27  28
ENDBRANCH  25  27
ENDBRANCH   1  25
BRANCH  21  41
HETATM   41  O5  UNL     1      -5.707   8.610  14.094  1.00  0.00    -0.395 OA
HETATM   42  H43 UNL     1      -6.467   9.201  13.949  1.00  0.00     0.210 HD
ENDBRANCH  21  41
TORSDOF 10
ENDMDL
