MODEL 1
REMARK minimizedAffinity -7.58427668
REMARK CNNscore 0.769776404
REMARK CNNaffinity 6.45773935
REMARK  7 active torsions:
REMARK  status: ('A' for Active; 'I' for Inactive)
REMARK    1  A    between atoms: C2_2  and  C30_35 
REMARK    2  A    between atoms: C3_3  and  C4_4 
REMARK    3  A    between atoms: C4_4  and  O1_5 
REMARK    4  A    between atoms: C4_4  and  C5_6 
REMARK    5  A    between atoms: C5_6  and  C6_7 
REMARK    6  A    between atoms: C6_7  and  C8_9 
REMARK    7  A    between atoms: C30_35  and  O7_37 
ROOT
HETATM    1  C8  UNL     1       4.661  56.896  -7.005  1.00  0.00     0.006 C 
HETATM    2  C9  UNL     1       5.714  55.953  -7.637  1.00  0.00     0.085 C 
HETATM    3  C10 UNL     1       4.960  55.335  -8.797  1.00  0.00     0.141 C 
HETATM    4  O2  UNL     1       5.524  54.761  -9.719  1.00  0.00    -0.297 OA
HETATM    5  C11 UNL     1       3.464  55.693  -8.751  1.00  0.00     0.056 C 
HETATM    6  C12 UNL     1       3.384  56.833  -9.819  1.00  0.00     0.030 C 
HETATM    7  C13 UNL     1       2.324  54.754  -9.048  1.00  0.00     0.015 C 
HETATM    8  C14 UNL     1       1.041  55.091  -8.767  1.00  0.00     0.007 C 
HETATM    9  C15 UNL     1       0.847  56.336  -7.904  1.00  0.00     0.157 C 
HETATM   10  O3  UNL     1      -0.265  56.838  -7.767  1.00  0.00    -0.293 OA
HETATM   11  C16 UNL     1       2.034  56.971  -7.164  1.00  0.00     0.094 C 
HETATM   12  C17 UNL     1       3.318  56.140  -7.252  1.00  0.00    -0.014 C 
HETATM   13  C18 UNL     1       3.177  54.937  -6.272  1.00  0.00     0.018 C 
HETATM   14  C19 UNL     1      -0.193  54.267  -9.208  1.00  0.00    -0.007 C 
HETATM   15  C20 UNL     1      -0.729  53.524  -7.968  1.00  0.00     0.021 C 
HETATM   16  C21 UNL     1      -1.297  55.184  -9.803  1.00  0.00     0.022 C 
HETATM   17  C22 UNL     1      -2.401  54.512 -10.613  1.00  0.00     0.080 C 
HETATM   18  C23 UNL     1      -2.289  53.016 -10.730  1.00  0.00     0.135 C 
HETATM   19  O4  UNL     1      -3.312  52.330 -10.728  1.00  0.00    -0.297 OA
HETATM   20  C24 UNL     1      -0.908  52.402 -10.963  1.00  0.00     0.018 C 
HETATM   21  C25 UNL     1      -0.926  50.967 -10.392  1.00  0.00     0.023 C 
HETATM   22  C26 UNL     1      -0.731  52.291 -12.491  1.00  0.00     0.023 C 
HETATM   23  C27 UNL     1       0.234  53.303 -10.370  1.00  0.00     0.021 C 
HETATM   24  C28 UNL     1       1.483  52.499  -9.995  1.00  0.00     0.090 C 
HETATM   25  C29 UNL     1       2.595  53.349  -9.447  1.00  0.00     0.158 C 
HETATM   26  O5  UNL     1       3.679  52.834  -9.189  1.00  0.00    -0.293 OA
ENDROOT
BRANCH   1  27
HETATM   27  C6  UNL     1       5.094  57.446  -5.616  1.00  0.00    -0.011 C 
HETATM   28  C7  UNL     1       4.099  58.352  -4.886  1.00  0.00     0.010 C 
BRANCH  27  29
HETATM   29  C5  UNL     1       6.490  58.107  -5.678  1.00  0.00     0.040 C 
BRANCH  29  30
HETATM   30  C4  UNL     1       7.201  58.247  -4.318  1.00  0.00     0.142 C 
BRANCH  30  31
HETATM   31  C3  UNL     1       8.655  57.880  -4.390  1.00  0.00     0.018 C 
HETATM   32  C2  UNL     1       9.685  58.638  -4.820  1.00  0.00     0.010 C 
HETATM   33  C1  UNL     1       9.602  60.045  -5.327  1.00  0.00     0.055 C 
BRANCH  32  34
HETATM   34  C30 UNL     1      11.025  57.998  -4.770  1.00  0.00     0.171 C 
HETATM   35  O6  UNL     1      11.262  56.805  -4.850  1.00  0.00    -0.646 OA
BRANCH  34  36
HETATM   36  O7  UNL     1      12.021  58.885  -4.616  1.00  0.00    -0.773 OA
HETATM   37  H40 UNL     1      12.823  58.326  -4.623  1.00  0.00     0.167 HD
ENDBRANCH  34  36
ENDBRANCH  32  34
ENDBRANCH  30  31
BRANCH  30  38
HETATM   38  O1  UNL     1       7.125  59.614  -3.914  1.00  0.00    -0.392 OA
HETATM   39  H6  UNL     1       7.664  60.145  -4.524  1.00  0.00     0.210 HD
ENDBRANCH  30  38
ENDBRANCH  29  30
ENDBRANCH  27  29
ENDBRANCH   1  27
TORSDOF 7
ENDMDL
MODEL 2
REMARK minimizedAffinity -8.2167511
REMARK CNNscore 0.737056434
REMARK CNNaffinity 6.26102686
REMARK  7 active torsions:
REMARK  status: ('A' for Active; 'I' for Inactive)
REMARK    1  A    between atoms: C2_2  and  C30_35 
REMARK    2  A    between atoms: C3_3  and  C4_4 
REMARK    3  A    between atoms: C4_4  and  O1_5 
REMARK    4  A    between atoms: C4_4  and  C5_6 
REMARK    5  A    between atoms: C5_6  and  C6_7 
REMARK    6  A    between atoms: C6_7  and  C8_9 
REMARK    7  A    between atoms: C30_35  and  O7_37 
ROOT
HETATM    1  C8  UNL     1     -12.998  45.685 -27.699  1.00  0.00     0.006 C 
HETATM    2  C9  UNL     1     -13.298  44.531 -28.687  1.00  0.00     0.085 C 
HETATM    3  C10 UNL     1     -11.937  44.240 -29.287  1.00  0.00     0.141 C 
HETATM    4  O2  UNL     1     -11.692  43.204 -29.891  1.00  0.00    -0.297 OA
HETATM    5  C11 UNL     1     -10.902  45.299 -28.874  1.00  0.00     0.056 C 
HETATM    6  C12 UNL     1     -10.124  44.549 -27.742  1.00  0.00     0.030 C 
HETATM    7  C13 UNL     1      -9.857  45.907 -29.773  1.00  0.00     0.015 C 
HETATM    8  C14 UNL     1      -9.136  46.989 -29.384  1.00  0.00     0.007 C 
HETATM    9  C15 UNL     1      -9.620  47.703 -28.125  1.00  0.00     0.157 C 
HETATM   10  O3  UNL     1      -8.926  48.557 -27.580  1.00  0.00    -0.293 OA
HETATM   11  C16 UNL     1     -11.001  47.390 -27.527  1.00  0.00     0.094 C 
HETATM   12  C17 UNL     1     -11.846  46.464 -28.406  1.00  0.00    -0.014 C 
HETATM   13  C18 UNL     1     -12.402  47.306 -29.594  1.00  0.00     0.018 C 
HETATM   14  C19 UNL     1      -7.925  47.555 -30.167  1.00  0.00    -0.007 C 
HETATM   15  C20 UNL     1      -8.387  48.844 -30.877  1.00  0.00     0.021 C 
HETATM   16  C21 UNL     1      -6.736  47.863 -29.215  1.00  0.00     0.022 C 
HETATM   17  C22 UNL     1      -5.367  48.068 -29.853  1.00  0.00     0.080 C 
HETATM   18  C23 UNL     1      -5.336  47.956 -31.354  1.00  0.00     0.135 C 
HETATM   19  O4  UNL     1      -4.588  48.690 -32.001  1.00  0.00    -0.297 OA
HETATM   20  C24 UNL     1      -6.155  46.851 -32.021  1.00  0.00     0.018 C 
HETATM   21  C25 UNL     1      -6.510  47.321 -33.448  1.00  0.00     0.023 C 
HETATM   22  C26 UNL     1      -5.219  45.632 -32.153  1.00  0.00     0.023 C 
HETATM   23  C27 UNL     1      -7.406  46.455 -31.157  1.00  0.00     0.021 C 
HETATM   24  C28 UNL     1      -8.549  45.885 -32.004  1.00  0.00     0.090 C 
HETATM   25  C29 UNL     1      -9.746  45.479 -31.190  1.00  0.00     0.158 C 
HETATM   26  O5  UNL     1     -10.695  44.929 -31.743  1.00  0.00    -0.293 OA
ENDROOT
BRANCH   1  27
HETATM   27  C6  UNL     1     -14.286  46.365 -27.152  1.00  0.00    -0.011 C 
HETATM   28  C7  UNL     1     -14.224  46.927 -25.729  1.00  0.00     0.010 C 
BRANCH  27  29
HETATM   29  C5  UNL     1     -15.525  45.458 -27.327  1.00  0.00     0.040 C 
BRANCH  29  30
HETATM   30  C4  UNL     1     -15.925  44.659 -26.072  1.00  0.00     0.142 C 
BRANCH  30  31
HETATM   31  C3  UNL     1     -17.114  45.248 -25.369  1.00  0.00     0.018 C 
HETATM   32  C2  UNL     1     -18.397  45.280 -25.787  1.00  0.00     0.010 C 
HETATM   33  C1  UNL     1     -18.928  44.715 -27.069  1.00  0.00     0.055 C 
BRANCH  32  34
HETATM   34  C30 UNL     1     -19.361  45.935 -24.867  1.00  0.00     0.171 C 
HETATM   35  O6  UNL     1     -20.348  46.576 -25.187  1.00  0.00    -0.646 OA
BRANCH  34  36
HETATM   36  O7  UNL     1     -19.046  45.764 -23.574  1.00  0.00    -0.773 OA
HETATM   37  H40 UNL     1     -19.770  46.224 -23.103  1.00  0.00     0.167 HD
ENDBRANCH  34  36
ENDBRANCH  32  34
ENDBRANCH  30  31
BRANCH  30  38
HETATM   38  O1  UNL     1     -16.281  43.337 -26.479  1.00  0.00    -0.392 OA
HETATM   39  H6  UNL     1     -17.099  43.388 -27.003  1.00  0.00     0.210 HD
ENDBRANCH  30  38
ENDBRANCH  29  30
ENDBRANCH  27  29
ENDBRANCH   1  27
TORSDOF 7
ENDMDL
MODEL 3
REMARK minimizedAffinity -7.79211473
REMARK CNNscore 0.726196647
REMARK CNNaffinity 6.0505352
REMARK  7 active torsions:
REMARK  status: ('A' for Active; 'I' for Inactive)
REMARK    1  A    between atoms: C2_2  and  C30_35 
REMARK    2  A    between atoms: C3_3  and  C4_4 
REMARK    3  A    between atoms: C4_4  and  O1_5 
REMARK    4  A    between atoms: C4_4  and  C5_6 
REMARK    5  A    between atoms: C5_6  and  C6_7 
REMARK    6  A    between atoms: C6_7  and  C8_9 
REMARK    7  A    between atoms: C30_35  and  O7_37 
ROOT
HETATM    1  C8  UNL     1     -13.558  45.347 -27.988  1.00  0.00     0.006 C 
HETATM    2  C9  UNL     1     -13.611  46.628 -27.120  1.00  0.00     0.085 C 
HETATM    3  C10 UNL     1     -12.519  47.489 -27.722  1.00  0.00     0.141 C 
HETATM    4  O2  UNL     1     -12.439  48.693 -27.514  1.00  0.00    -0.297 OA
HETATM    5  C11 UNL     1     -11.683  46.703 -28.746  1.00  0.00     0.056 C 
HETATM    6  C12 UNL     1     -12.285  47.213 -30.097  1.00  0.00     0.030 C 
HETATM    7  C13 UNL     1     -10.186  46.770 -28.898  1.00  0.00     0.015 C 
HETATM    8  C14 UNL     1      -9.515  45.880 -29.672  1.00  0.00     0.007 C 
HETATM    9  C15 UNL     1     -10.314  44.671 -30.154  1.00  0.00     0.157 C 
HETATM   10  O3  UNL     1      -9.864  43.924 -31.018  1.00  0.00    -0.293 OA
HETATM   11  C16 UNL     1     -11.687  44.346 -29.546  1.00  0.00     0.094 C 
HETATM   12  C17 UNL     1     -12.043  45.227 -28.345  1.00  0.00    -0.014 C 
HETATM   13  C18 UNL     1     -11.229  44.718 -27.118  1.00  0.00     0.018 C 
HETATM   14  C19 UNL     1      -8.012  45.993 -30.026  1.00  0.00    -0.007 C 
HETATM   15  C20 UNL     1      -7.252  44.949 -29.183  1.00  0.00     0.021 C 
HETATM   16  C21 UNL     1      -7.771  45.739 -31.540  1.00  0.00     0.022 C 
HETATM   17  C22 UNL     1      -6.426  46.172 -32.114  1.00  0.00     0.080 C 
HETATM   18  C23 UNL     1      -5.477  46.793 -31.125  1.00  0.00     0.135 C 
HETATM   19  O4  UNL     1      -4.269  46.575 -31.226  1.00  0.00    -0.297 OA
HETATM   20  C24 UNL     1      -6.035  47.770 -30.090  1.00  0.00     0.018 C 
HETATM   21  C25 UNL     1      -5.109  47.733 -28.856  1.00  0.00     0.023 C 
HETATM   22  C26 UNL     1      -5.924  49.177 -30.712  1.00  0.00     0.023 C 
HETATM   23  C27 UNL     1      -7.541  47.465 -29.759  1.00  0.00     0.021 C 
HETATM   24  C28 UNL     1      -7.940  47.931 -28.355  1.00  0.00     0.090 C 
HETATM   25  C29 UNL     1      -9.384  47.668 -28.030  1.00  0.00     0.158 C 
HETATM   26  O5  UNL     1      -9.847  48.072 -26.967  1.00  0.00    -0.293 OA
ENDROOT
BRANCH   1  27
HETATM   27  C6  UNL     1     -14.396  44.178 -27.397  1.00  0.00    -0.011 C 
HETATM   28  C7  UNL     1     -14.281  42.819 -28.093  1.00  0.00     0.010 C 
BRANCH  27  29
HETATM   29  C5  UNL     1     -15.879  44.577 -27.219  1.00  0.00     0.040 C 
BRANCH  29  30
HETATM   30  C4  UNL     1     -16.566  43.979 -25.976  1.00  0.00     0.142 C 
BRANCH  30  31
HETATM   31  C3  UNL     1     -17.663  44.856 -25.447  1.00  0.00     0.018 C 
HETATM   32  C2  UNL     1     -17.547  46.012 -24.761  1.00  0.00     0.010 C 
HETATM   33  C1  UNL     1     -16.269  46.691 -24.374  1.00  0.00     0.055 C 
BRANCH  32  34
HETATM   34  C30 UNL     1     -18.824  46.663 -24.369  1.00  0.00     0.171 C 
HETATM   35  O6  UNL     1     -19.719  47.014 -25.119  1.00  0.00    -0.646 OA
BRANCH  34  36
HETATM   36  O7  UNL     1     -18.927  46.853 -23.045  1.00  0.00    -0.773 OA
HETATM   37  H40 UNL     1     -19.810  47.261 -22.944  1.00  0.00     0.167 HD
ENDBRANCH  34  36
ENDBRANCH  32  34
ENDBRANCH  30  31
BRANCH  30  38
HETATM   38  O1  UNL     1     -17.156  42.733 -26.349  1.00  0.00    -0.392 OA
HETATM   39  H6  UNL     1     -17.886  42.913 -26.965  1.00  0.00     0.210 HD
ENDBRANCH  30  38
ENDBRANCH  29  30
ENDBRANCH  27  29
ENDBRANCH   1  27
TORSDOF 7
ENDMDL
MODEL 4
REMARK minimizedAffinity -7.64997292
REMARK CNNscore 0.554890335
REMARK CNNaffinity 6.86762285
REMARK  7 active torsions:
REMARK  status: ('A' for Active; 'I' for Inactive)
REMARK    1  A    between atoms: C2_2  and  C30_35 
REMARK    2  A    between atoms: C3_3  and  C4_4 
REMARK    3  A    between atoms: C4_4  and  O1_5 
REMARK    4  A    between atoms: C4_4  and  C5_6 
REMARK    5  A    between atoms: C5_6  and  C6_7 
REMARK    6  A    between atoms: C6_7  and  C8_9 
REMARK    7  A    between atoms: C30_35  and  O7_37 
ROOT
HETATM    1  C8  UNL     1      -0.566  50.030 -13.307  1.00  0.00     0.006 C 
HETATM    2  C9  UNL     1      -1.307  48.700 -13.029  1.00  0.00     0.085 C 
HETATM    3  C10 UNL     1      -1.295  48.019 -14.383  1.00  0.00     0.141 C 
HETATM    4  O2  UNL     1      -1.519  46.823 -14.521  1.00  0.00    -0.297 OA
HETATM    5  C11 UNL     1      -0.788  48.965 -15.484  1.00  0.00     0.056 C 
HETATM    6  C12 UNL     1       0.686  48.472 -15.664  1.00  0.00     0.030 C 
HETATM    7  C13 UNL     1      -1.363  49.092 -16.871  1.00  0.00     0.015 C 
HETATM    8  C14 UNL     1      -0.997  50.104 -17.696  1.00  0.00     0.007 C 
HETATM    9  C15 UNL     1      -0.193  51.234 -17.059  1.00  0.00     0.157 C 
HETATM   10  O3  UNL     1       0.357  52.084 -17.754  1.00  0.00    -0.293 OA
HETATM   11  C16 UNL     1      -0.077  51.350 -15.531  1.00  0.00     0.094 C 
HETATM   12  C17 UNL     1      -0.968  50.357 -14.779  1.00  0.00    -0.014 C 
HETATM   13  C18 UNL     1      -2.434  50.883 -14.843  1.00  0.00     0.018 C 
HETATM   14  C19 UNL     1      -1.398  50.198 -19.189  1.00  0.00    -0.007 C 
HETATM   15  C20 UNL     1      -2.499  51.271 -19.313  1.00  0.00     0.021 C 
HETATM   16  C21 UNL     1      -0.178  50.575 -20.075  1.00  0.00     0.022 C 
HETATM   17  C22 UNL     1      -0.310  50.347 -21.577  1.00  0.00     0.080 C 
HETATM   18  C23 UNL     1      -1.632  49.785 -22.026  1.00  0.00     0.135 C 
HETATM   19  O4  UNL     1      -2.115  50.155 -23.097  1.00  0.00    -0.297 OA
HETATM   20  C24 UNL     1      -2.281  48.684 -21.188  1.00  0.00     0.018 C 
HETATM   21  C25 UNL     1      -3.807  48.755 -21.412  1.00  0.00     0.023 C 
HETATM   22  C26 UNL     1      -1.788  47.343 -21.771  1.00  0.00     0.023 C 
HETATM   23  C27 UNL     1      -1.859  48.780 -19.678  1.00  0.00     0.021 C 
HETATM   24  C28 UNL     1      -2.908  48.181 -18.735  1.00  0.00     0.090 C 
HETATM   25  C29 UNL     1      -2.510  48.245 -17.286  1.00  0.00     0.158 C 
HETATM   26  O5  UNL     1      -3.227  47.720 -16.439  1.00  0.00    -0.293 OA
ENDROOT
BRANCH   1  27
HETATM   27  C6  UNL     1      -0.687  51.049 -12.137  1.00  0.00    -0.011 C 
HETATM   28  C7  UNL     1      -2.099  51.504 -11.756  1.00  0.00     0.010 C 
BRANCH  27  29
HETATM   29  C5  UNL     1       0.241  52.266 -12.345  1.00  0.00     0.040 C 
BRANCH  29  30
HETATM   30  C4  UNL     1       1.535  52.245 -11.508  1.00  0.00     0.142 C 
BRANCH  30  31
HETATM   31  C3  UNL     1       2.409  51.068 -11.832  1.00  0.00     0.018 C 
HETATM   32  C2  UNL     1       3.073  50.814 -12.979  1.00  0.00     0.010 C 
HETATM   33  C1  UNL     1       3.086  51.673 -14.206  1.00  0.00     0.055 C 
BRANCH  32  34
HETATM   34  C30 UNL     1       3.868  49.559 -13.002  1.00  0.00     0.171 C 
HETATM   35  O6  UNL     1       3.686  48.572 -12.310  1.00  0.00    -0.646 OA
BRANCH  34  36
HETATM   36  O7  UNL     1       4.869  49.593 -13.896  1.00  0.00    -0.773 OA
HETATM   37  H40 UNL     1       5.277  48.709 -13.810  1.00  0.00     0.167 HD
ENDBRANCH  34  36
ENDBRANCH  32  34
ENDBRANCH  30  31
BRANCH  30  38
HETATM   38  O1  UNL     1       2.279  53.426 -11.808  1.00  0.00    -0.392 OA
HETATM   39  H6  UNL     1       2.586  53.369 -12.729  1.00  0.00     0.210 HD
ENDBRANCH  30  38
ENDBRANCH  29  30
ENDBRANCH  27  29
ENDBRANCH   1  27
TORSDOF 7
ENDMDL
MODEL 5
REMARK minimizedAffinity -8.7436676
REMARK CNNscore 0.387550473
REMARK CNNaffinity 6.25230646
REMARK  7 active torsions:
REMARK  status: ('A' for Active; 'I' for Inactive)
REMARK    1  A    between atoms: C2_2  and  C30_35 
REMARK    2  A    between atoms: C3_3  and  C4_4 
REMARK    3  A    between atoms: C4_4  and  O1_5 
REMARK    4  A    between atoms: C4_4  and  C5_6 
REMARK    5  A    between atoms: C5_6  and  C6_7 
REMARK    6  A    between atoms: C6_7  and  C8_9 
REMARK    7  A    between atoms: C30_35  and  O7_37 
ROOT
HETATM    1  C8  UNL     1      -4.865  48.435 -20.906  1.00  0.00     0.006 C 
HETATM    2  C9  UNL     1      -3.965  48.933 -19.748  1.00  0.00     0.085 C 
HETATM    3  C10 UNL     1      -3.282  50.144 -20.351  1.00  0.00     0.141 C 
HETATM    4  O2  UNL     1      -2.718  50.990 -19.669  1.00  0.00    -0.297 OA
HETATM    5  C11 UNL     1      -3.560  50.255 -21.859  1.00  0.00     0.056 C 
HETATM    6  C12 UNL     1      -4.670  51.357 -21.892  1.00  0.00     0.030 C 
HETATM    7  C13 UNL     1      -2.555  50.636 -22.915  1.00  0.00     0.015 C 
HETATM    8  C14 UNL     1      -2.830  50.492 -24.235  1.00  0.00     0.007 C 
HETATM    9  C15 UNL     1      -4.081  49.688 -24.578  1.00  0.00     0.157 C 
HETATM   10  O3  UNL     1      -4.527  49.675 -25.722  1.00  0.00    -0.293 OA
HETATM   11  C16 UNL     1      -4.796  48.853 -23.504  1.00  0.00     0.094 C 
HETATM   12  C17 UNL     1      -4.033  48.791 -22.177  1.00  0.00    -0.014 C 
HETATM   13  C18 UNL     1      -2.846  47.796 -22.353  1.00  0.00     0.018 C 
HETATM   14  C19 UNL     1      -1.930  51.029 -25.376  1.00  0.00    -0.007 C 
HETATM   15  C20 UNL     1      -1.188  49.827 -25.994  1.00  0.00     0.021 C 
HETATM   16  C21 UNL     1      -2.774  51.755 -26.461  1.00  0.00     0.022 C 
HETATM   17  C22 UNL     1      -2.025  52.651 -27.442  1.00  0.00     0.080 C 
HETATM   18  C23 UNL     1      -0.534  52.714 -27.243  1.00  0.00     0.135 C 
HETATM   19  O4  UNL     1       0.205  52.793 -28.225  1.00  0.00    -0.297 OA
HETATM   20  C24 UNL     1       0.010  52.792 -25.817  1.00  0.00     0.018 C 
HETATM   21  C25 UNL     1       1.430  52.186 -25.818  1.00  0.00     0.023 C 
HETATM   22  C26 UNL     1       0.146  54.292 -25.483  1.00  0.00     0.023 C 
HETATM   23  C27 UNL     1      -0.964  52.116 -24.787  1.00  0.00     0.021 C 
HETATM   24  C28 UNL     1      -0.237  51.597 -23.542  1.00  0.00     0.090 C 
HETATM   25  C29 UNL     1      -1.158  50.967 -22.535  1.00  0.00     0.158 C 
HETATM   26  O5  UNL     1      -0.707  50.590 -21.457  1.00  0.00    -0.293 OA
ENDROOT
BRANCH   1  27
HETATM   27  C6  UNL     1      -5.469  47.026 -20.641  1.00  0.00    -0.011 C 
HETATM   28  C7  UNL     1      -6.104  46.307 -21.835  1.00  0.00     0.010 C 
BRANCH  27  29
HETATM   29  C5  UNL     1      -6.436  47.040 -19.436  1.00  0.00     0.040 C 
BRANCH  29  30
HETATM   30  C4  UNL     1      -7.932  47.009 -19.804  1.00  0.00     0.142 C 
BRANCH  30  31
HETATM   31  C3  UNL     1      -8.821  46.954 -18.596  1.00  0.00     0.018 C 
HETATM   32  C2  UNL     1      -9.204  47.971 -17.797  1.00  0.00     0.010 C 
HETATM   33  C1  UNL     1      -8.822  49.412 -17.948  1.00  0.00     0.055 C 
BRANCH  32  34
HETATM   34  C30 UNL     1     -10.099  47.607 -16.668  1.00  0.00     0.171 C 
HETATM   35  O6  UNL     1     -11.318  47.589 -16.686  1.00  0.00    -0.646 OA
BRANCH  34  36
HETATM   36  O7  UNL     1      -9.425  47.280 -15.554  1.00  0.00    -0.773 OA
HETATM   37  H40 UNL     1     -10.135  47.049 -14.922  1.00  0.00     0.167 HD
ENDBRANCH  34  36
ENDBRANCH  32  34
ENDBRANCH  30  31
BRANCH  30  38
HETATM   38  O1  UNL     1      -8.242  48.211 -20.509  1.00  0.00    -0.392 OA
HETATM   39  H6  UNL     1      -8.161  48.958 -19.892  1.00  0.00     0.210 HD
ENDBRANCH  30  38
ENDBRANCH  29  30
ENDBRANCH  27  29
ENDBRANCH   1  27
TORSDOF 7
ENDMDL
MODEL 6
REMARK minimizedAffinity -9.08383942
REMARK CNNscore 0.369965434
REMARK CNNaffinity 6.54987335
REMARK  7 active torsions:
REMARK  status: ('A' for Active; 'I' for Inactive)
REMARK    1  A    between atoms: C2_2  and  C30_35 
REMARK    2  A    between atoms: C3_3  and  C4_4 
REMARK    3  A    between atoms: C4_4  and  O1_5 
REMARK    4  A    between atoms: C4_4  and  C5_6 
REMARK    5  A    between atoms: C5_6  and  C6_7 
REMARK    6  A    between atoms: C6_7  and  C8_9 
REMARK    7  A    between atoms: C30_35  and  O7_37 
ROOT
HETATM    1  C8  UNL     1      -1.046  49.932 -20.187  1.00  0.00     0.006 C 
HETATM    2  C9  UNL     1      -1.356  49.022 -18.973  1.00  0.00     0.085 C 
HETATM    3  C10 UNL     1      -2.297  47.988 -19.559  1.00  0.00     0.141 C 
HETATM    4  O2  UNL     1      -2.537  46.925 -19.002  1.00  0.00    -0.297 OA
HETATM    5  C11 UNL     1      -2.730  48.367 -20.985  1.00  0.00     0.056 C 
HETATM    6  C12 UNL     1      -1.810  47.440 -21.846  1.00  0.00     0.030 C 
HETATM    7  C13 UNL     1      -4.120  48.225 -21.551  1.00  0.00     0.015 C 
HETATM    8  C14 UNL     1      -4.458  48.787 -22.737  1.00  0.00     0.007 C 
HETATM    9  C15 UNL     1      -3.454  49.776 -23.325  1.00  0.00     0.157 C 
HETATM   10  O3  UNL     1      -3.569  50.178 -24.479  1.00  0.00    -0.293 OA
HETATM   11  C16 UNL     1      -2.293  50.313 -22.474  1.00  0.00     0.094 C 
HETATM   12  C17 UNL     1      -2.377  49.897 -21.002  1.00  0.00    -0.014 C 
HETATM   13  C18 UNL     1      -3.465  50.777 -20.316  1.00  0.00     0.018 C 
HETATM   14  C19 UNL     1      -5.799  48.534 -23.470  1.00  0.00    -0.007 C 
HETATM   15  C20 UNL     1      -6.678  49.788 -23.287  1.00  0.00     0.021 C 
HETATM   16  C21 UNL     1      -5.569  48.256 -24.981  1.00  0.00     0.022 C 
HETATM   17  C22 UNL     1      -6.722  47.630 -25.759  1.00  0.00     0.080 C 
HETATM   18  C23 UNL     1      -7.967  47.363 -24.955  1.00  0.00     0.135 C 
HETATM   19  O4  UNL     1      -9.070  47.512 -25.481  1.00  0.00    -0.297 OA
HETATM   20  C24 UNL     1      -7.818  46.805 -23.540  1.00  0.00     0.018 C 
HETATM   21  C25 UNL     1      -9.055  47.241 -22.726  1.00  0.00     0.023 C 
HETATM   22  C26 UNL     1      -7.864  45.268 -23.669  1.00  0.00     0.023 C 
HETATM   23  C27 UNL     1      -6.452  47.231 -22.890  1.00  0.00     0.021 C 
HETATM   24  C28 UNL     1      -6.518  47.276 -21.360  1.00  0.00     0.090 C 
HETATM   25  C29 UNL     1      -5.212  47.659 -20.720  1.00  0.00     0.158 C 
HETATM   26  O5  UNL     1      -5.113  47.647 -19.496  1.00  0.00    -0.293 OA
ENDROOT
BRANCH   1  27
HETATM   27  C6  UNL     1      -0.318  51.248 -19.788  1.00  0.00    -0.011 C 
HETATM   28  C7  UNL     1       0.492  51.952 -20.881  1.00  0.00     0.010 C 
BRANCH  27  29
HETATM   29  C5  UNL     1       0.534  51.061 -18.512  1.00  0.00     0.040 C 
BRANCH  29  30
HETATM   30  C4  UNL     1       0.653  52.313 -17.623  1.00  0.00     0.142 C 
BRANCH  30  31
HETATM   31  C3  UNL     1       1.091  51.986 -16.225  1.00  0.00     0.018 C 
HETATM   32  C2  UNL     1       2.337  52.036 -15.709  1.00  0.00     0.010 C 
HETATM   33  C1  UNL     1       3.583  52.444 -16.434  1.00  0.00     0.055 C 
BRANCH  32  34
HETATM   34  C30 UNL     1       2.461  51.654 -14.279  1.00  0.00     0.171 C 
HETATM   35  O6  UNL     1       3.228  50.830 -13.813  1.00  0.00    -0.646 OA
BRANCH  34  36
HETATM   36  O7  UNL     1       1.610  52.323 -13.485  1.00  0.00    -0.773 OA
HETATM   37  H40 UNL     1       1.822  51.986 -12.592  1.00  0.00     0.167 HD
ENDBRANCH  34  36
ENDBRANCH  32  34
ENDBRANCH  30  31
BRANCH  30  38
HETATM   38  O1  UNL     1       1.643  53.171 -18.192  1.00  0.00    -0.392 OA
HETATM   39  H6  UNL     1       2.509  52.735 -18.112  1.00  0.00     0.210 HD
ENDBRANCH  30  38
ENDBRANCH  29  30
ENDBRANCH  27  29
ENDBRANCH   1  27
TORSDOF 7
ENDMDL
MODEL 7
REMARK minimizedAffinity -8.42687893
REMARK CNNscore 0.354342639
REMARK CNNaffinity 6.16738129
REMARK  7 active torsions:
REMARK  status: ('A' for Active; 'I' for Inactive)
REMARK    1  A    between atoms: C2_2  and  C30_35 
REMARK    2  A    between atoms: C3_3  and  C4_4 
REMARK    3  A    between atoms: C4_4  and  O1_5 
REMARK    4  A    between atoms: C4_4  and  C5_6 
REMARK    5  A    between atoms: C5_6  and  C6_7 
REMARK    6  A    between atoms: C6_7  and  C8_9 
REMARK    7  A    between atoms: C30_35  and  O7_37 
ROOT
HETATM    1  C8  UNL     1      -5.717  48.935 -23.556  1.00  0.00     0.006 C 
HETATM    2  C9  UNL     1      -6.380  47.881 -22.635  1.00  0.00     0.085 C 
HETATM    3  C10 UNL     1      -5.933  48.313 -21.253  1.00  0.00     0.141 C 
HETATM    4  O2  UNL     1      -6.479  47.919 -20.231  1.00  0.00    -0.297 OA
HETATM    5  C11 UNL     1      -4.869  49.421 -21.326  1.00  0.00     0.056 C 
HETATM    6  C12 UNL     1      -5.725  50.694 -21.015  1.00  0.00     0.030 C 
HETATM    7  C13 UNL     1      -3.638  49.519 -20.464  1.00  0.00     0.015 C 
HETATM    8  C14 UNL     1      -2.648  50.401 -20.747  1.00  0.00     0.007 C 
HETATM    9  C15 UNL     1      -2.725  51.086 -22.109  1.00  0.00     0.157 C 
HETATM   10  O3  UNL     1      -2.002  52.043 -22.375  1.00  0.00    -0.293 OA
HETATM   11  C16 UNL     1      -3.690  50.575 -23.190  1.00  0.00     0.094 C 
HETATM   12  C17 UNL     1      -4.385  49.263 -22.812  1.00  0.00    -0.014 C 
HETATM   13  C18 UNL     1      -3.355  48.107 -22.992  1.00  0.00     0.018 C 
HETATM   14  C19 UNL     1      -1.446  50.691 -19.814  1.00  0.00    -0.007 C 
HETATM   15  C20 UNL     1      -0.207  49.998 -20.415  1.00  0.00     0.021 C 
HETATM   16  C21 UNL     1      -1.195  52.219 -19.680  1.00  0.00     0.022 C 
HETATM   17  C22 UNL     1      -0.307  52.681 -18.529  1.00  0.00     0.080 C 
HETATM   18  C23 UNL     1       0.234  51.581 -17.655  1.00  0.00     0.135 C 
HETATM   19  O4  UNL     1       1.370  51.681 -17.191  1.00  0.00    -0.297 OA
HETATM   20  C24 UNL     1      -0.692  50.424 -17.278  1.00  0.00     0.018 C 
HETATM   21  C25 UNL     1       0.187  49.185 -17.005  1.00  0.00     0.023 C 
HETATM   22  C26 UNL     1      -1.365  50.819 -15.948  1.00  0.00     0.023 C 
HETATM   23  C27 UNL     1      -1.796  50.187 -18.370  1.00  0.00     0.021 C 
HETATM   24  C28 UNL     1      -2.299  48.740 -18.393  1.00  0.00     0.090 C 
HETATM   25  C29 UNL     1      -3.373  48.500 -19.417  1.00  0.00     0.158 C 
HETATM   26  O5  UNL     1      -3.918  47.401 -19.476  1.00  0.00    -0.293 OA
ENDROOT
BRANCH   1  27
HETATM   27  C6  UNL     1      -5.788  48.555 -25.062  1.00  0.00    -0.011 C 
HETATM   28  C7  UNL     1      -6.708  47.391 -25.443  1.00  0.00     0.010 C 
BRANCH  27  29
HETATM   29  C5  UNL     1      -4.378  48.354 -25.664  1.00  0.00     0.040 C 
BRANCH  29  30
HETATM   30  C4  UNL     1      -4.345  48.195 -27.196  1.00  0.00     0.142 C 
BRANCH  30  31
HETATM   31  C3  UNL     1      -5.719  48.118 -27.797  1.00  0.00     0.018 C 
HETATM   32  C2  UNL     1      -6.053  47.986 -29.097  1.00  0.00     0.010 C 
HETATM   33  C1  UNL     1      -5.104  47.880 -30.252  1.00  0.00     0.055 C 
BRANCH  32  34
HETATM   34  C30 UNL     1      -7.509  47.935 -29.390  1.00  0.00     0.171 C 
HETATM   35  O6  UNL     1      -8.117  46.999 -29.880  1.00  0.00    -0.646 OA
BRANCH  34  36
HETATM   36  O7  UNL     1      -8.147  49.068 -29.058  1.00  0.00    -0.773 OA
HETATM   37  H40 UNL     1      -9.079  48.876 -29.285  1.00  0.00     0.167 HD
ENDBRANCH  34  36
ENDBRANCH  32  34
ENDBRANCH  30  31
BRANCH  30  38
HETATM   38  O1  UNL     1      -3.700  49.342 -27.750  1.00  0.00    -0.392 OA
HETATM   39  H6  UNL     1      -4.270  50.116 -27.601  1.00  0.00     0.210 HD
ENDBRANCH  30  38
ENDBRANCH  29  30
ENDBRANCH  27  29
ENDBRANCH   1  27
TORSDOF 7
ENDMDL
MODEL 8
REMARK minimizedAffinity -7.8612709
REMARK CNNscore 0.333208144
REMARK CNNaffinity 5.20701981
REMARK  7 active torsions:
REMARK  status: ('A' for Active; 'I' for Inactive)
REMARK    1  A    between atoms: C2_2  and  C30_35 
REMARK    2  A    between atoms: C3_3  and  C4_4 
REMARK    3  A    between atoms: C4_4  and  O1_5 
REMARK    4  A    between atoms: C4_4  and  C5_6 
REMARK    5  A    between atoms: C5_6  and  C6_7 
REMARK    6  A    between atoms: C6_7  and  C8_9 
REMARK    7  A    between atoms: C30_35  and  O7_37 
ROOT
HETATM    1  C8  UNL     1     -14.189  44.954 -26.560  1.00  0.00     0.006 C 
HETATM    2  C9  UNL     1     -13.339  44.212 -25.499  1.00  0.00     0.085 C 
HETATM    3  C10 UNL     1     -11.980  44.868 -25.638  1.00  0.00     0.141 C 
HETATM    4  O2  UNL     1     -11.112  44.772 -24.780  1.00  0.00    -0.297 OA
HETATM    5  C11 UNL     1     -11.925  45.795 -26.864  1.00  0.00     0.056 C 
HETATM    6  C12 UNL     1     -12.098  47.201 -26.200  1.00  0.00     0.030 C 
HETATM    7  C13 UNL     1     -10.770  45.919 -27.823  1.00  0.00     0.015 C 
HETATM    8  C14 UNL     1     -10.895  46.591 -28.994  1.00  0.00     0.007 C 
HETATM    9  C15 UNL     1     -12.316  46.974 -29.402  1.00  0.00     0.157 C 
HETATM   10  O3  UNL     1     -12.515  47.754 -30.328  1.00  0.00    -0.293 OA
HETATM   11  C16 UNL     1     -13.529  46.369 -28.679  1.00  0.00     0.094 C 
HETATM   12  C17 UNL     1     -13.155  45.265 -27.686  1.00  0.00    -0.014 C 
HETATM   13  C18 UNL     1     -12.828  43.977 -28.501  1.00  0.00     0.018 C 
HETATM   14  C19 UNL     1      -9.714  46.920 -29.940  1.00  0.00    -0.007 C 
HETATM   15  C20 UNL     1      -9.800  45.966 -31.149  1.00  0.00     0.021 C 
HETATM   16  C21 UNL     1      -9.772  48.398 -30.418  1.00  0.00     0.022 C 
HETATM   17  C22 UNL     1      -8.507  48.980 -31.039  1.00  0.00     0.080 C 
HETATM   18  C23 UNL     1      -7.341  48.033 -31.125  1.00  0.00     0.135 C 
HETATM   19  O4  UNL     1      -6.588  48.087 -32.099  1.00  0.00    -0.297 OA
HETATM   20  C24 UNL     1      -7.062  47.107 -29.941  1.00  0.00     0.018 C 
HETATM   21  C25 UNL     1      -6.338  45.855 -30.480  1.00  0.00     0.023 C 
HETATM   22  C26 UNL     1      -6.074  47.857 -29.024  1.00  0.00     0.023 C 
HETATM   23  C27 UNL     1      -8.373  46.783 -29.138  1.00  0.00     0.021 C 
HETATM   24  C28 UNL     1      -8.297  45.438 -28.408  1.00  0.00     0.090 C 
HETATM   25  C29 UNL     1      -9.535  45.121 -27.615  1.00  0.00     0.158 C 
HETATM   26  O5  UNL     1      -9.564  44.112 -26.917  1.00  0.00    -0.293 OA
ENDROOT
BRANCH   1  27
HETATM   27  C6  UNL     1     -15.564  44.274 -26.820  1.00  0.00    -0.011 C 
HETATM   28  C7  UNL     1     -15.769  43.624 -28.191  1.00  0.00     0.010 C 
BRANCH  27  29
HETATM   29  C5  UNL     1     -16.738  45.221 -26.483  1.00  0.00     0.040 C 
BRANCH  29  30
HETATM   30  C4  UNL     1     -18.136  44.579 -26.578  1.00  0.00     0.142 C 
BRANCH  30  31
HETATM   31  C3  UNL     1     -18.791  44.426 -25.236  1.00  0.00     0.018 C 
HETATM   32  C2  UNL     1     -19.134  45.394 -24.362  1.00  0.00     0.010 C 
HETATM   33  C1  UNL     1     -18.937  46.868 -24.546  1.00  0.00     0.055 C 
BRANCH  32  34
HETATM   34  C30 UNL     1     -19.776  44.933 -23.104  1.00  0.00     0.171 C 
HETATM   35  O6  UNL     1     -19.425  45.205 -21.968  1.00  0.00    -0.646 OA
BRANCH  34  36
HETATM   36  O7  UNL     1     -20.836  44.140 -23.321  1.00  0.00    -0.773 OA
HETATM   37  H40 UNL     1     -21.157  43.940 -22.419  1.00  0.00     0.167 HD
ENDBRANCH  34  36
ENDBRANCH  32  34
ENDBRANCH  30  31
BRANCH  30  38
HETATM   38  O1  UNL     1     -18.966  45.434 -27.365  1.00  0.00    -0.392 OA
HETATM   39  H6  UNL     1     -19.113  46.258 -26.870  1.00  0.00     0.210 HD
ENDBRANCH  30  38
ENDBRANCH  29  30
ENDBRANCH  27  29
ENDBRANCH   1  27
TORSDOF 7
ENDMDL
MODEL 9
REMARK minimizedAffinity -9.12908363
REMARK CNNscore 0.332064927
REMARK CNNaffinity 6.41493368
REMARK  7 active torsions:
REMARK  status: ('A' for Active; 'I' for Inactive)
REMARK    1  A    between atoms: C2_2  and  C30_35 
REMARK    2  A    between atoms: C3_3  and  C4_4 
REMARK    3  A    between atoms: C4_4  and  O1_5 
REMARK    4  A    between atoms: C4_4  and  C5_6 
REMARK    5  A    between atoms: C5_6  and  C6_7 
REMARK    6  A    between atoms: C6_7  and  C8_9 
REMARK    7  A    between atoms: C30_35  and  O7_37 
ROOT
HETATM    1  C8  UNL     1      -1.437  50.244 -23.026  1.00  0.00     0.006 C 
HETATM    2  C9  UNL     1      -0.769  50.578 -21.670  1.00  0.00     0.085 C 
HETATM    3  C10 UNL     1      -1.485  49.654 -20.705  1.00  0.00     0.141 C 
HETATM    4  O2  UNL     1      -1.048  49.398 -19.591  1.00  0.00    -0.297 OA
HETATM    5  C11 UNL     1      -2.683  48.960 -21.376  1.00  0.00     0.056 C 
HETATM    6  C12 UNL     1      -2.092  47.542 -21.677  1.00  0.00     0.030 C 
HETATM    7  C13 UNL     1      -4.033  48.730 -20.748  1.00  0.00     0.015 C 
HETATM    8  C14 UNL     1      -5.092  48.313 -21.485  1.00  0.00     0.007 C 
HETATM    9  C15 UNL     1      -4.911  48.348 -23.001  1.00  0.00     0.157 C 
HETATM   10  O3  UNL     1      -5.723  47.803 -23.743  1.00  0.00    -0.293 OA
HETATM   11  C16 UNL     1      -3.724  49.091 -23.633  1.00  0.00     0.094 C 
HETATM   12  C17 UNL     1      -2.902  49.893 -22.620  1.00  0.00    -0.014 C 
HETATM   13  C18 UNL     1      -3.700  51.186 -22.272  1.00  0.00     0.018 C 
HETATM   14  C19 UNL     1      -6.453  47.879 -20.887  1.00  0.00    -0.007 C 
HETATM   15  C20 UNL     1      -7.462  49.016 -21.146  1.00  0.00     0.021 C 
HETATM   16  C21 UNL     1      -6.954  46.558 -21.534  1.00  0.00     0.022 C 
HETATM   17  C22 UNL     1      -8.069  45.809 -20.812  1.00  0.00     0.080 C 
HETATM   18  C23 UNL     1      -8.562  46.456 -19.546  1.00  0.00     0.135 C 
HETATM   19  O4  UNL     1      -9.758  46.392 -19.259  1.00  0.00    -0.297 OA
HETATM   20  C24 UNL     1      -7.539  47.079 -18.596  1.00  0.00     0.018 C 
HETATM   21  C25 UNL     1      -8.247  48.198 -17.804  1.00  0.00     0.023 C 
HETATM   22  C26 UNL     1      -7.147  45.975 -17.592  1.00  0.00     0.023 C 
HETATM   23  C27 UNL     1      -6.256  47.562 -19.364  1.00  0.00     0.021 C 
HETATM   24  C28 UNL     1      -5.538  48.710 -18.645  1.00  0.00     0.090 C 
HETATM   25  C29 UNL     1      -4.295  49.170 -19.354  1.00  0.00     0.158 C 
HETATM   26  O5  UNL     1      -3.585  50.026 -18.834  1.00  0.00    -0.293 OA
ENDROOT
BRANCH   1  27
HETATM   27  C6  UNL     1      -1.076  51.262 -24.146  1.00  0.00    -0.011 C 
HETATM   28  C7  UNL     1      -0.566  50.686 -25.470  1.00  0.00     0.010 C 
BRANCH  27  29
HETATM   29  C5  UNL     1      -0.124  52.363 -23.627  1.00  0.00     0.040 C 
BRANCH  29  30
HETATM   30  C4  UNL     1       0.811  52.966 -24.693  1.00  0.00     0.142 C 
BRANCH  30  31
HETATM   31  C3  UNL     1       0.150  53.088 -26.035  1.00  0.00     0.018 C 
HETATM   32  C2  UNL     1      -0.125  54.212 -26.729  1.00  0.00     0.010 C 
HETATM   33  C1  UNL     1       0.181  55.616 -26.303  1.00  0.00     0.055 C 
BRANCH  32  34
HETATM   34  C30 UNL     1      -0.789  54.016 -28.043  1.00  0.00     0.171 C 
HETATM   35  O6  UNL     1      -1.853  54.494 -28.397  1.00  0.00    -0.646 OA
BRANCH  34  36
HETATM   36  O7  UNL     1      -0.089  53.220 -28.866  1.00  0.00    -0.773 OA
HETATM   37  H40 UNL     1      -0.631  53.205 -29.680  1.00  0.00     0.167 HD
ENDBRANCH  34  36
ENDBRANCH  32  34
ENDBRANCH  30  31
BRANCH  30  38
HETATM   38  O1  UNL     1       1.175  54.281 -24.274  1.00  0.00    -0.392 OA
HETATM   39  H6  UNL     1       0.382  54.843 -24.304  1.00  0.00     0.210 HD
ENDBRANCH  30  38
ENDBRANCH  29  30
ENDBRANCH  27  29
ENDBRANCH   1  27
TORSDOF 7
ENDMDL
