MODEL 1
REMARK minimizedAffinity -10.1576319
REMARK  8 active torsions:
REMARK  status: ('A' for Active; 'I' for Inactive)
REMARK    1  A    between atoms: C2_2  and  C3_3 
REMARK    2  A    between atoms: C2_2  and  C11_14 
REMARK    3  A    between atoms: C3_3  and  C4_4 
REMARK    4  A    between atoms: C4_4  and  C5_5 
REMARK       I    between atoms: C5_5  and  N1_7 
REMARK    5  A    between atoms: N1_7  and  C6_8 
REMARK    6  A    between atoms: C6_8  and  C7_9 
REMARK    7  A    between atoms: C16_19  and  O3_20 
REMARK    8  A    between atoms: C20_24  and  O4_25 
ROOT
HETATM    1  C11 UNL     1      -0.627  51.286 -20.710  1.00  0.00    -0.002 C 
HETATM    2  C12 UNL     1      -0.058  52.734 -20.616  1.00  0.00     0.006 C 
HETATM    3  C13 UNL     1       0.446  52.938 -19.183  1.00  0.00     0.006 C 
HETATM    4  C14 UNL     1       0.395  51.546 -18.576  1.00  0.00     0.001 C 
HETATM    5  C15 UNL     1       0.462  51.425 -17.043  1.00  0.00     0.024 C 
HETATM    6  C16 UNL     1       1.769  52.062 -16.510  1.00  0.00     0.123 C 
HETATM    7  C17 UNL     1       2.269  51.444 -15.199  1.00  0.00     0.037 C 
HETATM    8  C18 UNL     1       1.091  50.948 -14.350  1.00  0.00    -0.001 C 
HETATM    9  C19 UNL     1       1.502  50.665 -12.889  1.00  0.00     0.037 C 
HETATM   10  C20 UNL     1       2.175  49.317 -12.662  1.00  0.00     0.118 C 
HETATM   11  C21 UNL     1       1.347  48.179 -13.246  1.00  0.00     0.032 C 
HETATM   12  C22 UNL     1       1.054  48.399 -14.728  1.00  0.00     0.012 C 
HETATM   13  C23 UNL     1       0.357  49.753 -15.053  1.00  0.00    -0.036 C 
HETATM   14  C24 UNL     1      -1.090  49.714 -14.501  1.00  0.00     0.016 C 
HETATM   15  C25 UNL     1       0.378  49.931 -16.631  1.00  0.00     0.001 C 
HETATM   16  C26 UNL     1      -0.745  49.156 -17.366  1.00  0.00     0.007 C 
HETATM   17  C27 UNL     1      -0.791  49.405 -18.882  1.00  0.00     0.010 C 
HETATM   18  C28 UNL     1      -0.866  50.909 -19.212  1.00  0.00    -0.036 C 
HETATM   19  C29 UNL     1      -2.190  51.519 -18.694  1.00  0.00     0.016 C 
ENDROOT
BRANCH   1  20
HETATM   20  C2  UNL     1      -1.805  51.194 -21.729  1.00  0.00    -0.013 C 
HETATM   21  C1  UNL     1      -1.980  49.783 -22.294  1.00  0.00     0.010 C 
BRANCH  20  22
HETATM   22  C3  UNL     1      -1.601  52.221 -22.879  1.00  0.00     0.014 C 
BRANCH  22  23
HETATM   23  C4  UNL     1      -2.790  52.351 -23.836  1.00  0.00     0.103 C 
BRANCH  23  24
HETATM   24  C5  UNL     1      -2.418  52.697 -25.267  1.00  0.00     0.217 C 
HETATM   25  O1  UNL     1      -3.206  52.702 -26.204  1.00  0.00    -0.274 OA
HETATM   26  N1  UNL     1      -1.079  52.998 -25.403  1.00  0.00    -0.359 N 
HETATM   27  H9  UNL     1      -0.444  52.688 -24.675  1.00  0.00     0.162 HD
BRANCH  26  28
HETATM   28  C6  UNL     1      -0.484  53.196 -26.713  1.00  0.00     0.154 C 
BRANCH  28  29
HETATM   29  C7  UNL     1       0.050  51.872 -27.273  1.00  0.00     0.139 C 
HETATM   30  C8  UNL     1       0.723  51.010 -26.216  1.00  0.00     0.035 C 
HETATM   31  C9  UNL     1       2.165  51.442 -26.303  1.00  0.00     0.029 C 
HETATM   32  C10 UNL     1       2.328  51.698 -27.785  1.00  0.00     0.168 C 
HETATM   33  O2  UNL     1       1.061  52.167 -28.266  1.00  0.00    -0.384 OA
ENDBRANCH  28  29
ENDBRANCH  26  28
ENDBRANCH  23  24
ENDBRANCH  22  23
ENDBRANCH  20  22
ENDBRANCH   1  20
BRANCH   6  34
HETATM   34  O3  UNL     1       1.525  53.457 -16.306  1.00  0.00    -0.395 OA
HETATM   35  H27 UNL     1       2.364  53.861 -16.030  1.00  0.00     0.210 HD
ENDBRANCH   6  34
BRANCH  10  36
HETATM   36  O4  UNL     1       3.474  49.332 -13.246  1.00  0.00    -0.396 OA
HETATM   37  H34 UNL     1       3.887  48.471 -13.063  1.00  0.00     0.210 HD
ENDBRANCH  10  36
TORSDOF 8
ENDMDL
MODEL 2
REMARK minimizedAffinity -9.96092796
REMARK  8 active torsions:
REMARK  status: ('A' for Active; 'I' for Inactive)
REMARK    1  A    between atoms: C2_2  and  C3_3 
REMARK    2  A    between atoms: C2_2  and  C11_14 
REMARK    3  A    between atoms: C3_3  and  C4_4 
REMARK    4  A    between atoms: C4_4  and  C5_5 
REMARK       I    between atoms: C5_5  and  N1_7 
REMARK    5  A    between atoms: N1_7  and  C6_8 
REMARK    6  A    between atoms: C6_8  and  C7_9 
REMARK    7  A    between atoms: C16_19  and  O3_20 
REMARK    8  A    between atoms: C20_24  and  O4_25 
ROOT
HETATM    1  C11 UNL     1      -1.319  50.300 -22.301  1.00  0.00    -0.002 C 
HETATM    2  C12 UNL     1      -0.933  51.786 -22.568  1.00  0.00     0.006 C 
HETATM    3  C13 UNL     1      -0.483  52.391 -21.234  1.00  0.00     0.006 C 
HETATM    4  C14 UNL     1      -0.375  51.192 -20.307  1.00  0.00     0.001 C 
HETATM    5  C15 UNL     1      -0.321  51.455 -18.791  1.00  0.00     0.024 C 
HETATM    6  C16 UNL     1       0.889  52.357 -18.445  1.00  0.00     0.123 C 
HETATM    7  C17 UNL     1       1.437  52.140 -17.029  1.00  0.00     0.037 C 
HETATM    8  C18 UNL     1       0.314  51.723 -16.071  1.00  0.00    -0.001 C 
HETATM    9  C19 UNL     1       0.730  51.855 -14.590  1.00  0.00     0.037 C 
HETATM   10  C20 UNL     1       1.559  50.695 -14.052  1.00  0.00     0.118 C 
HETATM   11  C21 UNL     1       0.886  49.357 -14.333  1.00  0.00     0.032 C 
HETATM   12  C22 UNL     1       0.595  49.174 -15.821  1.00  0.00     0.012 C 
HETATM   13  C23 UNL     1      -0.256  50.314 -16.455  1.00  0.00    -0.036 C 
HETATM   14  C24 UNL     1      -1.697  50.231 -15.892  1.00  0.00     0.016 C 
HETATM   15  C25 UNL     1      -0.229  50.106 -18.029  1.00  0.00     0.001 C 
HETATM   16  C26 UNL     1      -1.235  49.044 -18.541  1.00  0.00     0.007 C 
HETATM   17  C27 UNL     1      -1.285  48.912 -20.072  1.00  0.00     0.010 C 
HETATM   18  C28 UNL     1      -1.537  50.270 -20.755  1.00  0.00    -0.036 C 
HETATM   19  C29 UNL     1      -2.935  50.819 -20.383  1.00  0.00     0.016 C 
ENDROOT
BRANCH   1  20
HETATM   20  C2  UNL     1      -2.458  49.820 -23.253  1.00  0.00    -0.013 C 
HETATM   21  C1  UNL     1      -2.705  48.314 -23.157  1.00  0.00     0.010 C 
BRANCH  20  22
HETATM   22  C3  UNL     1      -2.139  50.228 -24.720  1.00  0.00     0.014 C 
BRANCH  22  23
HETATM   23  C4  UNL     1      -3.193  51.128 -25.375  1.00  0.00     0.103 C 
BRANCH  23  24
HETATM   24  C5  UNL     1      -2.792  51.695 -26.725  1.00  0.00     0.217 C 
HETATM   25  O1  UNL     1      -3.134  51.222 -27.803  1.00  0.00    -0.274 OA
HETATM   26  N1  UNL     1      -1.981  52.804 -26.609  1.00  0.00    -0.359 N 
HETATM   27  H9  UNL     1      -1.502  52.955 -25.729  1.00  0.00     0.162 HD
BRANCH  26  28
HETATM   28  C6  UNL     1      -1.354  53.400 -27.775  1.00  0.00     0.154 C 
BRANCH  28  29
HETATM   29  C7  UNL     1       0.174  53.307 -27.677  1.00  0.00     0.139 C 
HETATM   30  C8  UNL     1       0.720  51.977 -28.174  1.00  0.00     0.035 C 
HETATM   31  C9  UNL     1       0.750  51.140 -26.921  1.00  0.00     0.029 C 
HETATM   32  C10 UNL     1       1.123  52.162 -25.869  1.00  0.00     0.168 C 
HETATM   33  O2  UNL     1       0.552  53.410 -26.284  1.00  0.00    -0.384 OA
ENDBRANCH  28  29
ENDBRANCH  26  28
ENDBRANCH  23  24
ENDBRANCH  22  23
ENDBRANCH  20  22
ENDBRANCH   1  20
BRANCH   6  34
HETATM   34  O3  UNL     1       0.472  53.719 -18.582  1.00  0.00    -0.395 OA
HETATM   35  H27 UNL     1       1.251  54.278 -18.422  1.00  0.00     0.210 HD
ENDBRANCH   6  34
BRANCH  10  36
HETATM   36  O4  UNL     1       2.856  50.728 -14.638  1.00  0.00    -0.396 OA
HETATM   37  H34 UNL     1       3.368  49.994 -14.258  1.00  0.00     0.210 HD
ENDBRANCH  10  36
TORSDOF 8
ENDMDL
MODEL 3
REMARK minimizedAffinity -9.92469597
REMARK  8 active torsions:
REMARK  status: ('A' for Active; 'I' for Inactive)
REMARK    1  A    between atoms: C2_2  and  C3_3 
REMARK    2  A    between atoms: C2_2  and  C11_14 
REMARK    3  A    between atoms: C3_3  and  C4_4 
REMARK    4  A    between atoms: C4_4  and  C5_5 
REMARK       I    between atoms: C5_5  and  N1_7 
REMARK    5  A    between atoms: N1_7  and  C6_8 
REMARK    6  A    between atoms: C6_8  and  C7_9 
REMARK    7  A    between atoms: C16_19  and  O3_20 
REMARK    8  A    between atoms: C20_24  and  O4_25 
ROOT
HETATM    1  C11 UNL     1      -0.412  51.710 -20.847  1.00  0.00    -0.002 C 
HETATM    2  C12 UNL     1       0.165  53.128 -20.553  1.00  0.00     0.006 C 
HETATM    3  C13 UNL     1       0.570  53.163 -19.076  1.00  0.00     0.006 C 
HETATM    4  C14 UNL     1       0.461  51.713 -18.633  1.00  0.00     0.001 C 
HETATM    5  C15 UNL     1       0.419  51.422 -17.122  1.00  0.00     0.024 C 
HETATM    6  C16 UNL     1       1.693  51.971 -16.433  1.00  0.00     0.123 C 
HETATM    7  C17 UNL     1       2.093  51.202 -15.168  1.00  0.00     0.037 C 
HETATM    8  C18 UNL     1       0.853  50.637 -14.463  1.00  0.00    -0.001 C 
HETATM    9  C19 UNL     1       1.158  50.185 -13.018  1.00  0.00     0.037 C 
HETATM   10  C20 UNL     1       1.799  48.809 -12.899  1.00  0.00     0.118 C 
HETATM   11  C21 UNL     1       1.001  47.758 -13.661  1.00  0.00     0.032 C 
HETATM   12  C22 UNL     1       0.815  48.147 -15.126  1.00  0.00     0.012 C 
HETATM   13  C23 UNL     1       0.157  49.541 -15.344  1.00  0.00    -0.036 C 
HETATM   14  C24 UNL     1      -1.325  49.468 -14.900  1.00  0.00     0.016 C 
HETATM   15  C25 UNL     1       0.290  49.893 -16.887  1.00  0.00     0.001 C 
HETATM   16  C26 UNL     1      -0.786  49.225 -17.779  1.00  0.00     0.007 C 
HETATM   17  C27 UNL     1      -0.724  49.642 -19.258  1.00  0.00     0.010 C 
HETATM   18  C28 UNL     1      -0.759  51.174 -19.421  1.00  0.00    -0.036 C 
HETATM   19  C29 UNL     1      -2.110  51.747 -18.930  1.00  0.00     0.016 C 
ENDROOT
BRANCH   1  20
HETATM   20  C2  UNL     1      -1.516  51.754 -21.948  1.00  0.00    -0.013 C 
HETATM   21  C1  UNL     1      -2.792  51.022 -21.526  1.00  0.00     0.010 C 
BRANCH  20  22
HETATM   22  C3  UNL     1      -0.968  51.169 -23.282  1.00  0.00     0.014 C 
BRANCH  22  23
HETATM   23  C4  UNL     1      -0.242  52.184 -24.172  1.00  0.00     0.103 C 
BRANCH  23  24
HETATM   24  C5  UNL     1      -0.823  52.334 -25.566  1.00  0.00     0.217 C 
HETATM   25  O1  UNL     1      -1.117  53.406 -26.081  1.00  0.00    -0.274 OA
HETATM   26  N1  UNL     1      -0.998  51.120 -26.195  1.00  0.00    -0.359 N 
HETATM   27  H9  UNL     1      -1.021  50.284 -25.621  1.00  0.00     0.162 HD
BRANCH  26  28
HETATM   28  C6  UNL     1      -1.690  51.027 -27.468  1.00  0.00     0.154 C 
BRANCH  28  29
HETATM   29  C7  UNL     1      -3.168  50.674 -27.258  1.00  0.00     0.139 C 
HETATM   30  C8  UNL     1      -3.424  49.951 -25.945  1.00  0.00     0.035 C 
HETATM   31  C9  UNL     1      -3.300  48.500 -26.334  1.00  0.00     0.029 C 
HETATM   32  C10 UNL     1      -3.888  48.496 -27.728  1.00  0.00     0.168 C 
HETATM   33  O2  UNL     1      -3.579  49.769 -28.311  1.00  0.00    -0.384 OA
ENDBRANCH  28  29
ENDBRANCH  26  28
ENDBRANCH  23  24
ENDBRANCH  22  23
ENDBRANCH  20  22
ENDBRANCH   1  20
BRANCH   6  34
HETATM   34  O3  UNL     1       1.450  53.339 -16.091  1.00  0.00    -0.395 OA
HETATM   35  H27 UNL     1       2.272  53.694 -15.714  1.00  0.00     0.210 HD
ENDBRANCH   6  34
BRANCH  10  36
HETATM   36  O4  UNL     1       3.136  48.864 -13.387  1.00  0.00    -0.396 OA
HETATM   37  H34 UNL     1       3.525  47.981 -13.274  1.00  0.00     0.210 HD
ENDBRANCH  10  36
TORSDOF 8
ENDMDL
MODEL 4
REMARK minimizedAffinity -9.3217144
REMARK  8 active torsions:
REMARK  status: ('A' for Active; 'I' for Inactive)
REMARK    1  A    between atoms: C2_2  and  C3_3 
REMARK    2  A    between atoms: C2_2  and  C11_14 
REMARK    3  A    between atoms: C3_3  and  C4_4 
REMARK    4  A    between atoms: C4_4  and  C5_5 
REMARK       I    between atoms: C5_5  and  N1_7 
REMARK    5  A    between atoms: N1_7  and  C6_8 
REMARK    6  A    between atoms: C6_8  and  C7_9 
REMARK    7  A    between atoms: C16_19  and  O3_20 
REMARK    8  A    between atoms: C20_24  and  O4_25 
ROOT
HETATM    1  C11 UNL     1      -0.629  51.321 -25.312  1.00  0.00    -0.002 C 
HETATM    2  C12 UNL     1       0.173  52.635 -25.557  1.00  0.00     0.006 C 
HETATM    3  C13 UNL     1       0.517  53.227 -24.187  1.00  0.00     0.006 C 
HETATM    4  C14 UNL     1       0.139  52.127 -23.208  1.00  0.00     0.001 C 
HETATM    5  C15 UNL     1      -0.015  52.504 -21.724  1.00  0.00     0.024 C 
HETATM    6  C16 UNL     1       1.305  53.106 -21.182  1.00  0.00     0.123 C 
HETATM    7  C17 UNL     1       1.513  52.889 -19.679  1.00  0.00     0.037 C 
HETATM    8  C18 UNL     1       0.166  52.851 -18.946  1.00  0.00    -0.001 C 
HETATM    9  C19 UNL     1       0.327  53.008 -17.418  1.00  0.00     0.037 C 
HETATM   10  C20 UNL     1       0.714  51.733 -16.680  1.00  0.00     0.118 C 
HETATM   11  C21 UNL     1      -0.222  50.584 -17.033  1.00  0.00     0.032 C 
HETATM   12  C22 UNL     1      -0.278  50.346 -18.540  1.00  0.00     0.012 C 
HETATM   13  C23 UNL     1      -0.673  51.598 -19.377  1.00  0.00    -0.036 C 
HETATM   14  C24 UNL     1      -2.163  51.927 -19.106  1.00  0.00     0.016 C 
HETATM   15  C25 UNL     1      -0.417  51.249 -20.905  1.00  0.00     0.001 C 
HETATM   16  C26 UNL     1      -1.556  50.428 -21.561  1.00  0.00     0.007 C 
HETATM   17  C27 UNL     1      -1.361  50.175 -23.065  1.00  0.00     0.010 C 
HETATM   18  C28 UNL     1      -1.123  51.486 -23.839  1.00  0.00    -0.036 C 
HETATM   19  C29 UNL     1      -2.372  52.396 -23.774  1.00  0.00     0.016 C 
ENDROOT
BRANCH   1  20
HETATM   20  C2  UNL     1      -1.663  51.055 -26.450  1.00  0.00    -0.013 C 
HETATM   21  C1  UNL     1      -2.222  52.348 -27.046  1.00  0.00     0.010 C 
BRANCH  20  22
HETATM   22  C3  UNL     1      -2.816  50.152 -25.926  1.00  0.00     0.014 C 
BRANCH  22  23
HETATM   23  C4  UNL     1      -3.027  48.860 -26.724  1.00  0.00     0.103 C 
BRANCH  23  24
HETATM   24  C5  UNL     1      -4.479  48.464 -26.917  1.00  0.00     0.217 C 
HETATM   25  O1  UNL     1      -5.238  48.153 -26.007  1.00  0.00    -0.274 OA
HETATM   26  N1  UNL     1      -4.855  48.478 -28.244  1.00  0.00    -0.359 N 
HETATM   27  H9  UNL     1      -4.125  48.447 -28.947  1.00  0.00     0.162 HD
BRANCH  26  28
HETATM   28  C6  UNL     1      -6.152  47.975 -28.661  1.00  0.00     0.154 C 
BRANCH  28  29
HETATM   29  C7  UNL     1      -6.282  48.012 -30.189  1.00  0.00     0.139 C 
HETATM   30  C8  UNL     1      -7.082  46.843 -30.744  1.00  0.00     0.035 C 
HETATM   31  C9  UNL     1      -6.018  45.812 -31.021  1.00  0.00     0.029 C 
HETATM   32  C10 UNL     1      -4.859  46.671 -31.478  1.00  0.00     0.168 C 
HETATM   33  O2  UNL     1      -4.958  47.912 -30.766  1.00  0.00    -0.384 OA
ENDBRANCH  28  29
ENDBRANCH  26  28
ENDBRANCH  23  24
ENDBRANCH  22  23
ENDBRANCH  20  22
ENDBRANCH   1  20
BRANCH   6  34
HETATM   34  O3  UNL     1       1.290  54.510 -21.454  1.00  0.00    -0.395 OA
HETATM   35  H27 UNL     1       2.145  54.871 -21.166  1.00  0.00     0.210 HD
ENDBRANCH   6  34
BRANCH  10  36
HETATM   36  O4  UNL     1       2.059  51.390 -16.999  1.00  0.00    -0.396 OA
HETATM   37  H34 UNL     1       2.284  50.589 -16.495  1.00  0.00     0.210 HD
ENDBRANCH  10  36
TORSDOF 8
ENDMDL
MODEL 5
REMARK minimizedAffinity -9.19282532
REMARK  8 active torsions:
REMARK  status: ('A' for Active; 'I' for Inactive)
REMARK    1  A    between atoms: C2_2  and  C3_3 
REMARK    2  A    between atoms: C2_2  and  C11_14 
REMARK    3  A    between atoms: C3_3  and  C4_4 
REMARK    4  A    between atoms: C4_4  and  C5_5 
REMARK       I    between atoms: C5_5  and  N1_7 
REMARK    5  A    between atoms: N1_7  and  C6_8 
REMARK    6  A    between atoms: C6_8  and  C7_9 
REMARK    7  A    between atoms: C16_19  and  O3_20 
REMARK    8  A    between atoms: C20_24  and  O4_25 
ROOT
HETATM    1  C11 UNL     1      -0.600  52.296 -19.509  1.00  0.00    -0.002 C 
HETATM    2  C12 UNL     1       0.663  53.204 -19.411  1.00  0.00     0.006 C 
HETATM    3  C13 UNL     1       1.096  53.546 -20.841  1.00  0.00     0.006 C 
HETATM    4  C14 UNL     1      -0.057  53.052 -21.700  1.00  0.00     0.001 C 
HETATM    5  C15 UNL     1       0.191  52.878 -23.208  1.00  0.00     0.024 C 
HETATM    6  C16 UNL     1       0.633  54.221 -23.840  1.00  0.00     0.123 C 
HETATM    7  C17 UNL     1       0.261  54.361 -25.320  1.00  0.00     0.037 C 
HETATM    8  C18 UNL     1       0.262  52.991 -26.011  1.00  0.00    -0.001 C 
HETATM    9  C19 UNL     1       0.263  53.113 -27.550  1.00  0.00     0.037 C 
HETATM   10  C20 UNL     1      -1.102  53.376 -28.173  1.00  0.00     0.118 C 
HETATM   11  C21 UNL     1      -2.136  52.367 -27.687  1.00  0.00     0.032 C 
HETATM   12  C22 UNL     1      -2.227  52.345 -26.163  1.00  0.00     0.012 C 
HETATM   13  C23 UNL     1      -0.875  52.074 -25.441  1.00  0.00    -0.036 C 
HETATM   14  C24 UNL     1      -0.455  50.606 -25.702  1.00  0.00     0.016 C 
HETATM   15  C25 UNL     1      -1.099  52.354 -23.893  1.00  0.00     0.001 C 
HETATM   16  C26 UNL     1      -1.762  51.178 -23.132  1.00  0.00     0.007 C 
HETATM   17  C27 UNL     1      -1.890  51.404 -21.617  1.00  0.00     0.010 C 
HETATM   18  C28 UNL     1      -0.535  51.767 -20.978  1.00  0.00    -0.036 C 
HETATM   19  C29 UNL     1       0.461  50.590 -21.097  1.00  0.00     0.016 C 
ENDROOT
BRANCH   1  20
HETATM   20  C2  UNL     1      -0.676  51.284 -18.324  1.00  0.00    -0.013 C 
HETATM   21  C1  UNL     1      -2.084  51.180 -17.733  1.00  0.00     0.010 C 
BRANCH  20  22
HETATM   22  C3  UNL     1       0.352  51.670 -17.222  1.00  0.00     0.014 C 
BRANCH  22  23
HETATM   23  C4  UNL     1       0.322  50.772 -15.980  1.00  0.00     0.103 C 
BRANCH  23  24
HETATM   24  C5  UNL     1       0.310  51.519 -14.658  1.00  0.00     0.217 C 
HETATM   25  O1  UNL     1       1.315  51.907 -14.075  1.00  0.00    -0.274 OA
HETATM   26  N1  UNL     1      -0.966  51.704 -14.171  1.00  0.00    -0.359 N 
HETATM   27  H9  UNL     1      -1.706  51.113 -14.533  1.00  0.00     0.162 HD
BRANCH  26  28
HETATM   28  C6  UNL     1      -1.191  52.249 -12.844  1.00  0.00     0.154 C 
BRANCH  28  29
HETATM   29  C7  UNL     1      -2.501  51.714 -12.252  1.00  0.00     0.139 C 
HETATM   30  C8  UNL     1      -3.662  52.685 -12.407  1.00  0.00     0.035 C 
HETATM   31  C9  UNL     1      -3.600  53.484 -11.131  1.00  0.00     0.029 C 
HETATM   32  C10 UNL     1      -3.161  52.441 -10.126  1.00  0.00     0.168 C 
HETATM   33  O2  UNL     1      -2.317  51.519 -10.829  1.00  0.00    -0.384 OA
ENDBRANCH  28  29
ENDBRANCH  26  28
ENDBRANCH  23  24
ENDBRANCH  22  23
ENDBRANCH  20  22
ENDBRANCH   1  20
BRANCH   6  34
HETATM   34  O3  UNL     1       2.053  54.322 -23.702  1.00  0.00    -0.395 OA
HETATM   35  H27 UNL     1       2.316  55.193 -24.046  1.00  0.00     0.210 HD
ENDBRANCH   6  34
BRANCH  10  36
HETATM   36  O4  UNL     1      -1.520  54.701 -27.858  1.00  0.00    -0.396 OA
HETATM   37  H34 UNL     1      -2.379  54.847 -28.289  1.00  0.00     0.210 HD
ENDBRANCH  10  36
TORSDOF 8
ENDMDL
MODEL 6
REMARK minimizedAffinity -9.13950539
REMARK  8 active torsions:
REMARK  status: ('A' for Active; 'I' for Inactive)
REMARK    1  A    between atoms: C2_2  and  C3_3 
REMARK    2  A    between atoms: C2_2  and  C11_14 
REMARK    3  A    between atoms: C3_3  and  C4_4 
REMARK    4  A    between atoms: C4_4  and  C5_5 
REMARK       I    between atoms: C5_5  and  N1_7 
REMARK    5  A    between atoms: N1_7  and  C6_8 
REMARK    6  A    between atoms: C6_8  and  C7_9 
REMARK    7  A    between atoms: C16_19  and  O3_20 
REMARK    8  A    between atoms: C20_24  and  O4_25 
ROOT
HETATM    1  C11 UNL     1      -0.154  51.498 -24.817  1.00  0.00    -0.002 C 
HETATM    2  C12 UNL     1       0.678  52.720 -24.324  1.00  0.00     0.006 C 
HETATM    3  C13 UNL     1       0.402  52.890 -22.826  1.00  0.00     0.006 C 
HETATM    4  C14 UNL     1      -0.360  51.631 -22.449  1.00  0.00     0.001 C 
HETATM    5  C15 UNL     1      -1.134  51.628 -21.119  1.00  0.00     0.024 C 
HETATM    6  C16 UNL     1      -0.172  51.900 -19.936  1.00  0.00     0.123 C 
HETATM    7  C17 UNL     1      -0.629  51.277 -18.612  1.00  0.00     0.037 C 
HETATM    8  C18 UNL     1      -2.160  51.219 -18.540  1.00  0.00    -0.001 C 
HETATM    9  C19 UNL     1      -2.668  50.955 -17.106  1.00  0.00     0.037 C 
HETATM   10  C20 UNL     1      -2.637  49.494 -16.674  1.00  0.00     0.118 C 
HETATM   11  C21 UNL     1      -3.334  48.601 -17.693  1.00  0.00     0.032 C 
HETATM   12  C22 UNL     1      -2.739  48.769 -19.089  1.00  0.00     0.012 C 
HETATM   13  C23 UNL     1      -2.736  50.235 -19.616  1.00  0.00    -0.036 C 
HETATM   14  C24 UNL     1      -4.197  50.665 -19.898  1.00  0.00     0.016 C 
HETATM   15  C25 UNL     1      -1.851  50.263 -20.935  1.00  0.00     0.001 C 
HETATM   16  C26 UNL     1      -2.600  49.788 -22.205  1.00  0.00     0.007 C 
HETATM   17  C27 UNL     1      -1.780  49.910 -23.500  1.00  0.00     0.010 C 
HETATM   18  C28 UNL     1      -1.231  51.336 -23.697  1.00  0.00    -0.036 C 
HETATM   19  C29 UNL     1      -2.386  52.347 -23.891  1.00  0.00     0.016 C 
ENDROOT
BRANCH   1  20
HETATM   20  C2  UNL     1      -0.601  51.666 -26.302  1.00  0.00    -0.013 C 
HETATM   21  C1  UNL     1      -1.575  52.830 -26.492  1.00  0.00     0.010 C 
BRANCH  20  22
HETATM   22  C3  UNL     1      -1.226  50.341 -26.827  1.00  0.00     0.014 C 
BRANCH  22  23
HETATM   23  C4  UNL     1      -2.653  50.480 -27.368  1.00  0.00     0.103 C 
BRANCH  23  24
HETATM   24  C5  UNL     1      -3.465  49.197 -27.353  1.00  0.00     0.217 C 
HETATM   25  O1  UNL     1      -3.262  48.260 -26.592  1.00  0.00    -0.274 OA
HETATM   26  N1  UNL     1      -4.459  49.194 -28.309  1.00  0.00    -0.359 N 
HETATM   27  H9  UNL     1      -4.381  49.846 -29.081  1.00  0.00     0.162 HD
BRANCH  26  28
HETATM   28  C6  UNL     1      -5.242  48.000 -28.573  1.00  0.00     0.154 C 
BRANCH  28  29
HETATM   29  C7  UNL     1      -6.016  48.138 -29.889  1.00  0.00     0.139 C 
HETATM   30  C8  UNL     1      -6.352  46.797 -30.524  1.00  0.00     0.035 C 
HETATM   31  C9  UNL     1      -5.172  46.553 -31.430  1.00  0.00     0.029 C 
HETATM   32  C10 UNL     1      -4.851  47.951 -31.911  1.00  0.00     0.168 C 
HETATM   33  O2  UNL     1      -5.184  48.844 -30.840  1.00  0.00    -0.384 OA
ENDBRANCH  28  29
ENDBRANCH  26  28
ENDBRANCH  23  24
ENDBRANCH  22  23
ENDBRANCH  20  22
ENDBRANCH   1  20
BRANCH   6  34
HETATM   34  O3  UNL     1      -0.067  53.317 -19.776  1.00  0.00    -0.395 OA
HETATM   35  H27 UNL     1       0.583  53.482 -19.072  1.00  0.00     0.210 HD
ENDBRANCH   6  34
BRANCH  10  36
HETATM   36  O4  UNL     1      -1.286  49.081 -16.497  1.00  0.00    -0.396 OA
HETATM   37  H34 UNL     1      -1.300  48.155 -16.198  1.00  0.00     0.210 HD
ENDBRANCH  10  36
TORSDOF 8
ENDMDL
MODEL 7
REMARK minimizedAffinity -9.12355518
REMARK  8 active torsions:
REMARK  status: ('A' for Active; 'I' for Inactive)
REMARK    1  A    between atoms: C2_2  and  C3_3 
REMARK    2  A    between atoms: C2_2  and  C11_14 
REMARK    3  A    between atoms: C3_3  and  C4_4 
REMARK    4  A    between atoms: C4_4  and  C5_5 
REMARK       I    between atoms: C5_5  and  N1_7 
REMARK    5  A    between atoms: N1_7  and  C6_8 
REMARK    6  A    between atoms: C6_8  and  C7_9 
REMARK    7  A    between atoms: C16_19  and  O3_20 
REMARK    8  A    between atoms: C20_24  and  O4_25 
ROOT
HETATM    1  C11 UNL     1      -5.873  49.481 -23.304  1.00  0.00    -0.002 C 
HETATM    2  C12 UNL     1      -6.630  49.113 -21.992  1.00  0.00     0.006 C 
HETATM    3  C13 UNL     1      -5.694  49.420 -20.818  1.00  0.00     0.006 C 
HETATM    4  C14 UNL     1      -4.546  50.184 -21.457  1.00  0.00     0.001 C 
HETATM    5  C15 UNL     1      -3.237  50.321 -20.657  1.00  0.00     0.024 C 
HETATM    6  C16 UNL     1      -3.505  51.027 -19.305  1.00  0.00     0.123 C 
HETATM    7  C17 UNL     1      -2.298  51.802 -18.763  1.00  0.00     0.037 C 
HETATM    8  C18 UNL     1      -0.987  51.132 -19.192  1.00  0.00    -0.001 C 
HETATM    9  C19 UNL     1       0.223  51.643 -18.380  1.00  0.00     0.037 C 
HETATM   10  C20 UNL     1       0.799  52.971 -18.854  1.00  0.00     0.118 C 
HETATM   11  C21 UNL     1       1.093  52.945 -20.349  1.00  0.00     0.032 C 
HETATM   12  C22 UNL     1      -0.144  52.566 -21.160  1.00  0.00     0.012 C 
HETATM   13  C23 UNL     1      -0.797  51.214 -20.747  1.00  0.00    -0.036 C 
HETATM   14  C24 UNL     1       0.151  50.059 -21.156  1.00  0.00     0.016 C 
HETATM   15  C25 UNL     1      -2.197  51.116 -21.490  1.00  0.00     0.001 C 
HETATM   16  C26 UNL     1      -2.095  50.639 -22.960  1.00  0.00     0.007 C 
HETATM   17  C27 UNL     1      -3.454  50.445 -23.653  1.00  0.00     0.010 C 
HETATM   18  C28 UNL     1      -4.380  49.515 -22.845  1.00  0.00    -0.036 C 
HETATM   19  C29 UNL     1      -3.792  48.086 -22.771  1.00  0.00     0.016 C 
ENDROOT
BRANCH   1  20
HETATM   20  C2  UNL     1      -6.297  48.563 -24.492  1.00  0.00    -0.013 C 
HETATM   21  C1  UNL     1      -7.023  47.300 -24.024  1.00  0.00     0.010 C 
BRANCH  20  22
HETATM   22  C3  UNL     1      -5.055  48.192 -25.353  1.00  0.00     0.014 C 
BRANCH  22  23
HETATM   23  C4  UNL     1      -5.353  47.978 -26.840  1.00  0.00     0.103 C 
BRANCH  23  24
HETATM   24  C5  UNL     1      -4.440  48.737 -27.786  1.00  0.00     0.217 C 
HETATM   25  O1  UNL     1      -4.239  48.425 -28.953  1.00  0.00    -0.274 OA
HETATM   26  N1  UNL     1      -3.841  49.821 -27.179  1.00  0.00    -0.359 N 
HETATM   27  H9  UNL     1      -3.810  49.845 -26.166  1.00  0.00     0.162 HD
BRANCH  26  28
HETATM   28  C6  UNL     1      -2.808  50.584 -27.857  1.00  0.00     0.154 C 
BRANCH  28  29
HETATM   29  C7  UNL     1      -1.942  51.344 -26.844  1.00  0.00     0.139 C 
HETATM   30  C8  UNL     1      -1.219  52.534 -27.458  1.00  0.00     0.035 C 
HETATM   31  C9  UNL     1       0.096  51.937 -27.891  1.00  0.00     0.029 C 
HETATM   32  C10 UNL     1       0.362  50.931 -26.792  1.00  0.00     0.168 C 
HETATM   33  O2  UNL     1      -0.916  50.449 -26.354  1.00  0.00    -0.384 OA
ENDBRANCH  28  29
ENDBRANCH  26  28
ENDBRANCH  23  24
ENDBRANCH  22  23
ENDBRANCH  20  22
ENDBRANCH   1  20
BRANCH   6  34
HETATM   34  O3  UNL     1      -3.883  50.025 -18.356  1.00  0.00    -0.395 OA
HETATM   35  H27 UNL     1      -4.106  50.481 -17.528  1.00  0.00     0.210 HD
ENDBRANCH   6  34
BRANCH  10  36
HETATM   36  O4  UNL     1      -0.116  54.020 -18.550  1.00  0.00    -0.396 OA
HETATM   37  H34 UNL     1       0.289  54.855 -18.840  1.00  0.00     0.210 HD
ENDBRANCH  10  36
TORSDOF 8
ENDMDL
MODEL 8
REMARK minimizedAffinity -9.07173252
REMARK  8 active torsions:
REMARK  status: ('A' for Active; 'I' for Inactive)
REMARK    1  A    between atoms: C2_2  and  C3_3 
REMARK    2  A    between atoms: C2_2  and  C11_14 
REMARK    3  A    between atoms: C3_3  and  C4_4 
REMARK    4  A    between atoms: C4_4  and  C5_5 
REMARK       I    between atoms: C5_5  and  N1_7 
REMARK    5  A    between atoms: N1_7  and  C6_8 
REMARK    6  A    between atoms: C6_8  and  C7_9 
REMARK    7  A    between atoms: C16_19  and  O3_20 
REMARK    8  A    between atoms: C20_24  and  O4_25 
ROOT
HETATM    1  C11 UNL     1      -5.248  50.534 -21.121  1.00  0.00    -0.002 C 
HETATM    2  C12 UNL     1      -4.193  50.611 -19.976  1.00  0.00     0.006 C 
HETATM    3  C13 UNL     1      -2.833  50.896 -20.623  1.00  0.00     0.006 C 
HETATM    4  C14 UNL     1      -3.176  51.226 -22.066  1.00  0.00     0.001 C 
HETATM    5  C15 UNL     1      -2.041  51.189 -23.104  1.00  0.00     0.024 C 
HETATM    6  C16 UNL     1      -0.917  52.178 -22.708  1.00  0.00     0.123 C 
HETATM    7  C17 UNL     1      -0.126  52.725 -23.902  1.00  0.00     0.037 C 
HETATM    8  C18 UNL     1      -0.064  51.690 -25.032  1.00  0.00    -0.001 C 
HETATM    9  C19 UNL     1       1.013  52.035 -26.083  1.00  0.00     0.037 C 
HETATM   10  C20 UNL     1       0.591  53.071 -27.116  1.00  0.00     0.118 C 
HETATM   11  C21 UNL     1      -0.734  52.696 -27.769  1.00  0.00     0.032 C 
HETATM   12  C22 UNL     1      -1.833  52.484 -26.730  1.00  0.00     0.012 C 
HETATM   13  C23 UNL     1      -1.489  51.432 -25.634  1.00  0.00    -0.036 C 
HETATM   14  C24 UNL     1      -1.466  50.026 -26.285  1.00  0.00     0.016 C 
HETATM   15  C25 UNL     1      -2.604  51.538 -24.508  1.00  0.00     0.001 C 
HETATM   16  C26 UNL     1      -3.914  50.785 -24.847  1.00  0.00     0.007 C 
HETATM   17  C27 UNL     1      -4.958  50.800 -23.718  1.00  0.00     0.010 C 
HETATM   18  C28 UNL     1      -4.368  50.290 -22.389  1.00  0.00    -0.036 C 
HETATM   19  C29 UNL     1      -3.965  48.800 -22.503  1.00  0.00     0.016 C 
ENDROOT
BRANCH   1  20
HETATM   20  C2  UNL     1      -6.401  49.540 -20.776  1.00  0.00    -0.013 C 
HETATM   21  C1  UNL     1      -6.038  48.601 -19.624  1.00  0.00     0.010 C 
BRANCH  20  22
HETATM   22  C3  UNL     1      -6.803  48.725 -22.039  1.00  0.00     0.014 C 
BRANCH  22  23
HETATM   23  C4  UNL     1      -7.850  49.403 -22.928  1.00  0.00     0.103 C 
BRANCH  23  24
HETATM   24  C5  UNL     1      -8.263  48.599 -24.147  1.00  0.00     0.217 C 
HETATM   25  O1  UNL     1      -8.040  47.403 -24.295  1.00  0.00    -0.274 OA
HETATM   26  N1  UNL     1      -8.913  49.368 -25.089  1.00  0.00    -0.359 N 
HETATM   27  H9  UNL     1      -8.798  50.375 -25.045  1.00  0.00     0.162 HD
BRANCH  26  28
HETATM   28  C6  UNL     1      -9.246  48.832 -26.397  1.00  0.00     0.154 C 
BRANCH  28  29
HETATM   29  C7  UNL     1     -10.431  47.862 -26.300  1.00  0.00     0.139 C 
HETATM   30  C8  UNL     1     -10.451  46.837 -27.423  1.00  0.00     0.035 C 
HETATM   31  C9  UNL     1     -11.296  47.511 -28.474  1.00  0.00     0.029 C 
HETATM   32  C10 UNL     1     -12.317  48.246 -27.633  1.00  0.00     0.168 C 
HETATM   33  O2  UNL     1     -11.657  48.622 -26.417  1.00  0.00    -0.384 OA
ENDBRANCH  28  29
ENDBRANCH  26  28
ENDBRANCH  23  24
ENDBRANCH  22  23
ENDBRANCH  20  22
ENDBRANCH   1  20
BRANCH   6  34
HETATM   34  O3  UNL     1      -0.022  51.494 -21.827  1.00  0.00    -0.395 OA
HETATM   35  H27 UNL     1       0.646  52.136 -21.536  1.00  0.00     0.210 HD
ENDBRANCH   6  34
BRANCH  10  36
HETATM   36  O4  UNL     1       0.490  54.348 -26.493  1.00  0.00    -0.396 OA
HETATM   37  H34 UNL     1       0.245  54.991 -27.181  1.00  0.00     0.210 HD
ENDBRANCH  10  36
TORSDOF 8
ENDMDL
MODEL 9
REMARK minimizedAffinity -8.96554565
REMARK  8 active torsions:
REMARK  status: ('A' for Active; 'I' for Inactive)
REMARK    1  A    between atoms: C2_2  and  C3_3 
REMARK    2  A    between atoms: C2_2  and  C11_14 
REMARK    3  A    between atoms: C3_3  and  C4_4 
REMARK    4  A    between atoms: C4_4  and  C5_5 
REMARK       I    between atoms: C5_5  and  N1_7 
REMARK    5  A    between atoms: N1_7  and  C6_8 
REMARK    6  A    between atoms: C6_8  and  C7_9 
REMARK    7  A    between atoms: C16_19  and  O3_20 
REMARK    8  A    between atoms: C20_24  and  O4_25 
ROOT
HETATM    1  C11 UNL     1       0.060  50.463 -18.206  1.00  0.00    -0.002 C 
HETATM    2  C12 UNL     1      -0.729  49.216 -17.704  1.00  0.00     0.006 C 
HETATM    3  C13 UNL     1      -1.674  48.786 -18.830  1.00  0.00     0.006 C 
HETATM    4  C14 UNL     1      -1.228  49.618 -20.021  1.00  0.00     0.001 C 
HETATM    5  C15 UNL     1      -2.188  49.737 -21.218  1.00  0.00     0.024 C 
HETATM    6  C16 UNL     1      -2.510  48.335 -21.790  1.00  0.00     0.123 C 
HETATM    7  C17 UNL     1      -2.851  48.340 -23.285  1.00  0.00     0.037 C 
HETATM    8  C18 UNL     1      -3.528  49.658 -23.682  1.00  0.00    -0.001 C 
HETATM    9  C19 UNL     1      -4.217  49.569 -25.061  1.00  0.00     0.037 C 
HETATM   10  C20 UNL     1      -3.285  49.740 -26.254  1.00  0.00     0.118 C 
HETATM   11  C21 UNL     1      -2.444  51.004 -26.124  1.00  0.00     0.032 C 
HETATM   12  C22 UNL     1      -1.661  51.026 -24.813  1.00  0.00     0.012 C 
HETATM   13  C23 UNL     1      -2.536  50.864 -23.536  1.00  0.00    -0.036 C 
HETATM   14  C24 UNL     1      -3.392  52.143 -23.354  1.00  0.00     0.016 C 
HETATM   15  C25 UNL     1      -1.552  50.637 -22.311  1.00  0.00     0.001 C 
HETATM   16  C26 UNL     1      -0.938  51.943 -21.748  1.00  0.00     0.007 C 
HETATM   17  C27 UNL     1      -0.064  51.739 -20.499  1.00  0.00     0.010 C 
HETATM   18  C28 UNL     1      -0.818  50.974 -19.394  1.00  0.00    -0.036 C 
HETATM   19  C29 UNL     1      -2.019  51.800 -18.876  1.00  0.00     0.016 C 
ENDROOT
BRANCH   1  20
HETATM   20  C2  UNL     1       0.417  51.430 -17.035  1.00  0.00    -0.013 C 
HETATM   21  C1  UNL     1       1.373  52.543 -17.467  1.00  0.00     0.010 C 
BRANCH  20  22
HETATM   22  C3  UNL     1       1.016  50.629 -15.842  1.00  0.00     0.014 C 
BRANCH  22  23
HETATM   23  C4  UNL     1       0.671  51.193 -14.460  1.00  0.00     0.103 C 
BRANCH  23  24
HETATM   24  C5  UNL     1      -0.767  50.973 -14.026  1.00  0.00     0.217 C 
HETATM   25  O1  UNL     1      -1.407  49.952 -14.246  1.00  0.00    -0.274 OA
HETATM   26  N1  UNL     1      -1.288  52.062 -13.361  1.00  0.00    -0.359 N 
HETATM   27  H9  UNL     1      -0.826  52.958 -13.476  1.00  0.00     0.162 HD
BRANCH  26  28
HETATM   28  C6  UNL     1      -2.695  52.123 -13.006  1.00  0.00     0.154 C 
BRANCH  28  29
HETATM   29  C7  UNL     1      -2.882  51.934 -11.495  1.00  0.00     0.139 C 
HETATM   30  C8  UNL     1      -4.207  52.485 -10.988  1.00  0.00     0.035 C 
HETATM   31  C9  UNL     1      -3.854  53.899 -10.605  1.00  0.00     0.029 C 
HETATM   32  C10 UNL     1      -2.448  53.738 -10.068  1.00  0.00     0.168 C 
HETATM   33  O2  UNL     1      -1.843  52.669 -10.807  1.00  0.00    -0.384 OA
ENDBRANCH  28  29
ENDBRANCH  26  28
ENDBRANCH  23  24
ENDBRANCH  22  23
ENDBRANCH  20  22
ENDBRANCH   1  20
BRANCH   6  34
HETATM   34  O3  UNL     1      -3.621  47.809 -21.059  1.00  0.00    -0.395 OA
HETATM   35  H27 UNL     1      -3.780  46.906 -21.382  1.00  0.00     0.210 HD
ENDBRANCH   6  34
BRANCH  10  36
HETATM   36  O4  UNL     1      -2.444  48.597 -26.366  1.00  0.00    -0.396 OA
HETATM   37  H34 UNL     1      -1.881  48.723 -27.149  1.00  0.00     0.210 HD
ENDBRANCH  10  36
TORSDOF 8
ENDMDL
