MODEL 1
REMARK minimizedAffinity -8.7857542
REMARK  6 active torsions:
REMARK  status: ('A' for Active; 'I' for Inactive)
REMARK    1  A    between atoms: C2_2  and  O2_4 
REMARK    2  A    between atoms: O2_4  and  C3_5 
REMARK    3  A    between atoms: C13_15  and  C14_16 
REMARK    4  A    between atoms: C14_16  and  C16_18 
REMARK    5  A    between atoms: C17_19  and  C18_20 
REMARK    6  A    between atoms: C18_20  and  C20_22 
ROOT
HETATM    1  C3  UNL     1      -6.943  46.341 -20.209  1.00  0.00     0.135 C 
HETATM    2  C4  UNL     1      -6.106  45.798 -21.373  1.00  0.00     0.034 C 
HETATM    3  C5  UNL     1      -4.754  46.501 -21.483  1.00  0.00     0.015 C 
HETATM    4  C6  UNL     1      -4.875  48.047 -21.590  1.00  0.00     0.001 C 
HETATM    5  C7  UNL     1      -5.507  48.388 -22.965  1.00  0.00     0.019 C 
HETATM    6  C8  UNL     1      -3.445  48.705 -21.398  1.00  0.00     0.039 C 
HETATM    7  C9  UNL     1      -2.715  49.134 -22.693  1.00  0.00     0.010 C 
HETATM    8  C10 UNL     1      -1.370  49.835 -22.425  1.00  0.00     0.010 C 
HETATM    9  C11 UNL     1      -1.533  51.036 -21.475  1.00  0.00    -0.033 C 
HETATM   10  C12 UNL     1      -2.343  52.139 -22.183  1.00  0.00     0.016 C 
HETATM   11  C13 UNL     1      -0.196  51.572 -20.875  1.00  0.00     0.001 C 
HETATM   12  C23 UNL     1      -0.644  52.283 -19.569  1.00  0.00     0.006 C 
HETATM   13  C24 UNL     1      -1.991  51.649 -19.168  1.00  0.00     0.009 C 
HETATM   14  C25 UNL     1      -2.176  50.509 -20.169  1.00  0.00     0.036 C 
HETATM   15  C26 UNL     1      -3.545  49.837 -20.315  1.00  0.00     0.123 C 
HETATM   16  C27 UNL     1      -4.741  50.735 -20.507  1.00  0.00     0.014 C 
HETATM   17  C28 UNL     1      -5.910  50.079 -20.517  1.00  0.00     0.014 C 
HETATM   18  C29 UNL     1      -5.761  48.578 -20.410  1.00  0.00     0.124 C 
HETATM   19  C30 UNL     1      -7.109  47.863 -20.302  1.00  0.00     0.079 C 
HETATM   20  O3  UNL     1      -5.036  48.299 -19.180  1.00  0.00    -0.223 OA
HETATM   21  O4  UNL     1      -3.822  49.159 -19.057  1.00  0.00    -0.224 OA
ENDROOT
BRANCH  11  22
HETATM   22  C14 UNL     1       0.792  52.369 -21.770  1.00  0.00     0.008 C 
HETATM   23  C15 UNL     1       1.214  53.660 -21.046  1.00  0.00     0.014 C 
BRANCH  22  24
HETATM   24  C16 UNL     1       0.330  52.633 -23.190  1.00  0.00    -0.026 C 
HETATM   25  C17 UNL     1       0.885  52.174 -24.326  1.00  0.00    -0.026 C 
BRANCH  25  26
HETATM   26  C18 UNL     1       0.342  52.483 -25.708  1.00  0.00     0.007 C 
HETATM   27  C19 UNL     1      -1.188  52.500 -25.654  1.00  0.00     0.014 C 
BRANCH  26  28
HETATM   28  C20 UNL     1       0.932  51.520 -26.775  1.00  0.00    -0.015 C 
HETATM   29  C21 UNL     1       0.534  51.855 -28.217  1.00  0.00     0.010 C 
HETATM   30  C22 UNL     1       2.461  51.445 -26.675  1.00  0.00     0.010 C 
ENDBRANCH  26  28
ENDBRANCH  25  26
ENDBRANCH  22  24
ENDBRANCH  11  22
BRANCH   1  31
HETATM   31  O2  UNL     1      -8.268  45.771 -20.248  1.00  0.00    -0.316 OA
BRANCH  31  32
HETATM   32  C2  UNL     1      -9.272  46.547 -19.758  1.00  0.00     0.255 C 
HETATM   33  C1  UNL     1      -9.420  46.318 -18.285  1.00  0.00     0.126 C 
HETATM   34  O1  UNL     1      -9.975  47.304 -20.410  1.00  0.00    -0.266 OA
ENDBRANCH  31  32
ENDBRANCH   1  31
TORSDOF 6
ENDMDL
MODEL 2
REMARK minimizedAffinity -8.73987007
REMARK  6 active torsions:
REMARK  status: ('A' for Active; 'I' for Inactive)
REMARK    1  A    between atoms: C2_2  and  O2_4 
REMARK    2  A    between atoms: O2_4  and  C3_5 
REMARK    3  A    between atoms: C13_15  and  C14_16 
REMARK    4  A    between atoms: C14_16  and  C16_18 
REMARK    5  A    between atoms: C17_19  and  C18_20 
REMARK    6  A    between atoms: C18_20  and  C20_22 
ROOT
HETATM    1  C3  UNL     1      -2.753  49.465 -26.127  1.00  0.00     0.135 C 
HETATM    2  C4  UNL     1      -1.713  50.587 -26.223  1.00  0.00     0.034 C 
HETATM    3  C5  UNL     1      -0.946  50.771 -24.914  1.00  0.00     0.015 C 
HETATM    4  C6  UNL     1      -1.875  51.010 -23.691  1.00  0.00     0.001 C 
HETATM    5  C7  UNL     1      -2.539  52.403 -23.852  1.00  0.00     0.019 C 
HETATM    6  C8  UNL     1      -1.030  50.891 -22.353  1.00  0.00     0.039 C 
HETATM    7  C9  UNL     1      -0.597  52.226 -21.703  1.00  0.00     0.010 C 
HETATM    8  C10 UNL     1       0.151  52.034 -20.369  1.00  0.00     0.010 C 
HETATM    9  C11 UNL     1      -0.668  51.190 -19.374  1.00  0.00    -0.033 C 
HETATM   10  C12 UNL     1      -1.916  51.982 -18.940  1.00  0.00     0.016 C 
HETATM   11  C13 UNL     1       0.149  50.652 -18.159  1.00  0.00     0.001 C 
HETATM   12  C23 UNL     1      -0.659  49.408 -17.700  1.00  0.00     0.006 C 
HETATM   13  C24 UNL     1      -1.469  48.940 -18.925  1.00  0.00     0.009 C 
HETATM   14  C25 UNL     1      -0.975  49.836 -20.060  1.00  0.00     0.036 C 
HETATM   15  C26 UNL     1      -1.762  49.909 -21.372  1.00  0.00     0.123 C 
HETATM   16  C27 UNL     1      -3.246  50.165 -21.278  1.00  0.00     0.014 C 
HETATM   17  C28 UNL     1      -3.878  50.105 -22.458  1.00  0.00     0.014 C 
HETATM   18  C29 UNL     1      -2.950  49.870 -23.629  1.00  0.00     0.124 C 
HETATM   19  C30 UNL     1      -3.707  49.687 -24.946  1.00  0.00     0.079 C 
HETATM   20  O3  UNL     1      -2.235  48.629 -23.377  1.00  0.00    -0.223 OA
HETATM   21  O4  UNL     1      -1.679  48.594 -21.992  1.00  0.00    -0.224 OA
ENDROOT
BRANCH  11  22
HETATM   22  C14 UNL     1       0.587  51.624 -17.028  1.00  0.00     0.008 C 
HETATM   23  C15 UNL     1       1.778  52.472 -17.513  1.00  0.00     0.014 C 
BRANCH  22  24
HETATM   24  C16 UNL     1       0.848  50.989 -15.676  1.00  0.00    -0.026 C 
HETATM   25  C17 UNL     1       1.790  51.336 -14.781  1.00  0.00    -0.026 C 
BRANCH  25  26
HETATM   26  C18 UNL     1       1.967  50.646 -13.443  1.00  0.00     0.007 C 
HETATM   27  C19 UNL     1       2.366  51.685 -12.391  1.00  0.00     0.014 C 
BRANCH  26  28
HETATM   28  C20 UNL     1       2.945  49.442 -13.553  1.00  0.00    -0.015 C 
HETATM   29  C21 UNL     1       4.394  49.832 -13.863  1.00  0.00     0.010 C 
HETATM   30  C22 UNL     1       2.911  48.578 -12.287  1.00  0.00     0.010 C 
ENDBRANCH  26  28
ENDBRANCH  25  26
ENDBRANCH  22  24
ENDBRANCH  11  22
BRANCH   1  31
HETATM   31  O2  UNL     1      -3.562  49.440 -27.321  1.00  0.00    -0.316 OA
BRANCH  31  32
HETATM   32  C2  UNL     1      -4.497  48.455 -27.394  1.00  0.00     0.255 C 
HETATM   33  C1  UNL     1      -4.810  48.154 -28.828  1.00  0.00     0.126 C 
HETATM   34  O1  UNL     1      -5.033  47.904 -26.444  1.00  0.00    -0.266 OA
ENDBRANCH  31  32
ENDBRANCH   1  31
TORSDOF 6
ENDMDL
MODEL 3
REMARK minimizedAffinity -8.7273531
REMARK  6 active torsions:
REMARK  status: ('A' for Active; 'I' for Inactive)
REMARK    1  A    between atoms: C2_2  and  O2_4 
REMARK    2  A    between atoms: O2_4  and  C3_5 
REMARK    3  A    between atoms: C13_15  and  C14_16 
REMARK    4  A    between atoms: C14_16  and  C16_18 
REMARK    5  A    between atoms: C17_19  and  C18_20 
REMARK    6  A    between atoms: C18_20  and  C20_22 
ROOT
HETATM    1  C3  UNL     1      -1.673  51.710 -26.414  1.00  0.00     0.135 C 
HETATM    2  C4  UNL     1      -0.228  51.803 -25.912  1.00  0.00     0.034 C 
HETATM    3  C5  UNL     1      -0.054  51.153 -24.539  1.00  0.00     0.015 C 
HETATM    4  C6  UNL     1      -1.028  51.719 -23.468  1.00  0.00     0.001 C 
HETATM    5  C7  UNL     1      -0.614  53.183 -23.164  1.00  0.00     0.019 C 
HETATM    6  C8  UNL     1      -0.990  50.797 -22.178  1.00  0.00     0.039 C 
HETATM    7  C9  UNL     1      -0.127  51.310 -21.001  1.00  0.00     0.010 C 
HETATM    8  C10 UNL     1      -0.200  50.404 -19.757  1.00  0.00     0.010 C 
HETATM    9  C11 UNL     1      -1.654  50.179 -19.302  1.00  0.00    -0.033 C 
HETATM   10  C12 UNL     1      -2.235  51.505 -18.776  1.00  0.00     0.016 C 
HETATM   11  C13 UNL     1      -1.840  49.006 -18.290  1.00  0.00     0.001 C 
HETATM   12  C23 UNL     1      -3.326  48.597 -18.478  1.00  0.00     0.006 C 
HETATM   13  C24 UNL     1      -3.730  49.061 -19.891  1.00  0.00     0.009 C 
HETATM   14  C25 UNL     1      -2.425  49.572 -20.500  1.00  0.00     0.036 C 
HETATM   15  C26 UNL     1      -2.459  50.418 -21.777  1.00  0.00     0.123 C 
HETATM   16  C27 UNL     1      -3.401  51.596 -21.804  1.00  0.00     0.014 C 
HETATM   17  C28 UNL     1      -3.452  52.217 -22.991  1.00  0.00     0.014 C 
HETATM   18  C29 UNL     1      -2.496  51.644 -24.013  1.00  0.00     0.124 C 
HETATM   19  C30 UNL     1      -2.659  52.290 -25.391  1.00  0.00     0.079 C 
HETATM   20  O3  UNL     1      -2.817  50.234 -24.168  1.00  0.00    -0.223 OA
HETATM   21  O4  UNL     1      -2.952  49.558 -22.843  1.00  0.00    -0.224 OA
ENDROOT
BRANCH  11  22
HETATM   22  C14 UNL     1      -1.367  49.167 -16.819  1.00  0.00     0.008 C 
HETATM   23  C15 UNL     1      -2.575  49.032 -15.874  1.00  0.00     0.014 C 
BRANCH  22  24
HETATM   24  C16 UNL     1      -0.542  50.405 -16.523  1.00  0.00    -0.026 C 
HETATM   25  C17 UNL     1       0.736  50.453 -16.110  1.00  0.00    -0.026 C 
BRANCH  25  26
HETATM   26  C18 UNL     1       1.485  51.745 -15.850  1.00  0.00     0.007 C 
HETATM   27  C19 UNL     1       1.526  52.570 -17.139  1.00  0.00     0.014 C 
BRANCH  26  28
HETATM   28  C20 UNL     1       2.880  51.473 -15.221  1.00  0.00    -0.015 C 
HETATM   29  C21 UNL     1       4.014  52.320 -15.811  1.00  0.00     0.010 C 
HETATM   30  C22 UNL     1       2.851  51.651 -13.699  1.00  0.00     0.010 C 
ENDBRANCH  26  28
ENDBRANCH  25  26
ENDBRANCH  22  24
ENDBRANCH  11  22
BRANCH   1  31
HETATM   31  O2  UNL     1      -1.824  52.479 -27.624  1.00  0.00    -0.316 OA
BRANCH  31  32
HETATM   32  C2  UNL     1      -0.852  53.397 -27.879  1.00  0.00     0.255 C 
HETATM   33  C1  UNL     1       0.300  52.739 -28.576  1.00  0.00     0.126 C 
HETATM   34  O1  UNL     1      -0.885  54.578 -27.571  1.00  0.00    -0.266 OA
ENDBRANCH  31  32
ENDBRANCH   1  31
TORSDOF 6
ENDMDL
MODEL 4
REMARK minimizedAffinity -8.72292709
REMARK  6 active torsions:
REMARK  status: ('A' for Active; 'I' for Inactive)
REMARK    1  A    between atoms: C2_2  and  O2_4 
REMARK    2  A    between atoms: O2_4  and  C3_5 
REMARK    3  A    between atoms: C13_15  and  C14_16 
REMARK    4  A    between atoms: C14_16  and  C16_18 
REMARK    5  A    between atoms: C17_19  and  C18_20 
REMARK    6  A    between atoms: C18_20  and  C20_22 
ROOT
HETATM    1  C3  UNL     1      -0.507  52.840 -26.099  1.00  0.00     0.135 C 
HETATM    2  C4  UNL     1      -1.463  52.240 -27.137  1.00  0.00     0.034 C 
HETATM    3  C5  UNL     1      -2.773  51.769 -26.505  1.00  0.00     0.015 C 
HETATM    4  C6  UNL     1      -2.561  50.768 -25.334  1.00  0.00     0.001 C 
HETATM    5  C7  UNL     1      -2.016  49.442 -25.925  1.00  0.00     0.019 C 
HETATM    6  C8  UNL     1      -3.928  50.569 -24.554  1.00  0.00     0.039 C 
HETATM    7  C9  UNL     1      -4.725  49.289 -24.896  1.00  0.00     0.010 C 
HETATM    8  C10 UNL     1      -5.999  49.124 -24.045  1.00  0.00     0.010 C 
HETATM    9  C11 UNL     1      -5.688  49.179 -22.538  1.00  0.00    -0.033 C 
HETATM   10  C12 UNL     1      -4.866  47.937 -22.142  1.00  0.00     0.016 C 
HETATM   11  C13 UNL     1      -6.938  49.380 -21.627  1.00  0.00     0.001 C 
HETATM   12  C23 UNL     1      -6.348  50.004 -20.333  1.00  0.00     0.006 C 
HETATM   13  C24 UNL     1      -5.018  50.669 -20.739  1.00  0.00     0.009 C 
HETATM   14  C25 UNL     1      -4.983  50.529 -22.260  1.00  0.00     0.036 C 
HETATM   15  C26 UNL     1      -3.675  50.775 -23.019  1.00  0.00     0.123 C 
HETATM   16  C27 UNL     1      -2.441  50.061 -22.523  1.00  0.00     0.014 C 
HETATM   17  C28 UNL     1      -1.320  50.412 -23.169  1.00  0.00     0.014 C 
HETATM   18  C29 UNL     1      -1.557  51.387 -24.301  1.00  0.00     0.124 C 
HETATM   19  C30 UNL     1      -0.253  51.863 -24.944  1.00  0.00     0.079 C 
HETATM   20  O3  UNL     1      -2.202  52.562 -23.737  1.00  0.00    -0.223 OA
HETATM   21  O4  UNL     1      -3.346  52.184 -22.855  1.00  0.00    -0.224 OA
ENDROOT
BRANCH  11  22
HETATM   22  C14 UNL     1      -7.939  48.210 -21.414  1.00  0.00     0.008 C 
HETATM   23  C15 UNL     1      -8.689  47.930 -22.729  1.00  0.00     0.014 C 
BRANCH  22  24
HETATM   24  C16 UNL     1      -8.882  48.355 -20.235  1.00  0.00    -0.026 C 
HETATM   25  C17 UNL     1     -10.035  47.696 -20.029  1.00  0.00    -0.026 C 
BRANCH  25  26
HETATM   26  C18 UNL     1     -10.910  47.899 -18.808  1.00  0.00     0.007 C 
HETATM   27  C19 UNL     1     -10.243  47.240 -17.597  1.00  0.00     0.014 C 
BRANCH  26  28
HETATM   28  C20 UNL     1     -12.367  47.426 -19.070  1.00  0.00    -0.015 C 
HETATM   29  C21 UNL     1     -13.130  47.002 -17.810  1.00  0.00     0.010 C 
HETATM   30  C22 UNL     1     -13.175  48.493 -19.819  1.00  0.00     0.010 C 
ENDBRANCH  26  28
ENDBRANCH  25  26
ENDBRANCH  22  24
ENDBRANCH  11  22
BRANCH   1  31
HETATM   31  O2  UNL     1       0.771  53.112 -26.708  1.00  0.00    -0.316 OA
BRANCH  31  32
HETATM   32  C2  UNL     1       1.357  52.076 -27.368  1.00  0.00     0.255 C 
HETATM   33  C1  UNL     1       2.484  51.524 -26.551  1.00  0.00     0.126 C 
HETATM   34  O1  UNL     1       1.041  51.661 -28.473  1.00  0.00    -0.266 OA
ENDBRANCH  31  32
ENDBRANCH   1  31
TORSDOF 6
ENDMDL
MODEL 5
REMARK minimizedAffinity -8.71613026
REMARK  6 active torsions:
REMARK  status: ('A' for Active; 'I' for Inactive)
REMARK    1  A    between atoms: C2_2  and  O2_4 
REMARK    2  A    between atoms: O2_4  and  C3_5 
REMARK    3  A    between atoms: C13_15  and  C14_16 
REMARK    4  A    between atoms: C14_16  and  C16_18 
REMARK    5  A    between atoms: C17_19  and  C18_20 
REMARK    6  A    between atoms: C18_20  and  C20_22 
ROOT
HETATM    1  C3  UNL     1      -7.122  48.781 -24.394  1.00  0.00     0.135 C 
HETATM    2  C4  UNL     1      -7.506  49.134 -22.952  1.00  0.00     0.034 C 
HETATM    3  C5  UNL     1      -6.482  50.060 -22.297  1.00  0.00     0.015 C 
HETATM    4  C6  UNL     1      -5.034  49.497 -22.340  1.00  0.00     0.001 C 
HETATM    5  C7  UNL     1      -4.968  48.261 -21.404  1.00  0.00     0.019 C 
HETATM    6  C8  UNL     1      -4.011  50.634 -21.918  1.00  0.00     0.039 C 
HETATM    7  C9  UNL     1      -3.497  50.579 -20.460  1.00  0.00     0.010 C 
HETATM    8  C10 UNL     1      -2.450  51.665 -20.147  1.00  0.00     0.010 C 
HETATM    9  C11 UNL     1      -1.270  51.621 -21.136  1.00  0.00    -0.033 C 
HETATM   10  C12 UNL     1      -0.471  50.322 -20.918  1.00  0.00     0.016 C 
HETATM   11  C13 UNL     1      -0.362  52.889 -21.115  1.00  0.00     0.001 C 
HETATM   12  C23 UNL     1       0.296  52.887 -22.521  1.00  0.00     0.006 C 
HETATM   13  C24 UNL     1      -0.640  52.075 -23.438  1.00  0.00     0.009 C 
HETATM   14  C25 UNL     1      -1.855  51.782 -22.561  1.00  0.00     0.036 C 
HETATM   15  C26 UNL     1      -2.872  50.722 -22.995  1.00  0.00     0.123 C 
HETATM   16  C27 UNL     1      -2.336  49.371 -23.399  1.00  0.00     0.014 C 
HETATM   17  C28 UNL     1      -3.274  48.537 -23.869  1.00  0.00     0.014 C 
HETATM   18  C29 UNL     1      -4.673  49.112 -23.817  1.00  0.00     0.124 C 
HETATM   19  C30 UNL     1      -5.707  48.192 -24.467  1.00  0.00     0.079 C 
HETATM   20  O3  UNL     1      -4.665  50.348 -24.584  1.00  0.00    -0.223 OA
HETATM   21  O4  UNL     1      -3.509  51.215 -24.207  1.00  0.00    -0.224 OA
ENDROOT
BRANCH  11  22
HETATM   22  C14 UNL     1       0.602  53.133 -19.921  1.00  0.00     0.008 C 
HETATM   23  C15 UNL     1       2.033  53.341 -20.451  1.00  0.00     0.014 C 
BRANCH  22  24
HETATM   24  C16 UNL     1       0.547  52.106 -18.807  1.00  0.00    -0.026 C 
HETATM   25  C17 UNL     1       1.108  52.194 -17.588  1.00  0.00    -0.026 C 
BRANCH  25  26
HETATM   26  C18 UNL     1       0.987  51.115 -16.530  1.00  0.00     0.007 C 
HETATM   27  C19 UNL     1      -0.463  51.047 -16.045  1.00  0.00     0.014 C 
BRANCH  26  28
HETATM   28  C20 UNL     1       2.031  51.316 -15.396  1.00  0.00    -0.015 C 
HETATM   29  C21 UNL     1       3.205  52.227 -15.774  1.00  0.00     0.010 C 
HETATM   30  C22 UNL     1       1.371  51.842 -14.116  1.00  0.00     0.010 C 
ENDBRANCH  26  28
ENDBRANCH  25  26
ENDBRANCH  22  24
ENDBRANCH  11  22
BRANCH   1  31
HETATM   31  O2  UNL     1      -8.021  47.778 -24.911  1.00  0.00    -0.316 OA
BRANCH  31  32
HETATM   32  C2  UNL     1      -8.939  48.205 -25.820  1.00  0.00     0.255 C 
HETATM   33  C1  UNL     1      -8.721  47.510 -27.129  1.00  0.00     0.126 C 
HETATM   34  O1  UNL     1      -9.803  49.047 -25.624  1.00  0.00    -0.266 OA
ENDBRANCH  31  32
ENDBRANCH   1  31
TORSDOF 6
ENDMDL
MODEL 6
REMARK minimizedAffinity -8.582654
REMARK  6 active torsions:
REMARK  status: ('A' for Active; 'I' for Inactive)
REMARK    1  A    between atoms: C2_2  and  O2_4 
REMARK    2  A    between atoms: O2_4  and  C3_5 
REMARK    3  A    between atoms: C13_15  and  C14_16 
REMARK    4  A    between atoms: C14_16  and  C16_18 
REMARK    5  A    between atoms: C17_19  and  C18_20 
REMARK    6  A    between atoms: C18_20  and  C20_22 
ROOT
HETATM    1  C3  UNL     1      -0.457  52.841 -25.946  1.00  0.00     0.135 C 
HETATM    2  C4  UNL     1      -1.431  52.324 -27.011  1.00  0.00     0.034 C 
HETATM    3  C5  UNL     1      -2.766  51.892 -26.406  1.00  0.00     0.015 C 
HETATM    4  C6  UNL     1      -2.611  50.841 -25.271  1.00  0.00     0.001 C 
HETATM    5  C7  UNL     1      -2.122  49.513 -25.906  1.00  0.00     0.019 C 
HETATM    6  C8  UNL     1      -3.992  50.677 -24.508  1.00  0.00     0.039 C 
HETATM    7  C9  UNL     1      -4.844  49.448 -24.902  1.00  0.00     0.010 C 
HETATM    8  C10 UNL     1      -6.131  49.312 -24.066  1.00  0.00     0.010 C 
HETATM    9  C11 UNL     1      -5.831  49.298 -22.556  1.00  0.00    -0.033 C 
HETATM   10  C12 UNL     1      -5.070  48.006 -22.200  1.00  0.00     0.016 C 
HETATM   11  C13 UNL     1      -7.078  49.523 -21.647  1.00  0.00     0.001 C 
HETATM   12  C23 UNL     1      -6.472  50.073 -20.327  1.00  0.00     0.006 C 
HETATM   13  C24 UNL     1      -5.109  50.690 -20.699  1.00  0.00     0.009 C 
HETATM   14  C25 UNL     1      -5.067  50.603 -22.224  1.00  0.00     0.036 C 
HETATM   15  C26 UNL     1      -3.742  50.815 -22.964  1.00  0.00     0.123 C 
HETATM   16  C27 UNL     1      -2.547  50.028 -22.487  1.00  0.00     0.014 C 
HETATM   17  C28 UNL     1      -1.406  50.350 -23.112  1.00  0.00     0.014 C 
HETATM   18  C29 UNL     1      -1.588  51.375 -24.209  1.00  0.00     0.124 C 
HETATM   19  C30 UNL     1      -0.258  51.813 -24.825  1.00  0.00     0.079 C 
HETATM   20  O3  UNL     1      -2.183  52.557 -23.607  1.00  0.00    -0.223 OA
HETATM   21  O4  UNL     1      -3.351  52.201 -22.748  1.00  0.00    -0.224 OA
ENDROOT
BRANCH  11  22
HETATM   22  C14 UNL     1      -8.133  48.395 -21.484  1.00  0.00     0.008 C 
HETATM   23  C15 UNL     1      -8.123  47.889 -20.029  1.00  0.00     0.014 C 
BRANCH  22  24
HETATM   24  C16 UNL     1      -8.047  47.260 -22.486  1.00  0.00    -0.026 C 
HETATM   25  C17 UNL     1      -8.907  46.986 -23.483  1.00  0.00    -0.026 C 
BRANCH  25  26
HETATM   26  C18 UNL     1      -8.731  45.830 -24.447  1.00  0.00     0.007 C 
HETATM   27  C19 UNL     1      -7.993  44.692 -23.737  1.00  0.00     0.014 C 
BRANCH  26  28
HETATM   28  C20 UNL     1      -8.061  46.296 -25.771  1.00  0.00    -0.015 C 
HETATM   29  C21 UNL     1      -8.179  45.294 -26.925  1.00  0.00     0.010 C 
HETATM   30  C22 UNL     1      -8.605  47.657 -26.222  1.00  0.00     0.010 C 
ENDBRANCH  26  28
ENDBRANCH  25  26
ENDBRANCH  22  24
ENDBRANCH  11  22
BRANCH   1  31
HETATM   31  O2  UNL     1       0.837  53.077 -26.536  1.00  0.00    -0.316 OA
BRANCH  31  32
HETATM   32  C2  UNL     1       1.368  52.049 -27.253  1.00  0.00     0.255 C 
HETATM   33  C1  UNL     1       2.527  51.456 -26.512  1.00  0.00     0.126 C 
HETATM   34  O1  UNL     1       0.985  51.668 -28.349  1.00  0.00    -0.266 OA
ENDBRANCH  31  32
ENDBRANCH   1  31
TORSDOF 6
ENDMDL
MODEL 7
REMARK minimizedAffinity -8.52843189
REMARK  6 active torsions:
REMARK  status: ('A' for Active; 'I' for Inactive)
REMARK    1  A    between atoms: C2_2  and  O2_4 
REMARK    2  A    between atoms: O2_4  and  C3_5 
REMARK    3  A    between atoms: C13_15  and  C14_16 
REMARK    4  A    between atoms: C14_16  and  C16_18 
REMARK    5  A    between atoms: C17_19  and  C18_20 
REMARK    6  A    between atoms: C18_20  and  C20_22 
ROOT
HETATM    1  C3  UNL     1       7.764  62.977 -34.352  1.00  0.00     0.135 C 
HETATM    2  C4  UNL     1       6.326  62.598 -33.975  1.00  0.00     0.034 C 
HETATM    3  C5  UNL     1       5.303  63.222 -34.924  1.00  0.00     0.015 C 
HETATM    4  C6  UNL     1       5.435  64.766 -35.035  1.00  0.00     0.001 C 
HETATM    5  C7  UNL     1       5.008  65.387 -33.679  1.00  0.00     0.019 C 
HETATM    6  C8  UNL     1       4.552  65.287 -36.246  1.00  0.00     0.039 C 
HETATM    7  C9  UNL     1       3.178  65.892 -35.874  1.00  0.00     0.010 C 
HETATM    8  C10 UNL     1       2.412  66.447 -37.090  1.00  0.00     0.010 C 
HETATM    9  C11 UNL     1       3.255  67.468 -37.877  1.00  0.00    -0.033 C 
HETATM   10  C12 UNL     1       3.462  68.729 -37.016  1.00  0.00     0.016 C 
HETATM   11  C13 UNL     1       2.705  67.801 -39.298  1.00  0.00     0.001 C 
HETATM   12  C23 UNL     1       3.961  68.295 -40.066  1.00  0.00     0.006 C 
HETATM   13  C24 UNL     1       5.180  67.687 -39.344  1.00  0.00     0.009 C 
HETATM   14  C25 UNL     1       4.565  66.758 -38.299  1.00  0.00     0.036 C 
HETATM   15  C26 UNL     1       5.432  66.211 -37.160  1.00  0.00     0.123 C 
HETATM   16  C27 UNL     1       6.255  67.204 -36.377  1.00  0.00     0.014 C 
HETATM   17  C28 UNL     1       7.067  66.637 -35.473  1.00  0.00     0.014 C 
HETATM   18  C29 UNL     1       6.918  65.134 -35.389  1.00  0.00     0.124 C 
HETATM   19  C30 UNL     1       7.936  64.499 -34.439  1.00  0.00     0.079 C 
HETATM   20  O3  UNL     1       7.182  64.594 -36.713  1.00  0.00    -0.223 OA
HETATM   21  O4  UNL     1       6.428  65.339 -37.765  1.00  0.00    -0.224 OA
ENDROOT
BRANCH  11  22
HETATM   22  C14 UNL     1       1.433  68.680 -39.451  1.00  0.00     0.008 C 
HETATM   23  C15 UNL     1       0.345  68.183 -38.482  1.00  0.00     0.014 C 
BRANCH  22  24
HETATM   24  C16 UNL     1       0.911  68.845 -40.865  1.00  0.00    -0.026 C 
HETATM   25  C17 UNL     1      -0.306  69.277 -41.239  1.00  0.00    -0.026 C 
BRANCH  25  26
HETATM   26  C18 UNL     1      -0.736  69.420 -42.686  1.00  0.00     0.007 C 
HETATM   27  C19 UNL     1      -0.221  70.755 -43.232  1.00  0.00     0.014 C 
BRANCH  26  28
HETATM   28  C20 UNL     1      -2.269  69.216 -42.843  1.00  0.00    -0.015 C 
HETATM   29  C21 UNL     1      -2.671  67.833 -43.369  1.00  0.00     0.010 C 
HETATM   30  C22 UNL     1      -3.007  69.493 -41.527  1.00  0.00     0.010 C 
ENDBRANCH  26  28
ENDBRANCH  25  26
ENDBRANCH  22  24
ENDBRANCH  11  22
BRANCH   1  31
HETATM   31  O2  UNL     1       8.677  62.509 -33.338  1.00  0.00    -0.316 OA
BRANCH  31  32
HETATM   32  C2  UNL     1       9.864  63.167 -33.248  1.00  0.00     0.255 C 
HETATM   33  C1  UNL     1      10.749  62.782 -34.394  1.00  0.00     0.126 C 
HETATM   34  O1  UNL     1      10.189  63.940 -32.359  1.00  0.00    -0.266 OA
ENDBRANCH  31  32
ENDBRANCH   1  31
TORSDOF 6
ENDMDL
MODEL 8
REMARK minimizedAffinity -8.43476009
REMARK  6 active torsions:
REMARK  status: ('A' for Active; 'I' for Inactive)
REMARK    1  A    between atoms: C2_2  and  O2_4 
REMARK    2  A    between atoms: O2_4  and  C3_5 
REMARK    3  A    between atoms: C13_15  and  C14_16 
REMARK    4  A    between atoms: C14_16  and  C16_18 
REMARK    5  A    between atoms: C17_19  and  C18_20 
REMARK    6  A    between atoms: C18_20  and  C20_22 
ROOT
HETATM    1  C3  UNL     1      -3.485  51.619 -24.063  1.00  0.00     0.135 C 
HETATM    2  C4  UNL     1      -4.723  51.532 -23.164  1.00  0.00     0.034 C 
HETATM    3  C5  UNL     1      -4.370  51.689 -21.685  1.00  0.00     0.015 C 
HETATM    4  C6  UNL     1      -3.292  50.678 -21.204  1.00  0.00     0.001 C 
HETATM    5  C7  UNL     1      -3.918  49.259 -21.218  1.00  0.00     0.019 C 
HETATM    6  C8  UNL     1      -2.775  51.100 -19.765  1.00  0.00     0.039 C 
HETATM    7  C9  UNL     1      -3.375  50.321 -18.572  1.00  0.00     0.010 C 
HETATM    8  C10 UNL     1      -2.770  50.731 -17.215  1.00  0.00     0.010 C 
HETATM    9  C11 UNL     1      -1.235  50.612 -17.218  1.00  0.00    -0.033 C 
HETATM   10  C12 UNL     1      -0.839  49.127 -17.319  1.00  0.00     0.016 C 
HETATM   11  C13 UNL     1      -0.529  51.337 -16.031  1.00  0.00     0.001 C 
HETATM   12  C23 UNL     1       0.903  51.605 -16.569  1.00  0.00     0.006 C 
HETATM   13  C24 UNL     1       0.796  51.609 -18.107  1.00  0.00     0.009 C 
HETATM   14  C25 UNL     1      -0.704  51.496 -18.374  1.00  0.00     0.036 C 
HETATM   15  C26 UNL     1      -1.206  51.141 -19.778  1.00  0.00     0.123 C 
HETATM   16  C27 UNL     1      -0.589  49.941 -20.452  1.00  0.00     0.014 C 
HETATM   17  C28 UNL     1      -0.999  49.762 -21.715  1.00  0.00     0.014 C 
HETATM   18  C29 UNL     1      -2.047  50.761 -22.155  1.00  0.00     0.124 C 
HETATM   19  C30 UNL     1      -2.411  50.611 -23.634  1.00  0.00     0.079 C 
HETATM   20  O3  UNL     1      -1.479  52.089 -21.992  1.00  0.00    -0.223 OA
HETATM   21  O4  UNL     1      -0.844  52.249 -20.650  1.00  0.00    -0.224 OA
ENDROOT
BRANCH  11  22
HETATM   22  C14 UNL     1      -0.608  50.738 -14.600  1.00  0.00     0.008 C 
HETATM   23  C15 UNL     1      -1.340  49.384 -14.649  1.00  0.00     0.014 C 
BRANCH  22  24
HETATM   24  C16 UNL     1      -1.168  51.655 -13.530  1.00  0.00    -0.026 C 
HETATM   25  C17 UNL     1      -1.205  51.434 -12.204  1.00  0.00    -0.026 C 
BRANCH  25  26
HETATM   26  C18 UNL     1      -1.778  52.421 -11.206  1.00  0.00     0.007 C 
HETATM   27  C19 UNL     1      -1.266  52.074  -9.806  1.00  0.00     0.014 C 
BRANCH  26  28
HETATM   28  C20 UNL     1      -3.326  52.502 -11.318  1.00  0.00    -0.015 C 
HETATM   29  C21 UNL     1      -4.072  51.394 -10.566  1.00  0.00     0.010 C 
HETATM   30  C22 UNL     1      -3.849  53.869 -10.858  1.00  0.00     0.010 C 
ENDBRANCH  26  28
ENDBRANCH  25  26
ENDBRANCH  22  24
ENDBRANCH  11  22
BRANCH   1  31
HETATM   31  O2  UNL     1      -3.841  51.300 -25.423  1.00  0.00    -0.316 OA
BRANCH  31  32
HETATM   32  C2  UNL     1      -3.093  51.888 -26.395  1.00  0.00     0.255 C 
HETATM   33  C1  UNL     1      -2.862  50.921 -27.516  1.00  0.00     0.126 C 
HETATM   34  O1  UNL     1      -2.646  53.025 -26.365  1.00  0.00    -0.266 OA
ENDBRANCH  31  32
ENDBRANCH   1  31
TORSDOF 6
ENDMDL
MODEL 9
REMARK minimizedAffinity -8.36916733
REMARK  6 active torsions:
REMARK  status: ('A' for Active; 'I' for Inactive)
REMARK    1  A    between atoms: C2_2  and  O2_4 
REMARK    2  A    between atoms: O2_4  and  C3_5 
REMARK    3  A    between atoms: C13_15  and  C14_16 
REMARK    4  A    between atoms: C14_16  and  C16_18 
REMARK    5  A    between atoms: C17_19  and  C18_20 
REMARK    6  A    between atoms: C18_20  and  C20_22 
ROOT
HETATM    1  C3  UNL     1      -0.593  52.155 -27.484  1.00  0.00     0.135 C 
HETATM    2  C4  UNL     1       0.515  52.077 -26.428  1.00  0.00     0.034 C 
HETATM    3  C5  UNL     1       0.172  51.093 -25.309  1.00  0.00     0.015 C 
HETATM    4  C6  UNL     1      -1.192  51.393 -24.629  1.00  0.00     0.001 C 
HETATM    5  C7  UNL     1      -1.056  52.719 -23.835  1.00  0.00     0.019 C 
HETATM    6  C8  UNL     1      -1.603  50.171 -23.704  1.00  0.00     0.039 C 
HETATM    7  C9  UNL     1      -1.333  50.343 -22.191  1.00  0.00     0.010 C 
HETATM    8  C10 UNL     1      -1.828  49.151 -21.349  1.00  0.00     0.010 C 
HETATM    9  C11 UNL     1      -3.319  48.857 -21.601  1.00  0.00    -0.033 C 
HETATM   10  C12 UNL     1      -4.167  50.021 -21.053  1.00  0.00     0.016 C 
HETATM   11  C13 UNL     1      -3.801  47.470 -21.074  1.00  0.00     0.001 C 
HETATM   12  C23 UNL     1      -5.048  47.164 -21.948  1.00  0.00     0.006 C 
HETATM   13  C24 UNL     1      -4.884  47.985 -23.243  1.00  0.00     0.009 C 
HETATM   14  C25 UNL     1      -3.490  48.599 -23.118  1.00  0.00     0.036 C 
HETATM   15  C26 UNL     1      -3.074  49.743 -24.047  1.00  0.00     0.123 C 
HETATM   16  C27 UNL     1      -4.017  50.915 -24.170  1.00  0.00     0.014 C 
HETATM   17  C28 UNL     1      -3.635  51.820 -25.082  1.00  0.00     0.014 C 
HETATM   18  C29 UNL     1      -2.305  51.501 -25.729  1.00  0.00     0.124 C 
HETATM   19  C30 UNL     1      -1.950  52.481 -26.848  1.00  0.00     0.079 C 
HETATM   20  O3  UNL     1      -2.422  50.186 -26.340  1.00  0.00    -0.223 OA
HETATM   21  O4  UNL     1      -3.025  49.199 -25.397  1.00  0.00    -0.224 OA
ENDROOT
BRANCH  11  22
HETATM   22  C14 UNL     1      -3.976  47.238 -19.548  1.00  0.00     0.008 C 
HETATM   23  C15 UNL     1      -5.459  46.961 -19.238  1.00  0.00     0.014 C 
BRANCH  22  24
HETATM   24  C16 UNL     1      -3.391  48.307 -18.646  1.00  0.00    -0.026 C 
HETATM   25  C17 UNL     1      -2.310  48.202 -17.853  1.00  0.00    -0.026 C 
BRANCH  25  26
HETATM   26  C18 UNL     1      -1.791  49.336 -16.991  1.00  0.00     0.007 C 
HETATM   27  C19 UNL     1      -2.492  50.636 -17.395  1.00  0.00     0.014 C 
BRANCH  26  28
HETATM   28  C20 UNL     1      -0.239  49.409 -17.029  1.00  0.00    -0.015 C 
HETATM   29  C21 UNL     1       0.324  50.833 -17.106  1.00  0.00     0.010 C 
HETATM   30  C22 UNL     1       0.384  48.681 -15.832  1.00  0.00     0.010 C 
ENDBRANCH  26  28
ENDBRANCH  25  26
ENDBRANCH  22  24
ENDBRANCH  11  22
BRANCH   1  31
HETATM   31  O2  UNL     1      -0.304  53.212 -28.422  1.00  0.00    -0.316 OA
BRANCH  31  32
HETATM   32  C2  UNL     1      -0.910  54.407 -28.187  1.00  0.00     0.255 C 
HETATM   33  C1  UNL     1      -0.055  55.243 -27.285  1.00  0.00     0.126 C 
HETATM   34  O1  UNL     1      -1.999  54.755 -28.618  1.00  0.00    -0.266 OA
ENDBRANCH  31  32
ENDBRANCH   1  31
TORSDOF 6
ENDMDL
