MODEL 1
REMARK minimizedAffinity -9.31959534
REMARK CNNscore 0.616476417
REMARK CNNaffinity 6.85338926
REMARK  10 active torsions:
REMARK  status: ('A' for Active; 'I' for Inactive)
REMARK    1  A    between atoms: C19_21  and  O3_22 
REMARK    2  A    between atoms: C19_21  and  C20_23 
REMARK    3  A    between atoms: C20_23  and  C21_25 
REMARK    4  A    between atoms: C21_25  and  O5_26 
REMARK    5  A    between atoms: O5_26  and  C22_27 
REMARK    6  A    between atoms: C22_27  and  C23_29 
REMARK    7  A    between atoms: C23_29  and  C24_30 
REMARK    8  A    between atoms: C24_30  and  C25_31 
REMARK       I    between atoms: C25_31  and  N1_33 
REMARK    9  A    between atoms: N1_33  and  C26_34 
REMARK   10  A    between atoms: C26_34  and  C27_35 
ROOT
HETATM    1  C1  UNL     1       0.653  49.280 -15.594  1.00  0.00     0.021 C 
HETATM    2  C2  UNL     1      -0.023  50.545 -16.195  1.00  0.00    -0.009 C 
HETATM    3  C3  UNL     1       0.676  51.794 -15.587  1.00  0.00     0.022 C 
HETATM    4  C4  UNL     1       0.483  51.928 -14.078  1.00  0.00     0.084 C 
HETATM    5  C5  UNL     1      -0.976  51.813 -13.699  1.00  0.00     0.149 C 
HETATM    6  O1  UNL     1      -1.406  52.246 -12.629  1.00  0.00    -0.293 OA
HETATM    7  C6  UNL     1      -1.905  51.127 -14.631  1.00  0.00     0.053 C 
HETATM    8  C7  UNL     1      -1.483  50.547 -15.771  1.00  0.00    -0.067 C 
HETATM    9  C8  UNL     1      -2.495  49.923 -16.697  1.00  0.00     0.035 C 
HETATM   10  C9  UNL     1      -1.947  48.916 -17.712  1.00  0.00     0.010 C 
HETATM   11  C10 UNL     1      -0.580  49.241 -18.362  1.00  0.00     0.003 C 
HETATM   12  C11 UNL     1       0.111  50.495 -17.756  1.00  0.00     0.072 C 
HETATM   13  C12 UNL     1      -0.314  51.768 -18.505  1.00  0.00     0.133 C 
HETATM   14  O2  UNL     1       0.233  52.854 -18.305  1.00  0.00    -0.297 OA
HETATM   15  C13 UNL     1      -1.386  51.657 -19.566  1.00  0.00     0.091 C 
HETATM   16  C14 UNL     1      -1.017  50.581 -20.598  1.00  0.00     0.005 C 
HETATM   17  C15 UNL     1       0.147  51.123 -21.465  1.00  0.00     0.019 C 
HETATM   18  C16 UNL     1      -0.513  49.264 -19.914  1.00  0.00     0.002 C 
HETATM   19  C17 UNL     1      -1.193  48.090 -20.645  1.00  0.00     0.009 C 
HETATM   20  C18 UNL     1      -1.832  48.701 -21.895  1.00  0.00     0.047 C 
HETATM   21  C19 UNL     1      -2.236  50.103 -21.441  1.00  0.00     0.128 C 
ENDROOT
BRANCH  21  22
HETATM   22  O3  UNL     1      -3.346  49.889 -20.523  1.00  0.00    -0.381 OA
HETATM   23  H25 UNL     1      -4.059  50.512 -20.790  1.00  0.00     0.211 HD
ENDBRANCH  21  22
BRANCH  21  24
HETATM   24  C20 UNL     1      -2.815  51.040 -22.528  1.00  0.00     0.185 C 
HETATM   25  O4  UNL     1      -2.363  52.195 -22.602  1.00  0.00    -0.292 OA
BRANCH  24  26
HETATM   26  C21 UNL     1      -3.854  50.578 -23.538  1.00  0.00     0.260 C 
BRANCH  26  27
HETATM   27  O5  UNL     1      -4.332  49.258 -23.334  1.00  0.00    -0.314 OA
BRANCH  27  28
HETATM   28  C22 UNL     1      -4.663  48.616 -24.490  1.00  0.00     0.259 C 
HETATM   29  O6  UNL     1      -5.791  48.232 -24.767  1.00  0.00    -0.265 OA
BRANCH  28  30
HETATM   30  C23 UNL     1      -3.500  48.527 -25.448  1.00  0.00     0.120 C 
BRANCH  30  31
HETATM   31  C24 UNL     1      -3.872  48.628 -26.922  1.00  0.00     0.112 C 
BRANCH  31  32
HETATM   32  C25 UNL     1      -3.318  49.883 -27.565  1.00  0.00     0.218 C 
HETATM   33  O7  UNL     1      -3.424  50.122 -28.762  1.00  0.00    -0.274 OA
HETATM   34  N1  UNL     1      -2.656  50.695 -26.676  1.00  0.00    -0.356 N 
HETATM   35  H32 UNL     1      -2.642  50.458 -25.695  1.00  0.00     0.162 HD
BRANCH  34  36
HETATM   36  C26 UNL     1      -2.139  51.991 -27.060  1.00  0.00     0.168 C 
BRANCH  36  37
HETATM   37  C27 UNL     1      -0.646  51.896 -27.104  1.00  0.00     0.000 A 
HETATM   38  C28 UNL     1       0.183  51.872 -28.211  1.00  0.00     0.017 A 
HETATM   39  C29 UNL     1       1.559  51.769 -27.855  1.00  0.00     0.008 A 
HETATM   40  C30 UNL     1       1.737  51.729 -26.490  1.00  0.00     0.050 A 
HETATM   41  S1  UNL     1       0.252  51.801 -25.645  1.00  0.00    -0.105 SA
ENDBRANCH  36  37
ENDBRANCH  34  36
ENDBRANCH  31  32
ENDBRANCH  30  31
ENDBRANCH  28  30
ENDBRANCH  27  28
ENDBRANCH  26  27
ENDBRANCH  24  26
ENDBRANCH  21  24
TORSDOF 10
ENDMDL
MODEL 2
REMARK minimizedAffinity -7.2631917
REMARK CNNscore 0.426610291
REMARK CNNaffinity 6.62476969
REMARK  10 active torsions:
REMARK  status: ('A' for Active; 'I' for Inactive)
REMARK    1  A    between atoms: C19_21  and  O3_22 
REMARK    2  A    between atoms: C19_21  and  C20_23 
REMARK    3  A    between atoms: C20_23  and  C21_25 
REMARK    4  A    between atoms: C21_25  and  O5_26 
REMARK    5  A    between atoms: O5_26  and  C22_27 
REMARK    6  A    between atoms: C22_27  and  C23_29 
REMARK    7  A    between atoms: C23_29  and  C24_30 
REMARK    8  A    between atoms: C24_30  and  C25_31 
REMARK       I    between atoms: C25_31  and  N1_33 
REMARK    9  A    between atoms: N1_33  and  C26_34 
REMARK   10  A    between atoms: C26_34  and  C27_35 
ROOT
HETATM    1  C1  UNL     1     -13.067  45.370 -29.052  1.00  0.00     0.021 C 
HETATM    2  C2  UNL     1     -11.845  45.409 -28.091  1.00  0.00    -0.009 C 
HETATM    3  C3  UNL     1     -11.937  44.173 -27.151  1.00  0.00     0.022 C 
HETATM    4  C4  UNL     1     -13.157  44.195 -26.232  1.00  0.00     0.084 C 
HETATM    5  C5  UNL     1     -13.271  45.514 -25.503  1.00  0.00     0.149 C 
HETATM    6  O1  UNL     1     -13.928  45.631 -24.467  1.00  0.00    -0.293 OA
HETATM    7  C6  UNL     1     -12.598  46.708 -26.073  1.00  0.00     0.053 C 
HETATM    8  C7  UNL     1     -11.944  46.672 -27.251  1.00  0.00    -0.067 C 
HETATM    9  C8  UNL     1     -11.233  47.909 -27.735  1.00  0.00     0.035 C 
HETATM   10  C9  UNL     1     -10.906  47.954 -29.230  1.00  0.00     0.010 C 
HETATM   11  C10 UNL     1     -10.443  46.634 -29.892  1.00  0.00     0.003 C 
HETATM   12  C11 UNL     1     -10.531  45.403 -28.946  1.00  0.00     0.072 C 
HETATM   13  C12 UNL     1      -9.222  45.224 -28.160  1.00  0.00     0.133 C 
HETATM   14  O2  UNL     1      -9.005  44.223 -27.476  1.00  0.00    -0.297 OA
HETATM   15  C13 UNL     1      -8.150  46.282 -28.295  1.00  0.00     0.091 C 
HETATM   16  C14 UNL     1      -7.805  46.519 -29.773  1.00  0.00     0.005 C 
HETATM   17  C15 UNL     1      -7.018  45.288 -30.288  1.00  0.00     0.019 C 
HETATM   18  C16 UNL     1      -9.092  46.651 -30.658  1.00  0.00     0.002 C 
HETATM   19  C17 UNL     1      -8.861  47.842 -31.609  1.00  0.00     0.009 C 
HETATM   20  C18 UNL     1      -7.376  48.191 -31.476  1.00  0.00     0.047 C 
HETATM   21  C19 UNL     1      -7.062  47.865 -30.016  1.00  0.00     0.128 C 
ENDROOT
BRANCH  21  22
HETATM   22  O3  UNL     1      -7.755  48.893 -29.251  1.00  0.00    -0.381 OA
HETATM   23  H25 UNL     1      -7.108  49.245 -28.599  1.00  0.00     0.211 HD
ENDBRANCH  21  22
BRANCH  21  24
HETATM   24  C20 UNL     1      -5.582  48.000 -29.583  1.00  0.00     0.185 C 
HETATM   25  O4  UNL     1      -4.713  47.997 -30.471  1.00  0.00    -0.292 OA
BRANCH  24  26
HETATM   26  C21 UNL     1      -5.169  48.203 -28.134  1.00  0.00     0.260 C 
BRANCH  26  27
HETATM   27  O5  UNL     1      -3.942  48.893 -27.959  1.00  0.00    -0.314 OA
BRANCH  27  28
HETATM   28  C22 UNL     1      -3.399  48.729 -26.720  1.00  0.00     0.259 C 
HETATM   29  O6  UNL     1      -2.285  48.266 -26.510  1.00  0.00    -0.265 OA
BRANCH  28  30
HETATM   30  C23 UNL     1      -4.281  49.286 -25.630  1.00  0.00     0.120 C 
BRANCH  30  31
HETATM   31  C24 UNL     1      -4.290  48.484 -24.335  1.00  0.00     0.112 C 
BRANCH  31  32
HETATM   32  C25 UNL     1      -3.065  48.759 -23.486  1.00  0.00     0.218 C 
HETATM   33  O7  UNL     1      -2.421  47.873 -22.936  1.00  0.00    -0.274 OA
HETATM   34  N1  UNL     1      -2.782  50.099 -23.369  1.00  0.00    -0.356 N 
HETATM   35  H32 UNL     1      -3.329  50.774 -23.883  1.00  0.00     0.162 HD
BRANCH  34  36
HETATM   36  C26 UNL     1      -1.598  50.575 -22.687  1.00  0.00     0.168 C 
BRANCH  36  37
HETATM   37  C27 UNL     1      -1.988  50.945 -21.291  1.00  0.00     0.000 A 
HETATM   38  C28 UNL     1      -3.248  50.950 -20.721  1.00  0.00     0.017 A 
HETATM   39  C29 UNL     1      -3.226  51.368 -19.359  1.00  0.00     0.008 A 
HETATM   40  C30 UNL     1      -1.950  51.659 -18.930  1.00  0.00     0.050 A 
HETATM   41  S1  UNL     1      -0.790  51.441 -20.167  1.00  0.00    -0.105 SA
ENDBRANCH  36  37
ENDBRANCH  34  36
ENDBRANCH  31  32
ENDBRANCH  30  31
ENDBRANCH  28  30
ENDBRANCH  27  28
ENDBRANCH  26  27
ENDBRANCH  24  26
ENDBRANCH  21  24
TORSDOF 10
ENDMDL
MODEL 3
REMARK minimizedAffinity -7.84524536
REMARK CNNscore 0.363886029
REMARK CNNaffinity 6.48955297
REMARK  10 active torsions:
REMARK  status: ('A' for Active; 'I' for Inactive)
REMARK    1  A    between atoms: C19_21  and  O3_22 
REMARK    2  A    between atoms: C19_21  and  C20_23 
REMARK    3  A    between atoms: C20_23  and  C21_25 
REMARK    4  A    between atoms: C21_25  and  O5_26 
REMARK    5  A    between atoms: O5_26  and  C22_27 
REMARK    6  A    between atoms: C22_27  and  C23_29 
REMARK    7  A    between atoms: C23_29  and  C24_30 
REMARK    8  A    between atoms: C24_30  and  C25_31 
REMARK       I    between atoms: C25_31  and  N1_33 
REMARK    9  A    between atoms: N1_33  and  C26_34 
REMARK   10  A    between atoms: C26_34  and  C27_35 
ROOT
HETATM    1  C1  UNL     1      -4.536  48.983 -25.528  1.00  0.00     0.021 C 
HETATM    2  C2  UNL     1      -4.927  48.733 -24.043  1.00  0.00    -0.009 C 
HETATM    3  C3  UNL     1      -5.799  47.447 -23.990  1.00  0.00     0.022 C 
HETATM    4  C4  UNL     1      -7.130  47.580 -24.726  1.00  0.00     0.084 C 
HETATM    5  C5  UNL     1      -7.872  48.827 -24.300  1.00  0.00     0.149 C 
HETATM    6  O1  UNL     1      -9.086  48.951 -24.466  1.00  0.00    -0.293 OA
HETATM    7  C6  UNL     1      -7.105  49.943 -23.693  1.00  0.00     0.053 C 
HETATM    8  C7  UNL     1      -5.763  49.912 -23.570  1.00  0.00    -0.067 C 
HETATM    9  C8  UNL     1      -5.061  51.056 -22.888  1.00  0.00     0.035 C 
HETATM   10  C9  UNL     1      -3.560  51.187 -23.168  1.00  0.00     0.010 C 
HETATM   11  C10 UNL     1      -2.741  49.877 -23.255  1.00  0.00     0.003 C 
HETATM   12  C11 UNL     1      -3.617  48.594 -23.193  1.00  0.00     0.072 C 
HETATM   13  C12 UNL     1      -3.809  48.133 -21.740  1.00  0.00     0.133 C 
HETATM   14  O2  UNL     1      -4.328  47.050 -21.463  1.00  0.00    -0.297 OA
HETATM   15  C13 UNL     1      -3.278  49.011 -20.629  1.00  0.00     0.091 C 
HETATM   16  C14 UNL     1      -1.791  49.325 -20.851  1.00  0.00     0.005 C 
HETATM   17  C15 UNL     1      -0.978  48.036 -20.572  1.00  0.00     0.019 C 
HETATM   18  C16 UNL     1      -1.499  49.746 -22.332  1.00  0.00     0.002 C 
HETATM   19  C17 UNL     1      -0.559  50.968 -22.274  1.00  0.00     0.009 C 
HETATM   20  C18 UNL     1      -0.094  51.057 -20.818  1.00  0.00     0.047 C 
HETATM   21  C19 UNL     1      -1.298  50.550 -20.026  1.00  0.00     0.128 C 
ENDROOT
BRANCH  21  22
HETATM   22  O3  UNL     1      -2.298  51.601 -20.161  1.00  0.00    -0.381 OA
HETATM   23  H25 UNL     1      -2.643  51.781 -19.258  1.00  0.00     0.211 HD
ENDBRANCH  21  22
BRANCH  21  24
HETATM   24  C20 UNL     1      -1.105  50.402 -18.497  1.00  0.00     0.185 C 
HETATM   25  O4  UNL     1      -2.068  49.993 -17.826  1.00  0.00    -0.292 OA
BRANCH  24  26
HETATM   26  C21 UNL     1       0.225  50.669 -17.810  1.00  0.00     0.260 C 
BRANCH  26  27
HETATM   27  O5  UNL     1       0.274  51.873 -17.062  1.00  0.00    -0.314 OA
BRANCH  27  28
HETATM   28  C22 UNL     1       1.397  51.993 -16.300  1.00  0.00     0.259 C 
HETATM   29  O6  UNL     1       2.488  52.343 -16.729  1.00  0.00    -0.265 OA
BRANCH  28  30
HETATM   30  C23 UNL     1       1.123  51.753 -14.835  1.00  0.00     0.120 C 
BRANCH  30  31
HETATM   31  C24 UNL     1       2.288  51.163 -14.050  1.00  0.00     0.112 C 
BRANCH  31  32
HETATM   32  C25 UNL     1       2.371  51.725 -12.646  1.00  0.00     0.218 C 
HETATM   33  O7  UNL     1       3.078  51.235 -11.772  1.00  0.00    -0.274 OA
HETATM   34  N1  UNL     1       1.546  52.805 -12.449  1.00  0.00    -0.356 N 
HETATM   35  H32 UNL     1       1.021  53.183 -13.224  1.00  0.00     0.162 HD
BRANCH  34  36
HETATM   36  C26 UNL     1       1.546  53.555 -11.211  1.00  0.00     0.168 C 
BRANCH  36  37
HETATM   37  C27 UNL     1       0.129  53.902 -10.883  1.00  0.00     0.000 A 
HETATM   38  C28 UNL     1      -0.363  55.056 -10.302  1.00  0.00     0.017 A 
HETATM   39  C29 UNL     1      -1.779  55.023 -10.141  1.00  0.00     0.008 A 
HETATM   40  C30 UNL     1      -2.323  53.850 -10.615  1.00  0.00     0.050 A 
HETATM   41  S1  UNL     1      -1.132  52.792 -11.235  1.00  0.00    -0.105 SA
ENDBRANCH  36  37
ENDBRANCH  34  36
ENDBRANCH  31  32
ENDBRANCH  30  31
ENDBRANCH  28  30
ENDBRANCH  27  28
ENDBRANCH  26  27
ENDBRANCH  24  26
ENDBRANCH  21  24
TORSDOF 10
ENDMDL
MODEL 4
REMARK minimizedAffinity -8.15557671
REMARK CNNscore 0.3571814
REMARK CNNaffinity 6.24471807
REMARK  10 active torsions:
REMARK  status: ('A' for Active; 'I' for Inactive)
REMARK    1  A    between atoms: C19_21  and  O3_22 
REMARK    2  A    between atoms: C19_21  and  C20_23 
REMARK    3  A    between atoms: C20_23  and  C21_25 
REMARK    4  A    between atoms: C21_25  and  O5_26 
REMARK    5  A    between atoms: O5_26  and  C22_27 
REMARK    6  A    between atoms: C22_27  and  C23_29 
REMARK    7  A    between atoms: C23_29  and  C24_30 
REMARK    8  A    between atoms: C24_30  and  C25_31 
REMARK       I    between atoms: C25_31  and  N1_33 
REMARK    9  A    between atoms: N1_33  and  C26_34 
REMARK   10  A    between atoms: C26_34  and  C27_35 
ROOT
HETATM    1  C1  UNL     1     -12.958  45.178 -29.266  1.00  0.00     0.021 C 
HETATM    2  C2  UNL     1     -11.804  45.500 -28.275  1.00  0.00    -0.009 C 
HETATM    3  C3  UNL     1     -11.859  44.456 -27.124  1.00  0.00     0.022 C 
HETATM    4  C4  UNL     1     -13.131  44.542 -26.282  1.00  0.00     0.084 C 
HETATM    5  C5  UNL     1     -13.390  45.958 -25.822  1.00  0.00     0.149 C 
HETATM    6  O1  UNL     1     -14.117  46.206 -24.858  1.00  0.00    -0.293 OA
HETATM    7  C6  UNL     1     -12.777  47.079 -26.576  1.00  0.00     0.053 C 
HETATM    8  C7  UNL     1     -12.051  46.883 -27.694  1.00  0.00    -0.067 C 
HETATM    9  C8  UNL     1     -11.408  48.066 -28.370  1.00  0.00     0.035 C 
HETATM   10  C9  UNL     1     -10.994  47.862 -29.831  1.00  0.00     0.010 C 
HETATM   11  C10 UNL     1     -10.392  46.487 -30.209  1.00  0.00     0.003 C 
HETATM   12  C11 UNL     1     -10.443  45.449 -29.052  1.00  0.00     0.072 C 
HETATM   13  C12 UNL     1      -9.175  45.533 -28.187  1.00  0.00     0.133 C 
HETATM   14  O2  UNL     1      -8.925  44.698 -27.317  1.00  0.00    -0.297 OA
HETATM   15  C13 UNL     1      -8.181  46.637 -28.471  1.00  0.00     0.091 C 
HETATM   16  C14 UNL     1      -7.766  46.625 -29.949  1.00  0.00     0.005 C 
HETATM   17  C15 UNL     1      -6.857  45.393 -30.185  1.00  0.00     0.019 C 
HETATM   18  C16 UNL     1      -9.002  46.480 -30.901  1.00  0.00     0.002 C 
HETATM   19  C17 UNL     1      -8.804  47.490 -32.049  1.00  0.00     0.009 C 
HETATM   20  C18 UNL     1      -7.362  47.984 -31.916  1.00  0.00     0.047 C 
HETATM   21  C19 UNL     1      -7.114  47.962 -30.409  1.00  0.00     0.128 C 
ENDROOT
BRANCH  21  22
HETATM   22  O3  UNL     1      -7.929  49.050 -29.885  1.00  0.00    -0.381 OA
HETATM   23  H25 UNL     1      -7.352  49.571 -29.282  1.00  0.00     0.211 HD
ENDBRANCH  21  22
BRANCH  21  24
HETATM   24  C20 UNL     1      -5.678  48.302 -29.941  1.00  0.00     0.185 C 
HETATM   25  O4  UNL     1      -4.901  48.808 -30.768  1.00  0.00    -0.292 OA
BRANCH  24  26
HETATM   26  C21 UNL     1      -5.216  48.105 -28.506  1.00  0.00     0.260 C 
BRANCH  26  27
HETATM   27  O5  UNL     1      -3.967  48.704 -28.198  1.00  0.00    -0.314 OA
BRANCH  27  28
HETATM   28  C22 UNL     1      -3.716  48.777 -26.861  1.00  0.00     0.259 C 
HETATM   29  O6  UNL     1      -4.452  48.326 -25.994  1.00  0.00    -0.265 OA
BRANCH  28  30
HETATM   30  C23 UNL     1      -2.364  49.381 -26.565  1.00  0.00     0.120 C 
BRANCH  30  31
HETATM   31  C24 UNL     1      -2.074  50.692 -27.285  1.00  0.00     0.112 C 
BRANCH  31  32
HETATM   32  C25 UNL     1      -2.154  51.884 -26.353  1.00  0.00     0.218 C 
HETATM   33  O7  UNL     1      -3.133  52.618 -26.291  1.00  0.00    -0.274 OA
HETATM   34  N1  UNL     1      -1.007  52.073 -25.622  1.00  0.00    -0.356 N 
HETATM   35  H32 UNL     1      -0.252  51.406 -25.691  1.00  0.00     0.162 HD
BRANCH  34  36
HETATM   36  C26 UNL     1      -0.908  53.092 -24.599  1.00  0.00     0.168 C 
BRANCH  36  37
HETATM   37  C27 UNL     1      -0.632  52.410 -23.296  1.00  0.00     0.000 A 
HETATM   38  C28 UNL     1       0.556  52.347 -22.591  1.00  0.00     0.017 A 
HETATM   39  C29 UNL     1       0.432  51.599 -21.384  1.00  0.00     0.008 A 
HETATM   40  C30 UNL     1      -0.848  51.125 -21.201  1.00  0.00     0.050 A 
HETATM   41  S1  UNL     1      -1.888  51.568 -22.484  1.00  0.00    -0.105 SA
ENDBRANCH  36  37
ENDBRANCH  34  36
ENDBRANCH  31  32
ENDBRANCH  30  31
ENDBRANCH  28  30
ENDBRANCH  27  28
ENDBRANCH  26  27
ENDBRANCH  24  26
ENDBRANCH  21  24
TORSDOF 10
ENDMDL
MODEL 5
REMARK minimizedAffinity -8.53777313
REMARK CNNscore 0.345723987
REMARK CNNaffinity 6.22416067
REMARK  10 active torsions:
REMARK  status: ('A' for Active; 'I' for Inactive)
REMARK    1  A    between atoms: C19_21  and  O3_22 
REMARK    2  A    between atoms: C19_21  and  C20_23 
REMARK    3  A    between atoms: C20_23  and  C21_25 
REMARK    4  A    between atoms: C21_25  and  O5_26 
REMARK    5  A    between atoms: O5_26  and  C22_27 
REMARK    6  A    between atoms: C22_27  and  C23_29 
REMARK    7  A    between atoms: C23_29  and  C24_30 
REMARK    8  A    between atoms: C24_30  and  C25_31 
REMARK       I    between atoms: C25_31  and  N1_33 
REMARK    9  A    between atoms: N1_33  and  C26_34 
REMARK   10  A    between atoms: C26_34  and  C27_35 
ROOT
HETATM    1  C1  UNL     1       0.400  49.101 -15.911  1.00  0.00     0.021 C 
HETATM    2  C2  UNL     1      -0.231  50.405 -16.476  1.00  0.00    -0.009 C 
HETATM    3  C3  UNL     1       0.515  51.611 -15.839  1.00  0.00     0.022 C 
HETATM    4  C4  UNL     1       0.332  51.713 -14.326  1.00  0.00     0.084 C 
HETATM    5  C5  UNL     1      -1.129  51.641 -13.944  1.00  0.00     0.149 C 
HETATM    6  O1  UNL     1      -1.540  52.061 -12.862  1.00  0.00    -0.293 OA
HETATM    7  C6  UNL     1      -2.086  51.014 -14.890  1.00  0.00     0.053 C 
HETATM    8  C7  UNL     1      -1.689  50.449 -16.047  1.00  0.00    -0.067 C 
HETATM    9  C8  UNL     1      -2.726  49.887 -16.984  1.00  0.00     0.035 C 
HETATM   10  C9  UNL     1      -2.218  48.887 -18.027  1.00  0.00     0.010 C 
HETATM   11  C10 UNL     1      -0.842  49.179 -18.674  1.00  0.00     0.003 C 
HETATM   12  C11 UNL     1      -0.103  50.390 -18.038  1.00  0.00     0.072 C 
HETATM   13  C12 UNL     1      -0.483  51.698 -18.752  1.00  0.00     0.133 C 
HETATM   14  O2  UNL     1       0.103  52.757 -18.526  1.00  0.00    -0.297 OA
HETATM   15  C13 UNL     1      -1.562  51.653 -19.811  1.00  0.00     0.091 C 
HETATM   16  C14 UNL     1      -1.236  50.592 -20.873  1.00  0.00     0.005 C 
HETATM   17  C15 UNL     1      -0.055  51.113 -21.729  1.00  0.00     0.019 C 
HETATM   18  C16 UNL     1      -0.779  49.240 -20.225  1.00  0.00     0.002 C 
HETATM   19  C17 UNL     1      -1.504  48.111 -20.984  1.00  0.00     0.009 C 
HETATM   20  C18 UNL     1      -2.123  48.778 -22.215  1.00  0.00     0.047 C 
HETATM   21  C19 UNL     1      -2.474  50.182 -21.723  1.00  0.00     0.128 C 
ENDROOT
BRANCH  21  22
HETATM   22  O3  UNL     1      -3.589  49.984 -20.807  1.00  0.00    -0.381 OA
HETATM   23  H25 UNL     1      -4.279  50.640 -21.054  1.00  0.00     0.211 HD
ENDBRANCH  21  22
BRANCH  21  24
HETATM   24  C20 UNL     1      -3.022  51.167 -22.783  1.00  0.00     0.185 C 
HETATM   25  O4  UNL     1      -3.927  51.947 -22.440  1.00  0.00    -0.292 OA
BRANCH  24  26
HETATM   26  C21 UNL     1      -2.450  51.259 -24.189  1.00  0.00     0.260 C 
BRANCH  26  27
HETATM   27  O5  UNL     1      -3.415  51.465 -25.209  1.00  0.00    -0.314 OA
BRANCH  27  28
HETATM   28  C22 UNL     1      -3.242  50.653 -26.290  1.00  0.00     0.259 C 
HETATM   29  O6  UNL     1      -2.546  50.931 -27.258  1.00  0.00    -0.265 OA
BRANCH  28  30
HETATM   30  C23 UNL     1      -3.920  49.316 -26.116  1.00  0.00     0.120 C 
BRANCH  30  31
HETATM   31  C24 UNL     1      -3.676  48.319 -27.242  1.00  0.00     0.112 C 
BRANCH  31  32
HETATM   32  C25 UNL     1      -4.754  48.385 -28.304  1.00  0.00     0.218 C 
HETATM   33  O7  UNL     1      -4.535  48.740 -29.457  1.00  0.00    -0.274 OA
HETATM   34  N1  UNL     1      -5.999  48.047 -27.830  1.00  0.00    -0.356 N 
HETATM   35  H32 UNL     1      -6.102  47.724 -26.878  1.00  0.00     0.162 HD
BRANCH  34  36
HETATM   36  C26 UNL     1      -7.150  47.945 -28.700  1.00  0.00     0.168 C 
BRANCH  36  37
HETATM   37  C27 UNL     1      -7.148  46.578 -29.308  1.00  0.00     0.000 A 
HETATM   38  C28 UNL     1      -7.211  45.353 -28.672  1.00  0.00     0.017 A 
HETATM   39  C29 UNL     1      -7.182  44.262 -29.590  1.00  0.00     0.008 A 
HETATM   40  C30 UNL     1      -7.108  44.691 -30.896  1.00  0.00     0.050 A 
HETATM   41  S1  UNL     1      -7.061  46.396 -31.013  1.00  0.00    -0.105 SA
ENDBRANCH  36  37
ENDBRANCH  34  36
ENDBRANCH  31  32
ENDBRANCH  30  31
ENDBRANCH  28  30
ENDBRANCH  27  28
ENDBRANCH  26  27
ENDBRANCH  24  26
ENDBRANCH  21  24
TORSDOF 10
ENDMDL
MODEL 6
REMARK minimizedAffinity -7.56137419
REMARK CNNscore 0.343608886
REMARK CNNaffinity 6.34084272
REMARK  10 active torsions:
REMARK  status: ('A' for Active; 'I' for Inactive)
REMARK    1  A    between atoms: C19_21  and  O3_22 
REMARK    2  A    between atoms: C19_21  and  C20_23 
REMARK    3  A    between atoms: C20_23  and  C21_25 
REMARK    4  A    between atoms: C21_25  and  O5_26 
REMARK    5  A    between atoms: O5_26  and  C22_27 
REMARK    6  A    between atoms: C22_27  and  C23_29 
REMARK    7  A    between atoms: C23_29  and  C24_30 
REMARK    8  A    between atoms: C24_30  and  C25_31 
REMARK       I    between atoms: C25_31  and  N1_33 
REMARK    9  A    between atoms: N1_33  and  C26_34 
REMARK   10  A    between atoms: C26_34  and  C27_35 
ROOT
HETATM    1  C1  UNL     1       0.310  51.023 -21.078  1.00  0.00     0.021 C 
HETATM    2  C2  UNL     1      -1.043  50.821 -20.338  1.00  0.00    -0.009 C 
HETATM    3  C3  UNL     1      -1.154  51.916 -19.239  1.00  0.00     0.022 C 
HETATM    4  C4  UNL     1      -0.091  51.796 -18.149  1.00  0.00     0.084 C 
HETATM    5  C5  UNL     1      -0.031  50.391 -17.593  1.00  0.00     0.149 C 
HETATM    6  O1  UNL     1       0.463  50.148 -16.491  1.00  0.00    -0.293 OA
HETATM    7  C6  UNL     1      -0.552  49.272 -18.417  1.00  0.00     0.053 C 
HETATM    8  C7  UNL     1      -1.017  49.456 -19.669  1.00  0.00    -0.067 C 
HETATM    9  C8  UNL     1      -1.587  48.282 -20.421  1.00  0.00     0.035 C 
HETATM   10  C9  UNL     1      -1.676  48.437 -21.942  1.00  0.00     0.010 C 
HETATM   11  C10 UNL     1      -2.091  49.825 -22.487  1.00  0.00     0.003 C 
HETATM   12  C11 UNL     1      -2.207  50.914 -21.384  1.00  0.00     0.072 C 
HETATM   13  C12 UNL     1      -3.629  50.950 -20.799  1.00  0.00     0.133 C 
HETATM   14  O2  UNL     1      -3.994  51.841 -20.031  1.00  0.00    -0.297 OA
HETATM   15  C13 UNL     1      -4.618  49.896 -21.244  1.00  0.00     0.091 C 
HETATM   16  C14 UNL     1      -4.718  49.858 -22.776  1.00  0.00     0.005 C 
HETATM   17  C15 UNL     1      -5.471  51.130 -23.241  1.00  0.00     0.019 C 
HETATM   18  C16 UNL     1      -3.305  49.881 -23.454  1.00  0.00     0.002 C 
HETATM   19  C17 UNL     1      -3.331  48.829 -24.580  1.00  0.00     0.009 C 
HETATM   20  C18 UNL     1      -4.801  48.429 -24.733  1.00  0.00     0.047 C 
HETATM   21  C19 UNL     1      -5.352  48.541 -23.313  1.00  0.00     0.128 C 
ENDROOT
BRANCH  21  22
HETATM   22  O3  UNL     1      -4.739  47.434 -22.591  1.00  0.00    -0.381 OA
HETATM   23  H25 UNL     1      -5.462  46.979 -22.103  1.00  0.00     0.211 HD
ENDBRANCH  21  22
BRANCH  21  24
HETATM   24  C20 UNL     1      -6.873  48.312 -23.143  1.00  0.00     0.185 C 
HETATM   25  O4  UNL     1      -7.286  47.956 -22.026  1.00  0.00    -0.292 OA
BRANCH  24  26
HETATM   26  C21 UNL     1      -7.870  48.572 -24.261  1.00  0.00     0.260 C 
BRANCH  26  27
HETATM   27  O5  UNL     1      -8.929  47.630 -24.341  1.00  0.00    -0.314 OA
BRANCH  27  28
HETATM   28  C22 UNL     1      -9.747  47.824 -25.413  1.00  0.00     0.259 C 
HETATM   29  O6  UNL     1     -10.966  47.720 -25.379  1.00  0.00    -0.265 OA
BRANCH  28  30
HETATM   30  C23 UNL     1      -8.991  48.292 -26.633  1.00  0.00     0.120 C 
BRANCH  30  31
HETATM   31  C24 UNL     1      -9.677  48.011 -27.963  1.00  0.00     0.112 C 
BRANCH  31  32
HETATM   32  C25 UNL     1      -9.012  46.878 -28.719  1.00  0.00     0.218 C 
HETATM   33  O7  UNL     1      -8.628  45.849 -28.176  1.00  0.00    -0.274 OA
HETATM   34  N1  UNL     1      -8.851  47.146 -30.057  1.00  0.00    -0.356 N 
HETATM   35  H32 UNL     1      -9.229  47.997 -30.447  1.00  0.00     0.162 HD
BRANCH  34  36
HETATM   36  C26 UNL     1      -8.331  46.159 -30.979  1.00  0.00     0.168 C 
BRANCH  36  37
HETATM   37  C27 UNL     1      -7.190  46.780 -31.721  1.00  0.00     0.000 A 
HETATM   38  C28 UNL     1      -7.055  46.979 -33.083  1.00  0.00     0.017 A 
HETATM   39  C29 UNL     1      -5.817  47.601 -33.420  1.00  0.00     0.008 A 
HETATM   40  C30 UNL     1      -5.053  47.866 -32.305  1.00  0.00     0.050 A 
HETATM   41  S1  UNL     1      -5.819  47.354 -30.864  1.00  0.00    -0.105 SA
ENDBRANCH  36  37
ENDBRANCH  34  36
ENDBRANCH  31  32
ENDBRANCH  30  31
ENDBRANCH  28  30
ENDBRANCH  27  28
ENDBRANCH  26  27
ENDBRANCH  24  26
ENDBRANCH  21  24
TORSDOF 10
ENDMDL
MODEL 7
REMARK minimizedAffinity -7.1804471
REMARK CNNscore 0.331130892
REMARK CNNaffinity 5.82596397
REMARK  10 active torsions:
REMARK  status: ('A' for Active; 'I' for Inactive)
REMARK    1  A    between atoms: C19_21  and  O3_22 
REMARK    2  A    between atoms: C19_21  and  C20_23 
REMARK    3  A    between atoms: C20_23  and  C21_25 
REMARK    4  A    between atoms: C21_25  and  O5_26 
REMARK    5  A    between atoms: O5_26  and  C22_27 
REMARK    6  A    between atoms: C22_27  and  C23_29 
REMARK    7  A    between atoms: C23_29  and  C24_30 
REMARK    8  A    between atoms: C24_30  and  C25_31 
REMARK       I    between atoms: C25_31  and  N1_33 
REMARK    9  A    between atoms: N1_33  and  C26_34 
REMARK   10  A    between atoms: C26_34  and  C27_35 
ROOT
HETATM    1  C1  UNL     1       0.359  51.064 -21.038  1.00  0.00     0.021 C 
HETATM    2  C2  UNL     1      -0.997  50.861 -20.305  1.00  0.00    -0.009 C 
HETATM    3  C3  UNL     1      -1.121  51.964 -19.216  1.00  0.00     0.022 C 
HETATM    4  C4  UNL     1      -0.066  51.858 -18.117  1.00  0.00     0.084 C 
HETATM    5  C5  UNL     1      -0.002  50.459 -17.550  1.00  0.00     0.149 C 
HETATM    6  O1  UNL     1       0.486  50.227 -16.443  1.00  0.00    -0.293 OA
HETATM    7  C6  UNL     1      -0.512  49.331 -18.369  1.00  0.00     0.053 C 
HETATM    8  C7  UNL     1      -0.969  49.502 -19.625  1.00  0.00    -0.067 C 
HETATM    9  C8  UNL     1      -1.528  48.319 -20.371  1.00  0.00     0.035 C 
HETATM   10  C9  UNL     1      -1.608  48.462 -21.894  1.00  0.00     0.010 C 
HETATM   11  C10 UNL     1      -2.026  49.843 -22.453  1.00  0.00     0.003 C 
HETATM   12  C11 UNL     1      -2.156  50.941 -21.359  1.00  0.00     0.072 C 
HETATM   13  C12 UNL     1      -3.581  50.974 -20.785  1.00  0.00     0.133 C 
HETATM   14  O2  UNL     1      -3.956  51.869 -20.026  1.00  0.00    -0.297 OA
HETATM   15  C13 UNL     1      -4.562  49.911 -21.227  1.00  0.00     0.091 C 
HETATM   16  C14 UNL     1      -4.651  49.861 -22.760  1.00  0.00     0.005 C 
HETATM   17  C15 UNL     1      -5.408  51.124 -23.240  1.00  0.00     0.019 C 
HETATM   18  C16 UNL     1      -3.234  49.886 -23.428  1.00  0.00     0.002 C 
HETATM   19  C17 UNL     1      -3.248  48.824 -24.547  1.00  0.00     0.009 C 
HETATM   20  C18 UNL     1      -4.714  48.416 -24.706  1.00  0.00     0.047 C 
HETATM   21  C19 UNL     1      -5.275  48.536 -23.290  1.00  0.00     0.128 C 
ENDROOT
BRANCH  21  22
HETATM   22  O3  UNL     1      -4.662  47.438 -22.556  1.00  0.00    -0.381 OA
HETATM   23  H25 UNL     1      -5.386  46.983 -22.069  1.00  0.00     0.211 HD
ENDBRANCH  21  22
BRANCH  21  24
HETATM   24  C20 UNL     1      -6.797  48.300 -23.128  1.00  0.00     0.185 C 
HETATM   25  O4  UNL     1      -7.235  48.100 -21.983  1.00  0.00    -0.292 OA
BRANCH  24  26
HETATM   26  C21 UNL     1      -7.765  48.375 -24.297  1.00  0.00     0.260 C 
BRANCH  26  27
HETATM   27  O5  UNL     1      -8.471  47.171 -24.560  1.00  0.00    -0.314 OA
BRANCH  27  28
HETATM   28  C22 UNL     1      -9.796  47.363 -24.810  1.00  0.00     0.259 C 
HETATM   29  O6  UNL     1     -10.258  48.346 -25.374  1.00  0.00    -0.265 OA
BRANCH  28  30
HETATM   30  C23 UNL     1     -10.632  46.170 -24.411  1.00  0.00     0.120 C 
BRANCH  30  31
HETATM   31  C24 UNL     1     -11.481  46.368 -23.162  1.00  0.00     0.112 C 
BRANCH  31  32
HETATM   32  C25 UNL     1     -12.884  46.833 -23.495  1.00  0.00     0.218 C 
HETATM   33  O7  UNL     1     -13.601  47.419 -22.692  1.00  0.00    -0.274 OA
HETATM   34  N1  UNL     1     -13.275  46.494 -24.768  1.00  0.00    -0.356 N 
HETATM   35  H32 UNL     1     -12.619  46.047 -25.392  1.00  0.00     0.162 HD
BRANCH  34  36
HETATM   36  C26 UNL     1     -14.538  46.930 -25.323  1.00  0.00     0.168 C 
BRANCH  36  37
HETATM   37  C27 UNL     1     -15.543  45.847 -25.087  1.00  0.00     0.000 A 
HETATM   38  C28 UNL     1     -15.434  44.496 -25.361  1.00  0.00     0.017 A 
HETATM   39  C29 UNL     1     -16.608  43.773 -24.999  1.00  0.00     0.008 A 
HETATM   40  C30 UNL     1     -17.569  44.592 -24.451  1.00  0.00     0.050 A 
HETATM   41  S1  UNL     1     -17.064  46.224 -24.388  1.00  0.00    -0.105 SA
ENDBRANCH  36  37
ENDBRANCH  34  36
ENDBRANCH  31  32
ENDBRANCH  30  31
ENDBRANCH  28  30
ENDBRANCH  27  28
ENDBRANCH  26  27
ENDBRANCH  24  26
ENDBRANCH  21  24
TORSDOF 10
ENDMDL
MODEL 8
REMARK minimizedAffinity -8.69822884
REMARK CNNscore 0.325806677
REMARK CNNaffinity 6.86582804
REMARK  10 active torsions:
REMARK  status: ('A' for Active; 'I' for Inactive)
REMARK    1  A    between atoms: C19_21  and  O3_22 
REMARK    2  A    between atoms: C19_21  and  C20_23 
REMARK    3  A    between atoms: C20_23  and  C21_25 
REMARK    4  A    between atoms: C21_25  and  O5_26 
REMARK    5  A    between atoms: O5_26  and  C22_27 
REMARK    6  A    between atoms: C22_27  and  C23_29 
REMARK    7  A    between atoms: C23_29  and  C24_30 
REMARK    8  A    between atoms: C24_30  and  C25_31 
REMARK       I    between atoms: C25_31  and  N1_33 
REMARK    9  A    between atoms: N1_33  and  C26_34 
REMARK   10  A    between atoms: C26_34  and  C27_35 
ROOT
HETATM    1  C1  UNL     1      -6.058  48.511 -23.957  1.00  0.00     0.021 C 
HETATM    2  C2  UNL     1      -4.847  48.977 -23.100  1.00  0.00    -0.009 C 
HETATM    3  C3  UNL     1      -4.522  47.849 -22.080  1.00  0.00     0.022 C 
HETATM    4  C4  UNL     1      -5.640  47.598 -21.070  1.00  0.00     0.084 C 
HETATM    5  C5  UNL     1      -6.090  48.886 -20.419  1.00  0.00     0.149 C 
HETATM    6  O1  UNL     1      -6.692  48.895 -19.344  1.00  0.00    -0.293 OA
HETATM    7  C6  UNL     1      -5.827  50.170 -21.114  1.00  0.00     0.053 C 
HETATM    8  C7  UNL     1      -5.260  50.224 -22.335  1.00  0.00    -0.067 C 
HETATM    9  C8  UNL     1      -4.968  51.567 -22.951  1.00  0.00     0.035 C 
HETATM   10  C9  UNL     1      -4.755  51.580 -24.468  1.00  0.00     0.010 C 
HETATM   11  C10 UNL     1      -3.968  50.396 -25.080  1.00  0.00     0.003 C 
HETATM   12  C11 UNL     1      -3.639  49.274 -24.055  1.00  0.00     0.072 C 
HETATM   13  C12 UNL     1      -2.292  49.543 -23.364  1.00  0.00     0.133 C 
HETATM   14  O2  UNL     1      -1.755  48.705 -22.638  1.00  0.00    -0.297 OA
HETATM   15  C13 UNL     1      -1.583  50.847 -23.650  1.00  0.00     0.091 C 
HETATM   16  C14 UNL     1      -1.408  51.049 -25.163  1.00  0.00     0.005 C 
HETATM   17  C15 UNL     1      -0.329  50.055 -25.660  1.00  0.00     0.019 C 
HETATM   18  C16 UNL     1      -2.727  50.735 -25.950  1.00  0.00     0.002 C 
HETATM   19  C17 UNL     1      -2.906  51.859 -26.990  1.00  0.00     0.009 C 
HETATM   20  C18 UNL     1      -1.582  52.626 -26.996  1.00  0.00     0.047 C 
HETATM   21  C19 UNL     1      -1.103  52.526 -25.549  1.00  0.00     0.128 C 
ENDROOT
BRANCH  21  22
HETATM   22  O3  UNL     1      -2.019  53.374 -24.798  1.00  0.00    -0.381 OA
HETATM   23  H25 UNL     1      -1.466  53.948 -24.222  1.00  0.00     0.211 HD
ENDBRANCH  21  22
BRANCH  21  24
HETATM   24  C20 UNL     1       0.296  53.113 -25.243  1.00  0.00     0.185 C 
HETATM   25  O4  UNL     1       1.166  53.034 -26.127  1.00  0.00    -0.292 OA
BRANCH  24  26
HETATM   26  C21 UNL     1       0.616  53.834 -23.943  1.00  0.00     0.260 C 
BRANCH  26  27
HETATM   27  O5  UNL     1       1.111  52.999 -22.909  1.00  0.00    -0.314 OA
BRANCH  27  28
HETATM   28  C22 UNL     1       1.338  53.660 -21.739  1.00  0.00     0.259 C 
HETATM   29  O6  UNL     1       1.722  54.819 -21.665  1.00  0.00    -0.265 OA
BRANCH  28  30
HETATM   30  C23 UNL     1       0.954  52.837 -20.533  1.00  0.00     0.120 C 
BRANCH  30  31
HETATM   31  C24 UNL     1      -0.530  52.512 -20.421  1.00  0.00     0.112 C 
BRANCH  31  32
HETATM   32  C25 UNL     1      -0.897  51.994 -19.046  1.00  0.00     0.218 C 
HETATM   33  O7  UNL     1      -2.049  51.736 -18.714  1.00  0.00    -0.274 OA
HETATM   34  N1  UNL     1       0.185  51.884 -18.205  1.00  0.00    -0.356 N 
HETATM   35  H32 UNL     1       1.113  52.074 -18.555  1.00  0.00     0.162 HD
BRANCH  34  36
HETATM   36  C26 UNL     1       0.072  51.314 -16.880  1.00  0.00     0.168 C 
BRANCH  36  37
HETATM   37  C27 UNL     1       1.382  51.508 -16.183  1.00  0.00     0.000 A 
HETATM   38  C28 UNL     1       1.902  50.800 -15.116  1.00  0.00     0.017 A 
HETATM   39  C29 UNL     1       3.184  51.280 -14.719  1.00  0.00     0.008 A 
HETATM   40  C30 UNL     1       3.604  52.332 -15.502  1.00  0.00     0.050 A 
HETATM   41  S1  UNL     1       2.454  52.744 -16.698  1.00  0.00    -0.105 SA
ENDBRANCH  36  37
ENDBRANCH  34  36
ENDBRANCH  31  32
ENDBRANCH  30  31
ENDBRANCH  28  30
ENDBRANCH  27  28
ENDBRANCH  26  27
ENDBRANCH  24  26
ENDBRANCH  21  24
TORSDOF 10
ENDMDL
MODEL 9
REMARK minimizedAffinity -7.19976187
REMARK CNNscore 0.312396079
REMARK CNNaffinity 6.22556067
REMARK  10 active torsions:
REMARK  status: ('A' for Active; 'I' for Inactive)
REMARK    1  A    between atoms: C19_21  and  O3_22 
REMARK    2  A    between atoms: C19_21  and  C20_23 
REMARK    3  A    between atoms: C20_23  and  C21_25 
REMARK    4  A    between atoms: C21_25  and  O5_26 
REMARK    5  A    between atoms: O5_26  and  C22_27 
REMARK    6  A    between atoms: C22_27  and  C23_29 
REMARK    7  A    between atoms: C23_29  and  C24_30 
REMARK    8  A    between atoms: C24_30  and  C25_31 
REMARK       I    between atoms: C25_31  and  N1_33 
REMARK    9  A    between atoms: N1_33  and  C26_34 
REMARK   10  A    between atoms: C26_34  and  C27_35 
ROOT
HETATM    1  C1  UNL     1       0.554  51.093 -24.199  1.00  0.00     0.021 C 
HETATM    2  C2  UNL     1      -0.542  51.906 -23.454  1.00  0.00    -0.009 C 
HETATM    3  C3  UNL     1      -0.553  53.344 -24.045  1.00  0.00     0.022 C 
HETATM    4  C4  UNL     1       0.741  54.116 -23.797  1.00  0.00     0.084 C 
HETATM    5  C5  UNL     1       1.137  54.069 -22.339  1.00  0.00     0.149 C 
HETATM    6  O1  UNL     1       1.906  54.896 -21.846  1.00  0.00    -0.293 OA
HETATM    7  C6  UNL     1       0.609  52.973 -21.489  1.00  0.00     0.053 C 
HETATM    8  C7  UNL     1      -0.158  51.983 -21.985  1.00  0.00    -0.067 C 
HETATM    9  C8  UNL     1      -0.708  50.939 -21.049  1.00  0.00     0.035 C 
HETATM   10  C9  UNL     1      -1.174  49.632 -21.697  1.00  0.00     0.010 C 
HETATM   11  C10 UNL     1      -1.906  49.740 -23.057  1.00  0.00     0.003 C 
HETATM   12  C11 UNL     1      -1.920  51.181 -23.640  1.00  0.00     0.072 C 
HETATM   13  C12 UNL     1      -3.154  51.957 -23.150  1.00  0.00     0.133 C 
HETATM   14  O2  UNL     1      -3.457  53.057 -23.613  1.00  0.00    -0.297 OA
HETATM   15  C13 UNL     1      -4.052  51.306 -22.121  1.00  0.00     0.091 C 
HETATM   16  C14 UNL     1      -4.502  49.917 -22.596  1.00  0.00     0.005 C 
HETATM   17  C15 UNL     1      -5.523  50.107 -23.746  1.00  0.00     0.019 C 
HETATM   18  C16 UNL     1      -3.307  49.081 -23.170  1.00  0.00     0.002 C 
HETATM   19  C17 UNL     1      -3.441  47.656 -22.597  1.00  0.00     0.009 C 
HETATM   20  C18 UNL     1      -4.829  47.601 -21.955  1.00  0.00     0.047 C 
HETATM   21  C19 UNL     1      -5.042  49.024 -21.441  1.00  0.00     0.128 C 
ENDROOT
BRANCH  21  22
HETATM   22  O3  UNL     1      -4.121  49.153 -20.320  1.00  0.00    -0.381 OA
HETATM   23  H25 UNL     1      -4.633  49.537 -19.574  1.00  0.00     0.211 HD
ENDBRANCH  21  22
BRANCH  21  24
HETATM   24  C20 UNL     1      -6.430  49.337 -20.830  1.00  0.00     0.185 C 
HETATM   25  O4  UNL     1      -6.576  50.422 -20.244  1.00  0.00    -0.292 OA
BRANCH  24  26
HETATM   26  C21 UNL     1      -7.621  48.404 -20.984  1.00  0.00     0.260 C 
BRANCH  26  27
HETATM   27  O5  UNL     1      -8.080  48.244 -22.317  1.00  0.00    -0.314 OA
BRANCH  27  28
HETATM   28  C22 UNL     1      -8.138  46.944 -22.719  1.00  0.00     0.259 C 
HETATM   29  O6  UNL     1      -8.273  45.992 -21.961  1.00  0.00    -0.265 OA
BRANCH  28  30
HETATM   30  C23 UNL     1      -8.129  46.808 -24.222  1.00  0.00     0.120 C 
BRANCH  30  31
HETATM   31  C24 UNL     1      -9.014  47.803 -24.963  1.00  0.00     0.112 C 
BRANCH  31  32
HETATM   32  C25 UNL     1      -8.553  48.023 -26.389  1.00  0.00     0.218 C 
HETATM   33  O7  UNL     1      -9.194  48.674 -27.205  1.00  0.00    -0.274 OA
HETATM   34  N1  UNL     1      -7.370  47.386 -26.677  1.00  0.00    -0.356 N 
HETATM   35  H32 UNL     1      -6.872  46.899 -25.945  1.00  0.00     0.162 HD
BRANCH  34  36
HETATM   36  C26 UNL     1      -6.701  47.548 -27.949  1.00  0.00     0.168 C 
BRANCH  36  37
HETATM   37  C27 UNL     1      -6.917  46.299 -28.745  1.00  0.00     0.000 A 
HETATM   38  C28 UNL     1      -7.467  45.100 -28.333  1.00  0.00     0.017 A 
HETATM   39  C29 UNL     1      -7.505  44.131 -29.379  1.00  0.00     0.008 A 
HETATM   40  C30 UNL     1      -6.991  44.626 -30.557  1.00  0.00     0.050 A 
HETATM   41  S1  UNL     1      -6.456  46.242 -30.397  1.00  0.00    -0.105 SA
ENDBRANCH  36  37
ENDBRANCH  34  36
ENDBRANCH  31  32
ENDBRANCH  30  31
ENDBRANCH  28  30
ENDBRANCH  27  28
ENDBRANCH  26  27
ENDBRANCH  24  26
ENDBRANCH  21  24
TORSDOF 10
ENDMDL
