MODEL 1
REMARK minimizedAffinity -6.21631479
REMARK CNNscore 0.197015569
REMARK CNNaffinity 4.89610291
REMARK  10 active torsions:
REMARK  status: ('A' for Active; 'I' for Inactive)
REMARK    1  A    between atoms: O1_2  and  C2_3 
REMARK    2  A    between atoms: C11_15  and  O3_16 
REMARK    3  A    between atoms: O3_16  and  C12_17 
REMARK    4  A    between atoms: C12_17  and  C13_19 
REMARK    5  A    between atoms: C13_19  and  C14_20 
REMARK    6  A    between atoms: C24_31  and  O6_32 
REMARK    7  A    between atoms: C25_35  and  O7_36 
REMARK    8  A    between atoms: C26_38  and  O9_39 
REMARK    9  A    between atoms: C31_44  and  C32_45 
REMARK   10  A    between atoms: C32_45  and  O10_46 
ROOT
HETATM    1  C2  UNL     1      -3.983  13.444  19.419  1.00  0.00     0.092 A 
HETATM    2  C3  UNL     1      -4.043  12.112  18.995  1.00  0.00     0.046 A 
HETATM    3  C4  UNL     1      -3.010  11.554  18.226  1.00  0.00    -0.049 A 
HETATM    4  C5  UNL     1      -1.910  12.351  17.872  1.00  0.00     0.039 A 
HETATM    5  C6  UNL     1      -1.838  13.696  18.260  1.00  0.00     0.061 A 
HETATM    6  C7  UNL     1      -2.875  14.235  19.052  1.00  0.00     0.094 A 
HETATM    7 CL1  UNL     1      -2.754  15.854  19.692  1.00  0.00    -0.079 Cl
HETATM    8  N1  UNL     1      -0.717  14.480  17.821  1.00  0.00    -0.321 N 
HETATM    9  C8  UNL     1      -1.032  15.639  16.995  1.00  0.00     0.159 C 
HETATM   10  C9  UNL     1       0.577  14.035  18.096  1.00  0.00     0.226 C 
HETATM   11  O2  UNL     1       0.795  12.995  18.730  1.00  0.00    -0.273 OA
HETATM   12  C10 UNL     1       1.763  14.927  17.739  1.00  0.00     0.139 C 
HETATM   13  C11 UNL     1       2.409  14.818  16.356  1.00  0.00     0.177 C 
HETATM   14  C17 UNL     1       2.914  13.465  15.860  1.00  0.00     0.111 A 
HETATM   15  C18 UNL     1       3.658  13.524  14.553  1.00  0.00     0.051 C 
HETATM   16  O5  UNL     1       1.971  12.393  15.926  1.00  0.00    -0.366 OA
HETATM   17  C19 UNL     1       3.086  12.279  16.819  1.00  0.00     0.165 A 
HETATM   18  C20 UNL     1       4.011  11.100  16.648  1.00  0.00     0.043 C 
HETATM   19  C21 UNL     1       5.466  11.582  16.541  1.00  0.00     0.015 C 
HETATM   20  C22 UNL     1       3.659  10.046  15.569  1.00  0.00     0.143 C 
HETATM   21  C23 UNL     1       2.310   9.365  15.801  1.00  0.00     0.097 C 
HETATM   22  C24 UNL     1       2.199   8.164  14.857  1.00  0.00     0.166 C 
HETATM   23  N2  UNL     1       3.300   7.234  15.117  1.00  0.00    -0.316 N 
ATOM     24  H2  UNL     1       3.180   6.223  15.069  1.00  0.00     0.166 HD
HETATM   25  C25 UNL     1       4.419   7.772  15.407  1.00  0.00     0.260 C 
HETATM   26  O8  UNL     1       4.721   9.061  15.597  1.00  0.00    -0.311 OA
HETATM   27  C26 UNL     1       0.855   7.376  15.103  1.00  0.00     0.199 C 
HETATM   28  C28 UNL     1      -0.388   8.187  14.834  1.00  0.00     0.010 C 
HETATM   29  C29 UNL     1      -1.246   8.620  15.772  1.00  0.00    -0.001 C 
HETATM   30  C30 UNL     1      -2.446   9.350  15.425  1.00  0.00     0.005 C 
HETATM   31  C31 UNL     1      -3.296   9.981  16.263  1.00  0.00    -0.052 C 
HETATM   32  C33 UNL     1      -3.093  10.114  17.762  1.00  0.00     0.075 C 
ENDROOT
BRANCH  13  33
HETATM   33  O3  UNL     1       1.562  15.391  15.337  1.00  0.00    -0.312 OA
BRANCH  33  34
HETATM   34  C12 UNL     1       1.933  16.610  14.852  1.00  0.00     0.259 C 
HETATM   35  O4  UNL     1       2.716  17.368  15.403  1.00  0.00    -0.265 OA
BRANCH  34  36
HETATM   36  C13 UNL     1       1.220  16.871  13.543  1.00  0.00     0.115 C 
BRANCH  36  37
HETATM   37  C14 UNL     1       0.852  15.586  12.785  1.00  0.00    -0.013 C 
HETATM   38  C15 UNL     1       1.589  15.489  11.446  1.00  0.00     0.010 C 
HETATM   39  C16 UNL     1      -0.659  15.536  12.541  1.00  0.00     0.010 C 
ENDBRANCH  36  37
ENDBRANCH  34  36
ENDBRANCH  33  34
ENDBRANCH  13  33
BRANCH   1  40
HETATM   40  O1  UNL     1      -4.949  14.052  20.182  1.00  0.00    -0.354 OA
HETATM   41  C1  UNL     1      -5.494  13.325  21.275  1.00  0.00     0.210 C 
ENDBRANCH   1  40
BRANCH  22  42
HETATM   42  O6  UNL     1       2.205   8.620  13.502  1.00  0.00    -0.368 OA
HETATM   43  H32 UNL     1       2.030   7.804  12.994  1.00  0.00     0.212 HD
ENDBRANCH  22  42
BRANCH  25  44
HETATM   44  O7  UNL     1       5.492   6.994  15.589  1.00  0.00    -0.327 OA
HETATM   45  H33 UNL     1       5.209   6.083  15.414  1.00  0.00     0.221 HD
ENDBRANCH  25  44
BRANCH  27  46
HETATM   46  O9  UNL     1       0.800   6.283  14.155  1.00  0.00    -0.382 OA
HETATM   47  C27 UNL     1      -0.472   5.649  14.143  1.00  0.00     0.202 C 
ENDBRANCH  27  46
BRANCH  31  48
HETATM   48  C32 UNL     1      -4.560  10.649  15.756  1.00  0.00     0.198 C 
BRANCH  48  49
HETATM   49  O10 UNL     1      -5.494   9.710  15.237  1.00  0.00    -0.397 OA
HETATM   50  H43 UNL     1      -5.671   9.071  15.948  1.00  0.00     0.209 HD
ENDBRANCH  48  49
ENDBRANCH  31  48
TORSDOF 10
ENDMDL
MODEL 2
REMARK minimizedAffinity -6.41253901
REMARK CNNscore 0.178375438
REMARK CNNaffinity 5.37328482
REMARK  10 active torsions:
REMARK  status: ('A' for Active; 'I' for Inactive)
REMARK    1  A    between atoms: O1_2  and  C2_3 
REMARK    2  A    between atoms: C11_15  and  O3_16 
REMARK    3  A    between atoms: O3_16  and  C12_17 
REMARK    4  A    between atoms: C12_17  and  C13_19 
REMARK    5  A    between atoms: C13_19  and  C14_20 
REMARK    6  A    between atoms: C24_31  and  O6_32 
REMARK    7  A    between atoms: C25_35  and  O7_36 
REMARK    8  A    between atoms: C26_38  and  O9_39 
REMARK    9  A    between atoms: C31_44  and  C32_45 
REMARK   10  A    between atoms: C32_45  and  O10_46 
ROOT
HETATM    1  C2  UNL     1      -9.979  14.310  14.320  1.00  0.00     0.092 A 
HETATM    2  C3  UNL     1     -10.835  13.256  14.659  1.00  0.00     0.046 A 
HETATM    3  C4  UNL     1     -10.815  12.696  15.946  1.00  0.00    -0.049 A 
HETATM    4  C5  UNL     1      -9.914  13.197  16.898  1.00  0.00     0.039 A 
HETATM    5  C6  UNL     1      -9.025  14.233  16.577  1.00  0.00     0.061 A 
HETATM    6  C7  UNL     1      -9.075  14.799  15.285  1.00  0.00     0.094 A 
HETATM    7 CL1  UNL     1      -8.102  16.193  14.888  1.00  0.00    -0.079 Cl
HETATM    8  N1  UNL     1      -8.085  14.667  17.572  1.00  0.00    -0.321 N 
HETATM    9  C8  UNL     1      -6.676  14.525  17.227  1.00  0.00     0.159 C 
HETATM   10  C9  UNL     1      -8.553  15.072  18.823  1.00  0.00     0.226 C 
HETATM   11  O2  UNL     1      -9.759  15.094  19.099  1.00  0.00    -0.273 OA
HETATM   12  C10 UNL     1      -7.567  15.648  19.837  1.00  0.00     0.139 C 
HETATM   13  C11 UNL     1      -6.845  14.716  20.812  1.00  0.00     0.177 C 
HETATM   14  C17 UNL     1      -7.654  13.780  21.707  1.00  0.00     0.111 A 
HETATM   15  C18 UNL     1      -6.833  13.028  22.719  1.00  0.00     0.051 C 
HETATM   16  O5  UNL     1      -8.612  12.960  21.033  1.00  0.00    -0.366 OA
HETATM   17  C19 UNL     1      -9.167  13.965  21.891  1.00  0.00     0.165 A 
HETATM   18  C20 UNL     1     -10.001  13.513  23.063  1.00  0.00     0.043 C 
HETATM   19  C21 UNL     1      -9.484  14.158  24.359  1.00  0.00     0.015 C 
HETATM   20  C22 UNL     1     -10.270  11.996  23.227  1.00  0.00     0.143 C 
HETATM   21  C23 UNL     1     -11.017  11.380  22.045  1.00  0.00     0.097 C 
HETATM   22  C24 UNL     1     -11.472   9.971  22.435  1.00  0.00     0.166 C 
HETATM   23  N2  UNL     1     -12.339  10.045  23.614  1.00  0.00    -0.316 N 
ATOM     24  H2  UNL     1     -13.148   9.436  23.733  1.00  0.00     0.166 HD
HETATM   25  C25 UNL     1     -12.015  10.921  24.481  1.00  0.00     0.260 C 
HETATM   26  O8  UNL     1     -11.051  11.847  24.438  1.00  0.00    -0.311 OA
HETATM   27  C26 UNL     1     -12.315   9.310  21.277  1.00  0.00     0.199 C 
HETATM   28  C28 UNL     1     -11.548   9.119  19.993  1.00  0.00     0.010 C 
HETATM   29  C29 UNL     1     -11.760   9.802  18.857  1.00  0.00    -0.001 C 
HETATM   30  C30 UNL     1     -11.013   9.522  17.650  1.00  0.00     0.005 C 
HETATM   31  C31 UNL     1     -11.004  10.234  16.504  1.00  0.00    -0.052 C 
HETATM   32  C33 UNL     1     -11.739  11.548  16.297  1.00  0.00     0.075 C 
ENDROOT
BRANCH  13  33
HETATM   33  O3  UNL     1      -5.830  13.941  20.139  1.00  0.00    -0.312 OA
BRANCH  33  34
HETATM   34  C12 UNL     1      -4.541  14.354  20.301  1.00  0.00     0.259 C 
HETATM   35  O4  UNL     1      -4.107  14.899  21.303  1.00  0.00    -0.265 OA
BRANCH  34  36
HETATM   36  C13 UNL     1      -3.750  14.041  19.049  1.00  0.00     0.115 C 
BRANCH  36  37
HETATM   37  C14 UNL     1      -3.293  12.576  18.970  1.00  0.00    -0.013 C 
HETATM   38  C15 UNL     1      -1.769  12.464  18.867  1.00  0.00     0.010 C 
HETATM   39  C16 UNL     1      -3.938  11.892  17.761  1.00  0.00     0.010 C 
ENDBRANCH  36  37
ENDBRANCH  34  36
ENDBRANCH  33  34
ENDBRANCH  13  33
BRANCH   1  40
HETATM   40  O1  UNL     1      -9.953  14.912  13.088  1.00  0.00    -0.354 OA
HETATM   41  C1  UNL     1     -11.135  15.556  12.633  1.00  0.00     0.210 C 
ENDBRANCH   1  40
BRANCH  22  42
HETATM   42  O6  UNL     1     -10.327   9.148  22.676  1.00  0.00    -0.368 OA
HETATM   43  H32 UNL     1     -10.717   8.263  22.814  1.00  0.00     0.212 HD
ENDBRANCH  22  42
BRANCH  25  44
HETATM   44  O7  UNL     1     -12.714  11.005  25.619  1.00  0.00    -0.327 OA
HETATM   45  H33 UNL     1     -13.374  10.296  25.593  1.00  0.00     0.221 HD
ENDBRANCH  25  44
BRANCH  27  46
HETATM   46  O9  UNL     1     -12.678   7.973  21.697  1.00  0.00    -0.382 OA
HETATM   47  C27 UNL     1     -13.635   7.380  20.831  1.00  0.00     0.202 C 
ENDBRANCH  27  46
BRANCH  31  48
HETATM   48  C32 UNL     1     -10.220   9.775  15.289  1.00  0.00     0.198 C 
BRANCH  48  49
HETATM   49  O10 UNL     1     -11.039   9.660  14.132  1.00  0.00    -0.397 OA
HETATM   50  H43 UNL     1     -11.455  10.530  13.998  1.00  0.00     0.209 HD
ENDBRANCH  48  49
ENDBRANCH  31  48
TORSDOF 10
ENDMDL
MODEL 3
REMARK minimizedAffinity -6.74106741
REMARK CNNscore 0.174334779
REMARK CNNaffinity 5.22885132
REMARK  10 active torsions:
REMARK  status: ('A' for Active; 'I' for Inactive)
REMARK    1  A    between atoms: O1_2  and  C2_3 
REMARK    2  A    between atoms: C11_15  and  O3_16 
REMARK    3  A    between atoms: O3_16  and  C12_17 
REMARK    4  A    between atoms: C12_17  and  C13_19 
REMARK    5  A    between atoms: C13_19  and  C14_20 
REMARK    6  A    between atoms: C24_31  and  O6_32 
REMARK    7  A    between atoms: C25_35  and  O7_36 
REMARK    8  A    between atoms: C26_38  and  O9_39 
REMARK    9  A    between atoms: C31_44  and  C32_45 
REMARK   10  A    between atoms: C32_45  and  O10_46 
ROOT
HETATM    1  C2  UNL     1       1.165  10.356  17.548  1.00  0.00     0.092 A 
HETATM    2  C3  UNL     1       2.221  10.395  16.631  1.00  0.00     0.046 A 
HETATM    3  C4  UNL     1       3.466  10.934  16.989  1.00  0.00    -0.049 A 
HETATM    4  C5  UNL     1       3.645  11.449  18.282  1.00  0.00     0.039 A 
HETATM    5  C6  UNL     1       2.596  11.448  19.212  1.00  0.00     0.061 A 
HETATM    6  C7  UNL     1       1.357  10.882  18.842  1.00  0.00     0.094 A 
HETATM    7 CL1  UNL     1       0.073  10.714  20.012  1.00  0.00    -0.079 Cl
HETATM    8  N1  UNL     1       2.818  12.040  20.502  1.00  0.00    -0.321 N 
HETATM    9  C8  UNL     1       1.961  13.169  20.844  1.00  0.00     0.159 C 
HETATM   10  C9  UNL     1       3.888  11.597  21.281  1.00  0.00     0.226 C 
HETATM   11  O2  UNL     1       4.643  10.691  20.909  1.00  0.00    -0.273 OA
HETATM   12  C10 UNL     1       4.051  12.139  22.700  1.00  0.00     0.139 C 
HETATM   13  C11 UNL     1       4.870  13.408  22.941  1.00  0.00     0.177 C 
HETATM   14  C17 UNL     1       6.312  13.486  22.443  1.00  0.00     0.111 A 
HETATM   15  C18 UNL     1       7.049  14.725  22.875  1.00  0.00     0.051 C 
HETATM   16  O5  UNL     1       6.505  13.164  21.063  1.00  0.00    -0.366 OA
HETATM   17  C19 UNL     1       7.067  12.229  21.992  1.00  0.00     0.165 A 
HETATM   18  C20 UNL     1       8.561  12.025  21.973  1.00  0.00     0.043 C 
HETATM   19  C21 UNL     1       9.136  12.200  23.388  1.00  0.00     0.015 C 
HETATM   20  C22 UNL     1       9.388  12.782  20.904  1.00  0.00     0.143 C 
HETATM   21  C23 UNL     1       8.998  12.427  19.469  1.00  0.00     0.097 C 
HETATM   22  C24 UNL     1      10.051  13.003  18.518  1.00  0.00     0.166 C 
HETATM   23  N2  UNL     1      11.365  12.449  18.850  1.00  0.00    -0.316 N 
ATOM     24  H2  UNL     1      12.054  12.219  18.134  1.00  0.00     0.166 HD
HETATM   25  C25 UNL     1      11.592  12.273  20.092  1.00  0.00     0.260 C 
HETATM   26  O8  UNL     1      10.775  12.436  21.139  1.00  0.00    -0.311 OA
HETATM   27  C26 UNL     1       9.740  12.605  17.024  1.00  0.00     0.199 C 
HETATM   28  C28 UNL     1       8.428  13.141  16.508  1.00  0.00     0.010 C 
HETATM   29  C29 UNL     1       7.344  12.398  16.234  1.00  0.00    -0.001 C 
HETATM   30  C30 UNL     1       6.137  12.985  15.692  1.00  0.00     0.005 C 
HETATM   31  C31 UNL     1       4.935  12.392  15.531  1.00  0.00    -0.052 C 
HETATM   32  C33 UNL     1       4.599  10.982  15.983  1.00  0.00     0.075 C 
ENDROOT
BRANCH  13  33
HETATM   33  O3  UNL     1       4.164  14.581  22.484  1.00  0.00    -0.312 OA
BRANCH  33  34
HETATM   34  C12 UNL     1       3.665  15.405  23.448  1.00  0.00     0.259 C 
HETATM   35  O4  UNL     1       4.232  16.399  23.874  1.00  0.00    -0.265 OA
BRANCH  34  36
HETATM   36  C13 UNL     1       2.318  14.890  23.905  1.00  0.00     0.115 C 
BRANCH  36  37
HETATM   37  C14 UNL     1       1.989  15.256  25.361  1.00  0.00    -0.013 C 
HETATM   38  C15 UNL     1       1.389  14.068  26.121  1.00  0.00     0.010 C 
HETATM   39  C16 UNL     1       1.010  16.432  25.397  1.00  0.00     0.010 C 
ENDBRANCH  36  37
ENDBRANCH  34  36
ENDBRANCH  33  34
ENDBRANCH  13  33
BRANCH   1  40
HETATM   40  O1  UNL     1      -0.074   9.834  17.271  1.00  0.00    -0.354 OA
HETATM   41  C1  UNL     1      -0.481   9.764  15.912  1.00  0.00     0.210 C 
ENDBRANCH   1  40
BRANCH  22  42
HETATM   42  O6  UNL     1      10.045  14.431  18.608  1.00  0.00    -0.368 OA
HETATM   43  H32 UNL     1      10.666  14.698  17.903  1.00  0.00     0.212 HD
ENDBRANCH  22  42
BRANCH  25  44
HETATM   44  O7  UNL     1      12.795  11.836  20.482  1.00  0.00    -0.327 OA
HETATM   45  H33 UNL     1      13.338  11.763  19.683  1.00  0.00     0.221 HD
ENDBRANCH  25  44
BRANCH  27  46
HETATM   46  O9  UNL     1      10.748  13.212  16.182  1.00  0.00    -0.382 OA
HETATM   47  C27 UNL     1      11.113  12.374  15.094  1.00  0.00     0.202 C 
ENDBRANCH  27  46
BRANCH  31  48
HETATM   48  C32 UNL     1       3.774  13.118  14.877  1.00  0.00     0.198 C 
BRANCH  48  49
HETATM   49  O10 UNL     1       3.255  12.407  13.760  1.00  0.00    -0.397 OA
HETATM   50  H43 UNL     1       3.006  11.523  14.083  1.00  0.00     0.209 HD
ENDBRANCH  48  49
ENDBRANCH  31  48
TORSDOF 10
ENDMDL
MODEL 4
REMARK minimizedAffinity -6.1565032
REMARK CNNscore 0.156061575
REMARK CNNaffinity 5.09628153
REMARK  10 active torsions:
REMARK  status: ('A' for Active; 'I' for Inactive)
REMARK    1  A    between atoms: O1_2  and  C2_3 
REMARK    2  A    between atoms: C11_15  and  O3_16 
REMARK    3  A    between atoms: O3_16  and  C12_17 
REMARK    4  A    between atoms: C12_17  and  C13_19 
REMARK    5  A    between atoms: C13_19  and  C14_20 
REMARK    6  A    between atoms: C24_31  and  O6_32 
REMARK    7  A    between atoms: C25_35  and  O7_36 
REMARK    8  A    between atoms: C26_38  and  O9_39 
REMARK    9  A    between atoms: C31_44  and  C32_45 
REMARK   10  A    between atoms: C32_45  and  O10_46 
ROOT
HETATM    1  C2  UNL     1       1.241  17.093  14.588  1.00  0.00     0.092 A 
HETATM    2  C3  UNL     1       2.326  16.212  14.549  1.00  0.00     0.046 A 
HETATM    3  C4  UNL     1       2.146  14.837  14.763  1.00  0.00    -0.049 A 
HETATM    4  C5  UNL     1       0.858  14.347  15.029  1.00  0.00     0.039 A 
HETATM    5  C6  UNL     1      -0.243  15.212  15.102  1.00  0.00     0.061 A 
HETATM    6  C7  UNL     1      -0.047  16.589  14.862  1.00  0.00     0.094 A 
HETATM    7 CL1  UNL     1      -1.407  17.680  14.783  1.00  0.00    -0.079 Cl
HETATM    8  N1  UNL     1      -1.529  14.664  15.434  1.00  0.00    -0.321 N 
HETATM    9  C8  UNL     1      -2.149  15.179  16.649  1.00  0.00     0.159 C 
HETATM   10  C9  UNL     1      -2.042  13.614  14.671  1.00  0.00     0.226 C 
HETATM   11  O2  UNL     1      -1.436  13.151  13.697  1.00  0.00    -0.273 OA
HETATM   12  C10 UNL     1      -3.458  13.114  14.947  1.00  0.00     0.139 C 
HETATM   13  C11 UNL     1      -3.687  12.001  15.972  1.00  0.00     0.177 C 
HETATM   14  C17 UNL     1      -2.943  10.675  15.830  1.00  0.00     0.111 A 
HETATM   15  C18 UNL     1      -3.369   9.618  16.814  1.00  0.00     0.051 C 
HETATM   16  O5  UNL     1      -1.524  10.777  15.688  1.00  0.00    -0.366 OA
HETATM   17  C19 UNL     1      -2.220  10.303  14.528  1.00  0.00     0.165 A 
HETATM   18  C20 UNL     1      -1.903   8.915  14.030  1.00  0.00     0.043 C 
HETATM   19  C21 UNL     1      -3.197   8.103  13.869  1.00  0.00     0.015 C 
HETATM   20  C22 UNL     1      -0.792   8.115  14.755  1.00  0.00     0.143 C 
HETATM   21  C23 UNL     1       0.577   8.794  14.708  1.00  0.00     0.097 C 
HETATM   22  C24 UNL     1       1.634   7.799  15.195  1.00  0.00     0.166 C 
HETATM   23  N2  UNL     1       1.616   6.609  14.341  1.00  0.00    -0.316 N 
ATOM     24  H2  UNL     1       2.468   6.110  14.087  1.00  0.00     0.166 HD
HETATM   25  C25 UNL     1       0.465   6.238  13.938  1.00  0.00     0.260 C 
HETATM   26  O8  UNL     1      -0.726   6.824  14.104  1.00  0.00    -0.311 OA
HETATM   27  C26 UNL     1       3.080   8.421  15.099  1.00  0.00     0.199 C 
HETATM   28  C28 UNL     1       3.281   9.641  15.962  1.00  0.00     0.010 C 
HETATM   29  C29 UNL     1       3.432  10.895  15.505  1.00  0.00    -0.001 C 
HETATM   30  C30 UNL     1       3.673  12.006  16.400  1.00  0.00     0.005 C 
HETATM   31  C31 UNL     1       3.675  13.321  16.096  1.00  0.00    -0.052 C 
HETATM   32  C33 UNL     1       3.331  13.894  14.731  1.00  0.00     0.075 C 
ENDROOT
BRANCH  13  33
HETATM   33  O3  UNL     1      -3.503  12.486  17.319  1.00  0.00    -0.312 OA
BRANCH  33  34
HETATM   34  C12 UNL     1      -4.619  12.937  17.961  1.00  0.00     0.259 C 
HETATM   35  O4  UNL     1      -5.573  13.462  17.409  1.00  0.00    -0.265 OA
BRANCH  34  36
HETATM   36  C13 UNL     1      -4.480  12.692  19.448  1.00  0.00     0.115 C 
BRANCH  36  37
HETATM   37  C14 UNL     1      -5.132  13.786  20.307  1.00  0.00    -0.013 C 
HETATM   38  C15 UNL     1      -4.137  14.895  20.661  1.00  0.00     0.010 C 
HETATM   39  C16 UNL     1      -5.695  13.175  21.594  1.00  0.00     0.010 C 
ENDBRANCH  36  37
ENDBRANCH  34  36
ENDBRANCH  33  34
ENDBRANCH  13  33
BRANCH   1  40
HETATM   40  O1  UNL     1       1.341  18.446  14.377  1.00  0.00    -0.354 OA
HETATM   41  C1  UNL     1       2.476  19.122  14.901  1.00  0.00     0.210 C 
ENDBRANCH   1  40
BRANCH  22  42
HETATM   42  O6  UNL     1       1.383   7.468  16.564  1.00  0.00    -0.368 OA
HETATM   43  H32 UNL     1       2.156   6.920  16.803  1.00  0.00     0.212 HD
ENDBRANCH  22  42
BRANCH  25  44
HETATM   44  O7  UNL     1       0.356   5.120  13.211  1.00  0.00    -0.327 OA
HETATM   45  H33 UNL     1       1.245   4.739  13.151  1.00  0.00     0.221 HD
ENDBRANCH  25  44
BRANCH  27  46
HETATM   46  O9  UNL     1       4.020   7.445  15.609  1.00  0.00    -0.382 OA
HETATM   47  C27 UNL     1       5.349   7.707  15.180  1.00  0.00     0.202 C 
ENDBRANCH  27  46
BRANCH  31  48
HETATM   48  C32 UNL     1       4.016  14.375  17.132  1.00  0.00     0.198 C 
BRANCH  48  49
HETATM   49  O10 UNL     1       5.137  14.007  17.925  1.00  0.00    -0.397 OA
HETATM   50  H43 UNL     1       5.872  13.842  17.309  1.00  0.00     0.209 HD
ENDBRANCH  48  49
ENDBRANCH  31  48
TORSDOF 10
ENDMDL
MODEL 5
REMARK minimizedAffinity -6.45421124
REMARK CNNscore 0.129952759
REMARK CNNaffinity 4.96272278
REMARK  10 active torsions:
REMARK  status: ('A' for Active; 'I' for Inactive)
REMARK    1  A    between atoms: O1_2  and  C2_3 
REMARK    2  A    between atoms: C11_15  and  O3_16 
REMARK    3  A    between atoms: O3_16  and  C12_17 
REMARK    4  A    between atoms: C12_17  and  C13_19 
REMARK    5  A    between atoms: C13_19  and  C14_20 
REMARK    6  A    between atoms: C24_31  and  O6_32 
REMARK    7  A    between atoms: C25_35  and  O7_36 
REMARK    8  A    between atoms: C26_38  and  O9_39 
REMARK    9  A    between atoms: C31_44  and  C32_45 
REMARK   10  A    between atoms: C32_45  and  O10_46 
ROOT
HETATM    1  C2  UNL     1      12.434  20.866  19.939  1.00  0.00     0.092 A 
HETATM    2  C3  UNL     1      13.205  19.960  19.203  1.00  0.00     0.046 A 
HETATM    3  C4  UNL     1      12.975  18.578  19.292  1.00  0.00    -0.049 A 
HETATM    4  C5  UNL     1      11.963  18.105  20.142  1.00  0.00     0.039 A 
HETATM    5  C6  UNL     1      11.194  18.989  20.912  1.00  0.00     0.061 A 
HETATM    6  C7  UNL     1      11.425  20.376  20.793  1.00  0.00     0.094 A 
HETATM    7 CL1  UNL     1      10.391  21.521  21.608  1.00  0.00    -0.079 Cl
HETATM    8  N1  UNL     1      10.211  18.445  21.808  1.00  0.00    -0.321 N 
HETATM    9  C8  UNL     1      10.396  18.750  23.222  1.00  0.00     0.159 C 
HETATM   10  C9  UNL     1       9.236  17.582  21.308  1.00  0.00     0.226 C 
HETATM   11  O2  UNL     1       9.171  17.284  20.109  1.00  0.00    -0.273 OA
HETATM   12  C10 UNL     1       8.120  17.102  22.234  1.00  0.00     0.139 C 
HETATM   13  C11 UNL     1       8.309  15.828  23.059  1.00  0.00     0.177 C 
HETATM   14  C17 UNL     1       8.677  14.520  22.361  1.00  0.00     0.111 A 
HETATM   15  C18 UNL     1       8.687  13.317  23.265  1.00  0.00     0.051 C 
HETATM   16  O5  UNL     1       9.810  14.584  21.491  1.00  0.00    -0.366 OA
HETATM   17  C19 UNL     1       8.552  14.368  20.838  1.00  0.00     0.165 A 
HETATM   18  C20 UNL     1       8.367  13.087  20.066  1.00  0.00     0.043 C 
HETATM   19  C21 UNL     1       7.081  12.378  20.521  1.00  0.00     0.015 C 
HETATM   20  C22 UNL     1       9.569  12.116  19.962  1.00  0.00     0.143 C 
HETATM   21  C23 UNL     1      10.789  12.730  19.276  1.00  0.00     0.097 C 
HETATM   22  C24 UNL     1      11.795  11.615  18.977  1.00  0.00     0.166 C 
HETATM   23  N2  UNL     1      11.169  10.609  18.116  1.00  0.00    -0.316 N 
ATOM     24  H2  UNL     1      11.684  10.130  17.377  1.00  0.00     0.166 HD
HETATM   25  C25 UNL     1       9.939  10.372  18.351  1.00  0.00     0.260 C 
HETATM   26  O8  UNL     1       9.105  10.968  19.210  1.00  0.00    -0.311 OA
HETATM   27  C26 UNL     1      13.048  12.179  18.201  1.00  0.00     0.199 C 
HETATM   28  C28 UNL     1      13.837  13.205  18.975  1.00  0.00     0.010 C 
HETATM   29  C29 UNL     1      13.899  14.514  18.683  1.00  0.00    -0.001 C 
HETATM   30  C30 UNL     1      14.723  15.425  19.447  1.00  0.00     0.005 C 
HETATM   31  C31 UNL     1      14.747  16.773  19.371  1.00  0.00    -0.052 C 
HETATM   32  C33 UNL     1      13.824  17.607  18.499  1.00  0.00     0.075 C 
ENDROOT
BRANCH  13  33
HETATM   33  O3  UNL     1       9.235  16.042  24.146  1.00  0.00    -0.312 OA
BRANCH  33  34
HETATM   34  C12 UNL     1       8.689  16.263  25.375  1.00  0.00     0.259 C 
HETATM   35  O4  UNL     1       9.238  16.006  26.435  1.00  0.00    -0.265 OA
BRANCH  34  36
HETATM   36  C13 UNL     1       7.308  16.860  25.214  1.00  0.00     0.115 C 
BRANCH  36  37
HETATM   37  C14 UNL     1       7.106  18.150  26.025  1.00  0.00    -0.013 C 
HETATM   38  C15 UNL     1       6.056  17.967  27.125  1.00  0.00     0.010 C 
HETATM   39  C16 UNL     1       6.680  19.291  25.097  1.00  0.00     0.010 C 
ENDBRANCH  36  37
ENDBRANCH  34  36
ENDBRANCH  33  34
ENDBRANCH  13  33
BRANCH   1  40
HETATM   40  O1  UNL     1      12.595  22.228  19.892  1.00  0.00    -0.354 OA
HETATM   41  C1  UNL     1      12.290  22.896  18.675  1.00  0.00     0.210 C 
ENDBRANCH   1  40
BRANCH  22  42
HETATM   42  O6  UNL     1      12.255  11.044  20.205  1.00  0.00    -0.368 OA
HETATM   43  H32 UNL     1      12.953  10.426  19.913  1.00  0.00     0.212 HD
ENDBRANCH  22  42
BRANCH  25  44
HETATM   44  O7  UNL     1       9.312   9.416  17.655  1.00  0.00    -0.327 OA
HETATM   45  H33 UNL     1       9.976   9.014  17.074  1.00  0.00     0.221 HD
ENDBRANCH  25  44
BRANCH  27  46
HETATM   46  O9  UNL     1      13.969  11.084  17.986  1.00  0.00    -0.382 OA
HETATM   47  C27 UNL     1      14.637  11.183  16.736  1.00  0.00     0.202 C 
ENDBRANCH  27  46
BRANCH  31  48
HETATM   48  C32 UNL     1      15.722  17.597  20.191  1.00  0.00     0.198 C 
BRANCH  48  49
HETATM   49  O10 UNL     1      16.559  18.409  19.376  1.00  0.00    -0.397 OA
HETATM   50  H43 UNL     1      15.969  18.962  18.835  1.00  0.00     0.209 HD
ENDBRANCH  48  49
ENDBRANCH  31  48
TORSDOF 10
ENDMDL
MODEL 6
REMARK minimizedAffinity -5.98633623
REMARK CNNscore 0.121215783
REMARK CNNaffinity 3.92494965
REMARK  10 active torsions:
REMARK  status: ('A' for Active; 'I' for Inactive)
REMARK    1  A    between atoms: O1_2  and  C2_3 
REMARK    2  A    between atoms: C11_15  and  O3_16 
REMARK    3  A    between atoms: O3_16  and  C12_17 
REMARK    4  A    between atoms: C12_17  and  C13_19 
REMARK    5  A    between atoms: C13_19  and  C14_20 
REMARK    6  A    between atoms: C24_31  and  O6_32 
REMARK    7  A    between atoms: C25_35  and  O7_36 
REMARK    8  A    between atoms: C26_38  and  O9_39 
REMARK    9  A    between atoms: C31_44  and  C32_45 
REMARK   10  A    between atoms: C32_45  and  O10_46 
ROOT
HETATM    1  C2  UNL     1      -1.624  17.091  -3.561  1.00  0.00     0.092 A 
HETATM    2  C3  UNL     1      -1.889  17.490  -2.246  1.00  0.00     0.046 A 
HETATM    3  C4  UNL     1      -0.949  17.278  -1.226  1.00  0.00    -0.049 A 
HETATM    4  C5  UNL     1       0.267  16.647  -1.532  1.00  0.00     0.039 A 
HETATM    5  C6  UNL     1       0.546  16.211  -2.835  1.00  0.00     0.061 A 
HETATM    6  C7  UNL     1      -0.401  16.452  -3.853  1.00  0.00     0.094 A 
HETATM    7 CL1  UNL     1      -0.034  16.073  -5.517  1.00  0.00    -0.079 Cl
HETATM    8  N1  UNL     1       1.781  15.520  -3.080  1.00  0.00    -0.321 N 
HETATM    9  C8  UNL     1       1.662  14.156  -3.583  1.00  0.00     0.159 C 
HETATM   10  C9  UNL     1       2.986  16.124  -2.718  1.00  0.00     0.226 C 
HETATM   11  O2  UNL     1       3.030  17.253  -2.214  1.00  0.00    -0.273 OA
HETATM   12  C10 UNL     1       4.302  15.445  -3.090  1.00  0.00     0.139 C 
HETATM   13  C11 UNL     1       4.937  14.438  -2.128  1.00  0.00     0.177 C 
HETATM   14  C17 UNL     1       5.228  14.846  -0.686  1.00  0.00     0.111 A 
HETATM   15  C18 UNL     1       5.986  13.817   0.108  1.00  0.00     0.051 C 
HETATM   16  O5  UNL     1       4.126  15.413   0.028  1.00  0.00    -0.366 OA
HETATM   17  C19 UNL     1       5.200  16.319  -0.254  1.00  0.00     0.165 A 
HETATM   18  C20 UNL     1       5.929  16.938   0.912  1.00  0.00     0.043 C 
HETATM   19  C21 UNL     1       7.443  16.722   0.762  1.00  0.00     0.015 C 
HETATM   20  C22 UNL     1       5.427  16.616   2.341  1.00  0.00     0.143 C 
HETATM   21  C23 UNL     1       3.985  17.057   2.593  1.00  0.00     0.097 C 
HETATM   22  C24 UNL     1       3.696  16.952   4.093  1.00  0.00     0.166 C 
HETATM   23  N2  UNL     1       4.634  17.799   4.833  1.00  0.00    -0.316 N 
ATOM     24  H2  UNL     1       4.357  18.320   5.665  1.00  0.00     0.166 HD
HETATM   25  C25 UNL     1       5.820  17.843   4.369  1.00  0.00     0.260 C 
HETATM   26  O8  UNL     1       6.320  17.300   3.253  1.00  0.00    -0.311 OA
HETATM   27  C26 UNL     1       2.242  17.465   4.425  1.00  0.00     0.199 C 
HETATM   28  C28 UNL     1       1.146  16.664   3.770  1.00  0.00     0.010 C 
HETATM   29  C29 UNL     1       0.357  17.102   2.776  1.00  0.00    -0.001 C 
HETATM   30  C30 UNL     1      -0.710  16.287   2.236  1.00  0.00     0.005 C 
HETATM   31  C31 UNL     1      -1.458  16.531   1.139  1.00  0.00    -0.052 C 
HETATM   32  C33 UNL     1      -1.252  17.704   0.196  1.00  0.00     0.075 C 
ENDROOT
BRANCH  13  33
HETATM   33  O3  UNL     1       4.201  13.196  -2.112  1.00  0.00    -0.312 OA
BRANCH  33  34
HETATM   34  C12 UNL     1       4.776  12.140  -2.756  1.00  0.00     0.259 C 
HETATM   35  O4  UNL     1       5.689  11.466  -2.307  1.00  0.00    -0.265 OA
BRANCH  34  36
HETATM   36  C13 UNL     1       4.113  11.950  -4.103  1.00  0.00     0.115 C 
BRANCH  36  37
HETATM   37  C14 UNL     1       5.088  12.082  -5.284  1.00  0.00    -0.013 C 
HETATM   38  C15 UNL     1       4.563  13.054  -6.345  1.00  0.00     0.010 C 
HETATM   39  C16 UNL     1       5.326  10.710  -5.922  1.00  0.00     0.010 C 
ENDBRANCH  36  37
ENDBRANCH  34  36
ENDBRANCH  33  34
ENDBRANCH  13  33
BRANCH   1  40
HETATM   40  O1  UNL     1      -2.490  17.276  -4.609  1.00  0.00    -0.354 OA
HETATM   41  C1  UNL     1      -3.791  16.714  -4.508  1.00  0.00     0.210 C 
ENDBRANCH   1  40
BRANCH  22  42
HETATM   42  O6  UNL     1       3.788  15.585   4.503  1.00  0.00    -0.368 OA
HETATM   43  H32 UNL     1       3.493  15.613   5.433  1.00  0.00     0.212 HD
ENDBRANCH  22  42
BRANCH  25  44
HETATM   44  O7  UNL     1       6.755  18.539   5.027  1.00  0.00    -0.327 OA
HETATM   45  H33 UNL     1       6.334  18.882   5.829  1.00  0.00     0.221 HD
ENDBRANCH  25  44
BRANCH  27  46
HETATM   46  O9  UNL     1       2.025  17.302   5.847  1.00  0.00    -0.382 OA
HETATM   47  C27 UNL     1       1.038  18.194   6.344  1.00  0.00     0.202 C 
ENDBRANCH  27  46
BRANCH  31  48
HETATM   48  C32 UNL     1      -2.596  15.614   0.733  1.00  0.00     0.198 C 
BRANCH  48  49
HETATM   49  O10 UNL     1      -2.660  14.446   1.542  1.00  0.00    -0.397 OA
HETATM   50  H43 UNL     1      -2.738  14.748   2.463  1.00  0.00     0.209 HD
ENDBRANCH  48  49
ENDBRANCH  31  48
TORSDOF 10
ENDMDL
MODEL 7
REMARK minimizedAffinity -6.82855988
REMARK CNNscore 0.101710975
REMARK CNNaffinity 4.36265516
REMARK  10 active torsions:
REMARK  status: ('A' for Active; 'I' for Inactive)
REMARK    1  A    between atoms: O1_2  and  C2_3 
REMARK    2  A    between atoms: C11_15  and  O3_16 
REMARK    3  A    between atoms: O3_16  and  C12_17 
REMARK    4  A    between atoms: C12_17  and  C13_19 
REMARK    5  A    between atoms: C13_19  and  C14_20 
REMARK    6  A    between atoms: C24_31  and  O6_32 
REMARK    7  A    between atoms: C25_35  and  O7_36 
REMARK    8  A    between atoms: C26_38  and  O9_39 
REMARK    9  A    between atoms: C31_44  and  C32_45 
REMARK   10  A    between atoms: C32_45  and  O10_46 
ROOT
HETATM    1  C2  UNL     1       0.806  11.044  19.153  1.00  0.00     0.092 A 
HETATM    2  C3  UNL     1       1.258  11.474  20.405  1.00  0.00     0.046 A 
HETATM    3  C4  UNL     1       2.573  11.934  20.576  1.00  0.00    -0.049 A 
HETATM    4  C5  UNL     1       3.443  11.952  19.475  1.00  0.00     0.039 A 
HETATM    5  C6  UNL     1       3.024  11.500  18.216  1.00  0.00     0.061 A 
HETATM    6  C7  UNL     1       1.693  11.061  18.057  1.00  0.00     0.094 A 
HETATM    7 CL1  UNL     1       1.079  10.640  16.478  1.00  0.00    -0.079 Cl
HETATM    8  N1  UNL     1       3.974  11.486  17.139  1.00  0.00    -0.321 N 
HETATM    9  C8  UNL     1       4.253  10.183  16.548  1.00  0.00     0.159 C 
HETATM   10  C9  UNL     1       4.650  12.662  16.809  1.00  0.00     0.226 C 
HETATM   11  O2  UNL     1       4.441  13.729  17.398  1.00  0.00    -0.273 OA
HETATM   12  C10 UNL     1       5.566  12.677  15.587  1.00  0.00     0.139 C 
HETATM   13  C11 UNL     1       7.042  12.301  15.737  1.00  0.00     0.177 C 
HETATM   14  C17 UNL     1       7.913  13.037  16.753  1.00  0.00     0.111 A 
HETATM   15  C18 UNL     1       9.372  12.673  16.694  1.00  0.00     0.051 C 
HETATM   16  O5  UNL     1       7.395  13.090  18.084  1.00  0.00    -0.366 OA
HETATM   17  C19 UNL     1       7.446  14.348  17.399  1.00  0.00     0.165 A 
HETATM   18  C20 UNL     1       8.317  15.435  17.979  1.00  0.00     0.043 C 
HETATM   19  C21 UNL     1       9.267  15.981  16.902  1.00  0.00     0.015 C 
HETATM   20  C22 UNL     1       9.043  15.152  19.318  1.00  0.00     0.143 C 
HETATM   21  C23 UNL     1       8.091  14.851  20.475  1.00  0.00     0.097 C 
HETATM   22  C24 UNL     1       8.889  14.871  21.782  1.00  0.00     0.166 C 
HETATM   23  N2  UNL     1       9.515  16.184  21.954  1.00  0.00    -0.316 N 
ATOM     24  H2  UNL     1       9.603  16.629  22.867  1.00  0.00     0.166 HD
HETATM   25  C25 UNL     1       9.941  16.735  20.886  1.00  0.00     0.260 C 
HETATM   26  O8  UNL     1       9.826  16.333  19.616  1.00  0.00    -0.311 OA
HETATM   27  C26 UNL     1       7.943  14.639  23.023  1.00  0.00     0.199 C 
HETATM   28  C28 UNL     1       7.249  13.300  23.022  1.00  0.00     0.010 C 
HETATM   29  C29 UNL     1       5.935  13.111  22.825  1.00  0.00    -0.001 C 
HETATM   30  C30 UNL     1       5.337  11.795  22.892  1.00  0.00     0.005 C 
HETATM   31  C31 UNL     1       4.079  11.445  22.552  1.00  0.00    -0.052 C 
HETATM   32  C33 UNL     1       3.055  12.386  21.940  1.00  0.00     0.075 C 
ENDROOT
BRANCH  13  33
HETATM   33  O3  UNL     1       7.200  10.880  15.944  1.00  0.00    -0.312 OA
BRANCH  33  34
HETATM   34  C12 UNL     1       7.808  10.184  14.942  1.00  0.00     0.259 C 
HETATM   35  O4  UNL     1       8.965   9.796  14.968  1.00  0.00    -0.265 OA
BRANCH  34  36
HETATM   36  C13 UNL     1       6.831   9.981  13.804  1.00  0.00     0.115 C 
BRANCH  36  37
HETATM   37  C14 UNL     1       6.824   8.544  13.259  1.00  0.00    -0.013 C 
HETATM   38  C15 UNL     1       6.029   8.439  11.953  1.00  0.00     0.010 C 
HETATM   39  C16 UNL     1       6.225   7.593  14.298  1.00  0.00     0.010 C 
ENDBRANCH  36  37
ENDBRANCH  34  36
ENDBRANCH  33  34
ENDBRANCH  13  33
BRANCH   1  40
HETATM   40  O1  UNL     1      -0.467  10.592  18.909  1.00  0.00    -0.354 OA
HETATM   41  C1  UNL     1      -1.516  11.549  18.852  1.00  0.00     0.210 C 
ENDBRANCH   1  40
BRANCH  22  42
HETATM   42  O6  UNL     1       9.862  13.824  21.764  1.00  0.00    -0.368 OA
HETATM   43  H32 UNL     1      10.239  13.858  22.665  1.00  0.00     0.212 HD
ENDBRANCH  22  42
BRANCH  25  44
HETATM   44  O7  UNL     1      10.588  17.903  20.966  1.00  0.00    -0.327 OA
HETATM   45  H33 UNL     1      10.656  18.121  21.908  1.00  0.00     0.221 HD
ENDBRANCH  25  44
BRANCH  27  46
HETATM   46  O9  UNL     1       8.765  14.632  24.215  1.00  0.00    -0.382 OA
HETATM   47  C27 UNL     1       8.621  15.826  24.972  1.00  0.00     0.202 C 
ENDBRANCH  27  46
BRANCH  31  48
HETATM   48  C32 UNL     1       3.569  10.029  22.744  1.00  0.00     0.198 C 
BRANCH  48  49
HETATM   49  O10 UNL     1       3.464   9.677  24.118  1.00  0.00    -0.397 OA
HETATM   50  H43 UNL     1       2.884  10.339  24.532  1.00  0.00     0.209 HD
ENDBRANCH  48  49
ENDBRANCH  31  48
TORSDOF 10
ENDMDL
MODEL 8
REMARK minimizedAffinity -5.97433376
REMARK CNNscore 0.0989449695
REMARK CNNaffinity 4.2828083
REMARK  10 active torsions:
REMARK  status: ('A' for Active; 'I' for Inactive)
REMARK    1  A    between atoms: O1_2  and  C2_3 
REMARK    2  A    between atoms: C11_15  and  O3_16 
REMARK    3  A    between atoms: O3_16  and  C12_17 
REMARK    4  A    between atoms: C12_17  and  C13_19 
REMARK    5  A    between atoms: C13_19  and  C14_20 
REMARK    6  A    between atoms: C24_31  and  O6_32 
REMARK    7  A    between atoms: C25_35  and  O7_36 
REMARK    8  A    between atoms: C26_38  and  O9_39 
REMARK    9  A    between atoms: C31_44  and  C32_45 
REMARK   10  A    between atoms: C32_45  and  O10_46 
ROOT
HETATM    1  C2  UNL     1     -12.482  -9.231  17.705  1.00  0.00     0.092 A 
HETATM    2  C3  UNL     1     -11.858  -8.576  16.638  1.00  0.00     0.046 A 
HETATM    3  C4  UNL     1     -12.535  -7.591  15.902  1.00  0.00    -0.049 A 
HETATM    4  C5  UNL     1     -13.859  -7.271  16.240  1.00  0.00     0.039 A 
HETATM    5  C6  UNL     1     -14.518  -7.932  17.286  1.00  0.00     0.061 A 
HETATM    6  C7  UNL     1     -13.815  -8.904  18.029  1.00  0.00     0.094 A 
HETATM    7 CL1  UNL     1     -14.537  -9.639  19.438  1.00  0.00    -0.079 Cl
HETATM    8  N1  UNL     1     -15.891  -7.605  17.551  1.00  0.00    -0.321 N 
HETATM    9  C8  UNL     1     -16.846  -8.699  17.421  1.00  0.00     0.159 C 
HETATM   10  C9  UNL     1     -16.243  -6.275  17.788  1.00  0.00     0.226 C 
HETATM   11  O2  UNL     1     -15.405  -5.365  17.804  1.00  0.00    -0.273 OA
HETATM   12  C10 UNL     1     -17.679  -5.944  18.190  1.00  0.00     0.139 C 
HETATM   13  C11 UNL     1     -18.723  -5.649  17.111  1.00  0.00     0.177 C 
HETATM   14  C17 UNL     1     -18.459  -4.553  16.081  1.00  0.00     0.111 A 
HETATM   15  C18 UNL     1     -19.624  -4.265  15.172  1.00  0.00     0.051 C 
HETATM   16  O5  UNL     1     -17.211  -4.645  15.389  1.00  0.00    -0.366 OA
HETATM   17  C19 UNL     1     -17.333  -3.528  16.279  1.00  0.00     0.165 A 
HETATM   18  C20 UNL     1     -17.253  -2.143  15.690  1.00  0.00     0.043 C 
HETATM   19  C21 UNL     1     -18.466  -1.309  16.132  1.00  0.00     0.015 C 
HETATM   20  C22 UNL     1     -16.969  -2.009  14.173  1.00  0.00     0.143 C 
HETATM   21  C23 UNL     1     -15.632  -2.616  13.748  1.00  0.00     0.097 C 
HETATM   22  C24 UNL     1     -15.331  -2.182  12.311  1.00  0.00     0.166 C 
HETATM   23  N2  UNL     1     -15.281  -0.719  12.243  1.00  0.00    -0.316 N 
ATOM     24  H2  UNL     1     -14.618  -0.226  11.645  1.00  0.00     0.166 HD
HETATM   25  C25 UNL     1     -16.120  -0.104  12.980  1.00  0.00     0.260 C 
HETATM   26  O8  UNL     1     -16.984  -0.592  13.876  1.00  0.00    -0.311 OA
HETATM   27  C26 UNL     1     -13.924  -2.719  11.842  1.00  0.00     0.199 C 
HETATM   28  C28 UNL     1     -13.823  -4.223  11.813  1.00  0.00     0.010 C 
HETATM   29  C29 UNL     1     -13.084  -4.965  12.655  1.00  0.00    -0.001 C 
HETATM   30  C30 UNL     1     -12.999  -6.403  12.527  1.00  0.00     0.005 C 
HETATM   31  C31 UNL     1     -12.440  -7.275  13.392  1.00  0.00    -0.052 C 
HETATM   32  C33 UNL     1     -11.853  -6.897  14.741  1.00  0.00     0.075 C 
ENDROOT
BRANCH  13  33
HETATM   33  O3  UNL     1     -19.106  -6.852  16.411  1.00  0.00    -0.312 OA
BRANCH  33  34
HETATM   34  C12 UNL     1     -20.163  -7.543  16.923  1.00  0.00     0.259 C 
HETATM   35  O4  UNL     1     -20.292  -8.756  16.870  1.00  0.00    -0.265 OA
BRANCH  34  36
HETATM   36  C13 UNL     1     -21.143  -6.575  17.550  1.00  0.00     0.115 C 
BRANCH  36  37
HETATM   37  C14 UNL     1     -21.636  -7.022  18.935  1.00  0.00    -0.013 C 
HETATM   38  C15 UNL     1     -23.166  -7.003  19.023  1.00  0.00     0.010 C 
HETATM   39  C16 UNL     1     -21.051  -6.111  20.018  1.00  0.00     0.010 C 
ENDBRANCH  36  37
ENDBRANCH  34  36
ENDBRANCH  33  34
ENDBRANCH  13  33
BRANCH   1  40
HETATM   40  O1  UNL     1     -11.879 -10.195  18.473  1.00  0.00    -0.354 OA
HETATM   41  C1  UNL     1     -10.522  -9.998  18.848  1.00  0.00     0.210 C 
ENDBRANCH   1  40
BRANCH  22  42
HETATM   42  O6  UNL     1     -16.325  -2.715  11.432  1.00  0.00    -0.368 OA
HETATM   43  H32 UNL     1     -15.992  -2.470  10.548  1.00  0.00     0.212 HD
ENDBRANCH  22  42
BRANCH  25  44
HETATM   44  O7  UNL     1     -16.186   1.231  12.922  1.00  0.00    -0.327 OA
HETATM   45  H33 UNL     1     -15.555   1.512  12.242  1.00  0.00     0.221 HD
ENDBRANCH  25  44
BRANCH  27  46
HETATM   46  O9  UNL     1     -13.724  -2.305  10.470  1.00  0.00    -0.382 OA
HETATM   47  C27 UNL     1     -13.740  -3.405   9.571  1.00  0.00     0.202 C 
ENDBRANCH  27  46
BRANCH  31  48
HETATM   48  C32 UNL     1     -12.363  -8.759  13.087  1.00  0.00     0.198 C 
BRANCH  48  49
HETATM   49  O10 UNL     1     -11.116  -9.126  12.512  1.00  0.00    -0.397 OA
HETATM   50  H43 UNL     1     -10.426  -8.840  13.135  1.00  0.00     0.209 HD
ENDBRANCH  48  49
ENDBRANCH  31  48
TORSDOF 10
ENDMDL
MODEL 9
REMARK minimizedAffinity -6.78208256
REMARK CNNscore 0.0971818417
REMARK CNNaffinity 4.80785036
REMARK  10 active torsions:
REMARK  status: ('A' for Active; 'I' for Inactive)
REMARK    1  A    between atoms: O1_2  and  C2_3 
REMARK    2  A    between atoms: C11_15  and  O3_16 
REMARK    3  A    between atoms: O3_16  and  C12_17 
REMARK    4  A    between atoms: C12_17  and  C13_19 
REMARK    5  A    between atoms: C13_19  and  C14_20 
REMARK    6  A    between atoms: C24_31  and  O6_32 
REMARK    7  A    between atoms: C25_35  and  O7_36 
REMARK    8  A    between atoms: C26_38  and  O9_39 
REMARK    9  A    between atoms: C31_44  and  C32_45 
REMARK   10  A    between atoms: C32_45  and  O10_46 
ROOT
HETATM    1  C2  UNL     1       2.510  14.725  18.457  1.00  0.00     0.092 A 
HETATM    2  C3  UNL     1       3.860  14.368  18.364  1.00  0.00     0.046 A 
HETATM    3  C4  UNL     1       4.253  13.210  17.676  1.00  0.00    -0.049 A 
HETATM    4  C5  UNL     1       3.273  12.396  17.087  1.00  0.00     0.039 A 
HETATM    5  C6  UNL     1       1.912  12.714  17.190  1.00  0.00     0.061 A 
HETATM    6  C7  UNL     1       1.536  13.895  17.865  1.00  0.00     0.094 A 
HETATM    7 CL1  UNL     1      -0.129  14.416  17.883  1.00  0.00    -0.079 Cl
HETATM    8  N1  UNL     1       0.949  11.815  16.616  1.00  0.00    -0.321 N 
HETATM    9  C8  UNL     1      -0.011  11.229  17.544  1.00  0.00     0.159 C 
HETATM   10  C9  UNL     1       1.058  11.466  15.270  1.00  0.00     0.226 C 
HETATM   11  O2  UNL     1       1.946  11.925  14.540  1.00  0.00    -0.273 OA
HETATM   12  C10 UNL     1      -0.033  10.609  14.631  1.00  0.00     0.139 C 
HETATM   13  C11 UNL     1       0.080   9.084  14.661  1.00  0.00     0.177 C 
HETATM   14  C17 UNL     1       1.331   8.405  14.108  1.00  0.00     0.111 A 
HETATM   15  C18 UNL     1       1.251   6.903  14.062  1.00  0.00     0.051 C 
HETATM   16  O5  UNL     1       2.574   8.891  14.622  1.00  0.00    -0.366 OA
HETATM   17  C19 UNL     1       2.335   9.174  13.237  1.00  0.00     0.165 A 
HETATM   18  C20 UNL     1       3.287   8.594  12.222  1.00  0.00     0.043 C 
HETATM   19  C21 UNL     1       2.505   7.835  11.138  1.00  0.00     0.015 C 
HETATM   20  C22 UNL     1       4.506   7.791  12.739  1.00  0.00     0.143 C 
HETATM   21  C23 UNL     1       5.443   8.610  13.626  1.00  0.00     0.097 C 
HETATM   22  C24 UNL     1       6.735   7.816  13.839  1.00  0.00     0.166 C 
HETATM   23  N2  UNL     1       7.359   7.539  12.544  1.00  0.00    -0.316 N 
ATOM     24  H2  UNL     1       8.371   7.546  12.415  1.00  0.00     0.166 HD
HETATM   25  C25 UNL     1       6.554   7.288  11.587  1.00  0.00     0.260 C 
HETATM   26  O8  UNL     1       5.217   7.325  11.566  1.00  0.00    -0.311 OA
HETATM   27  C26 UNL     1       7.773   8.645  14.689  1.00  0.00     0.199 C 
HETATM   28  C28 UNL     1       7.298   8.978  16.081  1.00  0.00     0.010 C 
HETATM   29  C29 UNL     1       6.968  10.206  16.512  1.00  0.00    -0.001 C 
HETATM   30  C30 UNL     1       6.570  10.451  17.881  1.00  0.00     0.005 C 
HETATM   31  C31 UNL     1       6.057  11.587  18.399  1.00  0.00    -0.052 C 
HETATM   32  C33 UNL     1       5.717  12.828  17.592  1.00  0.00     0.075 C 
ENDROOT
BRANCH  13  33
HETATM   33  O3  UNL     1      -0.171   8.568  15.986  1.00  0.00    -0.312 OA
BRANCH  33  34
HETATM   34  C12 UNL     1      -1.464   8.253  16.281  1.00  0.00     0.259 C 
HETATM   35  O4  UNL     1      -2.135   8.803  17.139  1.00  0.00    -0.265 OA
BRANCH  34  36
HETATM   36  C13 UNL     1      -1.924   7.119  15.389  1.00  0.00     0.115 C 
BRANCH  36  37
HETATM   37  C14 UNL     1      -3.247   7.414  14.666  1.00  0.00    -0.013 C 
HETATM   38  C15 UNL     1      -4.361   6.463  15.116  1.00  0.00     0.010 C 
HETATM   39  C16 UNL     1      -3.054   7.292  13.152  1.00  0.00     0.010 C 
ENDBRANCH  36  37
ENDBRANCH  34  36
ENDBRANCH  33  34
ENDBRANCH  13  33
BRANCH   1  40
HETATM   40  O1  UNL     1       2.055  15.847  19.102  1.00  0.00    -0.354 OA
HETATM   41  C1  UNL     1       2.311  17.111  18.506  1.00  0.00     0.210 C 
ENDBRANCH   1  40
BRANCH  22  42
HETATM   42  O6  UNL     1       6.442   6.610  14.550  1.00  0.00    -0.368 OA
HETATM   43  H32 UNL     1       7.327   6.234  14.721  1.00  0.00     0.212 HD
ENDBRANCH  22  42
BRANCH  25  44
HETATM   44  O7  UNL     1       7.047   6.956  10.388  1.00  0.00    -0.327 OA
HETATM   45  H33 UNL     1       8.011   6.925  10.481  1.00  0.00     0.221 HD
ENDBRANCH  25  44
BRANCH  27  46
HETATM   46  O9  UNL     1       8.948   7.823  14.884  1.00  0.00    -0.382 OA
HETATM   47  C27 UNL     1       9.351   7.778  16.245  1.00  0.00     0.202 C 
ENDBRANCH  27  46
BRANCH  31  48
HETATM   48  C32 UNL     1       5.751  11.718  19.879  1.00  0.00     0.198 C 
BRANCH  48  49
HETATM   49  O10 UNL     1       6.518  12.742  20.499  1.00  0.00    -0.397 OA
HETATM   50  H43 UNL     1       6.336  13.562  20.008  1.00  0.00     0.209 HD
ENDBRANCH  48  49
ENDBRANCH  31  48
TORSDOF 10
ENDMDL
