MODEL 1
REMARK minimizedAffinity -10.4288979
REMARK CNNscore 0.571077228
REMARK CNNaffinity 6.98382235
REMARK  8 active torsions:
REMARK  status: ('A' for Active; 'I' for Inactive)
REMARK    1  A    between atoms: C2_2  and  C30_34 
REMARK    2  A    between atoms: C3_3  and  C4_4 
REMARK    3  A    between atoms: C4_4  and  O1_5 
REMARK    4  A    between atoms: C4_4  and  C5_6 
REMARK    5  A    between atoms: C5_6  and  C6_7 
REMARK    6  A    between atoms: C6_7  and  C8_9 
REMARK    7  A    between atoms: C10_11  and  O2_12 
REMARK    8  A    between atoms: C30_34  and  O6_36 
ROOT
HETATM    1  C8  UNL     1      -1.087  49.289 -19.329  1.00  0.00     0.001 C 
HETATM    2  C9  UNL     1      -2.335  48.475 -18.870  1.00  0.00     0.038 C 
HETATM    3  C10 UNL     1      -3.311  48.409 -20.062  1.00  0.00     0.131 C 
HETATM    4  C11 UNL     1      -2.459  48.841 -21.283  1.00  0.00     0.014 C 
HETATM    5  C12 UNL     1      -1.646  47.607 -21.788  1.00  0.00     0.023 C 
HETATM    6  C13 UNL     1      -3.146  49.388 -22.529  1.00  0.00    -0.058 C 
HETATM    7  C14 UNL     1      -2.536  50.260 -23.372  1.00  0.00    -0.000 C 
HETATM    8  C15 UNL     1      -1.153  50.766 -22.997  1.00  0.00     0.157 C 
HETATM    9  O3  UNL     1      -0.495  51.469 -23.763  1.00  0.00    -0.293 OA
HETATM   10  C16 UNL     1      -0.542  50.408 -21.645  1.00  0.00     0.094 C 
HETATM   11  C17 UNL     1      -1.601  49.986 -20.628  1.00  0.00    -0.019 C 
HETATM   12  C18 UNL     1      -2.438  51.248 -20.238  1.00  0.00     0.017 C 
HETATM   13  C19 UNL     1      -3.275  50.809 -24.614  1.00  0.00    -0.008 C 
HETATM   14  C20 UNL     1      -4.139  51.993 -24.080  1.00  0.00     0.021 C 
HETATM   15  C21 UNL     1      -2.353  51.411 -25.716  1.00  0.00     0.022 C 
HETATM   16  C22 UNL     1      -3.041  51.576 -27.060  1.00  0.00     0.080 C 
HETATM   17  C23 UNL     1      -3.409  50.229 -27.620  1.00  0.00     0.135 C 
HETATM   18  O4  UNL     1      -3.442  50.058 -28.840  1.00  0.00    -0.297 OA
HETATM   19  C24 UNL     1      -3.752  49.109 -26.626  1.00  0.00     0.018 C 
HETATM   20  C25 UNL     1      -2.514  48.206 -26.479  1.00  0.00     0.023 C 
HETATM   21  C26 UNL     1      -4.885  48.275 -27.273  1.00  0.00     0.023 C 
HETATM   22  C27 UNL     1      -4.249  49.733 -25.266  1.00  0.00     0.014 C 
HETATM   23  C28 UNL     1      -4.730  48.626 -24.299  1.00  0.00     0.011 C 
HETATM   24  C29 UNL     1      -4.542  48.909 -22.821  1.00  0.00     0.036 C 
ENDROOT
BRANCH   1  25
HETATM   25  C6  UNL     1      -0.489  50.139 -18.165  1.00  0.00    -0.011 C 
HETATM   26  C7  UNL     1      -1.575  50.752 -17.274  1.00  0.00     0.010 C 
BRANCH  25  27
HETATM   27  C5  UNL     1       0.419  51.263 -18.738  1.00  0.00     0.040 C 
BRANCH  27  28
HETATM   28  C4  UNL     1       0.608  52.510 -17.856  1.00  0.00     0.142 C 
BRANCH  28  29
HETATM   29  C3  UNL     1       1.980  52.637 -17.252  1.00  0.00     0.018 C 
HETATM   30  C2  UNL     1       2.415  52.311 -16.018  1.00  0.00     0.010 C 
HETATM   31  C1  UNL     1       3.855  52.396 -15.614  1.00  0.00     0.055 C 
BRANCH  30  32
HETATM   32  C30 UNL     1       1.521  51.821 -14.951  1.00  0.00     0.171 C 
HETATM   33  O5  UNL     1       1.466  50.676 -14.539  1.00  0.00    -0.646 OA
BRANCH  32  34
HETATM   34  O6  UNL     1       0.859  52.822 -14.344  1.00  0.00    -0.773 OA
HETATM   35  H44 UNL     1       0.310  52.343 -13.689  1.00  0.00     0.167 HD
ENDBRANCH  32  34
ENDBRANCH  30  32
ENDBRANCH  28  29
BRANCH  28  36
HETATM   36  O1  UNL     1       0.306  53.676 -18.614  1.00  0.00    -0.392 OA
HETATM   37  H6  UNL     1      -0.606  53.585 -18.938  1.00  0.00     0.210 HD
ENDBRANCH  28  36
ENDBRANCH  27  28
ENDBRANCH  25  27
ENDBRANCH   1  25
BRANCH   3  38
HETATM   38  O2  UNL     1      -3.847  47.099 -20.173  1.00  0.00    -0.394 OA
HETATM   39  H17 UNL     1      -4.302  46.896 -19.336  1.00  0.00     0.210 HD
ENDBRANCH   3  38
TORSDOF 8
ENDMDL
MODEL 2
REMARK minimizedAffinity -9.64715958
REMARK CNNscore 0.526343226
REMARK CNNaffinity 6.80788946
REMARK  8 active torsions:
REMARK  status: ('A' for Active; 'I' for Inactive)
REMARK    1  A    between atoms: C2_2  and  C30_34 
REMARK    2  A    between atoms: C3_3  and  C4_4 
REMARK    3  A    between atoms: C4_4  and  O1_5 
REMARK    4  A    between atoms: C4_4  and  C5_6 
REMARK    5  A    between atoms: C5_6  and  C6_7 
REMARK    6  A    between atoms: C6_7  and  C8_9 
REMARK    7  A    between atoms: C10_11  and  O2_12 
REMARK    8  A    between atoms: C30_34  and  O6_36 
ROOT
HETATM    1  C8  UNL     1      -1.545  49.235 -18.806  1.00  0.00     0.001 C 
HETATM    2  C9  UNL     1      -2.705  48.231 -18.529  1.00  0.00     0.038 C 
HETATM    3  C10 UNL     1      -3.551  48.133 -19.813  1.00  0.00     0.131 C 
HETATM    4  C11 UNL     1      -2.661  48.769 -20.912  1.00  0.00     0.014 C 
HETATM    5  C12 UNL     1      -1.644  47.696 -21.415  1.00  0.00     0.023 C 
HETATM    6  C13 UNL     1      -3.303  49.320 -22.181  1.00  0.00    -0.058 C 
HETATM    7  C14 UNL     1      -2.745  50.328 -22.899  1.00  0.00    -0.000 C 
HETATM    8  C15 UNL     1      -1.484  50.978 -22.354  1.00  0.00     0.157 C 
HETATM    9  O3  UNL     1      -0.863  51.820 -23.002  1.00  0.00    -0.293 OA
HETATM   10  C16 UNL     1      -0.954  50.596 -20.975  1.00  0.00     0.094 C 
HETATM   11  C17 UNL     1      -2.032  49.960 -20.100  1.00  0.00    -0.019 C 
HETATM   12  C18 UNL     1      -3.066  51.067 -19.712  1.00  0.00     0.017 C 
HETATM   13  C19 UNL     1      -3.437  50.873 -24.169  1.00  0.00    -0.008 C 
HETATM   14  C20 UNL     1      -4.501  51.888 -23.645  1.00  0.00     0.021 C 
HETATM   15  C21 UNL     1      -2.512  51.676 -25.130  1.00  0.00     0.022 C 
HETATM   16  C22 UNL     1      -3.093  51.857 -26.522  1.00  0.00     0.080 C 
HETATM   17  C23 UNL     1      -3.220  50.522 -27.205  1.00  0.00     0.135 C 
HETATM   18  O4  UNL     1      -3.120  50.446 -28.431  1.00  0.00    -0.297 OA
HETATM   19  C24 UNL     1      -3.494  49.292 -26.327  1.00  0.00     0.018 C 
HETATM   20  C25 UNL     1      -2.161  48.549 -26.118  1.00  0.00     0.023 C 
HETATM   21  C26 UNL     1      -4.438  48.371 -27.138  1.00  0.00     0.023 C 
HETATM   22  C27 UNL     1      -4.192  49.735 -24.985  1.00  0.00     0.014 C 
HETATM   23  C28 UNL     1      -4.601  48.501 -24.147  1.00  0.00     0.011 C 
HETATM   24  C29 UNL     1      -4.587  48.687 -22.642  1.00  0.00     0.036 C 
ENDROOT
BRANCH   1  25
HETATM   25  C6  UNL     1      -1.177  50.060 -17.533  1.00  0.00    -0.011 C 
HETATM   26  C7  UNL     1       0.338  50.156 -17.321  1.00  0.00     0.010 C 
BRANCH  25  27
HETATM   27  C5  UNL     1      -1.847  49.433 -16.279  1.00  0.00     0.040 C 
BRANCH  27  28
HETATM   28  C4  UNL     1      -2.557  50.407 -15.321  1.00  0.00     0.142 C 
BRANCH  28  29
HETATM   29  C3  UNL     1      -1.631  51.143 -14.391  1.00  0.00     0.018 C 
HETATM   30  C2  UNL     1      -1.914  51.942 -13.343  1.00  0.00     0.010 C 
HETATM   31  C1  UNL     1      -0.859  52.508 -12.444  1.00  0.00     0.055 C 
BRANCH  30  32
HETATM   32  C30 UNL     1      -3.289  52.323 -12.967  1.00  0.00     0.171 C 
HETATM   33  O5  UNL     1      -3.855  52.016 -11.932  1.00  0.00    -0.646 OA
BRANCH  32  34
HETATM   34  O6  UNL     1      -3.828  53.200 -13.832  1.00  0.00    -0.773 OA
HETATM   35  H44 UNL     1      -4.724  53.336 -13.461  1.00  0.00     0.167 HD
ENDBRANCH  32  34
ENDBRANCH  30  32
ENDBRANCH  28  29
BRANCH  28  36
HETATM   36  O1  UNL     1      -3.323  51.340 -16.075  1.00  0.00    -0.392 OA
HETATM   37  H6  UNL     1      -3.949  50.830 -16.618  1.00  0.00     0.210 HD
ENDBRANCH  28  36
ENDBRANCH  27  28
ENDBRANCH  25  27
ENDBRANCH   1  25
BRANCH   3  38
HETATM   38  O2  UNL     1      -3.890  46.777 -20.066  1.00  0.00    -0.394 OA
HETATM   39  H17 UNL     1      -4.387  46.451 -19.293  1.00  0.00     0.210 HD
ENDBRANCH   3  38
TORSDOF 8
ENDMDL
MODEL 3
REMARK minimizedAffinity -8.0106039
REMARK CNNscore 0.526069462
REMARK CNNaffinity 6.09437799
REMARK  8 active torsions:
REMARK  status: ('A' for Active; 'I' for Inactive)
REMARK    1  A    between atoms: C2_2  and  C30_34 
REMARK    2  A    between atoms: C3_3  and  C4_4 
REMARK    3  A    between atoms: C4_4  and  O1_5 
REMARK    4  A    between atoms: C4_4  and  C5_6 
REMARK    5  A    between atoms: C5_6  and  C6_7 
REMARK    6  A    between atoms: C6_7  and  C8_9 
REMARK    7  A    between atoms: C10_11  and  O2_12 
REMARK    8  A    between atoms: C30_34  and  O6_36 
ROOT
HETATM    1  C8  UNL     1     -12.831  46.118 -26.136  1.00  0.00     0.001 C 
HETATM    2  C9  UNL     1     -13.995  46.426 -27.126  1.00  0.00     0.038 C 
HETATM    3  C10 UNL     1     -13.369  46.700 -28.507  1.00  0.00     0.131 C 
HETATM    4  C11 UNL     1     -11.916  46.174 -28.384  1.00  0.00     0.014 C 
HETATM    5  C12 UNL     1     -11.922  44.629 -28.614  1.00  0.00     0.023 C 
HETATM    6  C13 UNL     1     -10.838  46.702 -29.326  1.00  0.00    -0.058 C 
HETATM    7  C14 UNL     1      -9.526  46.744 -28.977  1.00  0.00    -0.000 C 
HETATM    8  C15 UNL     1      -9.150  46.331 -27.564  1.00  0.00     0.157 C 
HETATM    9  O3  UNL     1      -7.975  46.240 -27.212  1.00  0.00    -0.293 OA
HETATM   10  C16 UNL     1     -10.235  46.018 -26.538  1.00  0.00     0.094 C 
HETATM   11  C17 UNL     1     -11.581  46.632 -26.917  1.00  0.00    -0.019 C 
HETATM   12  C18 UNL     1     -11.476  48.184 -26.756  1.00  0.00     0.017 C 
HETATM   13  C19 UNL     1      -8.467  47.307 -29.952  1.00  0.00    -0.008 C 
HETATM   14  C20 UNL     1      -8.526  48.855 -29.764  1.00  0.00     0.021 C 
HETATM   15  C21 UNL     1      -6.999  46.890 -29.639  1.00  0.00     0.022 C 
HETATM   16  C22 UNL     1      -6.044  47.114 -30.800  1.00  0.00     0.080 C 
HETATM   17  C23 UNL     1      -6.416  46.221 -31.952  1.00  0.00     0.135 C 
HETATM   18  O4  UNL     1      -5.543  45.814 -32.722  1.00  0.00    -0.297 OA
HETATM   19  C24 UNL     1      -7.899  45.865 -32.134  1.00  0.00     0.018 C 
HETATM   20  C25 UNL     1      -8.124  44.454 -31.558  1.00  0.00     0.023 C 
HETATM   21  C26 UNL     1      -8.158  45.811 -33.660  1.00  0.00     0.023 C 
HETATM   22  C27 UNL     1      -8.801  46.974 -31.471  1.00  0.00     0.014 C 
HETATM   23  C28 UNL     1     -10.297  46.708 -31.760  1.00  0.00     0.011 C 
HETATM   24  C29 UNL     1     -11.271  47.162 -30.691  1.00  0.00     0.036 C 
ENDROOT
BRANCH   1  25
HETATM   25  C6  UNL     1     -13.135  46.650 -24.700  1.00  0.00    -0.011 C 
HETATM   26  C7  UNL     1     -11.975  46.401 -23.730  1.00  0.00     0.010 C 
BRANCH  25  27
HETATM   27  C5  UNL     1     -14.432  45.994 -24.152  1.00  0.00     0.040 C 
BRANCH  27  28
HETATM   28  C4  UNL     1     -15.730  46.808 -24.300  1.00  0.00     0.142 C 
BRANCH  28  29
HETATM   29  C3  UNL     1     -16.856  46.343 -23.417  1.00  0.00     0.018 C 
HETATM   30  C2  UNL     1     -18.137  46.061 -23.726  1.00  0.00     0.010 C 
HETATM   31  C1  UNL     1     -19.106  45.492 -22.736  1.00  0.00     0.055 C 
BRANCH  30  32
HETATM   32  C30 UNL     1     -18.707  46.267 -25.071  1.00  0.00     0.171 C 
HETATM   33  O5  UNL     1     -18.351  45.700 -26.089  1.00  0.00    -0.646 OA
BRANCH  32  34
HETATM   34  O6  UNL     1     -19.799  47.052 -25.046  1.00  0.00    -0.773 OA
HETATM   35  H44 UNL     1     -20.041  47.104 -25.993  1.00  0.00     0.167 HD
ENDBRANCH  32  34
ENDBRANCH  30  32
ENDBRANCH  28  29
BRANCH  28  36
HETATM   36  O1  UNL     1     -15.458  48.183 -24.048  1.00  0.00    -0.392 OA
HETATM   37  H6  UNL     1     -14.770  48.463 -24.676  1.00  0.00     0.210 HD
ENDBRANCH  28  36
ENDBRANCH  27  28
ENDBRANCH  25  27
ENDBRANCH   1  25
BRANCH   3  38
HETATM   38  O2  UNL     1     -14.128  46.052 -29.518  1.00  0.00    -0.394 OA
HETATM   39  H17 UNL     1     -15.037  46.400 -29.470  1.00  0.00     0.210 HD
ENDBRANCH   3  38
TORSDOF 8
ENDMDL
MODEL 4
REMARK minimizedAffinity -8.16503334
REMARK CNNscore 0.492197573
REMARK CNNaffinity 6.46525335
REMARK  8 active torsions:
REMARK  status: ('A' for Active; 'I' for Inactive)
REMARK    1  A    between atoms: C2_2  and  C30_34 
REMARK    2  A    between atoms: C3_3  and  C4_4 
REMARK    3  A    between atoms: C4_4  and  O1_5 
REMARK    4  A    between atoms: C4_4  and  C5_6 
REMARK    5  A    between atoms: C5_6  and  C6_7 
REMARK    6  A    between atoms: C6_7  and  C8_9 
REMARK    7  A    between atoms: C10_11  and  O2_12 
REMARK    8  A    between atoms: C30_34  and  O6_36 
ROOT
HETATM    1  C8  UNL     1      -1.952  47.915 -20.031  1.00  0.00     0.001 C 
HETATM    2  C9  UNL     1      -2.526  47.618 -18.613  1.00  0.00     0.038 C 
HETATM    3  C10 UNL     1      -4.047  47.417 -18.759  1.00  0.00     0.131 C 
HETATM    4  C11 UNL     1      -4.265  47.218 -20.282  1.00  0.00     0.014 C 
HETATM    5  C12 UNL     1      -3.962  45.729 -20.640  1.00  0.00     0.023 C 
HETATM    6  C13 UNL     1      -5.636  47.492 -20.891  1.00  0.00    -0.058 C 
HETATM    7  C14 UNL     1      -5.793  47.875 -22.185  1.00  0.00    -0.000 C 
HETATM    8  C15 UNL     1      -4.542  48.120 -23.012  1.00  0.00     0.157 C 
HETATM    9  O3  UNL     1      -4.605  48.362 -24.217  1.00  0.00    -0.293 OA
HETATM   10  C16 UNL     1      -3.164  48.073 -22.359  1.00  0.00     0.094 C 
HETATM   11  C17 UNL     1      -3.237  48.267 -20.846  1.00  0.00    -0.019 C 
HETATM   12  C18 UNL     1      -3.637  49.751 -20.559  1.00  0.00     0.017 C 
HETATM   13  C19 UNL     1      -7.198  48.163 -22.759  1.00  0.00    -0.008 C 
HETATM   14  C20 UNL     1      -7.517  49.629 -22.328  1.00  0.00     0.021 C 
HETATM   15  C21 UNL     1      -7.291  48.141 -24.314  1.00  0.00     0.022 C 
HETATM   16  C22 UNL     1      -8.713  48.034 -24.836  1.00  0.00     0.080 C 
HETATM   17  C23 UNL     1      -9.309  46.711 -24.438  1.00  0.00     0.135 C 
HETATM   18  O4  UNL     1     -10.154  46.175 -25.159  1.00  0.00    -0.297 OA
HETATM   19  C24 UNL     1      -8.845  46.084 -23.116  1.00  0.00     0.018 C 
HETATM   20  C25 UNL     1      -7.800  45.001 -23.443  1.00  0.00     0.023 C 
HETATM   21  C26 UNL     1     -10.082  45.389 -22.496  1.00  0.00     0.023 C 
HETATM   22  C27 UNL     1      -8.314  47.208 -22.147  1.00  0.00     0.014 C 
HETATM   23  C28 UNL     1      -7.968  46.618 -20.760  1.00  0.00     0.011 C 
HETATM   24  C29 UNL     1      -6.840  47.299 -20.010  1.00  0.00     0.036 C 
ENDROOT
BRANCH   1  25
HETATM   25  C6  UNL     1      -0.757  48.918 -19.976  1.00  0.00    -0.011 C 
HETATM   26  C7  UNL     1      -0.743  49.734 -18.679  1.00  0.00     0.010 C 
BRANCH  25  27
HETATM   27  C5  UNL     1      -0.806  49.873 -21.200  1.00  0.00     0.040 C 
BRANCH  27  28
HETATM   28  C4  UNL     1      -0.278  51.302 -20.979  1.00  0.00     0.142 C 
BRANCH  28  29
HETATM   29  C3  UNL     1       0.004  52.059 -22.248  1.00  0.00     0.018 C 
HETATM   30  C2  UNL     1       0.680  53.211 -22.434  1.00  0.00     0.010 C 
HETATM   31  C1  UNL     1       0.970  53.772 -23.792  1.00  0.00     0.055 C 
BRANCH  30  32
HETATM   32  C30 UNL     1       1.216  54.022 -21.324  1.00  0.00     0.171 C 
HETATM   33  O5  UNL     1       0.919  53.903 -20.148  1.00  0.00    -0.646 OA
BRANCH  32  34
HETATM   34  O6  UNL     1       2.213  54.831 -21.721  1.00  0.00    -0.773 OA
HETATM   35  H44 UNL     1       2.444  55.302 -20.895  1.00  0.00     0.167 HD
ENDBRANCH  32  34
ENDBRANCH  30  32
ENDBRANCH  28  29
BRANCH  28  36
HETATM   36  O1  UNL     1      -1.204  52.030 -20.179  1.00  0.00    -0.392 OA
HETATM   37  H6  UNL     1      -1.315  51.542 -19.346  1.00  0.00     0.210 HD
ENDBRANCH  28  36
ENDBRANCH  27  28
ENDBRANCH  25  27
ENDBRANCH   1  25
BRANCH   3  38
HETATM   38  O2  UNL     1      -4.465  46.311 -17.972  1.00  0.00    -0.394 OA
HETATM   39  H17 UNL     1      -4.224  46.502 -17.048  1.00  0.00     0.210 HD
ENDBRANCH   3  38
TORSDOF 8
ENDMDL
MODEL 5
REMARK minimizedAffinity -8.99615479
REMARK CNNscore 0.417931497
REMARK CNNaffinity 6.31532812
REMARK  8 active torsions:
REMARK  status: ('A' for Active; 'I' for Inactive)
REMARK    1  A    between atoms: C2_2  and  C30_34 
REMARK    2  A    between atoms: C3_3  and  C4_4 
REMARK    3  A    between atoms: C4_4  and  O1_5 
REMARK    4  A    between atoms: C4_4  and  C5_6 
REMARK    5  A    between atoms: C5_6  and  C6_7 
REMARK    6  A    between atoms: C6_7  and  C8_9 
REMARK    7  A    between atoms: C10_11  and  O2_12 
REMARK    8  A    between atoms: C30_34  and  O6_36 
ROOT
HETATM    1  C8  UNL     1      -0.951  50.222 -21.929  1.00  0.00     0.001 C 
HETATM    2  C9  UNL     1      -0.511  49.997 -20.451  1.00  0.00     0.038 C 
HETATM    3  C10 UNL     1      -1.661  49.266 -19.730  1.00  0.00     0.131 C 
HETATM    4  C11 UNL     1      -2.566  48.745 -20.877  1.00  0.00     0.014 C 
HETATM    5  C12 UNL     1      -1.966  47.411 -21.422  1.00  0.00     0.023 C 
HETATM    6  C13 UNL     1      -4.031  48.425 -20.598  1.00  0.00    -0.058 C 
HETATM    7  C14 UNL     1      -4.988  48.503 -21.558  1.00  0.00    -0.000 C 
HETATM    8  C15 UNL     1      -4.581  49.015 -22.930  1.00  0.00     0.157 C 
HETATM    9  O3  UNL     1      -5.365  49.009 -23.878  1.00  0.00    -0.293 OA
HETATM   10  C16 UNL     1      -3.173  49.554 -23.165  1.00  0.00     0.094 C 
HETATM   11  C17 UNL     1      -2.490  49.969 -21.863  1.00  0.00    -0.019 C 
HETATM   12  C18 UNL     1      -3.200  51.253 -21.323  1.00  0.00     0.017 C 
HETATM   13  C19 UNL     1      -6.465  48.191 -21.230  1.00  0.00    -0.008 C 
HETATM   14  C20 UNL     1      -7.030  49.510 -20.617  1.00  0.00     0.021 C 
HETATM   15  C21 UNL     1      -7.360  47.872 -22.465  1.00  0.00     0.022 C 
HETATM   16  C22 UNL     1      -8.673  47.196 -22.104  1.00  0.00     0.080 C 
HETATM   17  C23 UNL     1      -8.408  45.839 -21.512  1.00  0.00     0.135 C 
HETATM   18  O4  UNL     1      -9.229  44.931 -21.663  1.00  0.00    -0.297 OA
HETATM   19  C24 UNL     1      -7.111  45.646 -20.713  1.00  0.00     0.018 C 
HETATM   20  C25 UNL     1      -6.088  44.946 -21.626  1.00  0.00     0.023 C 
HETATM   21  C26 UNL     1      -7.450  44.688 -19.544  1.00  0.00     0.023 C 
HETATM   22  C27 UNL     1      -6.617  47.033 -20.150  1.00  0.00     0.014 C 
HETATM   23  C28 UNL     1      -5.389  46.844 -19.229  1.00  0.00     0.011 C 
HETATM   24  C29 UNL     1      -4.395  47.988 -19.205  1.00  0.00     0.036 C 
ENDROOT
BRANCH   1  25
HETATM   25  C6  UNL     1      -0.400  51.566 -22.500  1.00  0.00    -0.011 C 
HETATM   26  C7  UNL     1       0.130  52.492 -21.398  1.00  0.00     0.010 C 
BRANCH  25  27
HETATM   27  C5  UNL     1      -1.506  52.294 -23.314  1.00  0.00     0.040 C 
BRANCH  27  28
HETATM   28  C4  UNL     1      -1.244  52.473 -24.820  1.00  0.00     0.142 C 
BRANCH  28  29
HETATM   29  C3  UNL     1       0.106  51.990 -25.274  1.00  0.00     0.018 C 
HETATM   30  C2  UNL     1       0.681  52.050 -26.492  1.00  0.00     0.010 C 
HETATM   31  C1  UNL     1       2.093  51.621 -26.747  1.00  0.00     0.055 C 
BRANCH  30  32
HETATM   32  C30 UNL     1      -0.015  52.561 -27.689  1.00  0.00     0.171 C 
HETATM   33  O5  UNL     1       0.177  53.643 -28.216  1.00  0.00    -0.646 OA
BRANCH  32  34
HETATM   34  O6  UNL     1      -0.799  51.628 -28.258  1.00  0.00    -0.773 OA
HETATM   35  H44 UNL     1      -1.193  52.116 -29.009  1.00  0.00     0.167 HD
ENDBRANCH  32  34
ENDBRANCH  30  32
ENDBRANCH  28  29
BRANCH  28  36
HETATM   36  O1  UNL     1      -2.266  51.814 -25.560  1.00  0.00    -0.392 OA
HETATM   37  H6  UNL     1      -3.117  52.193 -25.283  1.00  0.00     0.210 HD
ENDBRANCH  28  36
ENDBRANCH  27  28
ENDBRANCH  25  27
ENDBRANCH   1  25
BRANCH   3  38
HETATM   38  O2  UNL     1      -1.136  48.237 -18.904  1.00  0.00    -0.394 OA
HETATM   39  H17 UNL     1      -0.531  48.654 -18.265  1.00  0.00     0.210 HD
ENDBRANCH   3  38
TORSDOF 8
ENDMDL
MODEL 6
REMARK minimizedAffinity -8.55465031
REMARK CNNscore 0.405851364
REMARK CNNaffinity 6.55017424
REMARK  8 active torsions:
REMARK  status: ('A' for Active; 'I' for Inactive)
REMARK    1  A    between atoms: C2_2  and  C30_34 
REMARK    2  A    between atoms: C3_3  and  C4_4 
REMARK    3  A    between atoms: C4_4  and  O1_5 
REMARK    4  A    between atoms: C4_4  and  C5_6 
REMARK    5  A    between atoms: C5_6  and  C6_7 
REMARK    6  A    between atoms: C6_7  and  C8_9 
REMARK    7  A    between atoms: C10_11  and  O2_12 
REMARK    8  A    between atoms: C30_34  and  O6_36 
ROOT
HETATM    1  C8  UNL     1      -4.073  50.563 -24.224  1.00  0.00     0.001 C 
HETATM    2  C9  UNL     1      -4.662  49.491 -25.190  1.00  0.00     0.038 C 
HETATM    3  C10 UNL     1      -5.152  48.310 -24.331  1.00  0.00     0.131 C 
HETATM    4  C11 UNL     1      -5.194  48.873 -22.887  1.00  0.00     0.014 C 
HETATM    5  C12 UNL     1      -6.529  49.659 -22.695  1.00  0.00     0.023 C 
HETATM    6  C13 UNL     1      -5.133  47.917 -21.700  1.00  0.00    -0.058 C 
HETATM    7  C14 UNL     1      -4.626  48.287 -20.495  1.00  0.00    -0.000 C 
HETATM    8  C15 UNL     1      -4.023  49.676 -20.371  1.00  0.00     0.157 C 
HETATM    9  O3  UNL     1      -3.647  50.119 -19.286  1.00  0.00    -0.293 OA
HETATM   10  C16 UNL     1      -3.869  50.563 -21.603  1.00  0.00     0.094 C 
HETATM   11  C17 UNL     1      -3.891  49.756 -22.899  1.00  0.00    -0.019 C 
HETATM   12  C18 UNL     1      -2.572  48.921 -22.982  1.00  0.00     0.017 C 
HETATM   13  C19 UNL     1      -4.562  47.282 -19.323  1.00  0.00    -0.008 C 
HETATM   14  C20 UNL     1      -3.263  46.455 -19.570  1.00  0.00     0.021 C 
HETATM   15  C21 UNL     1      -4.402  47.925 -17.913  1.00  0.00     0.022 C 
HETATM   16  C22 UNL     1      -4.733  46.977 -16.773  1.00  0.00     0.080 C 
HETATM   17  C23 UNL     1      -6.190  46.607 -16.817  1.00  0.00     0.135 C 
HETATM   18  O4  UNL     1      -6.792  46.349 -15.771  1.00  0.00    -0.297 OA
HETATM   19  C24 UNL     1      -6.874  46.546 -18.191  1.00  0.00     0.018 C 
HETATM   20  C25 UNL     1      -7.666  47.852 -18.387  1.00  0.00     0.023 C 
HETATM   21  C26 UNL     1      -7.883  45.373 -18.133  1.00  0.00     0.023 C 
HETATM   22  C27 UNL     1      -5.798  46.280 -19.312  1.00  0.00     0.014 C 
HETATM   23  C28 UNL     1      -6.479  46.079 -20.687  1.00  0.00     0.011 C 
HETATM   24  C29 UNL     1      -5.681  46.530 -21.895  1.00  0.00     0.036 C 
ENDROOT
BRANCH   1  25
HETATM   25  C6  UNL     1      -2.860  51.313 -24.859  1.00  0.00    -0.011 C 
HETATM   26  C7  UNL     1      -2.420  52.519 -24.023  1.00  0.00     0.010 C 
BRANCH  25  27
HETATM   27  C5  UNL     1      -3.215  51.772 -26.301  1.00  0.00     0.040 C 
BRANCH  27  28
HETATM   28  C4  UNL     1      -2.316  51.240 -27.432  1.00  0.00     0.142 C 
BRANCH  28  29
HETATM   29  C3  UNL     1      -0.906  50.932 -27.006  1.00  0.00     0.018 C 
HETATM   30  C2  UNL     1       0.170  51.740 -26.929  1.00  0.00     0.010 C 
HETATM   31  C1  UNL     1       1.485  51.292 -26.368  1.00  0.00     0.055 C 
BRANCH  30  32
HETATM   32  C30 UNL     1       0.154  53.149 -27.368  1.00  0.00     0.171 C 
HETATM   33  O5  UNL     1       0.351  54.119 -26.657  1.00  0.00    -0.646 OA
BRANCH  32  34
HETATM   34  O6  UNL     1       0.054  53.263 -28.704  1.00  0.00    -0.773 OA
HETATM   35  H44 UNL     1       0.040  54.233 -28.832  1.00  0.00     0.167 HD
ENDBRANCH  32  34
ENDBRANCH  30  32
ENDBRANCH  28  29
BRANCH  28  36
HETATM   36  O1  UNL     1      -2.911  50.080 -28.003  1.00  0.00    -0.392 OA
HETATM   37  H6  UNL     1      -3.795  50.332 -28.320  1.00  0.00     0.210 HD
ENDBRANCH  28  36
ENDBRANCH  27  28
ENDBRANCH  25  27
ENDBRANCH   1  25
BRANCH   3  38
HETATM   38  O2  UNL     1      -6.412  47.859 -24.805  1.00  0.00    -0.394 OA
HETATM   39  H17 UNL     1      -6.297  47.591 -25.735  1.00  0.00     0.210 HD
ENDBRANCH   3  38
TORSDOF 8
ENDMDL
MODEL 7
REMARK minimizedAffinity -8.35447884
REMARK CNNscore 0.387975901
REMARK CNNaffinity 6.45432091
REMARK  8 active torsions:
REMARK  status: ('A' for Active; 'I' for Inactive)
REMARK    1  A    between atoms: C2_2  and  C30_34 
REMARK    2  A    between atoms: C3_3  and  C4_4 
REMARK    3  A    between atoms: C4_4  and  O1_5 
REMARK    4  A    between atoms: C4_4  and  C5_6 
REMARK    5  A    between atoms: C5_6  and  C6_7 
REMARK    6  A    between atoms: C6_7  and  C8_9 
REMARK    7  A    between atoms: C10_11  and  O2_12 
REMARK    8  A    between atoms: C30_34  and  O6_36 
ROOT
HETATM    1  C8  UNL     1      -3.295  48.561 -23.444  1.00  0.00     0.001 C 
HETATM    2  C9  UNL     1      -2.170  48.858 -22.407  1.00  0.00     0.038 C 
HETATM    3  C10 UNL     1      -2.803  48.794 -21.003  1.00  0.00     0.131 C 
HETATM    4  C11 UNL     1      -4.167  48.091 -21.227  1.00  0.00     0.014 C 
HETATM    5  C12 UNL     1      -3.933  46.548 -21.270  1.00  0.00     0.023 C 
HETATM    6  C13 UNL     1      -5.292  48.284 -20.215  1.00  0.00    -0.058 C 
HETATM    7  C14 UNL     1      -6.603  48.195 -20.560  1.00  0.00    -0.000 C 
HETATM    8  C15 UNL     1      -6.941  47.984 -22.026  1.00  0.00     0.157 C 
HETATM    9  O3  UNL     1      -8.097  47.785 -22.397  1.00  0.00    -0.293 OA
HETATM   10  C16 UNL     1      -5.842  48.015 -23.084  1.00  0.00     0.094 C 
HETATM   11  C17 UNL     1      -4.592  48.744 -22.594  1.00  0.00    -0.019 C 
HETATM   12  C18 UNL     1      -4.923  50.268 -22.482  1.00  0.00     0.017 C 
HETATM   13  C19 UNL     1      -7.714  48.419 -19.510  1.00  0.00    -0.008 C 
HETATM   14  C20 UNL     1      -7.883  49.968 -19.423  1.00  0.00     0.021 C 
HETATM   15  C21 UNL     1      -9.112  47.854 -19.900  1.00  0.00     0.022 C 
HETATM   16  C22 UNL     1     -10.067  47.731 -18.725  1.00  0.00     0.080 C 
HETATM   17  C23 UNL     1      -9.548  46.715 -17.744  1.00  0.00     0.135 C 
HETATM   18  O4  UNL     1     -10.339  46.057 -17.063  1.00  0.00    -0.297 OA
HETATM   19  C24 UNL     1      -8.027  46.552 -17.617  1.00  0.00     0.018 C 
HETATM   20  C25 UNL     1      -7.610  45.312 -18.429  1.00  0.00     0.023 C 
HETATM   21  C26 UNL     1      -7.734  46.272 -16.122  1.00  0.00     0.023 C 
HETATM   22  C27 UNL     1      -7.306  47.880 -18.069  1.00  0.00     0.014 C 
HETATM   23  C28 UNL     1      -5.782  47.788 -17.821  1.00  0.00     0.011 C 
HETATM   24  C29 UNL     1      -4.905  48.558 -18.788  1.00  0.00     0.036 C 
ENDROOT
BRANCH   1  25
HETATM   25  C6  UNL     1      -3.099  49.373 -24.762  1.00  0.00    -0.011 C 
HETATM   26  C7  UNL     1      -3.014  48.469 -25.996  1.00  0.00     0.010 C 
BRANCH  25  27
HETATM   27  C5  UNL     1      -1.820  50.250 -24.662  1.00  0.00     0.040 C 
BRANCH  27  28
HETATM   28  C4  UNL     1      -1.746  51.468 -25.601  1.00  0.00     0.142 C 
BRANCH  28  29
HETATM   29  C3  UNL     1      -0.733  51.334 -26.706  1.00  0.00     0.018 C 
HETATM   30  C2  UNL     1      -0.242  52.268 -27.546  1.00  0.00     0.010 C 
HETATM   31  C1  UNL     1       0.859  51.985 -28.521  1.00  0.00     0.055 C 
BRANCH  30  32
HETATM   32  C30 UNL     1      -0.726  53.661 -27.575  1.00  0.00     0.171 C 
HETATM   33  O5  UNL     1      -0.079  54.646 -27.263  1.00  0.00    -0.646 OA
BRANCH  32  34
HETATM   34  O6  UNL     1      -1.939  53.766 -28.146  1.00  0.00    -0.773 OA
HETATM   35  H44 UNL     1      -2.122  54.725 -28.075  1.00  0.00     0.167 HD
ENDBRANCH  32  34
ENDBRANCH  30  32
ENDBRANCH  28  29
BRANCH  28  36
HETATM   36  O1  UNL     1      -3.033  51.717 -26.156  1.00  0.00    -0.392 OA
HETATM   37  H6  UNL     1      -3.647  51.856 -25.415  1.00  0.00     0.210 HD
ENDBRANCH  28  36
ENDBRANCH  27  28
ENDBRANCH  25  27
ENDBRANCH   1  25
BRANCH   3  38
HETATM   38  O2  UNL     1      -1.939  48.098 -20.117  1.00  0.00    -0.394 OA
HETATM   39  H17 UNL     1      -1.091  48.577 -20.097  1.00  0.00     0.210 HD
ENDBRANCH   3  38
TORSDOF 8
ENDMDL
MODEL 8
REMARK minimizedAffinity -8.75969791
REMARK CNNscore 0.385793298
REMARK CNNaffinity 6.51378012
REMARK  8 active torsions:
REMARK  status: ('A' for Active; 'I' for Inactive)
REMARK    1  A    between atoms: C2_2  and  C30_34 
REMARK    2  A    between atoms: C3_3  and  C4_4 
REMARK    3  A    between atoms: C4_4  and  O1_5 
REMARK    4  A    between atoms: C4_4  and  C5_6 
REMARK    5  A    between atoms: C5_6  and  C6_7 
REMARK    6  A    between atoms: C6_7  and  C8_9 
REMARK    7  A    between atoms: C10_11  and  O2_12 
REMARK    8  A    between atoms: C30_34  and  O6_36 
ROOT
HETATM    1  C8  UNL     1      -1.278  49.101 -18.989  1.00  0.00     0.001 C 
HETATM    2  C9  UNL     1      -2.467  48.154 -18.647  1.00  0.00     0.038 C 
HETATM    3  C10 UNL     1      -3.381  48.088 -19.887  1.00  0.00     0.131 C 
HETATM    4  C11 UNL     1      -2.518  48.676 -21.034  1.00  0.00     0.014 C 
HETATM    5  C12 UNL     1      -1.579  47.554 -21.578  1.00  0.00     0.023 C 
HETATM    6  C13 UNL     1      -3.197  49.249 -22.273  1.00  0.00    -0.058 C 
HETATM    7  C14 UNL     1      -2.629  50.227 -23.025  1.00  0.00    -0.000 C 
HETATM    8  C15 UNL     1      -1.314  50.821 -22.549  1.00  0.00     0.157 C 
HETATM    9  O3  UNL     1      -0.688  51.629 -23.233  1.00  0.00    -0.293 OA
HETATM   10  C16 UNL     1      -0.734  50.422 -21.196  1.00  0.00     0.094 C 
HETATM   11  C17 UNL     1      -1.795  49.841 -20.263  1.00  0.00    -0.019 C 
HETATM   12  C18 UNL     1      -2.756  50.997 -19.832  1.00  0.00     0.017 C 
HETATM   13  C19 UNL     1      -3.359  50.797 -24.263  1.00  0.00    -0.008 C 
HETATM   14  C20 UNL     1      -4.347  51.862 -23.694  1.00  0.00     0.021 C 
HETATM   15  C21 UNL     1      -2.447  51.551 -25.275  1.00  0.00     0.022 C 
HETATM   16  C22 UNL     1      -3.089  51.751 -26.638  1.00  0.00     0.080 C 
HETATM   17  C23 UNL     1      -3.311  50.420 -27.303  1.00  0.00     0.135 C 
HETATM   18  O4  UNL     1      -3.276  50.333 -28.533  1.00  0.00    -0.297 OA
HETATM   19  C24 UNL     1      -3.597  49.208 -26.404  1.00  0.00     0.018 C 
HETATM   20  C25 UNL     1      -2.291  48.406 -26.256  1.00  0.00     0.023 C 
HETATM   21  C26 UNL     1      -4.622  48.328 -27.160  1.00  0.00     0.023 C 
HETATM   22  C27 UNL     1      -4.206  49.691 -25.032  1.00  0.00     0.014 C 
HETATM   23  C28 UNL     1      -4.628  48.482 -24.165  1.00  0.00     0.011 C 
HETATM   24  C29 UNL     1      -4.531  48.674 -22.665  1.00  0.00     0.036 C 
ENDROOT
BRANCH   1  25
HETATM   25  C6  UNL     1      -0.808  49.915 -17.743  1.00  0.00    -0.011 C 
HETATM   26  C7  UNL     1       0.322  50.894 -18.079  1.00  0.00     0.010 C 
BRANCH  25  27
HETATM   27  C5  UNL     1      -0.350  48.947 -16.616  1.00  0.00     0.040 C 
BRANCH  27  28
HETATM   28  C4  UNL     1      -0.042  49.582 -15.248  1.00  0.00     0.142 C 
BRANCH  28  29
HETATM   29  C3  UNL     1      -1.155  50.430 -14.696  1.00  0.00     0.018 C 
HETATM   30  C2  UNL     1      -2.283  50.064 -14.053  1.00  0.00     0.010 C 
HETATM   31  C1  UNL     1      -3.238  51.054 -13.461  1.00  0.00     0.055 C 
BRANCH  30  32
HETATM   32  C30 UNL     1      -2.677  48.656 -13.852  1.00  0.00     0.171 C 
HETATM   33  O5  UNL     1      -3.303  47.972 -14.642  1.00  0.00    -0.646 OA
BRANCH  32  34
HETATM   34  O6  UNL     1      -2.128  48.130 -12.743  1.00  0.00    -0.773 OA
HETATM   35  H44 UNL     1      -2.491  47.220 -12.741  1.00  0.00     0.167 HD
ENDBRANCH  32  34
ENDBRANCH  30  32
ENDBRANCH  28  29
BRANCH  28  36
HETATM   36  O1  UNL     1       0.292  48.560 -14.316  1.00  0.00    -0.392 OA
HETATM   37  H6  UNL     1       1.051  48.072 -14.678  1.00  0.00     0.210 HD
ENDBRANCH  28  36
ENDBRANCH  27  28
ENDBRANCH  25  27
ENDBRANCH   1  25
BRANCH   3  38
HETATM   38  O2  UNL     1      -3.794  46.748 -20.112  1.00  0.00    -0.394 OA
HETATM   39  H17 UNL     1      -4.265  46.449 -19.313  1.00  0.00     0.210 HD
ENDBRANCH   3  38
TORSDOF 8
ENDMDL
MODEL 9
REMARK minimizedAffinity -8.63951778
REMARK CNNscore 0.385675251
REMARK CNNaffinity 6.34409332
REMARK  8 active torsions:
REMARK  status: ('A' for Active; 'I' for Inactive)
REMARK    1  A    between atoms: C2_2  and  C30_34 
REMARK    2  A    between atoms: C3_3  and  C4_4 
REMARK    3  A    between atoms: C4_4  and  O1_5 
REMARK    4  A    between atoms: C4_4  and  C5_6 
REMARK    5  A    between atoms: C5_6  and  C6_7 
REMARK    6  A    between atoms: C6_7  and  C8_9 
REMARK    7  A    between atoms: C10_11  and  O2_12 
REMARK    8  A    between atoms: C30_34  and  O6_36 
ROOT
HETATM    1  C8  UNL     1      -1.685  50.426 -22.974  1.00  0.00     0.001 C 
HETATM    2  C9  UNL     1      -1.034  51.402 -21.948  1.00  0.00     0.038 C 
HETATM    3  C10 UNL     1      -1.540  51.009 -20.547  1.00  0.00     0.131 C 
HETATM    4  C11 UNL     1      -2.155  49.598 -20.740  1.00  0.00     0.014 C 
HETATM    5  C12 UNL     1      -1.005  48.542 -20.699  1.00  0.00     0.023 C 
HETATM    6  C13 UNL     1      -3.191  49.082 -19.747  1.00  0.00    -0.058 C 
HETATM    7  C14 UNL     1      -4.143  48.178 -20.094  1.00  0.00    -0.000 C 
HETATM    8  C15 UNL     1      -4.219  47.746 -21.549  1.00  0.00     0.157 C 
HETATM    9  O3  UNL     1      -4.980  46.852 -21.916  1.00  0.00    -0.293 OA
HETATM   10  C16 UNL     1      -3.341  48.419 -22.600  1.00  0.00     0.094 C 
HETATM   11  C17 UNL     1      -2.842  49.788 -22.143  1.00  0.00    -0.019 C 
HETATM   12  C18 UNL     1      -4.058  50.771 -22.115  1.00  0.00     0.017 C 
HETATM   13  C19 UNL     1      -5.189  47.696 -19.064  1.00  0.00    -0.008 C 
HETATM   14  C20 UNL     1      -6.293  48.799 -19.062  1.00  0.00     0.021 C 
HETATM   15  C21 UNL     1      -5.909  46.365 -19.432  1.00  0.00     0.022 C 
HETATM   16  C22 UNL     1      -6.621  45.715 -18.257  1.00  0.00     0.080 C 
HETATM   17  C23 UNL     1      -5.619  45.287 -17.220  1.00  0.00     0.135 C 
HETATM   18  O4  UNL     1      -5.849  44.305 -16.510  1.00  0.00    -0.297 OA
HETATM   19  C24 UNL     1      -4.337  46.119 -17.076  1.00  0.00     0.018 C 
HETATM   20  C25 UNL     1      -3.205  45.384 -17.818  1.00  0.00     0.023 C 
HETATM   21  C26 UNL     1      -3.990  46.141 -15.567  1.00  0.00     0.023 C 
HETATM   22  C27 UNL     1      -4.589  47.587 -17.594  1.00  0.00     0.014 C 
HETATM   23  C28 UNL     1      -3.354  48.480 -17.333  1.00  0.00     0.011 C 
HETATM   24  C29 UNL     1      -3.115  49.593 -18.334  1.00  0.00     0.036 C 
ENDROOT
BRANCH   1  25
HETATM   25  C6  UNL     1      -1.990  51.132 -24.333  1.00  0.00    -0.011 C 
HETATM   26  C7  UNL     1      -1.734  50.215 -25.534  1.00  0.00     0.010 C 
BRANCH  25  27
HETATM   27  C5  UNL     1      -1.138  52.425 -24.465  1.00  0.00     0.040 C 
BRANCH  27  28
HETATM   28  C4  UNL     1       0.362  52.233 -24.754  1.00  0.00     0.142 C 
BRANCH  28  29
HETATM   29  C3  UNL     1       0.674  51.857 -26.177  1.00  0.00     0.018 C 
HETATM   30  C2  UNL     1       0.452  52.539 -27.319  1.00  0.00     0.010 C 
HETATM   31  C1  UNL     1       0.936  52.066 -28.655  1.00  0.00     0.055 C 
BRANCH  30  32
HETATM   32  C30 UNL     1      -0.268  53.826 -27.364  1.00  0.00     0.171 C 
HETATM   33  O5  UNL     1       0.133  54.883 -26.911  1.00  0.00    -0.646 OA
BRANCH  32  34
HETATM   34  O6  UNL     1      -1.382  53.758 -28.115  1.00  0.00    -0.773 OA
HETATM   35  H44 UNL     1      -1.745  54.663 -28.033  1.00  0.00     0.167 HD
ENDBRANCH  32  34
ENDBRANCH  30  32
ENDBRANCH  28  29
BRANCH  28  36
HETATM   36  O1  UNL     1       1.067  53.418 -24.403  1.00  0.00    -0.392 OA
HETATM   37  H6  UNL     1       0.890  53.595 -23.464  1.00  0.00     0.210 HD
ENDBRANCH  28  36
ENDBRANCH  27  28
ENDBRANCH  25  27
ENDBRANCH   1  25
BRANCH   3  38
HETATM   38  O2  UNL     1      -0.466  51.042 -19.619  1.00  0.00    -0.394 OA
HETATM   39  H17 UNL     1      -0.106  51.948 -19.620  1.00  0.00     0.210 HD
ENDBRANCH   3  38
TORSDOF 8
ENDMDL
