MODEL 1
REMARK minimizedAffinity -9.96953678
REMARK CNNscore 0.586064458
REMARK CNNaffinity 6.58740854
REMARK  11 active torsions:
REMARK  status: ('A' for Active; 'I' for Inactive)
REMARK    1  A    between atoms: C19_20  and  O2_21 
REMARK    2  A    between atoms: C19_20  and  C20_22 
REMARK    3  A    between atoms: C20_22  and  C21_24 
REMARK    4  A    between atoms: C21_24  and  O4_25 
REMARK    5  A    between atoms: O4_25  and  C22_26 
REMARK    6  A    between atoms: C22_26  and  C23_28 
REMARK    7  A    between atoms: C23_28  and  C24_29 
REMARK    8  A    between atoms: C24_29  and  C25_30 
REMARK       I    between atoms: C25_30  and  N1_32 
REMARK    9  A    between atoms: N1_32  and  C26_33 
REMARK   10  A    between atoms: C26_33  and  C27_34 
REMARK   11  A    between atoms: C27_34  and  C28_35 
ROOT
HETATM    1  C20 UNL     1     -10.267  47.845 -27.359  1.00  0.00     0.185 C 
HETATM    2  O3  UNL     1      -9.784  48.238 -26.293  1.00  0.00    -0.292 OA
ENDROOT
BRANCH   1   3
HETATM    3  C19 UNL     1     -11.776  47.608 -27.576  1.00  0.00     0.128 C 
HETATM    4  C14 UNL     1     -12.528  46.558 -26.685  1.00  0.00    -0.002 C 
HETATM    5  C13 UNL     1     -12.968  47.014 -25.277  1.00  0.00     0.013 C 
HETATM    6  C15 UNL     1     -11.728  45.236 -26.531  1.00  0.00     0.019 C 
HETATM    7  C16 UNL     1     -13.786  46.358 -27.570  1.00  0.00     0.002 C 
HETATM    8  C12 UNL     1     -14.487  46.934 -25.033  1.00  0.00     0.007 C 
HETATM    9  C11 UNL     1     -15.131  45.606 -25.526  1.00  0.00     0.002 C 
HETATM   10  C2  UNL     1     -16.651  45.369 -25.068  1.00  0.00    -0.016 C 
HETATM   11  C10 UNL     1     -14.776  45.316 -27.031  1.00  0.00    -0.004 C 
HETATM   12  C1  UNL     1     -16.656  44.147 -24.109  1.00  0.00     0.020 C 
HETATM   13  C3  UNL     1     -17.229  46.592 -24.300  1.00  0.00     0.022 C 
HETATM   14  C7  UNL     1     -17.613  45.039 -26.213  1.00  0.00    -0.068 C 
HETATM   15  C4  UNL     1     -18.699  46.472 -23.916  1.00  0.00     0.084 C 
HETATM   16  C5  UNL     1     -19.546  46.101 -25.102  1.00  0.00     0.149 C 
HETATM   17  O1  UNL     1     -20.751  46.338 -25.142  1.00  0.00    -0.293 OA
HETATM   18  C6  UNL     1     -18.913  45.386 -26.231  1.00  0.00     0.053 C 
HETATM   19  C8  UNL     1     -17.042  44.306 -27.392  1.00  0.00     0.035 C 
HETATM   20  C9  UNL     1     -15.966  45.186 -27.987  1.00  0.00     0.010 C 
HETATM   21  C17 UNL     1     -13.217  46.149 -28.971  1.00  0.00     0.009 C 
HETATM   22  C18 UNL     1     -11.991  47.071 -29.021  1.00  0.00     0.047 C 
BRANCH   3  23
HETATM   23  O2  UNL     1     -12.441  48.883 -27.518  1.00  0.00    -0.381 OA
HETATM   24  H27 UNL     1     -12.429  49.206 -26.601  1.00  0.00     0.211 HD
ENDBRANCH   3  23
ENDBRANCH   1   3
BRANCH   1  25
HETATM   25  C21 UNL     1      -9.365  47.508 -28.556  1.00  0.00     0.260 C 
BRANCH  25  26
HETATM   26  O4  UNL     1      -8.269  48.407 -28.697  1.00  0.00    -0.314 OA
BRANCH  26  27
HETATM   27  C22 UNL     1      -7.137  47.825 -29.195  1.00  0.00     0.259 C 
HETATM   28  O5  UNL     1      -6.941  47.580 -30.379  1.00  0.00    -0.265 OA
BRANCH  27  29
HETATM   29  C23 UNL     1      -6.153  47.570 -28.083  1.00  0.00     0.120 C 
BRANCH  29  30
HETATM   30  C24 UNL     1      -4.802  48.206 -28.405  1.00  0.00     0.112 C 
BRANCH  30  31
HETATM   31  C25 UNL     1      -4.064  48.685 -27.170  1.00  0.00     0.218 C 
HETATM   32  O6  UNL     1      -4.292  48.264 -26.044  1.00  0.00    -0.274 OA
HETATM   33  N1  UNL     1      -3.175  49.709 -27.439  1.00  0.00    -0.361 N 
HETATM   34  H34 UNL     1      -2.908  49.847 -28.404  1.00  0.00     0.162 HD
BRANCH  33  35
HETATM   35  C26 UNL     1      -2.233  50.166 -26.428  1.00  0.00     0.127 C 
BRANCH  35  36
HETATM   36  C27 UNL     1      -1.031  50.909 -27.030  1.00  0.00     0.060 C 
BRANCH  36  37
HETATM   37  C28 UNL     1      -0.266  51.702 -26.016  1.00  0.00    -0.029 A 
HETATM   38  C29 UNL     1       0.643  52.706 -26.287  1.00  0.00     0.096 A 
HETATM   39  N2  UNL     1       1.040  53.257 -25.102  1.00  0.00    -0.365 N 
HETATM   40  C30 UNL     1       0.444  52.606 -24.048  1.00  0.00     0.042 A 
HETATM   41  H40 UNL     1       1.655  54.054 -25.010  1.00  0.00     0.165 HD
HETATM   42  C31 UNL     1       0.561  52.830 -22.671  1.00  0.00     0.030 A 
HETATM   43  C35 UNL     1      -0.374  51.612 -24.588  1.00  0.00    -0.002 A 
HETATM   44  C32 UNL     1      -0.178  52.009 -21.815  1.00  0.00     0.002 A 
HETATM   45  C33 UNL     1      -0.999  51.003 -22.322  1.00  0.00     0.001 A 
HETATM   46  C34 UNL     1      -1.110  50.795 -23.703  1.00  0.00     0.014 A 
ENDBRANCH  36  37
ENDBRANCH  35  36
ENDBRANCH  33  35
ENDBRANCH  30  31
ENDBRANCH  29  30
ENDBRANCH  27  29
ENDBRANCH  26  27
ENDBRANCH  25  26
ENDBRANCH   1  25
TORSDOF 11
ENDMDL
MODEL 2
REMARK minimizedAffinity -9.36479378
REMARK CNNscore 0.505246997
REMARK CNNaffinity 6.56421518
REMARK  11 active torsions:
REMARK  status: ('A' for Active; 'I' for Inactive)
REMARK    1  A    between atoms: C19_20  and  O2_21 
REMARK    2  A    between atoms: C19_20  and  C20_22 
REMARK    3  A    between atoms: C20_22  and  C21_24 
REMARK    4  A    between atoms: C21_24  and  O4_25 
REMARK    5  A    between atoms: O4_25  and  C22_26 
REMARK    6  A    between atoms: C22_26  and  C23_28 
REMARK    7  A    between atoms: C23_28  and  C24_29 
REMARK    8  A    between atoms: C24_29  and  C25_30 
REMARK       I    between atoms: C25_30  and  N1_32 
REMARK    9  A    between atoms: N1_32  and  C26_33 
REMARK   10  A    between atoms: C26_33  and  C27_34 
REMARK   11  A    between atoms: C27_34  and  C28_35 
ROOT
HETATM    1  C20 UNL     1      -6.184  47.863 -23.239  1.00  0.00     0.185 C 
HETATM    2  O3  UNL     1      -6.349  47.214 -22.202  1.00  0.00    -0.292 OA
ENDROOT
BRANCH   1   3
HETATM    3  C19 UNL     1      -5.378  49.177 -23.303  1.00  0.00     0.128 C 
HETATM    4  C14 UNL     1      -3.910  49.156 -23.857  1.00  0.00    -0.002 C 
HETATM    5  C13 UNL     1      -3.734  49.164 -25.391  1.00  0.00     0.013 C 
HETATM    6  C15 UNL     1      -3.083  47.972 -23.287  1.00  0.00     0.019 C 
HETATM    7  C16 UNL     1      -3.424  50.513 -23.283  1.00  0.00     0.002 C 
HETATM    8  C12 UNL     1      -2.937  50.367 -25.929  1.00  0.00     0.007 C 
HETATM    9  C11 UNL     1      -1.645  50.675 -25.117  1.00  0.00     0.002 C 
HETATM   10  C2  UNL     1      -0.655  51.748 -25.784  1.00  0.00    -0.016 C 
HETATM   11  C10 UNL     1      -1.952  50.831 -23.582  1.00  0.00    -0.004 C 
HETATM   12  C1  UNL     1       0.652  50.996 -26.157  1.00  0.00     0.020 C 
HETATM   13  C3  UNL     1      -1.248  52.364 -27.083  1.00  0.00     0.022 C 
HETATM   14  C7  UNL     1      -0.255  52.902 -24.859  1.00  0.00    -0.068 C 
HETATM   15  C4  UNL     1      -0.401  53.460 -27.719  1.00  0.00     0.084 C 
HETATM   16  C5  UNL     1      -0.027  54.515 -26.715  1.00  0.00     0.149 C 
HETATM   17  O1  UNL     1       0.285  55.655 -27.053  1.00  0.00    -0.293 OA
HETATM   18  C6  UNL     1       0.010  54.151 -25.282  1.00  0.00     0.053 C 
HETATM   19  C8  UNL     1      -0.189  52.604 -23.390  1.00  0.00     0.035 C 
HETATM   20  C9  UNL     1      -1.574  52.178 -22.957  1.00  0.00     0.010 C 
HETATM   21  C17 UNL     1      -3.866  50.471 -21.822  1.00  0.00     0.009 C 
HETATM   22  C18 UNL     1      -5.207  49.725 -21.856  1.00  0.00     0.047 C 
BRANCH   3  23
HETATM   23  O2  UNL     1      -6.167  50.150 -24.010  1.00  0.00    -0.381 OA
HETATM   24  H27 UNL     1      -6.206  49.904 -24.951  1.00  0.00     0.211 HD
ENDBRANCH   3  23
ENDBRANCH   1   3
BRANCH   1  25
HETATM   25  C21 UNL     1      -6.834  47.420 -24.558  1.00  0.00     0.260 C 
BRANCH  25  26
HETATM   26  O4  UNL     1      -8.010  48.161 -24.875  1.00  0.00    -0.314 OA
BRANCH  26  27
HETATM   27  C22 UNL     1      -8.718  47.650 -25.926  1.00  0.00     0.259 C 
HETATM   28  O5  UNL     1      -8.871  48.213 -27.004  1.00  0.00    -0.265 OA
BRANCH  27  29
HETATM   29  C23 UNL     1      -9.244  46.281 -25.581  1.00  0.00     0.120 C 
BRANCH  29  30
HETATM   30  C24 UNL     1     -10.511  45.975 -26.378  1.00  0.00     0.112 C 
BRANCH  30  31
HETATM   31  C25 UNL     1     -11.767  46.506 -25.717  1.00  0.00     0.218 C 
HETATM   32  O6  UNL     1     -12.001  47.698 -25.572  1.00  0.00    -0.274 OA
HETATM   33  N1  UNL     1     -12.575  45.502 -25.215  1.00  0.00    -0.361 N 
HETATM   34  H34 UNL     1     -12.410  44.564 -25.554  1.00  0.00     0.162 HD
BRANCH  33  35
HETATM   35  C26 UNL     1     -13.914  45.793 -24.724  1.00  0.00     0.127 C 
BRANCH  35  36
HETATM   36  C27 UNL     1     -14.743  46.621 -25.717  1.00  0.00     0.060 C 
BRANCH  36  37
HETATM   37  C28 UNL     1     -15.997  45.927 -26.152  1.00  0.00    -0.029 A 
HETATM   38  C29 UNL     1     -16.092  44.968 -27.142  1.00  0.00     0.096 A 
HETATM   39  N2  UNL     1     -17.376  44.502 -27.164  1.00  0.00    -0.365 N 
HETATM   40  C30 UNL     1     -18.143  45.166 -26.238  1.00  0.00     0.042 A 
HETATM   41  H40 UNL     1     -17.710  43.749 -27.751  1.00  0.00     0.165 HD
HETATM   42  C31 UNL     1     -19.499  45.018 -25.920  1.00  0.00     0.030 A 
HETATM   43  C35 UNL     1     -17.309  46.081 -25.593  1.00  0.00    -0.002 A 
HETATM   44  C32 UNL     1     -20.022  45.834 -24.913  1.00  0.00     0.002 A 
HETATM   45  C33 UNL     1     -19.217  46.762 -24.255  1.00  0.00     0.001 A 
HETATM   46  C34 UNL     1     -17.861  46.894 -24.580  1.00  0.00     0.014 A 
ENDBRANCH  36  37
ENDBRANCH  35  36
ENDBRANCH  33  35
ENDBRANCH  30  31
ENDBRANCH  29  30
ENDBRANCH  27  29
ENDBRANCH  26  27
ENDBRANCH  25  26
ENDBRANCH   1  25
TORSDOF 11
ENDMDL
MODEL 3
REMARK minimizedAffinity -9.14758682
REMARK CNNscore 0.489770114
REMARK CNNaffinity 6.7246666
REMARK  11 active torsions:
REMARK  status: ('A' for Active; 'I' for Inactive)
REMARK    1  A    between atoms: C19_20  and  O2_21 
REMARK    2  A    between atoms: C19_20  and  C20_22 
REMARK    3  A    between atoms: C20_22  and  C21_24 
REMARK    4  A    between atoms: C21_24  and  O4_25 
REMARK    5  A    between atoms: O4_25  and  C22_26 
REMARK    6  A    between atoms: C22_26  and  C23_28 
REMARK    7  A    between atoms: C23_28  and  C24_29 
REMARK    8  A    between atoms: C24_29  and  C25_30 
REMARK       I    between atoms: C25_30  and  N1_32 
REMARK    9  A    between atoms: N1_32  and  C26_33 
REMARK   10  A    between atoms: C26_33  and  C27_34 
REMARK   11  A    between atoms: C27_34  and  C28_35 
ROOT
HETATM    1  C20 UNL     1      -9.060  44.557 -31.310  1.00  0.00     0.185 C 
HETATM    2  O3  UNL     1      -9.419  43.387 -31.474  1.00  0.00    -0.292 OA
ENDROOT
BRANCH   1   3
HETATM    3  C19 UNL     1      -9.268  45.668 -32.359  1.00  0.00     0.128 C 
HETATM    4  C14 UNL     1      -9.763  45.288 -33.799  1.00  0.00    -0.002 C 
HETATM    5  C13 UNL     1     -11.278  45.055 -33.985  1.00  0.00     0.013 C 
HETATM    6  C15 UNL     1      -9.015  44.053 -34.372  1.00  0.00     0.019 C 
HETATM    7  C16 UNL     1      -9.354  46.589 -34.538  1.00  0.00     0.002 C 
HETATM    8  C12 UNL     1     -11.940  45.996 -35.009  1.00  0.00     0.007 C 
HETATM    9  C11 UNL     1     -11.131  46.153 -36.329  1.00  0.00     0.002 C 
HETATM   10  C2  UNL     1     -11.898  46.914 -37.517  1.00  0.00    -0.016 C 
HETATM   11  C10 UNL     1      -9.641  46.572 -36.047  1.00  0.00    -0.004 C 
HETATM   12  C1  UNL     1     -12.124  45.879 -38.653  1.00  0.00     0.020 C 
HETATM   13  C3  UNL     1     -13.287  47.452 -37.067  1.00  0.00     0.022 C 
HETATM   14  C7  UNL     1     -11.118  48.082 -38.128  1.00  0.00    -0.068 C 
HETATM   15  C4  UNL     1     -14.030  48.267 -38.120  1.00  0.00     0.084 C 
HETATM   16  C5  UNL     1     -13.160  49.355 -38.686  1.00  0.00     0.149 C 
HETATM   17  O1  UNL     1     -13.633  50.356 -39.219  1.00  0.00    -0.293 OA
HETATM   18  C6  UNL     1     -11.692  49.187 -38.639  1.00  0.00     0.053 C 
HETATM   19  C8  UNL     1      -9.622  47.978 -38.122  1.00  0.00     0.035 C 
HETATM   20  C9  UNL     1      -9.185  47.892 -36.677  1.00  0.00     0.010 C 
HETATM   21  C17 UNL     1      -7.917  46.831 -34.085  1.00  0.00     0.009 C 
HETATM   22  C18 UNL     1      -7.900  46.363 -32.623  1.00  0.00     0.047 C 
BRANCH   3  23
HETATM   23  O2  UNL     1     -10.123  46.671 -31.784  1.00  0.00    -0.381 OA
HETATM   24  H27 UNL     1     -11.024  46.313 -31.705  1.00  0.00     0.211 HD
ENDBRANCH   3  23
ENDBRANCH   1   3
BRANCH   1  25
HETATM   25  C21 UNL     1      -8.315  44.981 -30.035  1.00  0.00     0.260 C 
BRANCH  25  26
HETATM   26  O4  UNL     1      -9.025  45.955 -29.274  1.00  0.00    -0.314 OA
BRANCH  26  27
HETATM   27  C22 UNL     1      -8.260  46.589 -28.337  1.00  0.00     0.259 C 
HETATM   28  O5  UNL     1      -8.699  47.140 -27.334  1.00  0.00    -0.265 OA
BRANCH  27  29
HETATM   29  C23 UNL     1      -6.801  46.475 -28.695  1.00  0.00     0.120 C 
BRANCH  29  30
HETATM   30  C24 UNL     1      -6.260  47.819 -29.180  1.00  0.00     0.112 C 
BRANCH  30  31
HETATM   31  C25 UNL     1      -5.141  48.355 -28.310  1.00  0.00     0.218 C 
HETATM   32  O6  UNL     1      -4.161  48.937 -28.755  1.00  0.00    -0.274 OA
HETATM   33  N1  UNL     1      -5.300  48.037 -26.974  1.00  0.00    -0.361 N 
HETATM   34  H34 UNL     1      -6.220  47.741 -26.676  1.00  0.00     0.162 HD
BRANCH  33  35
HETATM   35  C26 UNL     1      -4.442  48.626 -25.957  1.00  0.00     0.127 C 
BRANCH  35  36
HETATM   36  C27 UNL     1      -3.049  48.989 -26.494  1.00  0.00     0.060 C 
BRANCH  36  37
HETATM   37  C28 UNL     1      -2.267  49.853 -25.553  1.00  0.00    -0.029 A 
HETATM   38  C29 UNL     1      -2.495  49.991 -24.197  1.00  0.00     0.096 A 
HETATM   39  N2  UNL     1      -1.505  50.775 -23.675  1.00  0.00    -0.365 N 
HETATM   40  C30 UNL     1      -0.654  51.196 -24.667  1.00  0.00     0.042 A 
HETATM   41  H40 UNL     1      -1.393  50.988 -22.693  1.00  0.00     0.165 HD
HETATM   42  C31 UNL     1       0.484  52.009 -24.590  1.00  0.00     0.030 A 
HETATM   43  C35 UNL     1      -1.112  50.646 -25.865  1.00  0.00    -0.002 A 
HETATM   44  C32 UNL     1       1.175  52.271 -25.776  1.00  0.00     0.002 A 
HETATM   45  C33 UNL     1       0.739  51.742 -26.989  1.00  0.00     0.001 A 
HETATM   46  C34 UNL     1      -0.397  50.926 -27.049  1.00  0.00     0.014 A 
ENDBRANCH  36  37
ENDBRANCH  35  36
ENDBRANCH  33  35
ENDBRANCH  30  31
ENDBRANCH  29  30
ENDBRANCH  27  29
ENDBRANCH  26  27
ENDBRANCH  25  26
ENDBRANCH   1  25
TORSDOF 11
ENDMDL
MODEL 4
REMARK minimizedAffinity -9.430933
REMARK CNNscore 0.454178095
REMARK CNNaffinity 6.58843803
REMARK  11 active torsions:
REMARK  status: ('A' for Active; 'I' for Inactive)
REMARK    1  A    between atoms: C19_20  and  O2_21 
REMARK    2  A    between atoms: C19_20  and  C20_22 
REMARK    3  A    between atoms: C20_22  and  C21_24 
REMARK    4  A    between atoms: C21_24  and  O4_25 
REMARK    5  A    between atoms: O4_25  and  C22_26 
REMARK    6  A    between atoms: C22_26  and  C23_28 
REMARK    7  A    between atoms: C23_28  and  C24_29 
REMARK    8  A    between atoms: C24_29  and  C25_30 
REMARK       I    between atoms: C25_30  and  N1_32 
REMARK    9  A    between atoms: N1_32  and  C26_33 
REMARK   10  A    between atoms: C26_33  and  C27_34 
REMARK   11  A    between atoms: C27_34  and  C28_35 
ROOT
HETATM    1  C20 UNL     1      -2.731  49.990 -18.519  1.00  0.00     0.185 C 
HETATM    2  O3  UNL     1      -3.532  49.065 -18.678  1.00  0.00    -0.292 OA
ENDROOT
BRANCH   1   3
HETATM    3  C19 UNL     1      -2.335  50.978 -19.635  1.00  0.00     0.128 C 
HETATM    4  C14 UNL     1      -1.708  50.430 -20.965  1.00  0.00    -0.002 C 
HETATM    5  C13 UNL     1      -2.683  49.874 -22.027  1.00  0.00     0.013 C 
HETATM    6  C15 UNL     1      -0.621  49.353 -20.703  1.00  0.00     0.019 C 
HETATM    7  C16 UNL     1      -1.083  51.749 -21.490  1.00  0.00     0.002 C 
HETATM    8  C12 UNL     1      -2.620  50.602 -23.383  1.00  0.00     0.007 C 
HETATM    9  C11 UNL     1      -1.171  50.859 -23.889  1.00  0.00     0.002 C 
HETATM   10  C2  UNL     1      -1.056  51.380 -25.403  1.00  0.00    -0.016 C 
HETATM   11  C10 UNL     1      -0.302  51.595 -22.804  1.00  0.00    -0.004 C 
HETATM   12  C1  UNL     1      -0.347  50.264 -26.219  1.00  0.00     0.020 C 
HETATM   13  C3  UNL     1      -2.451  51.637 -26.042  1.00  0.00     0.022 C 
HETATM   14  C7  UNL     1      -0.222  52.653 -25.573  1.00  0.00    -0.068 C 
HETATM   15  C4  UNL     1      -2.414  52.222 -27.449  1.00  0.00     0.084 C 
HETATM   16  C5  UNL     1      -1.532  53.439 -27.514  1.00  0.00     0.149 C 
HETATM   17  O1  UNL     1      -1.659  54.290 -28.391  1.00  0.00    -0.293 OA
HETATM   18  C6  UNL     1      -0.451  53.586 -26.515  1.00  0.00     0.053 C 
HETATM   19  C8  UNL     1       0.900  52.867 -24.599  1.00  0.00     0.035 C 
HETATM   20  C9  UNL     1       0.285  52.948 -23.220  1.00  0.00     0.010 C 
HETATM   21  C17 UNL     1      -0.343  52.310 -20.279  1.00  0.00     0.009 C 
HETATM   22  C18 UNL     1      -1.232  51.931 -19.086  1.00  0.00     0.047 C 
BRANCH   3  23
HETATM   23  O2  UNL     1      -3.475  51.807 -19.922  1.00  0.00    -0.381 OA
HETATM   24  H27 UNL     1      -4.151  51.272 -20.372  1.00  0.00     0.211 HD
ENDBRANCH   3  23
ENDBRANCH   1   3
BRANCH   1  25
HETATM   25  C21 UNL     1      -2.015  50.190 -17.174  1.00  0.00     0.260 C 
BRANCH  25  26
HETATM   26  O4  UNL     1      -2.714  51.070 -16.297  1.00  0.00    -0.314 OA
BRANCH  26  27
HETATM   27  C22 UNL     1      -2.793  50.620 -15.010  1.00  0.00     0.259 C 
HETATM   28  O5  UNL     1      -2.679  49.448 -14.671  1.00  0.00    -0.265 OA
BRANCH  27  29
HETATM   29  C23 UNL     1      -2.997  51.778 -14.068  1.00  0.00     0.120 C 
BRANCH  29  30
HETATM   30  C24 UNL     1      -1.803  51.920 -13.125  1.00  0.00     0.112 C 
BRANCH  30  31
HETATM   31  C25 UNL     1      -2.158  52.607 -11.821  1.00  0.00     0.218 C 
HETATM   32  O6  UNL     1      -3.308  52.839 -11.473  1.00  0.00    -0.274 OA
HETATM   33  N1  UNL     1      -1.046  53.023 -11.113  1.00  0.00    -0.361 N 
HETATM   34  H34 UNL     1      -0.156  52.617 -11.369  1.00  0.00     0.162 HD
BRANCH  33  35
HETATM   35  C26 UNL     1      -1.169  53.522  -9.751  1.00  0.00     0.127 C 
BRANCH  35  36
HETATM   36  C27 UNL     1      -1.151  55.056  -9.677  1.00  0.00     0.060 C 
BRANCH  36  37
HETATM   37  C28 UNL     1       0.030  55.591  -8.928  1.00  0.00    -0.029 A 
HETATM   38  C29 UNL     1       0.012  56.117  -7.650  1.00  0.00     0.096 A 
HETATM   39  N2  UNL     1       1.298  56.390  -7.281  1.00  0.00    -0.365 N 
HETATM   40  C30 UNL     1       2.164  56.098  -8.307  1.00  0.00     0.042 A 
HETATM   41  H40 UNL     1       1.581  56.726  -6.370  1.00  0.00     0.165 HD
HETATM   42  C31 UNL     1       3.557  56.224  -8.372  1.00  0.00     0.030 A 
HETATM   43  C35 UNL     1       1.397  55.606  -9.365  1.00  0.00    -0.002 A 
HETATM   44  C32 UNL     1       4.188  55.837  -9.557  1.00  0.00     0.002 A 
HETATM   45  C33 UNL     1       3.451  55.348 -10.634  1.00  0.00     0.001 A 
HETATM   46  C34 UNL     1       2.058  55.224 -10.552  1.00  0.00     0.014 A 
ENDBRANCH  36  37
ENDBRANCH  35  36
ENDBRANCH  33  35
ENDBRANCH  30  31
ENDBRANCH  29  30
ENDBRANCH  27  29
ENDBRANCH  26  27
ENDBRANCH  25  26
ENDBRANCH   1  25
TORSDOF 11
ENDMDL
MODEL 5
REMARK minimizedAffinity -9.5574379
REMARK CNNscore 0.314837396
REMARK CNNaffinity 7.04239035
REMARK  11 active torsions:
REMARK  status: ('A' for Active; 'I' for Inactive)
REMARK    1  A    between atoms: C19_20  and  O2_21 
REMARK    2  A    between atoms: C19_20  and  C20_22 
REMARK    3  A    between atoms: C20_22  and  C21_24 
REMARK    4  A    between atoms: C21_24  and  O4_25 
REMARK    5  A    between atoms: O4_25  and  C22_26 
REMARK    6  A    between atoms: C22_26  and  C23_28 
REMARK    7  A    between atoms: C23_28  and  C24_29 
REMARK    8  A    between atoms: C24_29  and  C25_30 
REMARK       I    between atoms: C25_30  and  N1_32 
REMARK    9  A    between atoms: N1_32  and  C26_33 
REMARK   10  A    between atoms: C26_33  and  C27_34 
REMARK   11  A    between atoms: C27_34  and  C28_35 
ROOT
HETATM    1  C20 UNL     1      -2.357  50.515 -25.067  1.00  0.00     0.185 C 
HETATM    2  O3  UNL     1      -1.593  51.088 -24.285  1.00  0.00    -0.292 OA
ENDROOT
BRANCH   1   3
HETATM    3  C19 UNL     1      -3.750  49.989 -24.667  1.00  0.00     0.128 C 
HETATM    4  C14 UNL     1      -3.921  49.200 -23.321  1.00  0.00    -0.002 C 
HETATM    5  C13 UNL     1      -4.043  50.033 -22.026  1.00  0.00     0.013 C 
HETATM    6  C15 UNL     1      -2.798  48.148 -23.110  1.00  0.00     0.019 C 
HETATM    7  C16 UNL     1      -5.283  48.521 -23.618  1.00  0.00     0.002 C 
HETATM    8  C12 UNL     1      -5.355  49.807 -21.252  1.00  0.00     0.007 C 
HETATM    9  C11 UNL     1      -5.748  48.308 -21.110  1.00  0.00     0.002 C 
HETATM   10  C2  UNL     1      -6.960  48.009 -20.101  1.00  0.00    -0.016 C 
HETATM   11  C10 UNL     1      -5.775  47.583 -22.506  1.00  0.00    -0.004 C 
HETATM   12  C1  UNL     1      -6.376  47.199 -18.911  1.00  0.00     0.020 C 
HETATM   13  C3  UNL     1      -7.589  49.315 -19.537  1.00  0.00     0.022 C 
HETATM   14  C7  UNL     1      -8.090  47.166 -20.700  1.00  0.00    -0.068 C 
HETATM   15  C4  UNL     1      -8.806  49.108 -18.644  1.00  0.00     0.084 C 
HETATM   16  C5  UNL     1      -9.831  48.231 -19.308  1.00  0.00     0.149 C 
HETATM   17  O1  UNL     1     -11.016  48.252 -18.985  1.00  0.00    -0.293 OA
HETATM   18  C6  UNL     1      -9.384  47.282 -20.351  1.00  0.00     0.053 C 
HETATM   19  C8  UNL     1      -7.711  46.175 -21.760  1.00  0.00     0.035 C 
HETATM   20  C9  UNL     1      -7.113  46.956 -22.910  1.00  0.00     0.010 C 
HETATM   21  C17 UNL     1      -5.104  47.940 -25.018  1.00  0.00     0.009 C 
HETATM   22  C18 UNL     1      -4.223  48.967 -25.743  1.00  0.00     0.047 C 
BRANCH   3  23
HETATM   23  O2  UNL     1      -4.676  51.089 -24.724  1.00  0.00    -0.381 OA
HETATM   24  H27 UNL     1      -4.486  51.701 -23.993  1.00  0.00     0.211 HD
ENDBRANCH   3  23
ENDBRANCH   1   3
BRANCH   1  25
HETATM   25  C21 UNL     1      -1.935  50.233 -26.518  1.00  0.00     0.260 C 
BRANCH  25  26
HETATM   26  O4  UNL     1      -2.447  51.190 -27.442  1.00  0.00    -0.314 OA
BRANCH  26  27
HETATM   27  C22 UNL     1      -2.321  52.484 -27.024  1.00  0.00     0.259 C 
HETATM   28  O5  UNL     1      -3.009  53.008 -26.155  1.00  0.00    -0.265 OA
BRANCH  27  29
HETATM   29  C23 UNL     1      -1.190  53.157 -27.756  1.00  0.00     0.120 C 
BRANCH  29  30
HETATM   30  C24 UNL     1       0.086  52.321 -27.660  1.00  0.00     0.112 C 
BRANCH  30  31
HETATM   31  C25 UNL     1       0.873  52.587 -26.393  1.00  0.00     0.218 C 
HETATM   32  O6  UNL     1       2.031  52.225 -26.230  1.00  0.00    -0.274 OA
HETATM   33  N1  UNL     1       0.118  53.198 -25.409  1.00  0.00    -0.361 N 
HETATM   34  H34 UNL     1      -0.747  53.635 -25.696  1.00  0.00     0.162 HD
BRANCH  33  35
HETATM   35  C26 UNL     1       0.740  53.713 -24.199  1.00  0.00     0.127 C 
BRANCH  35  36
HETATM   36  C27 UNL     1       1.210  52.598 -23.252  1.00  0.00     0.060 C 
BRANCH  36  37
HETATM   37  C28 UNL     1       0.884  52.875 -21.817  1.00  0.00    -0.029 A 
HETATM   38  C29 UNL     1       1.077  54.073 -21.156  1.00  0.00     0.096 A 
HETATM   39  N2  UNL     1       0.555  53.958 -19.899  1.00  0.00    -0.365 N 
HETATM   40  C30 UNL     1       0.060  52.692 -19.700  1.00  0.00     0.042 A 
HETATM   41  H40 UNL     1       0.505  54.707 -19.222  1.00  0.00     0.165 HD
HETATM   42  C31 UNL     1      -0.557  52.134 -18.573  1.00  0.00     0.030 A 
HETATM   43  C35 UNL     1       0.264  51.979 -20.883  1.00  0.00    -0.002 A 
HETATM   44  C32 UNL     1      -0.976  50.804 -18.655  1.00  0.00     0.002 A 
HETATM   45  C33 UNL     1      -0.780  50.063 -19.819  1.00  0.00     0.001 A 
HETATM   46  C34 UNL     1      -0.168  50.636 -20.940  1.00  0.00     0.014 A 
ENDBRANCH  36  37
ENDBRANCH  35  36
ENDBRANCH  33  35
ENDBRANCH  30  31
ENDBRANCH  29  30
ENDBRANCH  27  29
ENDBRANCH  26  27
ENDBRANCH  25  26
ENDBRANCH   1  25
TORSDOF 11
ENDMDL
MODEL 6
REMARK minimizedAffinity -9.58326626
REMARK CNNscore 0.26174137
REMARK CNNaffinity 6.88848114
REMARK  11 active torsions:
REMARK  status: ('A' for Active; 'I' for Inactive)
REMARK    1  A    between atoms: C19_20  and  O2_21 
REMARK    2  A    between atoms: C19_20  and  C20_22 
REMARK    3  A    between atoms: C20_22  and  C21_24 
REMARK    4  A    between atoms: C21_24  and  O4_25 
REMARK    5  A    between atoms: O4_25  and  C22_26 
REMARK    6  A    between atoms: C22_26  and  C23_28 
REMARK    7  A    between atoms: C23_28  and  C24_29 
REMARK    8  A    between atoms: C24_29  and  C25_30 
REMARK       I    between atoms: C25_30  and  N1_32 
REMARK    9  A    between atoms: N1_32  and  C26_33 
REMARK   10  A    between atoms: C26_33  and  C27_34 
REMARK   11  A    between atoms: C27_34  and  C28_35 
ROOT
HETATM    1  C20 UNL     1      -3.221  51.113 -25.425  1.00  0.00     0.185 C 
HETATM    2  O3  UNL     1      -3.534  52.112 -26.079  1.00  0.00    -0.292 OA
ENDROOT
BRANCH   1   3
HETATM    3  C19 UNL     1      -3.764  50.813 -24.013  1.00  0.00     0.128 C 
HETATM    4  C14 UNL     1      -4.018  49.326 -23.582  1.00  0.00    -0.002 C 
HETATM    5  C13 UNL     1      -2.796  48.510 -23.108  1.00  0.00     0.013 C 
HETATM    6  C15 UNL     1      -4.740  48.509 -24.688  1.00  0.00     0.019 C 
HETATM    7  C16 UNL     1      -4.954  49.589 -22.373  1.00  0.00     0.002 C 
HETATM    8  C12 UNL     1      -2.914  47.976 -21.668  1.00  0.00     0.007 C 
HETATM    9  C11 UNL     1      -4.297  47.337 -21.348  1.00  0.00     0.002 C 
HETATM   10  C2  UNL     1      -4.381  46.544 -19.956  1.00  0.00    -0.016 C 
HETATM   11  C10 UNL     1      -5.479  48.315 -21.695  1.00  0.00    -0.004 C 
HETATM   12  C1  UNL     1      -4.600  45.044 -20.295  1.00  0.00     0.020 C 
HETATM   13  C3  UNL     1      -3.067  46.668 -19.131  1.00  0.00     0.022 C 
HETATM   14  C7  UNL     1      -5.542  46.970 -19.053  1.00  0.00    -0.068 C 
HETATM   15  C4  UNL     1      -3.111  46.016 -17.754  1.00  0.00     0.084 C 
HETATM   16  C5  UNL     1      -4.312  46.468 -16.971  1.00  0.00     0.149 C 
HETATM   17  O1  UNL     1      -4.350  46.411 -15.744  1.00  0.00    -0.293 OA
HETATM   18  C6  UNL     1      -5.500  46.950 -17.708  1.00  0.00     0.053 C 
HETATM   19  C8  UNL     1      -6.785  47.464 -19.732  1.00  0.00     0.035 C 
HETATM   20  C9  UNL     1      -6.402  48.690 -20.531  1.00  0.00     0.010 C 
HETATM   21  C17 UNL     1      -5.975  50.588 -22.911  1.00  0.00     0.009 C 
HETATM   22  C18 UNL     1      -5.167  51.473 -23.871  1.00  0.00     0.047 C 
BRANCH   3  23
HETATM   23  O2  UNL     1      -2.912  51.472 -23.058  1.00  0.00    -0.381 OA
HETATM   24  H27 UNL     1      -2.053  51.018 -23.032  1.00  0.00     0.211 HD
ENDBRANCH   3  23
ENDBRANCH   1   3
BRANCH   1  25
HETATM   25  C21 UNL     1      -2.201  50.101 -25.970  1.00  0.00     0.260 C 
BRANCH  25  26
HETATM   26  O4  UNL     1      -1.714  50.445 -27.265  1.00  0.00    -0.314 OA
BRANCH  26  27
HETATM   27  C22 UNL     1      -0.560  51.175 -27.246  1.00  0.00     0.259 C 
HETATM   28  O5  UNL     1       0.507  50.783 -26.787  1.00  0.00    -0.265 OA
BRANCH  27  29
HETATM   29  C23 UNL     1      -0.779  52.510 -27.909  1.00  0.00     0.120 C 
BRANCH  29  30
HETATM   30  C24 UNL     1       0.411  53.436 -27.659  1.00  0.00     0.112 C 
BRANCH  30  31
HETATM   31  C25 UNL     1       0.365  54.103 -26.299  1.00  0.00     0.218 C 
HETATM   32  O6  UNL     1      -0.028  55.248 -26.123  1.00  0.00    -0.274 OA
HETATM   33  N1  UNL     1       0.898  53.314 -25.296  1.00  0.00    -0.361 N 
HETATM   34  H34 UNL     1       1.005  52.328 -25.492  1.00  0.00     0.162 HD
BRANCH  33  35
HETATM   35  C26 UNL     1       0.765  53.692 -23.897  1.00  0.00     0.127 C 
BRANCH  35  36
HETATM   36  C27 UNL     1       0.408  52.503 -22.992  1.00  0.00     0.060 C 
BRANCH  36  37
HETATM   37  C28 UNL     1       0.662  52.775 -21.541  1.00  0.00    -0.029 A 
HETATM   38  C29 UNL     1       1.251  53.911 -21.019  1.00  0.00     0.096 A 
HETATM   39  N2  UNL     1       1.202  53.831 -19.656  1.00  0.00    -0.365 N 
HETATM   40  C30 UNL     1       0.635  52.642 -19.267  1.00  0.00     0.042 A 
HETATM   41  H40 UNL     1       1.507  54.556 -19.022  1.00  0.00     0.165 HD
HETATM   42  C31 UNL     1       0.389  52.140 -17.982  1.00  0.00     0.030 A 
HETATM   43  C35 UNL     1       0.296  51.946 -20.429  1.00  0.00    -0.002 A 
HETATM   44  C32 UNL     1      -0.219  50.887 -17.881  1.00  0.00     0.002 A 
HETATM   45  C33 UNL     1      -0.563  50.164 -19.022  1.00  0.00     0.001 A 
HETATM   46  C34 UNL     1      -0.316  50.682 -20.300  1.00  0.00     0.014 A 
ENDBRANCH  36  37
ENDBRANCH  35  36
ENDBRANCH  33  35
ENDBRANCH  30  31
ENDBRANCH  29  30
ENDBRANCH  27  29
ENDBRANCH  26  27
ENDBRANCH  25  26
ENDBRANCH   1  25
TORSDOF 11
ENDMDL
MODEL 7
REMARK minimizedAffinity -8.96396923
REMARK CNNscore 0.260170847
REMARK CNNaffinity 6.34077263
REMARK  11 active torsions:
REMARK  status: ('A' for Active; 'I' for Inactive)
REMARK    1  A    between atoms: C19_20  and  O2_21 
REMARK    2  A    between atoms: C19_20  and  C20_22 
REMARK    3  A    between atoms: C20_22  and  C21_24 
REMARK    4  A    between atoms: C21_24  and  O4_25 
REMARK    5  A    between atoms: O4_25  and  C22_26 
REMARK    6  A    between atoms: C22_26  and  C23_28 
REMARK    7  A    between atoms: C23_28  and  C24_29 
REMARK    8  A    between atoms: C24_29  and  C25_30 
REMARK       I    between atoms: C25_30  and  N1_32 
REMARK    9  A    between atoms: N1_32  and  C26_33 
REMARK   10  A    between atoms: C26_33  and  C27_34 
REMARK   11  A    between atoms: C27_34  and  C28_35 
ROOT
HETATM    1  C20 UNL     1      -8.263  46.273 -29.831  1.00  0.00     0.185 C 
HETATM    2  O3  UNL     1      -9.351  46.522 -29.304  1.00  0.00    -0.292 OA
ENDROOT
BRANCH   1   3
HETATM    3  C19 UNL     1      -7.740  44.842 -30.074  1.00  0.00     0.128 C 
HETATM    4  C14 UNL     1      -7.205  44.446 -31.495  1.00  0.00    -0.002 C 
HETATM    5  C13 UNL     1      -5.758  44.858 -31.843  1.00  0.00     0.013 C 
HETATM    6  C15 UNL     1      -8.133  44.949 -32.634  1.00  0.00     0.019 C 
HETATM    7  C16 UNL     1      -7.272  42.904 -31.349  1.00  0.00     0.002 C 
HETATM    8  C12 UNL     1      -4.829  43.677 -32.180  1.00  0.00     0.007 C 
HETATM    9  C11 UNL     1      -5.467  42.634 -33.144  1.00  0.00     0.002 C 
HETATM   10  C2  UNL     1      -4.458  41.528 -33.723  1.00  0.00    -0.016 C 
HETATM   11  C10 UNL     1      -6.860  42.134 -32.612  1.00  0.00    -0.004 C 
HETATM   12  C1  UNL     1      -4.345  41.767 -35.253  1.00  0.00     0.020 C 
HETATM   13  C3  UNL     1      -3.035  41.653 -33.105  1.00  0.00     0.022 C 
HETATM   14  C7  UNL     1      -4.926  40.082 -33.532  1.00  0.00    -0.068 C 
HETATM   15  C4  UNL     1      -2.051  40.574 -33.541  1.00  0.00     0.084 C 
HETATM   16  C5  UNL     1      -2.627  39.198 -33.355  1.00  0.00     0.149 C 
HETATM   17  O1  UNL     1      -1.915  38.202 -33.246  1.00  0.00    -0.293 OA
HETATM   18  C6  UNL     1      -4.097  39.038 -33.350  1.00  0.00     0.053 C 
HETATM   19  C8  UNL     1      -6.407  39.843 -33.524  1.00  0.00     0.035 C 
HETATM   20  C9  UNL     1      -6.981  40.627 -32.365  1.00  0.00     0.010 C 
HETATM   21  C17 UNL     1      -8.666  42.651 -30.779  1.00  0.00     0.009 C 
HETATM   22  C18 UNL     1      -8.910  43.841 -29.840  1.00  0.00     0.047 C 
BRANCH   3  23
HETATM   23  O2  UNL     1      -6.755  44.550 -29.068  1.00  0.00    -0.381 OA
HETATM   24  H27 UNL     1      -5.956  45.076 -29.243  1.00  0.00     0.211 HD
ENDBRANCH   3  23
ENDBRANCH   1   3
BRANCH   1  25
HETATM   25  C21 UNL     1      -7.308  47.405 -30.242  1.00  0.00     0.260 C 
BRANCH  25  26
HETATM   26  O4  UNL     1      -6.804  48.139 -29.129  1.00  0.00    -0.314 OA
BRANCH  26  27
HETATM   27  C22 UNL     1      -5.450  48.045 -28.972  1.00  0.00     0.259 C 
HETATM   28  O5  UNL     1      -4.643  47.988 -29.892  1.00  0.00    -0.265 OA
BRANCH  27  29
HETATM   29  C23 UNL     1      -5.095  48.065 -27.508  1.00  0.00     0.120 C 
BRANCH  29  30
HETATM   30  C24 UNL     1      -3.615  48.396 -27.319  1.00  0.00     0.112 C 
BRANCH  30  31
HETATM   31  C25 UNL     1      -3.340  49.886 -27.310  1.00  0.00     0.218 C 
HETATM   32  O6  UNL     1      -2.934  50.502 -28.287  1.00  0.00    -0.274 OA
HETATM   33  N1  UNL     1      -3.508  50.457 -26.062  1.00  0.00    -0.361 N 
HETATM   34  H34 UNL     1      -4.031  49.927 -25.379  1.00  0.00     0.162 HD
BRANCH  33  35
HETATM   35  C26 UNL     1      -3.485  51.902 -25.891  1.00  0.00     0.127 C 
BRANCH  35  36
HETATM   36  C27 UNL     1      -2.349  52.372 -24.970  1.00  0.00     0.060 C 
BRANCH  36  37
HETATM   37  C28 UNL     1      -2.617  52.096 -23.523  1.00  0.00    -0.029 A 
HETATM   38  C29 UNL     1      -3.862  51.963 -22.938  1.00  0.00     0.096 A 
HETATM   39  N2  UNL     1      -3.685  51.606 -21.631  1.00  0.00    -0.365 N 
HETATM   40  C30 UNL     1      -2.346  51.545 -21.328  1.00  0.00     0.042 A 
HETATM   41  H40 UNL     1      -4.430  51.383 -20.986  1.00  0.00     0.165 HD
HETATM   42  C31 UNL     1      -1.711  51.225 -20.122  1.00  0.00     0.030 A 
HETATM   43  C35 UNL     1      -1.645  51.862 -22.493  1.00  0.00    -0.002 A 
HETATM   44  C32 UNL     1      -0.314  51.233 -20.103  1.00  0.00     0.002 A 
HETATM   45  C33 UNL     1       0.415  51.552 -21.247  1.00  0.00     0.001 A 
HETATM   46  C34 UNL     1      -0.235  51.863 -22.448  1.00  0.00     0.014 A 
ENDBRANCH  36  37
ENDBRANCH  35  36
ENDBRANCH  33  35
ENDBRANCH  30  31
ENDBRANCH  29  30
ENDBRANCH  27  29
ENDBRANCH  26  27
ENDBRANCH  25  26
ENDBRANCH   1  25
TORSDOF 11
ENDMDL
MODEL 8
REMARK minimizedAffinity -9.23037243
REMARK CNNscore 0.25054121
REMARK CNNaffinity 6.22139502
REMARK  11 active torsions:
REMARK  status: ('A' for Active; 'I' for Inactive)
REMARK    1  A    between atoms: C19_20  and  O2_21 
REMARK    2  A    between atoms: C19_20  and  C20_22 
REMARK    3  A    between atoms: C20_22  and  C21_24 
REMARK    4  A    between atoms: C21_24  and  O4_25 
REMARK    5  A    between atoms: O4_25  and  C22_26 
REMARK    6  A    between atoms: C22_26  and  C23_28 
REMARK    7  A    between atoms: C23_28  and  C24_29 
REMARK    8  A    between atoms: C24_29  and  C25_30 
REMARK       I    between atoms: C25_30  and  N1_32 
REMARK    9  A    between atoms: N1_32  and  C26_33 
REMARK   10  A    between atoms: C26_33  and  C27_34 
REMARK   11  A    between atoms: C27_34  and  C28_35 
ROOT
HETATM    1  C20 UNL     1      -6.609  48.160 -23.262  1.00  0.00     0.185 C 
HETATM    2  O3  UNL     1      -7.004  47.570 -24.272  1.00  0.00    -0.292 OA
ENDROOT
BRANCH   1   3
HETATM    3  C19 UNL     1      -5.714  49.415 -23.303  1.00  0.00     0.128 C 
HETATM    4  C14 UNL     1      -4.258  49.307 -23.878  1.00  0.00    -0.002 C 
HETATM    5  C13 UNL     1      -4.101  49.345 -25.414  1.00  0.00     0.013 C 
HETATM    6  C15 UNL     1      -3.509  48.053 -23.351  1.00  0.00     0.019 C 
HETATM    7  C16 UNL     1      -3.671  50.611 -23.275  1.00  0.00     0.002 C 
HETATM    8  C12 UNL     1      -3.227  50.503 -25.931  1.00  0.00     0.007 C 
HETATM    9  C11 UNL     1      -1.907  50.698 -25.129  1.00  0.00     0.002 C 
HETATM   10  C2  UNL     1      -0.853  51.717 -25.781  1.00  0.00    -0.016 C 
HETATM   11  C10 UNL     1      -2.184  50.833 -23.586  1.00  0.00    -0.004 C 
HETATM   12  C1  UNL     1       0.393  50.886 -26.193  1.00  0.00     0.020 C 
HETATM   13  C3  UNL     1      -1.417  52.408 -27.056  1.00  0.00     0.022 C 
HETATM   14  C7  UNL     1      -0.362  52.815 -24.832  1.00  0.00    -0.068 C 
HETATM   15  C4  UNL     1      -0.502  53.459 -27.674  1.00  0.00     0.084 C 
HETATM   16  C5  UNL     1      -0.043  54.458 -26.648  1.00  0.00     0.149 C 
HETATM   17  O1  UNL     1       0.344  55.582 -26.960  1.00  0.00    -0.293 OA
HETATM   18  C6  UNL     1      -0.014  54.053 -25.226  1.00  0.00     0.053 C 
HETATM   19  C8  UNL     1      -0.299  52.473 -23.373  1.00  0.00     0.035 C 
HETATM   20  C9  UNL     1      -1.705  52.133 -22.932  1.00  0.00     0.010 C 
HETATM   21  C17 UNL     1      -4.097  50.560 -21.810  1.00  0.00     0.009 C 
HETATM   22  C18 UNL     1      -5.488  49.911 -21.845  1.00  0.00     0.047 C 
BRANCH   3  23
HETATM   23  O2  UNL     1      -6.441  50.460 -23.974  1.00  0.00    -0.381 OA
HETATM   24  H27 UNL     1      -6.509  50.244 -24.919  1.00  0.00     0.211 HD
ENDBRANCH   3  23
ENDBRANCH   1   3
BRANCH   1  25
HETATM   25  C21 UNL     1      -6.950  47.636 -21.859  1.00  0.00     0.260 C 
BRANCH  25  26
HETATM   26  O4  UNL     1      -8.313  47.850 -21.501  1.00  0.00    -0.314 OA
BRANCH  26  27
HETATM   27  C22 UNL     1      -8.684  47.232 -20.341  1.00  0.00     0.259 C 
HETATM   28  O5  UNL     1      -7.914  46.921 -19.439  1.00  0.00    -0.265 OA
BRANCH  27  29
HETATM   29  C23 UNL     1     -10.176  47.029 -20.315  1.00  0.00     0.120 C 
BRANCH  29  30
HETATM   30  C24 UNL     1     -10.840  48.040 -19.381  1.00  0.00     0.112 C 
BRANCH  30  31
HETATM   31  C25 UNL     1     -12.326  47.799 -19.208  1.00  0.00     0.218 C 
HETATM   32  O6  UNL     1     -12.830  47.422 -18.159  1.00  0.00    -0.274 OA
HETATM   33  N1  UNL     1     -13.037  47.962 -20.383  1.00  0.00    -0.361 N 
HETATM   34  H34 UNL     1     -12.580  48.462 -21.134  1.00  0.00     0.162 HD
BRANCH  33  35
HETATM   35  C26 UNL     1     -14.492  47.969 -20.383  1.00  0.00     0.127 C 
BRANCH  35  36
HETATM   36  C27 UNL     1     -15.092  46.670 -20.940  1.00  0.00     0.060 C 
BRANCH  36  37
HETATM   37  C28 UNL     1     -15.576  46.806 -22.350  1.00  0.00    -0.029 A 
HETATM   38  C29 UNL     1     -14.807  47.160 -23.442  1.00  0.00     0.096 A 
HETATM   39  N2  UNL     1     -15.585  47.066 -24.562  1.00  0.00    -0.365 N 
HETATM   40  C30 UNL     1     -16.866  46.701 -24.226  1.00  0.00     0.042 A 
HETATM   41  H40 UNL     1     -15.258  47.209 -25.508  1.00  0.00     0.165 HD
HETATM   42  C31 UNL     1     -17.984  46.491 -25.042  1.00  0.00     0.030 A 
HETATM   43  C35 UNL     1     -16.899  46.543 -22.839  1.00  0.00    -0.002 A 
HETATM   44  C32 UNL     1     -19.177  46.111 -24.422  1.00  0.00     0.002 A 
HETATM   45  C33 UNL     1     -19.246  45.952 -23.039  1.00  0.00     0.001 A 
HETATM   46  C34 UNL     1     -18.117  46.160 -22.237  1.00  0.00     0.014 A 
ENDBRANCH  36  37
ENDBRANCH  35  36
ENDBRANCH  33  35
ENDBRANCH  30  31
ENDBRANCH  29  30
ENDBRANCH  27  29
ENDBRANCH  26  27
ENDBRANCH  25  26
ENDBRANCH   1  25
TORSDOF 11
ENDMDL
MODEL 9
REMARK minimizedAffinity -8.60387802
REMARK CNNscore 0.234106407
REMARK CNNaffinity 6.06541109
REMARK  11 active torsions:
REMARK  status: ('A' for Active; 'I' for Inactive)
REMARK    1  A    between atoms: C19_20  and  O2_21 
REMARK    2  A    between atoms: C19_20  and  C20_22 
REMARK    3  A    between atoms: C20_22  and  C21_24 
REMARK    4  A    between atoms: C21_24  and  O4_25 
REMARK    5  A    between atoms: O4_25  and  C22_26 
REMARK    6  A    between atoms: C22_26  and  C23_28 
REMARK    7  A    between atoms: C23_28  and  C24_29 
REMARK    8  A    between atoms: C24_29  and  C25_30 
REMARK       I    between atoms: C25_30  and  N1_32 
REMARK    9  A    between atoms: N1_32  and  C26_33 
REMARK   10  A    between atoms: C26_33  and  C27_34 
REMARK   11  A    between atoms: C27_34  and  C28_35 
ROOT
HETATM    1  C20 UNL     1      -7.545  48.010 -24.408  1.00  0.00     0.185 C 
HETATM    2  O3  UNL     1      -7.028  47.306 -25.280  1.00  0.00    -0.292 OA
ENDROOT
BRANCH   1   3
HETATM    3  C19 UNL     1      -6.759  49.032 -23.560  1.00  0.00     0.128 C 
HETATM    4  C14 UNL     1      -5.402  48.605 -22.899  1.00  0.00    -0.002 C 
HETATM    5  C13 UNL     1      -4.143  48.627 -23.795  1.00  0.00     0.013 C 
HETATM    6  C15 UNL     1      -5.487  47.208 -22.228  1.00  0.00     0.019 C 
HETATM    7  C16 UNL     1      -5.291  49.735 -21.841  1.00  0.00     0.002 C 
HETATM    8  C12 UNL     1      -3.029  49.565 -23.295  1.00  0.00     0.007 C 
HETATM    9  C11 UNL     1      -2.748  49.446 -21.768  1.00  0.00     0.002 C 
HETATM   10  C2  UNL     1      -1.435  50.209 -21.251  1.00  0.00    -0.016 C 
HETATM   11  C10 UNL     1      -4.065  49.620 -20.924  1.00  0.00    -0.004 C 
HETATM   12  C1  UNL     1      -0.436  49.124 -20.763  1.00  0.00     0.020 C 
HETATM   13  C3  UNL     1      -0.748  51.027 -22.383  1.00  0.00     0.022 C 
HETATM   14  C7  UNL     1      -1.675  51.155 -20.070  1.00  0.00    -0.068 C 
HETATM   15  C4  UNL     1       0.454  51.852 -21.939  1.00  0.00     0.084 C 
HETATM   16  C5  UNL     1       0.122  52.708 -20.748  1.00  0.00     0.149 C 
HETATM   17  O1  UNL     1       0.763  53.719 -20.473  1.00  0.00    -0.293 OA
HETATM   18  C6  UNL     1      -0.982  52.288 -19.858  1.00  0.00     0.053 C 
HETATM   19  C8  UNL     1      -2.776  50.789 -19.119  1.00  0.00     0.035 C 
HETATM   20  C9  UNL     1      -4.064  50.770 -19.912  1.00  0.00     0.010 C 
HETATM   21  C17 UNL     1      -6.672  49.762 -21.191  1.00  0.00     0.009 C 
HETATM   22  C18 UNL     1      -7.637  49.444 -22.342  1.00  0.00     0.047 C 
BRANCH   3  23
HETATM   23  O2  UNL     1      -6.581  50.222 -24.348  1.00  0.00    -0.381 OA
HETATM   24  H27 UNL     1      -5.946  50.039 -25.062  1.00  0.00     0.211 HD
ENDBRANCH   3  23
ENDBRANCH   1   3
BRANCH   1  25
HETATM   25  C21 UNL     1      -9.036  47.872 -24.065  1.00  0.00     0.260 C 
BRANCH  25  26
HETATM   26  O4  UNL     1      -9.622  46.688 -24.600  1.00  0.00    -0.314 OA
BRANCH  26  27
HETATM   27  C22 UNL     1     -10.988  46.690 -24.579  1.00  0.00     0.259 C 
HETATM   28  O5  UNL     1     -11.672  47.060 -23.631  1.00  0.00    -0.265 OA
BRANCH  27  29
HETATM   29  C23 UNL     1     -11.527  46.215 -25.903  1.00  0.00     0.120 C 
BRANCH  29  30
HETATM   30  C24 UNL     1     -12.499  47.239 -26.487  1.00  0.00     0.112 C 
BRANCH  30  31
HETATM   31  C25 UNL     1     -13.951  46.838 -26.323  1.00  0.00     0.218 C 
HETATM   32  O6  UNL     1     -14.630  46.380 -27.233  1.00  0.00    -0.274 OA
HETATM   33  N1  UNL     1     -14.450  47.128 -25.067  1.00  0.00    -0.361 N 
HETATM   34  H34 UNL     1     -13.778  47.311 -24.334  1.00  0.00     0.162 HD
BRANCH  33  35
HETATM   35  C26 UNL     1     -15.757  46.642 -24.650  1.00  0.00     0.127 C 
BRANCH  35  36
HETATM   36  C27 UNL     1     -15.668  45.547 -23.577  1.00  0.00     0.060 C 
BRANCH  36  37
HETATM   37  C28 UNL     1     -16.209  45.983 -22.250  1.00  0.00    -0.029 A 
HETATM   38  C29 UNL     1     -17.404  45.577 -21.688  1.00  0.00     0.096 A 
HETATM   39  N2  UNL     1     -17.487  46.106 -20.431  1.00  0.00    -0.365 N 
HETATM   40  C30 UNL     1     -16.391  46.892 -20.168  1.00  0.00     0.042 A 
HETATM   41  H40 UNL     1     -18.231  45.920 -19.772  1.00  0.00     0.165 HD
HETATM   42  C31 UNL     1     -16.063  47.623 -19.020  1.00  0.00     0.030 A 
HETATM   43  C35 UNL     1     -15.573  46.848 -21.299  1.00  0.00    -0.002 A 
HETATM   44  C32 UNL     1     -14.861  48.335 -19.026  1.00  0.00     0.002 A 
HETATM   45  C33 UNL     1     -14.025  48.318 -20.142  1.00  0.00     0.001 A 
HETATM   46  C34 UNL     1     -14.365  47.577 -21.280  1.00  0.00     0.014 A 
ENDBRANCH  36  37
ENDBRANCH  35  36
ENDBRANCH  33  35
ENDBRANCH  30  31
ENDBRANCH  29  30
ENDBRANCH  27  29
ENDBRANCH  26  27
ENDBRANCH  25  26
ENDBRANCH   1  25
TORSDOF 11
ENDMDL
