MODEL 1
REMARK minimizedAffinity -9.09173298
REMARK CNNscore 0.534819722
REMARK CNNaffinity 6.73881912
REMARK  13 active torsions:
REMARK  status: ('A' for Active; 'I' for Inactive)
REMARK    1  A    between atoms: C2_2  and  O2_4 
REMARK    2  A    between atoms: O2_4  and  C3_5 
REMARK    3  A    between atoms: C20_22  and  C21_23 
REMARK    4  A    between atoms: C21_23  and  C22_24 
REMARK    5  A    between atoms: C21_23  and  C28_31 
REMARK    6  A    between atoms: C22_24  and  C23_25 
REMARK    7  A    between atoms: C24_26  and  C25_27 
REMARK    8  A    between atoms: C25_27  and  O3_30 
REMARK    9  A    between atoms: C28_31  and  O5_33 
REMARK   10  A    between atoms: O5_33  and  C29_34 
REMARK   11  A    between atoms: C30_35  and  O6_36 
REMARK   12  A    between atoms: C31_37  and  O7_38 
REMARK   13  A    between atoms: C33_41  and  O9_42 
ROOT
HETATM    1  C3  UNL     1     -16.927  45.265 -24.763  1.00  0.00     0.140 C 
HETATM    2  C4  UNL     1     -16.390  46.687 -24.645  1.00  0.00     0.034 C 
HETATM    3  C5  UNL     1     -14.891  46.812 -24.939  1.00  0.00     0.016 C 
HETATM    4  C6  UNL     1     -14.294  45.758 -25.921  1.00  0.00    -0.016 C 
HETATM    5  C7  UNL     1     -13.700  44.572 -25.118  1.00  0.00     0.020 C 
HETATM    6  C8  UNL     1     -13.117  46.369 -26.734  1.00  0.00    -0.068 C 
HETATM    7  C9  UNL     1     -12.980  46.164 -28.071  1.00  0.00    -0.068 C 
HETATM    8  C10 UNL     1     -13.930  45.322 -28.897  1.00  0.00     0.036 C 
HETATM    9  C11 UNL     1     -14.905  44.495 -28.070  1.00  0.00     0.011 C 
HETATM   10  C12 UNL     1     -15.450  45.319 -26.892  1.00  0.00     0.008 C 
HETATM   11  C13 UNL     1     -16.721  44.688 -26.205  1.00  0.00    -0.016 C 
HETATM   12  C14 UNL     1     -16.661  43.144 -26.103  1.00  0.00     0.018 C 
HETATM   13  C15 UNL     1     -17.953  45.016 -27.100  1.00  0.00     0.018 C 
HETATM   14  C16 UNL     1     -11.876  46.881 -28.845  1.00  0.00    -0.013 C 
HETATM   15  C17 UNL     1     -12.506  48.247 -29.262  1.00  0.00     0.021 C 
HETATM   16  C18 UNL     1     -11.314  46.232 -30.125  1.00  0.00     0.015 C 
HETATM   17  C19 UNL     1      -9.926  46.870 -30.315  1.00  0.00     0.007 C 
HETATM   18  C20 UNL     1      -9.564  47.613 -29.000  1.00  0.00     0.009 C 
HETATM   19  C34 UNL     1     -10.565  46.979 -27.979  1.00  0.00    -0.028 C 
HETATM   20  C35 UNL     1     -10.020  45.589 -27.512  1.00  0.00     0.016 C 
HETATM   21  C36 UNL     1     -10.905  47.803 -26.738  1.00  0.00     0.015 C 
HETATM   22  C37 UNL     1     -12.093  47.205 -25.952  1.00  0.00     0.036 C 
ENDROOT
BRANCH  18  23
HETATM   23  C21 UNL     1      -8.046  47.574 -28.672  1.00  0.00     0.094 C 
BRANCH  23  24
HETATM   24  C22 UNL     1      -7.680  46.822 -27.366  1.00  0.00     0.042 C 
BRANCH  24  25
HETATM   25  C23 UNL     1      -7.036  47.652 -26.292  1.00  0.00    -0.027 C 
HETATM   26  C24 UNL     1      -7.560  47.830 -25.065  1.00  0.00     0.006 C 
BRANCH  26  27
HETATM   27  C25 UNL     1      -6.959  48.622 -23.920  1.00  0.00     0.068 C 
HETATM   28  C26 UNL     1      -5.595  48.050 -23.537  1.00  0.00     0.050 C 
HETATM   29  C27 UNL     1      -7.901  48.615 -22.712  1.00  0.00     0.050 C 
BRANCH  27  30
HETATM   30  O3  UNL     1      -6.755  49.982 -24.311  1.00  0.00    -0.387 OA
HETATM   31  H42 UNL     1      -7.626  50.341 -24.555  1.00  0.00     0.211 HD
ENDBRANCH  27  30
ENDBRANCH  26  27
ENDBRANCH  24  25
ENDBRANCH  23  24
BRANCH  23  32
HETATM   32  C28 UNL     1      -7.238  46.910 -29.774  1.00  0.00     0.264 C 
HETATM   33  O4  UNL     1      -6.954  45.720 -29.786  1.00  0.00    -0.265 OA
BRANCH  32  34
HETATM   34  O5  UNL     1      -6.925  47.791 -30.767  1.00  0.00    -0.308 OA
BRANCH  34  35
HETATM   35  C29 UNL     1      -6.222  47.209 -31.898  1.00  0.00     0.218 C 
HETATM   36  C30 UNL     1      -5.280  48.295 -32.429  1.00  0.00     0.183 C 
HETATM   37  C31 UNL     1      -4.815  47.949 -33.840  1.00  0.00     0.173 C 
HETATM   38  C32 UNL     1      -6.014  47.815 -34.782  1.00  0.00     0.205 C 
HETATM   39  O8  UNL     1      -7.262  47.710 -34.079  1.00  0.00    -0.356 OA
HETATM   40  C33 UNL     1      -7.206  46.766 -33.006  1.00  0.00     0.288 C 
BRANCH  36  41
HETATM   41  O6  UNL     1      -4.120  48.413 -31.588  1.00  0.00    -0.390 OA
HETATM   42  H45 UNL     1      -4.116  49.328 -31.238  1.00  0.00     0.210 HD
ENDBRANCH  36  41
BRANCH  37  43
HETATM   43  O7  UNL     1      -3.920  48.956 -34.316  1.00  0.00    -0.391 OA
HETATM   44  H47 UNL     1      -3.212  49.012 -33.645  1.00  0.00     0.210 HD
ENDBRANCH  37  43
BRANCH  40  45
HETATM   45  O9  UNL     1      -6.841  45.490 -33.519  1.00  0.00    -0.369 OA
HETATM   46  H51 UNL     1      -7.672  45.084 -33.823  1.00  0.00     0.212 HD
ENDBRANCH  40  45
ENDBRANCH  34  35
ENDBRANCH  32  34
ENDBRANCH  23  32
ENDBRANCH  18  23
BRANCH   1  47
HETATM   47  O2  UNL     1     -18.336  45.280 -24.442  1.00  0.00    -0.316 OA
BRANCH  47  48
HETATM   48  C2  UNL     1     -18.874  46.461 -24.017  1.00  0.00     0.255 C 
HETATM   49  C1  UNL     1     -18.846  46.510 -22.518  1.00  0.00     0.126 C 
HETATM   50  O1  UNL     1     -19.314  47.349 -24.732  1.00  0.00    -0.266 OA
ENDBRANCH  47  48
ENDBRANCH   1  47
TORSDOF 13
ENDMDL
MODEL 2
REMARK minimizedAffinity -9.92316818
REMARK CNNscore 0.34600395
REMARK CNNaffinity 7.20724726
REMARK  13 active torsions:
REMARK  status: ('A' for Active; 'I' for Inactive)
REMARK    1  A    between atoms: C2_2  and  O2_4 
REMARK    2  A    between atoms: O2_4  and  C3_5 
REMARK    3  A    between atoms: C20_22  and  C21_23 
REMARK    4  A    between atoms: C21_23  and  C22_24 
REMARK    5  A    between atoms: C21_23  and  C28_31 
REMARK    6  A    between atoms: C22_24  and  C23_25 
REMARK    7  A    between atoms: C24_26  and  C25_27 
REMARK    8  A    between atoms: C25_27  and  O3_30 
REMARK    9  A    between atoms: C28_31  and  O5_33 
REMARK   10  A    between atoms: O5_33  and  C29_34 
REMARK   11  A    between atoms: C30_35  and  O6_36 
REMARK   12  A    between atoms: C31_37  and  O7_38 
REMARK   13  A    between atoms: C33_41  and  O9_42 
ROOT
HETATM    1  C3  UNL     1      -8.351  47.218 -24.545  1.00  0.00     0.140 C 
HETATM    2  C4  UNL     1      -7.080  47.316 -25.381  1.00  0.00     0.034 C 
HETATM    3  C5  UNL     1      -6.023  48.259 -24.798  1.00  0.00     0.016 C 
HETATM    4  C6  UNL     1      -6.034  48.428 -23.248  1.00  0.00    -0.016 C 
HETATM    5  C7  UNL     1      -6.877  49.671 -22.863  1.00  0.00     0.020 C 
HETATM    6  C8  UNL     1      -4.596  48.691 -22.714  1.00  0.00    -0.068 C 
HETATM    7  C9  UNL     1      -4.114  48.072 -21.604  1.00  0.00    -0.068 C 
HETATM    8  C10 UNL     1      -4.913  47.089 -20.773  1.00  0.00     0.036 C 
HETATM    9  C11 UNL     1      -6.396  47.047 -21.115  1.00  0.00     0.011 C 
HETATM   10  C12 UNL     1      -6.600  47.095 -22.638  1.00  0.00     0.008 C 
HETATM   11  C13 UNL     1      -8.053  46.691 -23.101  1.00  0.00    -0.016 C 
HETATM   12  C14 UNL     1      -9.164  47.212 -22.157  1.00  0.00     0.018 C 
HETATM   13  C15 UNL     1      -8.146  45.137 -23.063  1.00  0.00     0.018 C 
HETATM   14  C16 UNL     1      -2.659  48.274 -21.187  1.00  0.00    -0.013 C 
HETATM   15  C17 UNL     1      -1.867  47.179 -21.970  1.00  0.00     0.021 C 
HETATM   16  C18 UNL     1      -2.278  48.132 -19.700  1.00  0.00     0.015 C 
HETATM   17  C19 UNL     1      -0.959  48.913 -19.555  1.00  0.00     0.007 C 
HETATM   18  C20 UNL     1      -0.765  49.757 -20.844  1.00  0.00     0.009 C 
HETATM   19  C34 UNL     1      -2.206  49.756 -21.456  1.00  0.00    -0.028 C 
HETATM   20  C35 UNL     1      -3.083  50.821 -20.719  1.00  0.00     0.016 C 
HETATM   21  C36 UNL     1      -2.320  49.998 -22.960  1.00  0.00     0.015 C 
HETATM   22  C37 UNL     1      -3.743  49.707 -23.488  1.00  0.00     0.036 C 
ENDROOT
BRANCH  18  23
HETATM   23  C21 UNL     1      -0.072  51.123 -20.585  1.00  0.00     0.094 C 
BRANCH  23  24
HETATM   24  C22 UNL     1      -0.491  52.262 -21.549  1.00  0.00     0.042 C 
BRANCH  24  25
HETATM   25  C23 UNL     1       0.094  52.196 -22.932  1.00  0.00    -0.027 C 
HETATM   26  C24 UNL     1      -0.448  52.798 -24.007  1.00  0.00     0.006 C 
BRANCH  26  27
HETATM   27  C25 UNL     1       0.096  52.806 -25.422  1.00  0.00     0.068 C 
HETATM   28  C26 UNL     1      -0.948  52.261 -26.396  1.00  0.00     0.050 C 
HETATM   29  C27 UNL     1       1.385  51.985 -25.504  1.00  0.00     0.050 C 
BRANCH  27  30
HETATM   30  O3  UNL     1       0.399  54.143 -25.829  1.00  0.00    -0.387 OA
HETATM   31  H42 UNL     1       1.063  54.486 -25.205  1.00  0.00     0.211 HD
ENDBRANCH  27  30
ENDBRANCH  26  27
ENDBRANCH  24  25
ENDBRANCH  23  24
BRANCH  23  32
HETATM   32  C28 UNL     1      -0.341  51.644 -19.183  1.00  0.00     0.264 C 
HETATM   33  O4  UNL     1      -1.301  52.345 -18.891  1.00  0.00    -0.265 OA
BRANCH  32  34
HETATM   34  O5  UNL     1       0.585  51.188 -18.291  1.00  0.00    -0.308 OA
BRANCH  34  35
HETATM   35  C29 UNL     1       0.208  51.333 -16.895  1.00  0.00     0.218 C 
HETATM   36  C30 UNL     1       1.419  51.941 -16.180  1.00  0.00     0.183 C 
HETATM   37  C31 UNL     1       1.295  51.748 -14.671  1.00  0.00     0.173 C 
HETATM   38  C32 UNL     1       1.201  50.260 -14.328  1.00  0.00     0.205 C 
HETATM   39  O8  UNL     1       0.916  49.443 -15.475  1.00  0.00    -0.356 OA
HETATM   40  C33 UNL     1      -0.155  49.967 -16.265  1.00  0.00     0.288 C 
BRANCH  36  41
HETATM   41  O6  UNL     1       1.507  53.351 -16.448  1.00  0.00    -0.390 OA
HETATM   42  H45 UNL     1       2.367  53.501 -16.895  1.00  0.00     0.210 HD
ENDBRANCH  36  41
BRANCH  37  43
HETATM   43  O7  UNL     1       2.417  52.339 -14.014  1.00  0.00    -0.391 OA
HETATM   44  H47 UNL     1       2.434  53.269 -14.315  1.00  0.00     0.210 HD
ENDBRANCH  37  43
BRANCH  40  45
HETATM   45  O9  UNL     1      -1.323  50.082 -15.462  1.00  0.00    -0.369 OA
HETATM   46  H51 UNL     1      -1.743  49.204 -15.487  1.00  0.00     0.212 HD
ENDBRANCH  40  45
ENDBRANCH  34  35
ENDBRANCH  32  34
ENDBRANCH  23  32
ENDBRANCH  18  23
BRANCH   1  47
HETATM   47  O2  UNL     1      -9.269  46.322 -25.211  1.00  0.00    -0.316 OA
BRANCH  47  48
HETATM   48  C2  UNL     1     -10.277  46.879 -25.943  1.00  0.00     0.255 C 
HETATM   49  C1  UNL     1     -10.707  45.919 -27.012  1.00  0.00     0.126 C 
HETATM   50  O1  UNL     1     -10.765  47.986 -25.767  1.00  0.00    -0.266 OA
ENDBRANCH  47  48
ENDBRANCH   1  47
TORSDOF 13
ENDMDL
MODEL 3
REMARK minimizedAffinity -8.09164143
REMARK CNNscore 0.336144269
REMARK CNNaffinity 6.29054308
REMARK  13 active torsions:
REMARK  status: ('A' for Active; 'I' for Inactive)
REMARK    1  A    between atoms: C2_2  and  O2_4 
REMARK    2  A    between atoms: O2_4  and  C3_5 
REMARK    3  A    between atoms: C20_22  and  C21_23 
REMARK    4  A    between atoms: C21_23  and  C22_24 
REMARK    5  A    between atoms: C21_23  and  C28_31 
REMARK    6  A    between atoms: C22_24  and  C23_25 
REMARK    7  A    between atoms: C24_26  and  C25_27 
REMARK    8  A    between atoms: C25_27  and  O3_30 
REMARK    9  A    between atoms: C28_31  and  O5_33 
REMARK   10  A    between atoms: O5_33  and  C29_34 
REMARK   11  A    between atoms: C30_35  and  O6_36 
REMARK   12  A    between atoms: C31_37  and  O7_38 
REMARK   13  A    between atoms: C33_41  and  O9_42 
ROOT
HETATM    1  C3  UNL     1      -6.837  46.610 -31.027  1.00  0.00     0.140 C 
HETATM    2  C4  UNL     1      -7.056  45.254 -30.366  1.00  0.00     0.034 C 
HETATM    3  C5  UNL     1      -7.927  45.309 -29.107  1.00  0.00     0.016 C 
HETATM    4  C6  UNL     1      -8.978  46.460 -29.050  1.00  0.00    -0.016 C 
HETATM    5  C7  UNL     1      -8.382  47.673 -28.289  1.00  0.00     0.020 C 
HETATM    6  C8  UNL     1     -10.236  46.016 -28.250  1.00  0.00    -0.068 C 
HETATM    7  C9  UNL     1     -11.497  46.287 -28.680  1.00  0.00    -0.068 C 
HETATM    8  C10 UNL     1     -11.809  47.050 -29.951  1.00  0.00     0.036 C 
HETATM    9  C11 UNL     1     -10.601  47.730 -30.580  1.00  0.00     0.011 C 
HETATM   10  C12 UNL     1      -9.373  46.805 -30.531  1.00  0.00     0.008 C 
HETATM   11  C13 UNL     1      -8.191  47.262 -31.469  1.00  0.00    -0.016 C 
HETATM   12  C14 UNL     1      -7.997  48.798 -31.508  1.00  0.00     0.018 C 
HETATM   13  C15 UNL     1      -8.549  46.834 -32.923  1.00  0.00     0.018 C 
HETATM   14  C16 UNL     1     -12.700  45.730 -27.922  1.00  0.00    -0.013 C 
HETATM   15  C17 UNL     1     -12.942  44.318 -28.546  1.00  0.00     0.021 C 
HETATM   16  C18 UNL     1     -14.041  46.486 -27.981  1.00  0.00     0.015 C 
HETATM   17  C19 UNL     1     -14.815  46.015 -26.737  1.00  0.00     0.007 C 
HETATM   18  C20 UNL     1     -13.816  45.267 -25.814  1.00  0.00     0.009 C 
HETATM   19  C34 UNL     1     -12.434  45.745 -26.371  1.00  0.00    -0.028 C 
HETATM   20  C35 UNL     1     -12.111  47.168 -25.807  1.00  0.00     0.016 C 
HETATM   21  C36 UNL     1     -11.231  44.841 -26.111  1.00  0.00     0.015 C 
HETATM   22  C37 UNL     1      -9.993  45.270 -26.930  1.00  0.00     0.036 C 
ENDROOT
BRANCH  18  23
HETATM   23  C21 UNL     1     -14.112  45.463 -24.301  1.00  0.00     0.094 C 
BRANCH  23  24
HETATM   24  C22 UNL     1     -13.297  46.590 -23.617  1.00  0.00     0.042 C 
BRANCH  24  25
HETATM   25  C23 UNL     1     -13.404  46.658 -22.119  1.00  0.00    -0.027 C 
HETATM   26  C24 UNL     1     -14.050  47.635 -21.456  1.00  0.00     0.006 C 
BRANCH  26  27
HETATM   27  C25 UNL     1     -14.230  47.757 -19.956  1.00  0.00     0.068 C 
HETATM   28  C26 UNL     1     -15.585  47.188 -19.536  1.00  0.00     0.050 C 
HETATM   29  C27 UNL     1     -14.105  49.219 -19.519  1.00  0.00     0.050 C 
BRANCH  27  30
HETATM   30  O3  UNL     1     -13.224  47.005 -19.272  1.00  0.00    -0.387 OA
HETATM   31  H42 UNL     1     -12.364  47.371 -19.544  1.00  0.00     0.211 HD
ENDBRANCH  27  30
ENDBRANCH  26  27
ENDBRANCH  24  25
ENDBRANCH  23  24
BRANCH  23  32
HETATM   32  C28 UNL     1     -15.573  45.791 -24.042  1.00  0.00     0.264 C 
HETATM   33  O4  UNL     1     -16.115  46.822 -24.416  1.00  0.00    -0.265 OA
BRANCH  32  34
HETATM   34  O5  UNL     1     -16.209  44.771 -23.397  1.00  0.00    -0.308 OA
BRANCH  34  35
HETATM   35  C29 UNL     1     -17.589  44.561 -23.803  1.00  0.00     0.218 C 
HETATM   36  C30 UNL     1     -17.639  44.811 -25.314  1.00  0.00     0.183 C 
HETATM   37  C31 UNL     1     -19.079  45.031 -25.768  1.00  0.00     0.173 C 
HETATM   38  C32 UNL     1     -19.694  46.227 -25.037  1.00  0.00     0.205 C 
HETATM   39  O8  UNL     1     -18.924  46.635 -23.895  1.00  0.00    -0.356 OA
HETATM   40  C33 UNL     1     -18.546  45.530 -23.069  1.00  0.00     0.288 C 
BRANCH  36  41
HETATM   41  O6  UNL     1     -17.108  43.683 -26.030  1.00  0.00    -0.390 OA
HETATM   42  H45 UNL     1     -16.336  44.008 -26.539  1.00  0.00     0.210 HD
ENDBRANCH  36  41
BRANCH  37  43
HETATM   43  O7  UNL     1     -19.115  45.240 -27.181  1.00  0.00    -0.391 OA
HETATM   44  H47 UNL     1     -18.669  44.462 -27.569  1.00  0.00     0.210 HD
ENDBRANCH  37  43
BRANCH  40  45
HETATM   45  O9  UNL     1     -19.715  44.844 -22.635  1.00  0.00    -0.369 OA
HETATM   46  H51 UNL     1     -20.018  45.323 -21.843  1.00  0.00     0.212 HD
ENDBRANCH  40  45
ENDBRANCH  34  35
ENDBRANCH  32  34
ENDBRANCH  23  32
ENDBRANCH  18  23
BRANCH   1  47
HETATM   47  O2  UNL     1      -5.987  46.425 -32.181  1.00  0.00    -0.316 OA
BRANCH  47  48
HETATM   48  C2  UNL     1      -4.707  46.002 -31.962  1.00  0.00     0.255 C 
HETATM   49  C1  UNL     1      -4.543  44.610 -32.496  1.00  0.00     0.126 C 
HETATM   50  O1  UNL     1      -3.823  46.646 -31.417  1.00  0.00    -0.266 OA
ENDBRANCH  47  48
ENDBRANCH   1  47
TORSDOF 13
ENDMDL
MODEL 4
REMARK minimizedAffinity -10.0253506
REMARK CNNscore 0.335567027
REMARK CNNaffinity 7.60788727
REMARK  13 active torsions:
REMARK  status: ('A' for Active; 'I' for Inactive)
REMARK    1  A    between atoms: C2_2  and  O2_4 
REMARK    2  A    between atoms: O2_4  and  C3_5 
REMARK    3  A    between atoms: C20_22  and  C21_23 
REMARK    4  A    between atoms: C21_23  and  C22_24 
REMARK    5  A    between atoms: C21_23  and  C28_31 
REMARK    6  A    between atoms: C22_24  and  C23_25 
REMARK    7  A    between atoms: C24_26  and  C25_27 
REMARK    8  A    between atoms: C25_27  and  O3_30 
REMARK    9  A    between atoms: C28_31  and  O5_33 
REMARK   10  A    between atoms: O5_33  and  C29_34 
REMARK   11  A    between atoms: C30_35  and  O6_36 
REMARK   12  A    between atoms: C31_37  and  O7_38 
REMARK   13  A    between atoms: C33_41  and  O9_42 
ROOT
HETATM    1  C3  UNL     1      -1.023  51.832 -26.357  1.00  0.00     0.140 C 
HETATM    2  C4  UNL     1       0.261  51.511 -25.600  1.00  0.00     0.034 C 
HETATM    3  C5  UNL     1       0.122  51.592 -24.077  1.00  0.00     0.016 C 
HETATM    4  C6  UNL     1      -1.298  51.300 -23.501  1.00  0.00    -0.016 C 
HETATM    5  C7  UNL     1      -2.068  52.633 -23.310  1.00  0.00     0.020 C 
HETATM    6  C8  UNL     1      -1.196  50.647 -22.092  1.00  0.00    -0.068 C 
HETATM    7  C9  UNL     1      -1.967  49.587 -21.731  1.00  0.00    -0.068 C 
HETATM    8  C10 UNL     1      -2.999  48.948 -22.636  1.00  0.00     0.036 C 
HETATM    9  C11 UNL     1      -3.306  49.751 -23.893  1.00  0.00     0.011 C 
HETATM   10  C12 UNL     1      -2.013  50.320 -24.500  1.00  0.00     0.008 C 
HETATM   11  C13 UNL     1      -2.178  50.846 -25.977  1.00  0.00    -0.016 C 
HETATM   12  C14 UNL     1      -3.527  51.563 -26.226  1.00  0.00     0.018 C 
HETATM   13  C15 UNL     1      -2.166  49.608 -26.922  1.00  0.00     0.018 C 
HETATM   14  C16 UNL     1      -1.748  48.908 -20.381  1.00  0.00    -0.013 C 
HETATM   15  C17 UNL     1      -0.646  47.835 -20.651  1.00  0.00     0.021 C 
HETATM   16  C18 UNL     1      -2.928  48.185 -19.705  1.00  0.00     0.015 C 
HETATM   17  C19 UNL     1      -2.553  48.124 -18.213  1.00  0.00     0.007 C 
HETATM   18  C20 UNL     1      -1.350  49.081 -17.990  1.00  0.00     0.009 C 
HETATM   19  C34 UNL     1      -1.397  49.972 -19.275  1.00  0.00    -0.028 C 
HETATM   20  C35 UNL     1      -2.491  51.076 -19.101  1.00  0.00     0.016 C 
HETATM   21  C36 UNL     1      -0.094  50.649 -19.698  1.00  0.00     0.015 C 
HETATM   22  C37 UNL     1      -0.194  51.270 -21.109  1.00  0.00     0.036 C 
ENDROOT
BRANCH  18  23
HETATM   23  C21 UNL     1      -1.371  49.780 -16.603  1.00  0.00     0.094 C 
BRANCH  23  24
HETATM   24  C22 UNL     1      -0.522  51.074 -16.511  1.00  0.00     0.042 C 
BRANCH  24  25
HETATM   25  C23 UNL     1       0.643  51.026 -15.563  1.00  0.00    -0.027 C 
HETATM   26  C24 UNL     1       1.829  51.617 -15.799  1.00  0.00     0.006 C 
BRANCH  26  27
HETATM   27  C25 UNL     1       3.037  51.643 -14.883  1.00  0.00     0.068 C 
HETATM   28  C26 UNL     1       4.279  52.088 -15.654  1.00  0.00     0.050 C 
HETATM   29  C27 UNL     1       3.262  50.264 -14.256  1.00  0.00     0.050 C 
BRANCH  27  30
HETATM   30  O3  UNL     1       2.836  52.581 -13.823  1.00  0.00    -0.387 OA
HETATM   31  H42 UNL     1       2.043  52.293 -13.336  1.00  0.00     0.211 HD
ENDBRANCH  27  30
ENDBRANCH  26  27
ENDBRANCH  24  25
ENDBRANCH  23  24
BRANCH  23  32
HETATM   32  C28 UNL     1      -2.777  50.173 -16.181  1.00  0.00     0.264 C 
HETATM   33  O4  UNL     1      -3.772  49.506 -16.428  1.00  0.00    -0.265 OA
BRANCH  32  34
HETATM   34  O5  UNL     1      -2.778  51.325 -15.451  1.00  0.00    -0.308 OA
BRANCH  34  35
HETATM   35  C29 UNL     1      -3.413  51.218 -14.148  1.00  0.00     0.218 C 
HETATM   36  C30 UNL     1      -3.252  52.586 -13.474  1.00  0.00     0.183 C 
HETATM   37  C31 UNL     1      -3.498  52.469 -11.973  1.00  0.00     0.173 C 
HETATM   38  C32 UNL     1      -2.515  51.477 -11.345  1.00  0.00     0.205 C 
HETATM   39  O8  UNL     1      -1.846  50.665 -12.323  1.00  0.00    -0.356 OA
HETATM   40  C33 UNL     1      -2.750  50.117 -13.287  1.00  0.00     0.288 C 
BRANCH  36  41
HETATM   41  O6  UNL     1      -4.196  53.527 -14.014  1.00  0.00    -0.390 OA
HETATM   42  H45 UNL     1      -3.673  54.256 -14.410  1.00  0.00     0.210 HD
ENDBRANCH  36  41
BRANCH  37  43
HETATM   43  O7  UNL     1      -3.369  53.753 -11.360  1.00  0.00    -0.391 OA
HETATM   44  H47 UNL     1      -3.991  54.333 -11.840  1.00  0.00     0.210 HD
ENDBRANCH  37  43
BRANCH  40  45
HETATM   45  O9  UNL     1      -3.738  49.342 -12.620  1.00  0.00    -0.369 OA
HETATM   46  H51 UNL     1      -3.342  48.460 -12.502  1.00  0.00     0.212 HD
ENDBRANCH  40  45
ENDBRANCH  34  35
ENDBRANCH  32  34
ENDBRANCH  23  32
ENDBRANCH  18  23
BRANCH   1  47
HETATM   47  O2  UNL     1      -0.753  51.743 -27.774  1.00  0.00    -0.316 OA
BRANCH  47  48
HETATM   48  C2  UNL     1       0.219  52.556 -28.284  1.00  0.00     0.255 C 
HETATM   49  C1  UNL     1       1.516  51.805 -28.343  1.00  0.00     0.126 C 
HETATM   50  O1  UNL     1       0.070  53.715 -28.641  1.00  0.00    -0.266 OA
ENDBRANCH  47  48
ENDBRANCH   1  47
TORSDOF 13
ENDMDL
MODEL 5
REMARK minimizedAffinity -8.3174715
REMARK CNNscore 0.332177728
REMARK CNNaffinity 6.74870443
REMARK  13 active torsions:
REMARK  status: ('A' for Active; 'I' for Inactive)
REMARK    1  A    between atoms: C2_2  and  O2_4 
REMARK    2  A    between atoms: O2_4  and  C3_5 
REMARK    3  A    between atoms: C20_22  and  C21_23 
REMARK    4  A    between atoms: C21_23  and  C22_24 
REMARK    5  A    between atoms: C21_23  and  C28_31 
REMARK    6  A    between atoms: C22_24  and  C23_25 
REMARK    7  A    between atoms: C24_26  and  C25_27 
REMARK    8  A    between atoms: C25_27  and  O3_30 
REMARK    9  A    between atoms: C28_31  and  O5_33 
REMARK   10  A    between atoms: O5_33  and  C29_34 
REMARK   11  A    between atoms: C30_35  and  O6_36 
REMARK   12  A    between atoms: C31_37  and  O7_38 
REMARK   13  A    between atoms: C33_41  and  O9_42 
ROOT
HETATM    1  C3  UNL     1      -0.564  50.637 -20.918  1.00  0.00     0.140 C 
HETATM    2  C4  UNL     1      -1.226  51.246 -22.149  1.00  0.00     0.034 C 
HETATM    3  C5  UNL     1      -2.246  50.325 -22.826  1.00  0.00     0.016 C 
HETATM    4  C6  UNL     1      -2.962  49.295 -21.899  1.00  0.00    -0.016 C 
HETATM    5  C7  UNL     1      -2.207  47.941 -21.942  1.00  0.00     0.020 C 
HETATM    6  C8  UNL     1      -4.404  49.008 -22.408  1.00  0.00    -0.068 C 
HETATM    7  C9  UNL     1      -5.468  48.943 -21.563  1.00  0.00    -0.068 C 
HETATM    8  C10 UNL     1      -5.365  49.122 -20.063  1.00  0.00     0.036 C 
HETATM    9  C11 UNL     1      -3.938  49.114 -19.533  1.00  0.00     0.011 C 
HETATM   10  C12 UNL     1      -3.012  49.920 -20.459  1.00  0.00     0.008 C 
HETATM   11  C13 UNL     1      -1.617  50.276 -19.816  1.00  0.00    -0.016 C 
HETATM   12  C14 UNL     1      -1.034  49.135 -18.947  1.00  0.00     0.018 C 
HETATM   13  C15 UNL     1      -1.833  51.484 -18.857  1.00  0.00     0.018 C 
HETATM   14  C16 UNL     1      -6.878  48.775 -22.122  1.00  0.00    -0.013 C 
HETATM   15  C17 UNL     1      -7.370  50.232 -22.402  1.00  0.00     0.021 C 
HETATM   16  C18 UNL     1      -7.954  48.094 -21.254  1.00  0.00     0.015 C 
HETATM   17  C19 UNL     1      -9.013  47.597 -22.255  1.00  0.00     0.007 C 
HETATM   18  C20 UNL     1      -8.400  47.695 -23.678  1.00  0.00     0.009 C 
HETATM   19  C34 UNL     1      -6.871  47.816 -23.370  1.00  0.00    -0.028 C 
HETATM   20  C35 UNL     1      -6.290  46.396 -23.062  1.00  0.00     0.016 C 
HETATM   21  C36 UNL     1      -5.998  48.470 -24.438  1.00  0.00     0.015 C 
HETATM   22  C37 UNL     1      -4.576  48.778 -23.917  1.00  0.00     0.036 C 
ENDROOT
BRANCH  18  23
HETATM   23  C21 UNL     1      -8.877  46.563 -24.631  1.00  0.00     0.094 C 
BRANCH  23  24
HETATM   24  C22 UNL     1     -10.003  45.662 -24.062  1.00  0.00     0.042 C 
BRANCH  24  25
HETATM   25  C23 UNL     1     -11.265  46.371 -23.658  1.00  0.00    -0.027 C 
HETATM   26  C24 UNL     1     -12.493  45.825 -23.742  1.00  0.00     0.006 C 
BRANCH  26  27
HETATM   27  C25 UNL     1     -13.806  46.459 -23.326  1.00  0.00     0.068 C 
HETATM   28  C26 UNL     1     -14.659  45.454 -22.552  1.00  0.00     0.050 C 
HETATM   29  C27 UNL     1     -14.564  46.972 -24.553  1.00  0.00     0.050 C 
BRANCH  27  30
HETATM   30  O3  UNL     1     -13.568  47.570 -22.458  1.00  0.00    -0.387 OA
HETATM   31  H42 UNL     1     -13.023  48.206 -22.956  1.00  0.00     0.211 HD
ENDBRANCH  27  30
ENDBRANCH  26  27
ENDBRANCH  24  25
ENDBRANCH  23  24
BRANCH  23  32
HETATM   32  C28 UNL     1      -9.405  47.108 -25.947  1.00  0.00     0.264 C 
HETATM   33  O4  UNL     1     -10.334  47.900 -26.032  1.00  0.00    -0.265 OA
BRANCH  32  34
HETATM   34  O5  UNL     1      -8.680  46.648 -27.007  1.00  0.00    -0.308 OA
BRANCH  34  35
HETATM   35  C29 UNL     1      -8.039  47.683 -27.801  1.00  0.00     0.218 C 
HETATM   36  C30 UNL     1      -8.794  47.736 -29.134  1.00  0.00     0.183 C 
HETATM   37  C31 UNL     1      -7.964  48.471 -30.183  1.00  0.00     0.173 C 
HETATM   38  C32 UNL     1      -6.620  47.770 -30.391  1.00  0.00     0.205 C 
HETATM   39  O8  UNL     1      -6.321  46.825 -29.351  1.00  0.00    -0.356 OA
HETATM   40  C33 UNL     1      -6.545  47.363 -28.044  1.00  0.00     0.288 C 
BRANCH  36  41
HETATM   41  O6  UNL     1     -10.043  48.431 -28.979  1.00  0.00    -0.390 OA
HETATM   42  H45 UNL     1     -10.751  47.795 -29.213  1.00  0.00     0.210 HD
ENDBRANCH  36  41
BRANCH  37  43
HETATM   43  O7  UNL     1      -8.687  48.535 -31.414  1.00  0.00    -0.391 OA
HETATM   44  H47 UNL     1      -9.542  48.952 -31.191  1.00  0.00     0.210 HD
ENDBRANCH  37  43
BRANCH  40  45
HETATM   45  O9  UNL     1      -5.750  48.529 -27.871  1.00  0.00    -0.369 OA
HETATM   46  H51 UNL     1      -4.878  48.208 -27.581  1.00  0.00     0.212 HD
ENDBRANCH  40  45
ENDBRANCH  34  35
ENDBRANCH  32  34
ENDBRANCH  23  32
ENDBRANCH  18  23
BRANCH   1  47
HETATM   47  O2  UNL     1       0.385  51.591 -20.390  1.00  0.00    -0.316 OA
BRANCH  47  48
HETATM   48  C2  UNL     1       0.874  52.535 -21.247  1.00  0.00     0.255 C 
HETATM   49  C1  UNL     1       0.926  53.862 -20.549  1.00  0.00     0.126 C 
HETATM   50  O1  UNL     1       1.219  52.345 -22.403  1.00  0.00    -0.266 OA
ENDBRANCH  47  48
ENDBRANCH   1  47
TORSDOF 13
ENDMDL
MODEL 6
REMARK minimizedAffinity -7.80071926
REMARK CNNscore 0.313326031
REMARK CNNaffinity 6.58903456
REMARK  13 active torsions:
REMARK  status: ('A' for Active; 'I' for Inactive)
REMARK    1  A    between atoms: C2_2  and  O2_4 
REMARK    2  A    between atoms: O2_4  and  C3_5 
REMARK    3  A    between atoms: C20_22  and  C21_23 
REMARK    4  A    between atoms: C21_23  and  C22_24 
REMARK    5  A    between atoms: C21_23  and  C28_31 
REMARK    6  A    between atoms: C22_24  and  C23_25 
REMARK    7  A    between atoms: C24_26  and  C25_27 
REMARK    8  A    between atoms: C25_27  and  O3_30 
REMARK    9  A    between atoms: C28_31  and  O5_33 
REMARK   10  A    between atoms: O5_33  and  C29_34 
REMARK   11  A    between atoms: C30_35  and  O6_36 
REMARK   12  A    between atoms: C31_37  and  O7_38 
REMARK   13  A    between atoms: C33_41  and  O9_42 
ROOT
HETATM    1  C3  UNL     1      -0.597  50.575 -21.112  1.00  0.00     0.140 C 
HETATM    2  C4  UNL     1      -1.298  51.121 -22.351  1.00  0.00     0.034 C 
HETATM    3  C5  UNL     1      -2.348  50.172 -22.940  1.00  0.00     0.016 C 
HETATM    4  C6  UNL     1      -3.037  49.201 -21.933  1.00  0.00    -0.016 C 
HETATM    5  C7  UNL     1      -2.292  47.840 -21.927  1.00  0.00     0.020 C 
HETATM    6  C8  UNL     1      -4.498  48.899 -22.373  1.00  0.00    -0.068 C 
HETATM    7  C9  UNL     1      -5.531  48.889 -21.489  1.00  0.00    -0.068 C 
HETATM    8  C10 UNL     1      -5.373  49.149 -20.006  1.00  0.00     0.036 C 
HETATM    9  C11 UNL     1      -3.928  49.159 -19.527  1.00  0.00     0.011 C 
HETATM   10  C12 UNL     1      -3.031  49.905 -20.528  1.00  0.00     0.008 C 
HETATM   11  C13 UNL     1      -1.611  50.284 -19.956  1.00  0.00    -0.016 C 
HETATM   12  C14 UNL     1      -1.005  49.188 -19.046  1.00  0.00     0.018 C 
HETATM   13  C15 UNL     1      -1.785  51.545 -19.058  1.00  0.00     0.018 C 
HETATM   14  C16 UNL     1      -6.962  48.703 -21.988  1.00  0.00    -0.013 C 
HETATM   15  C17 UNL     1      -7.454  50.145 -22.330  1.00  0.00     0.021 C 
HETATM   16  C18 UNL     1      -8.010  48.079 -21.046  1.00  0.00     0.015 C 
HETATM   17  C19 UNL     1      -9.107  47.537 -21.979  1.00  0.00     0.007 C 
HETATM   18  C20 UNL     1      -8.545  47.551 -23.427  1.00  0.00     0.009 C 
HETATM   19  C34 UNL     1      -7.005  47.676 -23.179  1.00  0.00    -0.028 C 
HETATM   20  C35 UNL     1      -6.423  46.270 -22.814  1.00  0.00     0.016 C 
HETATM   21  C36 UNL     1      -6.167  48.263 -24.313  1.00  0.00     0.015 C 
HETATM   22  C37 UNL     1      -4.726  48.587 -23.860  1.00  0.00     0.036 C 
ENDROOT
BRANCH  18  23
HETATM   23  C21 UNL     1      -9.063  46.373 -24.297  1.00  0.00     0.094 C 
BRANCH  23  24
HETATM   24  C22 UNL     1      -9.286  45.044 -23.531  1.00  0.00     0.042 C 
BRANCH  24  25
HETATM   25  C23 UNL     1     -10.490  45.001 -22.633  1.00  0.00    -0.027 C 
HETATM   26  C24 UNL     1     -11.268  43.915 -22.470  1.00  0.00     0.006 C 
BRANCH  26  27
HETATM   27  C25 UNL     1     -12.474  43.782 -21.562  1.00  0.00     0.068 C 
HETATM   28  C26 UNL     1     -13.019  42.355 -21.607  1.00  0.00     0.050 C 
HETATM   29  C27 UNL     1     -13.561  44.783 -21.966  1.00  0.00     0.050 C 
BRANCH  27  30
HETATM   30  O3  UNL     1     -12.108  44.053 -20.207  1.00  0.00    -0.387 OA
HETATM   31  H42 UNL     1     -11.760  44.962 -20.183  1.00  0.00     0.211 HD
ENDBRANCH  27  30
ENDBRANCH  26  27
ENDBRANCH  24  25
ENDBRANCH  23  24
BRANCH  23  32
HETATM   32  C28 UNL     1     -10.389  46.694 -24.966  1.00  0.00     0.264 C 
HETATM   33  O4  UNL     1     -11.359  47.145 -24.371  1.00  0.00    -0.265 OA
BRANCH  32  34
HETATM   34  O5  UNL     1     -10.339  46.472 -26.311  1.00  0.00    -0.308 OA
BRANCH  34  35
HETATM   35  C29 UNL     1      -9.100  46.883 -26.950  1.00  0.00     0.218 C 
HETATM   36  C30 UNL     1      -9.411  48.177 -27.709  1.00  0.00     0.183 C 
HETATM   37  C31 UNL     1      -8.322  48.463 -28.738  1.00  0.00     0.173 C 
HETATM   38  C32 UNL     1      -8.211  47.307 -29.735  1.00  0.00     0.205 C 
HETATM   39  O8  UNL     1      -8.889  46.122 -29.288  1.00  0.00    -0.356 OA
HETATM   40  C33 UNL     1      -8.585  45.800 -27.928  1.00  0.00     0.288 C 
BRANCH  36  41
HETATM   41  O6  UNL     1      -9.477  49.291 -26.801  1.00  0.00    -0.390 OA
HETATM   42  H45 UNL     1     -10.382  49.659 -26.871  1.00  0.00     0.210 HD
ENDBRANCH  36  41
BRANCH  37  43
HETATM   43  O7  UNL     1      -8.611  49.683 -29.423  1.00  0.00    -0.391 OA
HETATM   44  H47 UNL     1      -8.709  50.357 -28.722  1.00  0.00     0.210 HD
ENDBRANCH  37  43
BRANCH  40  45
HETATM   45  O9  UNL     1      -7.180  45.626 -27.787  1.00  0.00    -0.369 OA
HETATM   46  H51 UNL     1      -7.006  44.702 -28.037  1.00  0.00     0.212 HD
ENDBRANCH  40  45
ENDBRANCH  34  35
ENDBRANCH  32  34
ENDBRANCH  23  32
ENDBRANCH  18  23
BRANCH   1  47
HETATM   47  O2  UNL     1       0.376  51.549 -20.672  1.00  0.00    -0.316 OA
BRANCH  47  48
HETATM   48  C2  UNL     1       0.796  52.478 -21.581  1.00  0.00     0.255 C 
HETATM   49  C1  UNL     1       0.846  53.827 -20.928  1.00  0.00     0.126 C 
HETATM   50  O1  UNL     1       1.089  52.259 -22.747  1.00  0.00    -0.266 OA
ENDBRANCH  47  48
ENDBRANCH   1  47
TORSDOF 13
ENDMDL
MODEL 7
REMARK minimizedAffinity -8.16802597
REMARK CNNscore 0.287489444
REMARK CNNaffinity 6.32539511
REMARK  13 active torsions:
REMARK  status: ('A' for Active; 'I' for Inactive)
REMARK    1  A    between atoms: C2_2  and  O2_4 
REMARK    2  A    between atoms: O2_4  and  C3_5 
REMARK    3  A    between atoms: C20_22  and  C21_23 
REMARK    4  A    between atoms: C21_23  and  C22_24 
REMARK    5  A    between atoms: C21_23  and  C28_31 
REMARK    6  A    between atoms: C22_24  and  C23_25 
REMARK    7  A    between atoms: C24_26  and  C25_27 
REMARK    8  A    between atoms: C25_27  and  O3_30 
REMARK    9  A    between atoms: C28_31  and  O5_33 
REMARK   10  A    between atoms: O5_33  and  C29_34 
REMARK   11  A    between atoms: C30_35  and  O6_36 
REMARK   12  A    between atoms: C31_37  and  O7_38 
REMARK   13  A    between atoms: C33_41  and  O9_42 
ROOT
HETATM    1  C3  UNL     1      -7.910  43.267 -19.519  1.00  0.00     0.140 C 
HETATM    2  C4  UNL     1      -6.815  43.755 -18.578  1.00  0.00     0.034 C 
HETATM    3  C5  UNL     1      -5.747  44.618 -19.259  1.00  0.00     0.016 C 
HETATM    4  C6  UNL     1      -6.214  45.424 -20.510  1.00  0.00    -0.016 C 
HETATM    5  C7  UNL     1      -5.908  44.615 -21.798  1.00  0.00     0.020 C 
HETATM    6  C8  UNL     1      -5.420  46.757 -20.632  1.00  0.00    -0.068 C 
HETATM    7  C9  UNL     1      -6.028  47.934 -20.934  1.00  0.00    -0.068 C 
HETATM    8  C10 UNL     1      -7.513  48.073 -21.197  1.00  0.00     0.036 C 
HETATM    9  C11 UNL     1      -8.241  46.746 -21.364  1.00  0.00     0.011 C 
HETATM   10  C12 UNL     1      -7.745  45.723 -20.328  1.00  0.00     0.008 C 
HETATM   11  C13 UNL     1      -8.678  44.460 -20.179  1.00  0.00    -0.016 C 
HETATM   12  C14 UNL     1      -9.267  43.971 -21.525  1.00  0.00     0.018 C 
HETATM   13  C15 UNL     1      -9.895  44.874 -19.299  1.00  0.00     0.018 C 
HETATM   14  C16 UNL     1      -5.226  49.233 -20.927  1.00  0.00    -0.013 C 
HETATM   15  C17 UNL     1      -5.300  49.737 -19.450  1.00  0.00     0.021 C 
HETATM   16  C18 UNL     1      -5.678  50.400 -21.826  1.00  0.00     0.015 C 
HETATM   17  C19 UNL     1      -4.421  51.270 -22.008  1.00  0.00     0.007 C 
HETATM   18  C20 UNL     1      -3.203  50.449 -21.505  1.00  0.00     0.009 C 
HETATM   19  C34 UNL     1      -3.774  48.992 -21.485  1.00  0.00    -0.028 C 
HETATM   20  C35 UNL     1      -3.752  48.406 -22.935  1.00  0.00     0.016 C 
HETATM   21  C36 UNL     1      -3.092  47.993 -20.553  1.00  0.00     0.015 C 
HETATM   22  C37 UNL     1      -3.901  46.683 -20.415  1.00  0.00     0.036 C 
ENDROOT
BRANCH  18  23
HETATM   23  C21 UNL     1      -1.903  50.724 -22.311  1.00  0.00     0.094 C 
BRANCH  23  24
HETATM   24  C22 UNL     1      -1.871  52.083 -23.055  1.00  0.00     0.042 C 
BRANCH  24  25
HETATM   25  C23 UNL     1      -1.322  52.051 -24.453  1.00  0.00    -0.027 C 
HETATM   26  C24 UNL     1      -0.040  52.317 -24.764  1.00  0.00     0.006 C 
BRANCH  26  27
HETATM   27  C25 UNL     1       0.596  52.274 -26.139  1.00  0.00     0.068 C 
HETATM   28  C26 UNL     1       0.076  53.423 -27.001  1.00  0.00     0.050 C 
HETATM   29  C27 UNL     1       0.317  50.929 -26.815  1.00  0.00     0.050 C 
BRANCH  27  30
HETATM   30  O3  UNL     1       2.014  52.429 -26.035  1.00  0.00    -0.387 OA
HETATM   31  H42 UNL     1       2.340  51.695 -25.484  1.00  0.00     0.211 HD
ENDBRANCH  27  30
ENDBRANCH  26  27
ENDBRANCH  24  25
ENDBRANCH  23  24
BRANCH  23  32
HETATM   32  C28 UNL     1      -0.667  50.703 -21.428  1.00  0.00     0.264 C 
HETATM   33  O4  UNL     1      -0.081  49.680 -21.101  1.00  0.00    -0.265 OA
BRANCH  32  34
HETATM   34  O5  UNL     1      -0.265  51.964 -21.097  1.00  0.00    -0.308 OA
BRANCH  34  35
HETATM   35  C29 UNL     1      -0.463  52.320 -19.702  1.00  0.00     0.218 C 
HETATM   36  C30 UNL     1       0.911  52.724 -19.158  1.00  0.00     0.183 C 
HETATM   37  C31 UNL     1       0.903  52.708 -17.633  1.00  0.00     0.173 C 
HETATM   38  C32 UNL     1       0.544  51.314 -17.113  1.00  0.00     0.205 C 
HETATM   39  O8  UNL     1      -0.014  50.469 -18.133  1.00  0.00    -0.356 OA
HETATM   40  C33 UNL     1      -1.030  51.129 -18.892  1.00  0.00     0.288 C 
BRANCH  36  41
HETATM   41  O6  UNL     1       1.256  54.050 -19.594  1.00  0.00    -0.390 OA
HETATM   42  H45 UNL     1       2.078  53.970 -20.120  1.00  0.00     0.210 HD
ENDBRANCH  36  41
BRANCH  37  43
HETATM   43  O7  UNL     1       2.182  53.109 -17.138  1.00  0.00    -0.391 OA
HETATM   44  H47 UNL     1       2.356  53.980 -17.545  1.00  0.00     0.210 HD
ENDBRANCH  37  43
BRANCH  40  45
HETATM   45  O9  UNL     1      -2.064  51.566 -18.018  1.00  0.00    -0.369 OA
HETATM   46  H51 UNL     1      -2.653  50.799 -17.910  1.00  0.00     0.212 HD
ENDBRANCH  40  45
ENDBRANCH  34  35
ENDBRANCH  32  34
ENDBRANCH  23  32
ENDBRANCH  18  23
BRANCH   1  47
HETATM   47  O2  UNL     1      -8.833  42.452 -18.762  1.00  0.00    -0.316 OA
BRANCH  47  48
HETATM   48  C2  UNL     1      -8.699  41.096 -18.852  1.00  0.00     0.255 C 
HETATM   49  C1  UNL     1      -9.952  40.509 -19.431  1.00  0.00     0.126 C 
HETATM   50  O1  UNL     1      -7.719  40.449 -18.515  1.00  0.00    -0.266 OA
ENDBRANCH  47  48
ENDBRANCH   1  47
TORSDOF 13
ENDMDL
MODEL 8
REMARK minimizedAffinity -8.03584766
REMARK CNNscore 0.28718099
REMARK CNNaffinity 6.39771032
REMARK  13 active torsions:
REMARK  status: ('A' for Active; 'I' for Inactive)
REMARK    1  A    between atoms: C2_2  and  O2_4 
REMARK    2  A    between atoms: O2_4  and  C3_5 
REMARK    3  A    between atoms: C20_22  and  C21_23 
REMARK    4  A    between atoms: C21_23  and  C22_24 
REMARK    5  A    between atoms: C21_23  and  C28_31 
REMARK    6  A    between atoms: C22_24  and  C23_25 
REMARK    7  A    between atoms: C24_26  and  C25_27 
REMARK    8  A    between atoms: C25_27  and  O3_30 
REMARK    9  A    between atoms: C28_31  and  O5_33 
REMARK   10  A    between atoms: O5_33  and  C29_34 
REMARK   11  A    between atoms: C30_35  and  O6_36 
REMARK   12  A    between atoms: C31_37  and  O7_38 
REMARK   13  A    between atoms: C33_41  and  O9_42 
ROOT
HETATM    1  C3  UNL     1      -0.297  50.692 -20.968  1.00  0.00     0.140 C 
HETATM    2  C4  UNL     1      -0.965  50.961 -22.312  1.00  0.00     0.034 C 
HETATM    3  C5  UNL     1      -2.027  49.925 -22.697  1.00  0.00     0.016 C 
HETATM    4  C6  UNL     1      -2.755  49.217 -21.513  1.00  0.00    -0.016 C 
HETATM    5  C7  UNL     1      -2.044  47.878 -21.188  1.00  0.00     0.020 C 
HETATM    6  C8  UNL     1      -4.216  48.853 -21.905  1.00  0.00    -0.068 C 
HETATM    7  C9  UNL     1      -5.263  49.062 -21.063  1.00  0.00    -0.068 C 
HETATM    8  C10 UNL     1      -5.123  49.644 -19.672  1.00  0.00     0.036 C 
HETATM    9  C11 UNL     1      -3.686  49.732 -19.177  1.00  0.00     0.011 C 
HETATM   10  C12 UNL     1      -2.755  50.217 -20.301  1.00  0.00     0.008 C 
HETATM   11  C13 UNL     1      -1.336  50.687 -19.798  1.00  0.00    -0.016 C 
HETATM   12  C14 UNL     1      -0.771  49.810 -18.654  1.00  0.00     0.018 C 
HETATM   13  C15 UNL     1      -1.494  52.119 -19.208  1.00  0.00     0.018 C 
HETATM   14  C16 UNL     1      -6.690  48.797 -21.537  1.00  0.00    -0.013 C 
HETATM   15  C17 UNL     1      -7.141  50.137 -22.203  1.00  0.00     0.021 C 
HETATM   16  C18 UNL     1      -7.767  48.420 -20.502  1.00  0.00     0.015 C 
HETATM   17  C19 UNL     1      -8.862  47.705 -21.314  1.00  0.00     0.007 C 
HETATM   18  C20 UNL     1      -8.277  47.385 -22.716  1.00  0.00     0.009 C 
HETATM   19  C34 UNL     1      -6.739  47.531 -22.471  1.00  0.00    -0.028 C 
HETATM   20  C35 UNL     1      -6.196  46.232 -21.789  1.00  0.00     0.016 C 
HETATM   21  C36 UNL     1      -5.868  47.834 -23.688  1.00  0.00     0.015 C 
HETATM   22  C37 UNL     1      -4.427  48.222 -23.289  1.00  0.00     0.036 C 
ENDROOT
BRANCH  18  23
HETATM   23  C21 UNL     1      -8.809  46.052 -23.313  1.00  0.00     0.094 C 
BRANCH  23  24
HETATM   24  C22 UNL     1     -10.287  46.089 -23.778  1.00  0.00     0.042 C 
BRANCH  24  25
HETATM   25  C23 UNL     1     -10.605  47.075 -24.867  1.00  0.00    -0.027 C 
HETATM   26  C24 UNL     1     -11.379  46.795 -25.932  1.00  0.00     0.006 C 
BRANCH  26  27
HETATM   27  C25 UNL     1     -11.772  47.740 -27.050  1.00  0.00     0.068 C 
HETATM   28  C26 UNL     1     -13.216  47.483 -27.480  1.00  0.00     0.050 C 
HETATM   29  C27 UNL     1     -10.823  47.584 -28.241  1.00  0.00     0.050 C 
BRANCH  27  30
HETATM   30  O3  UNL     1     -11.699  49.097 -26.603  1.00  0.00    -0.387 OA
HETATM   31  H42 UNL     1     -10.777  49.255 -26.329  1.00  0.00     0.211 HD
ENDBRANCH  27  30
ENDBRANCH  26  27
ENDBRANCH  24  25
ENDBRANCH  23  24
BRANCH  23  32
HETATM   32  C28 UNL     1      -8.003  45.604 -24.520  1.00  0.00     0.264 C 
HETATM   33  O4  UNL     1      -7.937  46.236 -25.566  1.00  0.00    -0.265 OA
BRANCH  32  34
HETATM   34  O5  UNL     1      -7.324  44.448 -24.270  1.00  0.00    -0.308 OA
BRANCH  34  35
HETATM   35  C29 UNL     1      -8.137  43.369 -23.731  1.00  0.00     0.218 C 
HETATM   36  C30 UNL     1      -7.165  42.374 -23.089  1.00  0.00     0.183 C 
HETATM   37  C31 UNL     1      -7.851  41.029 -22.872  1.00  0.00     0.173 C 
HETATM   38  C32 UNL     1      -8.349  40.461 -24.203  1.00  0.00     0.205 C 
HETATM   39  O8  UNL     1      -8.362  41.440 -25.254  1.00  0.00    -0.356 OA
HETATM   40  C33 UNL     1      -8.958  42.674 -24.843  1.00  0.00     0.288 C 
BRANCH  36  41
HETATM   41  O6  UNL     1      -6.714  42.861 -21.813  1.00  0.00    -0.390 OA
HETATM   42  H45 UNL     1      -5.740  42.956 -21.875  1.00  0.00     0.210 HD
ENDBRANCH  36  41
BRANCH  37  43
HETATM   43  O7  UNL     1      -6.943  40.117 -22.251  1.00  0.00    -0.391 OA
HETATM   44  H47 UNL     1      -6.640  40.566 -21.438  1.00  0.00     0.210 HD
ENDBRANCH  37  43
BRANCH  40  45
HETATM   45  O9  UNL     1     -10.289  42.431 -24.403  1.00  0.00    -0.369 OA
HETATM   46  H51 UNL     1     -10.835  42.445 -25.209  1.00  0.00     0.212 HD
ENDBRANCH  40  45
ENDBRANCH  34  35
ENDBRANCH  32  34
ENDBRANCH  23  32
ENDBRANCH  18  23
BRANCH   1  47
HETATM   47  O2  UNL     1       0.693  51.720 -20.736  1.00  0.00    -0.316 OA
BRANCH  47  48
HETATM   48  C2  UNL     1       0.948  52.593 -21.755  1.00  0.00     0.255 C 
HETATM   49  C1  UNL     1       1.100  53.977 -21.198  1.00  0.00     0.126 C 
HETATM   50  O1  UNL     1       1.040  52.306 -22.939  1.00  0.00    -0.266 OA
ENDBRANCH  47  48
ENDBRANCH   1  47
TORSDOF 13
ENDMDL
MODEL 9
REMARK minimizedAffinity -7.84447908
REMARK CNNscore 0.280237943
REMARK CNNaffinity 6.84153223
REMARK  13 active torsions:
REMARK  status: ('A' for Active; 'I' for Inactive)
REMARK    1  A    between atoms: C2_2  and  O2_4 
REMARK    2  A    between atoms: O2_4  and  C3_5 
REMARK    3  A    between atoms: C20_22  and  C21_23 
REMARK    4  A    between atoms: C21_23  and  C22_24 
REMARK    5  A    between atoms: C21_23  and  C28_31 
REMARK    6  A    between atoms: C22_24  and  C23_25 
REMARK    7  A    between atoms: C24_26  and  C25_27 
REMARK    8  A    between atoms: C25_27  and  O3_30 
REMARK    9  A    between atoms: C28_31  and  O5_33 
REMARK   10  A    between atoms: O5_33  and  C29_34 
REMARK   11  A    between atoms: C30_35  and  O6_36 
REMARK   12  A    between atoms: C31_37  and  O7_38 
REMARK   13  A    between atoms: C33_41  and  O9_42 
ROOT
HETATM    1  C3  UNL     1       5.703  57.626  -4.387  1.00  0.00     0.140 C 
HETATM    2  C4  UNL     1       6.502  57.445  -5.673  1.00  0.00     0.034 C 
HETATM    3  C5  UNL     1       6.055  56.249  -6.520  1.00  0.00     0.016 C 
HETATM    4  C6  UNL     1       4.557  55.836  -6.386  1.00  0.00    -0.016 C 
HETATM    5  C7  UNL     1       4.418  54.713  -5.325  1.00  0.00     0.020 C 
HETATM    6  C8  UNL     1       4.029  55.242  -7.724  1.00  0.00    -0.068 C 
HETATM    7  C9  UNL     1       2.814  55.579  -8.233  1.00  0.00    -0.068 C 
HETATM    8  C10 UNL     1       1.854  56.537  -7.560  1.00  0.00     0.036 C 
HETATM    9  C11 UNL     1       2.233  56.893  -6.129  1.00  0.00     0.011 C 
HETATM   10  C12 UNL     1       3.748  57.130  -6.013  1.00  0.00     0.008 C 
HETATM   11  C13 UNL     1       4.182  57.851  -4.680  1.00  0.00    -0.016 C 
HETATM   12  C14 UNL     1       3.378  57.386  -3.441  1.00  0.00     0.018 C 
HETATM   13  C15 UNL     1       3.881  59.370  -4.845  1.00  0.00     0.018 C 
HETATM   14  C16 UNL     1       2.391  55.060  -9.606  1.00  0.00    -0.013 C 
HETATM   15  C17 UNL     1       2.949  56.112 -10.616  1.00  0.00     0.021 C 
HETATM   16  C18 UNL     1       0.891  54.889  -9.913  1.00  0.00     0.015 C 
HETATM   17  C19 UNL     1       0.838  53.877 -11.071  1.00  0.00     0.007 C 
HETATM   18  C20 UNL     1       2.245  53.233 -11.201  1.00  0.00     0.009 C 
HETATM   19  C34 UNL     1       2.894  53.585  -9.821  1.00  0.00    -0.028 C 
HETATM   20  C35 UNL     1       2.379  52.584  -8.735  1.00  0.00     0.016 C 
HETATM   21  C36 UNL     1       4.420  53.615  -9.761  1.00  0.00     0.015 C 
HETATM   22  C37 UNL     1       4.937  54.232  -8.442  1.00  0.00     0.036 C 
ENDROOT
BRANCH  18  23
HETATM   23  C21 UNL     1       2.200  51.743 -11.640  1.00  0.00     0.094 C 
BRANCH  23  24
HETATM   24  C22 UNL     1       0.836  51.040 -11.426  1.00  0.00     0.042 C 
BRANCH  24  25
HETATM   25  C23 UNL     1      -0.372  51.797 -11.903  1.00  0.00    -0.027 C 
HETATM   26  C24 UNL     1      -1.624  51.568 -11.465  1.00  0.00     0.006 C 
BRANCH  26  27
HETATM   27  C25 UNL     1      -2.884  52.307 -11.871  1.00  0.00     0.068 C 
HETATM   28  C26 UNL     1      -4.099  51.721 -11.152  1.00  0.00     0.050 C 
HETATM   29  C27 UNL     1      -3.077  52.242 -13.389  1.00  0.00     0.050 C 
BRANCH  27  30
HETATM   30  O3  UNL     1      -2.794  53.684 -11.497  1.00  0.00    -0.387 OA
HETATM   31  H42 UNL     1      -2.018  54.053 -11.957  1.00  0.00     0.211 HD
ENDBRANCH  27  30
ENDBRANCH  26  27
ENDBRANCH  24  25
ENDBRANCH  23  24
BRANCH  23  32
HETATM   32  C28 UNL     1       2.531  51.571 -13.113  1.00  0.00     0.264 C 
HETATM   33  O4  UNL     1       3.562  51.055 -13.523  1.00  0.00    -0.265 OA
BRANCH  32  34
HETATM   34  O5  UNL     1       1.514  52.009 -13.910  1.00  0.00    -0.308 OA
BRANCH  34  35
HETATM   35  C29 UNL     1       1.475  51.407 -15.233  1.00  0.00     0.218 C 
HETATM   36  C30 UNL     1       1.367  52.564 -16.232  1.00  0.00     0.183 C 
HETATM   37  C31 UNL     1       0.902  52.049 -17.590  1.00  0.00     0.173 C 
HETATM   38  C32 UNL     1      -0.460  51.362 -17.465  1.00  0.00     0.205 C 
HETATM   39  O8  UNL     1      -0.809  51.069 -16.103  1.00  0.00    -0.356 OA
HETATM   40  C33 UNL     1       0.264  50.456 -15.383  1.00  0.00     0.288 C 
BRANCH  36  41
HETATM   41  O6  UNL     1       2.645  53.202 -16.405  1.00  0.00    -0.390 OA
HETATM   42  H45 UNL     1       2.535  54.135 -16.126  1.00  0.00     0.210 HD
ENDBRANCH  36  41
BRANCH  37  43
HETATM   43  O7  UNL     1       0.828  53.132 -18.519  1.00  0.00    -0.391 OA
HETATM   44  H47 UNL     1       1.715  53.542 -18.510  1.00  0.00     0.210 HD
ENDBRANCH  37  43
BRANCH  40  45
HETATM   45  O9  UNL     1       0.650  49.257 -16.043  1.00  0.00    -0.369 OA
HETATM   46  H51 UNL     1       0.045  48.570 -15.711  1.00  0.00     0.212 HD
ENDBRANCH  40  45
ENDBRANCH  34  35
ENDBRANCH  32  34
ENDBRANCH  23  32
ENDBRANCH  18  23
BRANCH   1  47
HETATM   47  O2  UNL     1       6.236  58.766  -3.675  1.00  0.00    -0.316 OA
BRANCH  47  48
HETATM   48  C2  UNL     1       7.592  58.921  -3.656  1.00  0.00     0.255 C 
HETATM   49  C1  UNL     1       7.946  60.279  -4.187  1.00  0.00     0.126 C 
HETATM   50  O1  UNL     1       8.404  58.093  -3.270  1.00  0.00    -0.266 OA
ENDBRANCH  47  48
ENDBRANCH   1  47
TORSDOF 13
ENDMDL
