MODEL 1
REMARK minimizedAffinity -9.31679535
REMARK  9 active torsions:
REMARK  status: ('A' for Active; 'I' for Inactive)
REMARK    1  A    between atoms: C11_11  and  C13_13 
REMARK    2  A    between atoms: C13_13  and  O2_15 
REMARK    3  A    between atoms: C15_17  and  C16_18 
REMARK    4  A    between atoms: C16_18  and  C17_19 
REMARK    5  A    between atoms: C17_19  and  C18_20 
REMARK    6  A    between atoms: C19_21  and  C20_22 
REMARK    7  A    between atoms: C20_22  and  O3_23 
REMARK    8  A    between atoms: O3_23  and  C21_24 
REMARK    9  A    between atoms: C21_24  and  C22_26 
ROOT
HETATM    1  C16 UNL     1      -2.648  49.787 -22.873  1.00  0.00     0.014 C 
ENDROOT
BRANCH   1   2
HETATM    2  C15 UNL     1      -2.284  50.063 -24.357  1.00  0.00     0.022 C 
HETATM    3  C2  UNL     1      -3.029  49.208 -25.381  1.00  0.00    -0.084 C 
HETATM    4  C1  UNL     1      -4.106  48.436 -25.154  1.00  0.00     0.014 C 
HETATM    5  C3  UNL     1      -2.470  49.344 -26.772  1.00  0.00     0.034 C 
HETATM    6  C4  UNL     1      -2.612  50.787 -27.232  1.00  0.00     0.011 C 
HETATM    7  C5  UNL     1      -1.957  51.823 -26.283  1.00  0.00     0.012 C 
HETATM    8  C6  UNL     1      -2.386  51.589 -24.772  1.00  0.00    -0.032 C 
HETATM    9  C11 UNL     1      -0.405  52.097 -26.508  1.00  0.00     0.049 C 
HETATM   10  C7  UNL     1      -3.849  52.084 -24.588  1.00  0.00     0.016 C 
HETATM   11  C8  UNL     1      -1.500  52.501 -23.891  1.00  0.00     0.010 C 
HETATM   12  C9  UNL     1      -0.026  52.126 -23.929  1.00  0.00     0.002 C 
HETATM   13  C10 UNL     1       0.463  51.666 -25.302  1.00  0.00     0.020 C 
HETATM   14  C12 UNL     1       0.205  51.400 -27.749  1.00  0.00     0.026 C 
BRANCH   9  15
HETATM   15  C13 UNL     1      -0.252  53.604 -26.834  1.00  0.00     0.267 C 
HETATM   16  O1  UNL     1      -0.889  54.173 -27.716  1.00  0.00    -0.264 OA
BRANCH  15  17
HETATM   17  O2  UNL     1       0.646  54.230 -26.026  1.00  0.00    -0.326 OA
HETATM   18  C14 UNL     1       0.281  55.557 -25.646  1.00  0.00     0.213 C 
ENDBRANCH  15  17
ENDBRANCH   9  15
ENDBRANCH   1   2
BRANCH   1  19
HETATM   19  C17 UNL     1      -1.580  48.945 -22.154  1.00  0.00     0.042 C 
BRANCH  19  20
HETATM   20  C18 UNL     1      -2.178  48.000 -21.161  1.00  0.00    -0.024 A 
HETATM   21  C19 UNL     1      -2.000  47.984 -19.785  1.00  0.00     0.083 A 
HETATM   22  O5  UNL     1      -2.721  46.965 -19.232  1.00  0.00    -0.324 OA
HETATM   23  C28 UNL     1      -3.365  46.333 -20.243  1.00  0.00     0.143 A 
HETATM   24  C29 UNL     1      -3.068  46.924 -21.445  1.00  0.00     0.034 A 
BRANCH  21  25
HETATM   25  C20 UNL     1      -1.201  48.802 -18.834  1.00  0.00     0.244 C 
BRANCH  25  26
HETATM   26  O3  UNL     1      -1.484  50.179 -19.119  1.00  0.00    -0.311 OA
BRANCH  26  27
HETATM   27  C21 UNL     1      -1.628  50.999 -18.053  1.00  0.00     0.293 C 
HETATM   28  O4  UNL     1      -2.678  51.316 -17.516  1.00  0.00    -0.259 OA
BRANCH  27  29
HETATM   29  C22 UNL     1      -0.294  51.467 -17.582  1.00  0.00     0.039 A 
HETATM   30  C23 UNL     1       0.196  50.964 -16.367  1.00  0.00     0.019 A 
HETATM   31  C24 UNL     1       1.450  51.362 -15.893  1.00  0.00     0.025 A 
HETATM   32  C25 UNL     1       2.217  52.266 -16.628  1.00  0.00     0.034 A 
HETATM   33 CL1  UNL     1       3.755  52.761 -16.041  1.00  0.00    -0.084 Cl
HETATM   34  C26 UNL     1       1.740  52.777 -17.834  1.00  0.00     0.025 A 
HETATM   35  C27 UNL     1       0.488  52.378 -18.312  1.00  0.00     0.019 A 
ENDBRANCH  27  29
ENDBRANCH  26  27
ENDBRANCH  25  26
ENDBRANCH  21  25
ENDBRANCH  19  20
ENDBRANCH   1  19
TORSDOF 9
ENDMDL
MODEL 2
REMARK minimizedAffinity -9.28981972
REMARK  9 active torsions:
REMARK  status: ('A' for Active; 'I' for Inactive)
REMARK    1  A    between atoms: C11_11  and  C13_13 
REMARK    2  A    between atoms: C13_13  and  O2_15 
REMARK    3  A    between atoms: C15_17  and  C16_18 
REMARK    4  A    between atoms: C16_18  and  C17_19 
REMARK    5  A    between atoms: C17_19  and  C18_20 
REMARK    6  A    between atoms: C19_21  and  C20_22 
REMARK    7  A    between atoms: C20_22  and  O3_23 
REMARK    8  A    between atoms: O3_23  and  C21_24 
REMARK    9  A    between atoms: C21_24  and  C22_26 
ROOT
HETATM    1  C16 UNL     1      -2.661  50.126 -22.989  1.00  0.00     0.014 C 
ENDROOT
BRANCH   1   2
HETATM    2  C15 UNL     1      -2.388  50.272 -24.511  1.00  0.00     0.022 C 
HETATM    3  C2  UNL     1      -3.111  49.264 -25.402  1.00  0.00    -0.084 C 
HETATM    4  C1  UNL     1      -4.112  48.443 -25.041  1.00  0.00     0.014 C 
HETATM    5  C3  UNL     1      -2.629  49.294 -26.828  1.00  0.00     0.034 C 
HETATM    6  C4  UNL     1      -2.903  50.668 -27.422  1.00  0.00     0.011 C 
HETATM    7  C5  UNL     1      -2.288  51.841 -26.618  1.00  0.00     0.012 C 
HETATM    8  C6  UNL     1      -2.627  51.736 -25.070  1.00  0.00    -0.032 C 
HETATM    9  C11 UNL     1      -0.774  52.203 -26.952  1.00  0.00     0.049 C 
HETATM   10  C7  UNL     1      -4.114  52.139 -24.859  1.00  0.00     0.016 C 
HETATM   11  C8  UNL     1      -1.776  52.796 -24.334  1.00  0.00     0.010 C 
HETATM   12  C9  UNL     1      -0.280  52.527 -24.413  1.00  0.00     0.002 C 
HETATM   13  C10 UNL     1       0.180  51.964 -25.757  1.00  0.00     0.020 C 
HETATM   14  C12 UNL     1      -0.169  51.427 -28.148  1.00  0.00     0.026 C 
BRANCH   9  15
HETATM   15  C13 UNL     1      -0.753  53.675 -27.435  1.00  0.00     0.267 C 
HETATM   16  O1  UNL     1      -1.630  54.167 -28.141  1.00  0.00    -0.264 OA
BRANCH  15  17
HETATM   17  O2  UNL     1       0.325  54.366 -26.977  1.00  0.00    -0.326 OA
HETATM   18  C14 UNL     1       0.072  55.740 -26.684  1.00  0.00     0.213 C 
ENDBRANCH  15  17
ENDBRANCH   9  15
ENDBRANCH   1   2
BRANCH   1  19
HETATM   19  C17 UNL     1      -3.748  51.094 -22.491  1.00  0.00     0.042 C 
BRANCH  19  20
HETATM   20  C18 UNL     1      -4.718  50.429 -21.569  1.00  0.00    -0.024 A 
HETATM   21  C19 UNL     1      -4.593  50.226 -20.202  1.00  0.00     0.083 A 
HETATM   22  O5  UNL     1      -5.698  49.584 -19.720  1.00  0.00    -0.324 OA
HETATM   23  C28 UNL     1      -6.534  49.381 -20.768  1.00  0.00     0.143 A 
HETATM   24  C29 UNL     1      -5.983  49.878 -21.924  1.00  0.00     0.034 A 
BRANCH  21  25
HETATM   25  C20 UNL     1      -3.535  50.533 -19.201  1.00  0.00     0.244 C 
BRANCH  25  26
HETATM   26  O3  UNL     1      -2.434  49.654 -19.468  1.00  0.00    -0.311 OA
BRANCH  26  27
HETATM   27  C21 UNL     1      -1.271  49.936 -18.837  1.00  0.00     0.293 C 
HETATM   28  O4  UNL     1      -0.836  49.390 -17.835  1.00  0.00    -0.259 OA
BRANCH  27  29
HETATM   29  C22 UNL     1      -0.547  51.021 -19.558  1.00  0.00     0.039 A 
HETATM   30  C23 UNL     1      -0.441  52.275 -18.936  1.00  0.00     0.019 A 
HETATM   31  C24 UNL     1       0.242  53.320 -19.566  1.00  0.00     0.025 A 
HETATM   32  C25 UNL     1       0.819  53.117 -20.821  1.00  0.00     0.034 A 
HETATM   33 CL1  UNL     1       1.652  54.403 -21.599  1.00  0.00    -0.084 Cl
HETATM   34  C26 UNL     1       0.716  51.878 -21.451  1.00  0.00     0.025 A 
HETATM   35  C27 UNL     1       0.037  50.831 -20.821  1.00  0.00     0.019 A 
ENDBRANCH  27  29
ENDBRANCH  26  27
ENDBRANCH  25  26
ENDBRANCH  21  25
ENDBRANCH  19  20
ENDBRANCH   1  19
TORSDOF 9
ENDMDL
MODEL 3
REMARK minimizedAffinity -9.26832008
REMARK  9 active torsions:
REMARK  status: ('A' for Active; 'I' for Inactive)
REMARK    1  A    between atoms: C11_11  and  C13_13 
REMARK    2  A    between atoms: C13_13  and  O2_15 
REMARK    3  A    between atoms: C15_17  and  C16_18 
REMARK    4  A    between atoms: C16_18  and  C17_19 
REMARK    5  A    between atoms: C17_19  and  C18_20 
REMARK    6  A    between atoms: C19_21  and  C20_22 
REMARK    7  A    between atoms: C20_22  and  O3_23 
REMARK    8  A    between atoms: O3_23  and  C21_24 
REMARK    9  A    between atoms: C21_24  and  C22_26 
ROOT
HETATM    1  C16 UNL     1      -2.781  49.652 -23.188  1.00  0.00     0.014 C 
ENDROOT
BRANCH   1   2
HETATM    2  C15 UNL     1      -2.431  49.975 -24.667  1.00  0.00     0.022 C 
HETATM    3  C2  UNL     1      -3.196  49.161 -25.709  1.00  0.00    -0.084 C 
HETATM    4  C1  UNL     1      -4.277  48.392 -25.495  1.00  0.00     0.014 C 
HETATM    5  C3  UNL     1      -2.651  49.337 -27.102  1.00  0.00     0.034 C 
HETATM    6  C4  UNL     1      -2.784  50.797 -27.512  1.00  0.00     0.011 C 
HETATM    7  C5  UNL     1      -2.108  51.794 -26.537  1.00  0.00     0.012 C 
HETATM    8  C6  UNL     1      -2.522  51.514 -25.029  1.00  0.00    -0.032 C 
HETATM    9  C11 UNL     1      -0.556  52.061 -26.770  1.00  0.00     0.049 C 
HETATM   10  C7  UNL     1      -3.978  52.017 -24.813  1.00  0.00     0.016 C 
HETATM   11  C8  UNL     1      -1.618  52.388 -24.129  1.00  0.00     0.010 C 
HETATM   12  C9  UNL     1      -0.148  52.000 -24.196  1.00  0.00     0.002 C 
HETATM   13  C10 UNL     1       0.322  51.582 -25.589  1.00  0.00     0.020 C 
HETATM   14  C12 UNL     1       0.033  51.400 -28.041  1.00  0.00     0.026 C 
BRANCH   9  15
HETATM   15  C13 UNL     1      -0.391  53.576 -27.048  1.00  0.00     0.267 C 
HETATM   16  O1  UNL     1      -1.097  54.199 -27.836  1.00  0.00    -0.264 OA
BRANCH  15  17
HETATM   17  O2  UNL     1       0.601  54.143 -26.311  1.00  0.00    -0.326 OA
HETATM   18  C14 UNL     1       0.256  55.387 -25.701  1.00  0.00     0.213 C 
ENDBRANCH  15  17
ENDBRANCH   9  15
ENDBRANCH   1   2
BRANCH   1  19
HETATM   19  C17 UNL     1      -2.551  48.172 -22.839  1.00  0.00     0.042 C 
BRANCH  19  20
HETATM   20  C18 UNL     1      -3.549  47.661 -21.851  1.00  0.00    -0.024 A 
HETATM   21  C19 UNL     1      -3.362  47.422 -20.497  1.00  0.00     0.083 A 
HETATM   22  O5  UNL     1      -4.520  46.961 -19.939  1.00  0.00    -0.324 OA
HETATM   23  C28 UNL     1      -5.450  46.912 -20.924  1.00  0.00     0.143 A 
HETATM   24  C29 UNL     1      -4.909  47.328 -22.115  1.00  0.00     0.034 A 
BRANCH  21  25
HETATM   25  C20 UNL     1      -2.201  47.538 -19.574  1.00  0.00     0.244 C 
BRANCH  25  26
HETATM   26  O3  UNL     1      -2.270  48.837 -18.969  1.00  0.00    -0.311 OA
BRANCH  26  27
HETATM   27  C21 UNL     1      -1.153  49.269 -18.340  1.00  0.00     0.293 C 
HETATM   28  O4  UNL     1      -0.658  48.795 -17.330  1.00  0.00    -0.259 OA
BRANCH  27  29
HETATM   29  C22 UNL     1      -0.567  50.427 -19.074  1.00  0.00     0.039 A 
HETATM   30  C23 UNL     1      -0.288  51.598 -18.353  1.00  0.00     0.019 A 
HETATM   31  C24 UNL     1       0.277  52.704 -18.995  1.00  0.00     0.025 A 
HETATM   32  C25 UNL     1       0.561  52.646 -20.360  1.00  0.00     0.034 A 
HETATM   33 CL1  UNL     1       1.248  54.009 -21.152  1.00  0.00    -0.084 Cl
HETATM   34  C26 UNL     1       0.284  51.490 -21.089  1.00  0.00     0.025 A 
HETATM   35  C27 UNL     1      -0.277  50.382 -20.448  1.00  0.00     0.019 A 
ENDBRANCH  27  29
ENDBRANCH  26  27
ENDBRANCH  25  26
ENDBRANCH  21  25
ENDBRANCH  19  20
ENDBRANCH   1  19
TORSDOF 9
ENDMDL
MODEL 4
REMARK minimizedAffinity -9.18566608
REMARK  9 active torsions:
REMARK  status: ('A' for Active; 'I' for Inactive)
REMARK    1  A    between atoms: C11_11  and  C13_13 
REMARK    2  A    between atoms: C13_13  and  O2_15 
REMARK    3  A    between atoms: C15_17  and  C16_18 
REMARK    4  A    between atoms: C16_18  and  C17_19 
REMARK    5  A    between atoms: C17_19  and  C18_20 
REMARK    6  A    between atoms: C19_21  and  C20_22 
REMARK    7  A    between atoms: C20_22  and  O3_23 
REMARK    8  A    between atoms: O3_23  and  C21_24 
REMARK    9  A    between atoms: C21_24  and  C22_26 
ROOT
HETATM    1  C16 UNL     1      -1.727  50.286 -23.837  1.00  0.00     0.014 C 
ENDROOT
BRANCH   1   2
HETATM    2  C15 UNL     1      -3.172  49.754 -23.630  1.00  0.00     0.022 C 
HETATM    3  C2  UNL     1      -3.739  48.941 -24.793  1.00  0.00    -0.084 C 
HETATM    4  C1  UNL     1      -3.056  48.450 -25.841  1.00  0.00     0.014 C 
HETATM    5  C3  UNL     1      -5.210  48.659 -24.644  1.00  0.00     0.034 C 
HETATM    6  C4  UNL     1      -5.439  47.831 -23.388  1.00  0.00     0.011 C 
HETATM    7  C5  UNL     1      -4.878  48.474 -22.094  1.00  0.00     0.012 C 
HETATM    8  C6  UNL     1      -3.375  48.953 -22.278  1.00  0.00    -0.032 C 
HETATM    9  C11 UNL     1      -5.831  49.515 -21.358  1.00  0.00     0.049 C 
HETATM   10  C7  UNL     1      -2.451  47.702 -22.268  1.00  0.00     0.016 C 
HETATM   11  C8  UNL     1      -2.997  49.789 -21.033  1.00  0.00     0.010 C 
HETATM   12  C9  UNL     1      -3.794  51.079 -20.912  1.00  0.00     0.002 C 
HETATM   13  C10 UNL     1      -5.255  50.951 -21.342  1.00  0.00     0.020 C 
HETATM   14  C12 UNL     1      -7.255  49.629 -21.958  1.00  0.00     0.026 C 
BRANCH   9  15
HETATM   15  C13 UNL     1      -6.088  48.969 -19.931  1.00  0.00     0.267 C 
HETATM   16  O1  UNL     1      -5.256  48.330 -19.293  1.00  0.00    -0.264 OA
BRANCH  15  17
HETATM   17  O2  UNL     1      -7.321  49.291 -19.456  1.00  0.00    -0.326 OA
HETATM   18  C14 UNL     1      -7.711  48.582 -18.281  1.00  0.00     0.213 C 
ENDBRANCH  15  17
ENDBRANCH   9  15
ENDBRANCH   1   2
BRANCH   1  19
HETATM   19  C17 UNL     1      -1.661  51.415 -24.879  1.00  0.00     0.042 C 
BRANCH  19  20
HETATM   20  C18 UNL     1      -0.279  51.613 -25.413  1.00  0.00    -0.024 A 
HETATM   21  C19 UNL     1       0.693  52.492 -24.958  1.00  0.00     0.083 A 
HETATM   22  O5  UNL     1       1.826  52.368 -25.711  1.00  0.00    -0.324 OA
HETATM   23  C28 UNL     1       1.589  51.410 -26.639  1.00  0.00     0.143 A 
HETATM   24  C29 UNL     1       0.316  50.915 -26.504  1.00  0.00     0.034 A 
BRANCH  21  25
HETATM   25  C20 UNL     1       0.742  53.515 -23.878  1.00  0.00     0.244 C 
BRANCH  25  26
HETATM   26  O3  UNL     1       0.664  52.814 -22.629  1.00  0.00    -0.311 OA
BRANCH  26  27
HETATM   27  C21 UNL     1       1.059  53.495 -21.529  1.00  0.00     0.293 C 
HETATM   28  O4  UNL     1       1.576  54.602 -21.505  1.00  0.00    -0.259 OA
BRANCH  27  29
HETATM   29  C22 UNL     1       0.754  52.707 -20.301  1.00  0.00     0.039 A 
HETATM   30  C23 UNL     1       1.204  53.201 -19.067  1.00  0.00     0.019 A 
HETATM   31  C24 UNL     1       0.929  52.504 -17.886  1.00  0.00     0.025 A 
HETATM   32  C25 UNL     1       0.206  51.312 -17.934  1.00  0.00     0.034 A 
HETATM   33 CL1  UNL     1      -0.127  50.452 -16.483  1.00  0.00    -0.084 Cl
HETATM   34  C26 UNL     1      -0.242  50.809 -19.154  1.00  0.00     0.025 A 
HETATM   35  C27 UNL     1       0.029  51.505 -20.336  1.00  0.00     0.019 A 
ENDBRANCH  27  29
ENDBRANCH  26  27
ENDBRANCH  25  26
ENDBRANCH  21  25
ENDBRANCH  19  20
ENDBRANCH   1  19
TORSDOF 9
ENDMDL
MODEL 5
REMARK minimizedAffinity -9.10156441
REMARK  9 active torsions:
REMARK  status: ('A' for Active; 'I' for Inactive)
REMARK    1  A    between atoms: C11_11  and  C13_13 
REMARK    2  A    between atoms: C13_13  and  O2_15 
REMARK    3  A    between atoms: C15_17  and  C16_18 
REMARK    4  A    between atoms: C16_18  and  C17_19 
REMARK    5  A    between atoms: C17_19  and  C18_20 
REMARK    6  A    between atoms: C19_21  and  C20_22 
REMARK    7  A    between atoms: C20_22  and  O3_23 
REMARK    8  A    between atoms: O3_23  and  C21_24 
REMARK    9  A    between atoms: C21_24  and  C22_26 
ROOT
HETATM    1  C16 UNL     1      -2.809  49.590 -22.975  1.00  0.00     0.014 C 
ENDROOT
BRANCH   1   2
HETATM    2  C15 UNL     1      -2.454  49.944 -24.446  1.00  0.00     0.022 C 
HETATM    3  C2  UNL     1      -3.243  49.181 -25.508  1.00  0.00    -0.084 C 
HETATM    4  C1  UNL     1      -4.344  48.435 -25.312  1.00  0.00     0.014 C 
HETATM    5  C3  UNL     1      -2.697  49.382 -26.897  1.00  0.00     0.034 C 
HETATM    6  C4  UNL     1      -2.792  50.855 -27.265  1.00  0.00     0.011 C 
HETATM    7  C5  UNL     1      -2.087  51.806 -26.265  1.00  0.00     0.012 C 
HETATM    8  C6  UNL     1      -2.504  51.495 -24.764  1.00  0.00    -0.032 C 
HETATM    9  C11 UNL     1      -0.529  52.038 -26.496  1.00  0.00     0.049 C 
HETATM   10  C7  UNL     1      -3.946  52.030 -24.529  1.00  0.00     0.016 C 
HETATM   11  C8  UNL     1      -1.574  52.318 -23.842  1.00  0.00     0.010 C 
HETATM   12  C9  UNL     1      -0.116  51.893 -23.926  1.00  0.00     0.002 C 
HETATM   13  C10 UNL     1       0.339  51.502 -25.331  1.00  0.00     0.020 C 
HETATM   14  C12 UNL     1       0.039  51.397 -27.786  1.00  0.00     0.026 C 
BRANCH   9  15
HETATM   15  C13 UNL     1      -0.324  53.555 -26.731  1.00  0.00     0.267 C 
HETATM   16  O1  UNL     1      -1.001  54.214 -27.515  1.00  0.00    -0.264 OA
BRANCH  15  17
HETATM   17  O2  UNL     1       0.668  54.080 -25.962  1.00  0.00    -0.326 OA
HETATM   18  C14 UNL     1       0.366  55.349 -25.384  1.00  0.00     0.213 C 
ENDBRANCH  15  17
ENDBRANCH   9  15
ENDBRANCH   1   2
BRANCH   1  19
HETATM   19  C17 UNL     1      -1.910  48.479 -22.406  1.00  0.00     0.042 C 
BRANCH  19  20
HETATM   20  C18 UNL     1      -1.929  48.446 -20.911  1.00  0.00    -0.024 A 
HETATM   21  C19 UNL     1      -1.376  49.365 -20.031  1.00  0.00     0.083 A 
HETATM   22  O5  UNL     1      -1.611  48.980 -18.743  1.00  0.00    -0.324 OA
HETATM   23  C28 UNL     1      -2.317  47.824 -18.791  1.00  0.00     0.143 A 
HETATM   24  C29 UNL     1      -2.538  47.451 -20.094  1.00  0.00     0.034 A 
BRANCH  21  25
HETATM   25  C20 UNL     1      -0.594  50.620 -20.199  1.00  0.00     0.244 C 
BRANCH  25  26
HETATM   26  O3  UNL     1      -0.886  51.454 -19.068  1.00  0.00    -0.311 OA
BRANCH  26  27
HETATM   27  C21 UNL     1       0.005  52.435 -18.796  1.00  0.00     0.293 C 
HETATM   28  O4  UNL     1       0.151  53.477 -19.415  1.00  0.00    -0.259 OA
BRANCH  27  29
HETATM   29  C22 UNL     1       0.801  52.082 -17.586  1.00  0.00     0.039 A 
HETATM   30  C23 UNL     1       2.019  52.748 -17.375  1.00  0.00     0.019 A 
HETATM   31  C24 UNL     1       2.793  52.462 -16.247  1.00  0.00     0.025 A 
HETATM   32  C25 UNL     1       2.356  51.508 -15.327  1.00  0.00     0.034 A 
HETATM   33 CL1  UNL     1       3.312  51.151 -13.943  1.00  0.00    -0.084 Cl
HETATM   34  C26 UNL     1       1.151  50.836 -15.527  1.00  0.00     0.025 A 
HETATM   35  C27 UNL     1       0.373  51.123 -16.653  1.00  0.00     0.019 A 
ENDBRANCH  27  29
ENDBRANCH  26  27
ENDBRANCH  25  26
ENDBRANCH  21  25
ENDBRANCH  19  20
ENDBRANCH   1  19
TORSDOF 9
ENDMDL
MODEL 6
REMARK minimizedAffinity -8.74848461
REMARK  9 active torsions:
REMARK  status: ('A' for Active; 'I' for Inactive)
REMARK    1  A    between atoms: C11_11  and  C13_13 
REMARK    2  A    between atoms: C13_13  and  O2_15 
REMARK    3  A    between atoms: C15_17  and  C16_18 
REMARK    4  A    between atoms: C16_18  and  C17_19 
REMARK    5  A    between atoms: C17_19  and  C18_20 
REMARK    6  A    between atoms: C19_21  and  C20_22 
REMARK    7  A    between atoms: C20_22  and  O3_23 
REMARK    8  A    between atoms: O3_23  and  C21_24 
REMARK    9  A    between atoms: C21_24  and  C22_26 
ROOT
HETATM    1  C16 UNL     1      -2.897  49.723 -23.279  1.00  0.00     0.014 C 
ENDROOT
BRANCH   1   2
HETATM    2  C15 UNL     1      -2.499  50.074 -24.739  1.00  0.00     0.022 C 
HETATM    3  C2  UNL     1      -3.246  49.298 -25.822  1.00  0.00    -0.084 C 
HETATM    4  C1  UNL     1      -4.344  48.541 -25.658  1.00  0.00     0.014 C 
HETATM    5  C3  UNL     1      -2.658  49.498 -27.194  1.00  0.00     0.034 C 
HETATM    6  C4  UNL     1      -2.757  50.969 -27.573  1.00  0.00     0.011 C 
HETATM    7  C5  UNL     1      -2.095  51.932 -26.555  1.00  0.00     0.012 C 
HETATM    8  C6  UNL     1      -2.557  51.623 -25.067  1.00  0.00    -0.032 C 
HETATM    9  C11 UNL     1      -0.533  52.180 -26.738  1.00  0.00     0.049 C 
HETATM   10  C7  UNL     1      -4.011  52.143 -24.880  1.00  0.00     0.016 C 
HETATM   11  C8  UNL     1      -1.666  52.461 -24.120  1.00  0.00     0.010 C 
HETATM   12  C9  UNL     1      -0.201  52.052 -24.155  1.00  0.00     0.002 C 
HETATM   13  C10 UNL     1       0.303  51.659 -25.543  1.00  0.00     0.020 C 
HETATM   14  C12 UNL     1       0.083  51.540 -28.006  1.00  0.00     0.026 C 
BRANCH   9  15
HETATM   15  C13 UNL     1      -0.338  53.699 -26.974  1.00  0.00     0.267 C 
HETATM   16  O1  UNL     1      -1.031  54.357 -27.746  1.00  0.00    -0.264 OA
BRANCH  15  17
HETATM   17  O2  UNL     1       0.666  54.225 -26.222  1.00  0.00    -0.326 OA
HETATM   18  C14 UNL     1       0.327  55.432 -25.537  1.00  0.00     0.213 C 
ENDBRANCH  15  17
ENDBRANCH   9  15
ENDBRANCH   1   2
BRANCH   1  19
HETATM   19  C17 UNL     1      -2.764  48.220 -22.979  1.00  0.00     0.042 C 
BRANCH  19  20
HETATM   20  C18 UNL     1      -2.822  47.927 -21.515  1.00  0.00    -0.024 A 
HETATM   21  C19 UNL     1      -3.841  48.233 -20.624  1.00  0.00     0.083 A 
HETATM   22  O5  UNL     1      -3.516  47.795 -19.373  1.00  0.00    -0.324 OA
HETATM   23  C28 UNL     1      -2.300  47.203 -19.457  1.00  0.00     0.143 A 
HETATM   24  C29 UNL     1      -1.828  47.257 -20.745  1.00  0.00     0.034 A 
BRANCH  21  25
HETATM   25  C20 UNL     1      -5.149  48.932 -20.746  1.00  0.00     0.244 C 
BRANCH  25  26
HETATM   26  O3  UNL     1      -5.071  50.117 -19.941  1.00  0.00    -0.311 OA
BRANCH  26  27
HETATM   27  C21 UNL     1      -4.360  51.148 -20.452  1.00  0.00     0.293 C 
HETATM   28  O4  UNL     1      -4.709  51.897 -21.352  1.00  0.00    -0.259 OA
BRANCH  27  29
HETATM   29  C22 UNL     1      -3.058  51.276 -19.739  1.00  0.00     0.039 A 
HETATM   30  C23 UNL     1      -3.039  51.078 -18.350  1.00  0.00     0.019 A 
HETATM   31  C24 UNL     1      -1.838  51.172 -17.640  1.00  0.00     0.025 A 
HETATM   32  C25 UNL     1      -0.653  51.467 -18.314  1.00  0.00     0.034 A 
HETATM   33 CL1  UNL     1       0.823  51.590 -17.440  1.00  0.00    -0.084 Cl
HETATM   34  C26 UNL     1      -0.659  51.670 -19.693  1.00  0.00     0.025 A 
HETATM   35  C27 UNL     1      -1.858  51.573 -20.405  1.00  0.00     0.019 A 
ENDBRANCH  27  29
ENDBRANCH  26  27
ENDBRANCH  25  26
ENDBRANCH  21  25
ENDBRANCH  19  20
ENDBRANCH   1  19
TORSDOF 9
ENDMDL
MODEL 7
REMARK minimizedAffinity -8.74093533
REMARK  9 active torsions:
REMARK  status: ('A' for Active; 'I' for Inactive)
REMARK    1  A    between atoms: C11_11  and  C13_13 
REMARK    2  A    between atoms: C13_13  and  O2_15 
REMARK    3  A    between atoms: C15_17  and  C16_18 
REMARK    4  A    between atoms: C16_18  and  C17_19 
REMARK    5  A    between atoms: C17_19  and  C18_20 
REMARK    6  A    between atoms: C19_21  and  C20_22 
REMARK    7  A    between atoms: C20_22  and  O3_23 
REMARK    8  A    between atoms: O3_23  and  C21_24 
REMARK    9  A    between atoms: C21_24  and  C22_26 
ROOT
HETATM    1  C16 UNL     1      -0.894  50.542 -22.018  1.00  0.00     0.014 C 
ENDROOT
BRANCH   1   2
HETATM    2  C15 UNL     1      -2.375  50.222 -21.676  1.00  0.00     0.022 C 
HETATM    3  C2  UNL     1      -3.395  51.239 -22.184  1.00  0.00    -0.084 C 
HETATM    4  C1  UNL     1      -3.177  52.223 -23.073  1.00  0.00     0.014 C 
HETATM    5  C3  UNL     1      -4.774  51.012 -21.624  1.00  0.00     0.034 C 
HETATM    6  C4  UNL     1      -5.276  49.644 -22.061  1.00  0.00     0.011 C 
HETATM    7  C5  UNL     1      -4.337  48.472 -21.678  1.00  0.00     0.012 C 
HETATM    8  C6  UNL     1      -2.832  48.764 -22.094  1.00  0.00    -0.032 C 
HETATM    9  C11 UNL     1      -4.527  47.870 -20.217  1.00  0.00     0.049 C 
HETATM   10  C7  UNL     1      -2.701  48.597 -23.635  1.00  0.00     0.016 C 
HETATM   11  C8  UNL     1      -1.951  47.663 -21.456  1.00  0.00     0.010 C 
HETATM   12  C9  UNL     1      -1.940  47.709 -19.936  1.00  0.00     0.002 C 
HETATM   13  C10 UNL     1      -3.286  48.077 -19.314  1.00  0.00     0.020 C 
HETATM   14  C12 UNL     1      -5.732  48.441 -19.430  1.00  0.00     0.026 C 
BRANCH   9  15
HETATM   15  C13 UNL     1      -4.888  46.372 -20.384  1.00  0.00     0.267 C 
HETATM   16  O1  UNL     1      -5.287  45.888 -21.440  1.00  0.00    -0.264 OA
BRANCH  15  17
HETATM   17  O2  UNL     1      -4.694  45.652 -19.247  1.00  0.00    -0.326 OA
HETATM   18  C14 UNL     1      -4.092  44.373 -19.447  1.00  0.00     0.213 C 
ENDBRANCH  15  17
ENDBRANCH   9  15
ENDBRANCH   1   2
BRANCH   1  19
HETATM   19  C17 UNL     1      -0.175  51.283 -20.878  1.00  0.00     0.042 C 
BRANCH  19  20
HETATM   20  C18 UNL     1       0.508  52.525 -21.353  1.00  0.00    -0.024 A 
HETATM   21  C19 UNL     1       0.708  52.941 -22.661  1.00  0.00     0.083 A 
HETATM   22  O5  UNL     1       1.372  54.135 -22.677  1.00  0.00    -0.324 OA
HETATM   23  C28 UNL     1       1.591  54.490 -21.387  1.00  0.00     0.143 A 
HETATM   24  C29 UNL     1       1.084  53.540 -20.535  1.00  0.00     0.034 A 
BRANCH  21  25
HETATM   25  C20 UNL     1       0.381  52.365 -23.994  1.00  0.00     0.244 C 
BRANCH  25  26
HETATM   26  O3  UNL     1       0.914  53.259 -24.982  1.00  0.00    -0.311 OA
BRANCH  26  27
HETATM   27  C21 UNL     1       0.105  53.555 -26.026  1.00  0.00     0.293 C 
HETATM   28  O4  UNL     1       0.083  54.601 -26.655  1.00  0.00    -0.259 OA
BRANCH  27  29
HETATM   29  C22 UNL     1      -0.772  52.391 -26.340  1.00  0.00     0.039 A 
HETATM   30  C23 UNL     1      -2.117  52.640 -26.656  1.00  0.00     0.019 A 
HETATM   31  C24 UNL     1      -2.975  51.582 -26.973  1.00  0.00     0.025 A 
HETATM   32  C25 UNL     1      -2.494  50.273 -26.971  1.00  0.00     0.034 A 
HETATM   33 CL1  UNL     1      -3.550  48.971 -27.353  1.00  0.00    -0.084 Cl
HETATM   34  C26 UNL     1      -1.162  50.012 -26.653  1.00  0.00     0.025 A 
HETATM   35  C27 UNL     1      -0.301  51.068 -26.340  1.00  0.00     0.019 A 
ENDBRANCH  27  29
ENDBRANCH  26  27
ENDBRANCH  25  26
ENDBRANCH  21  25
ENDBRANCH  19  20
ENDBRANCH   1  19
TORSDOF 9
ENDMDL
MODEL 8
REMARK minimizedAffinity -8.59663105
REMARK  9 active torsions:
REMARK  status: ('A' for Active; 'I' for Inactive)
REMARK    1  A    between atoms: C11_11  and  C13_13 
REMARK    2  A    between atoms: C13_13  and  O2_15 
REMARK    3  A    between atoms: C15_17  and  C16_18 
REMARK    4  A    between atoms: C16_18  and  C17_19 
REMARK    5  A    between atoms: C17_19  and  C18_20 
REMARK    6  A    between atoms: C19_21  and  C20_22 
REMARK    7  A    between atoms: C20_22  and  O3_23 
REMARK    8  A    between atoms: O3_23  and  C21_24 
REMARK    9  A    between atoms: C21_24  and  C22_26 
ROOT
HETATM    1  C16 UNL     1      -4.142  48.803 -24.537  1.00  0.00     0.014 C 
ENDROOT
BRANCH   1   2
HETATM    2  C15 UNL     1      -3.594  49.714 -23.404  1.00  0.00     0.022 C 
HETATM    3  C2  UNL     1      -3.927  51.198 -23.543  1.00  0.00    -0.084 C 
HETATM    4  C1  UNL     1      -4.818  51.748 -24.386  1.00  0.00     0.014 C 
HETATM    5  C3  UNL     1      -3.177  52.059 -22.562  1.00  0.00     0.034 C 
HETATM    6  C4  UNL     1      -3.565  51.662 -21.145  1.00  0.00     0.011 C 
HETATM    7  C5  UNL     1      -3.347  50.161 -20.825  1.00  0.00     0.012 C 
HETATM    8  C6  UNL     1      -3.971  49.224 -21.945  1.00  0.00    -0.032 C 
HETATM    9  C11 UNL     1      -1.887  49.752 -20.342  1.00  0.00     0.049 C 
HETATM   10  C7  UNL     1      -5.518  49.216 -21.780  1.00  0.00     0.016 C 
HETATM   11  C8  UNL     1      -3.492  47.781 -21.664  1.00  0.00     0.010 C 
HETATM   12  C9  UNL     1      -1.989  47.606 -21.819  1.00  0.00     0.002 C 
HETATM   13  C10 UNL     1      -1.170  48.801 -21.330  1.00  0.00     0.020 C 
HETATM   14  C12 UNL     1      -0.921  50.941 -20.112  1.00  0.00     0.026 C 
BRANCH   9  15
HETATM   15  C13 UNL     1      -2.031  49.132 -18.929  1.00  0.00     0.267 C 
HETATM   16  O1  UNL     1      -1.146  48.476 -18.386  1.00  0.00    -0.264 OA
BRANCH  15  17
HETATM   17  O2  UNL     1      -3.231  49.409 -18.351  1.00  0.00    -0.326 OA
HETATM   18  C14 UNL     1      -3.175  49.642 -16.944  1.00  0.00     0.213 C 
ENDBRANCH  15  17
ENDBRANCH   9  15
ENDBRANCH   1   2
BRANCH   1  19
HETATM   19  C17 UNL     1      -3.082  48.499 -25.609  1.00  0.00     0.042 C 
BRANCH  19  20
HETATM   20  C18 UNL     1      -3.549  48.852 -26.984  1.00  0.00    -0.024 A 
HETATM   21  C19 UNL     1      -3.322  50.027 -27.687  1.00  0.00     0.083 A 
HETATM   22  O5  UNL     1      -3.915  49.960 -28.915  1.00  0.00    -0.324 OA
HETATM   23  C28 UNL     1      -4.513  48.748 -29.008  1.00  0.00     0.143 A 
HETATM   24  C29 UNL     1      -4.322  48.029 -27.853  1.00  0.00     0.034 A 
BRANCH  21  25
HETATM   25  C20 UNL     1      -2.614  51.299 -27.378  1.00  0.00     0.244 C 
BRANCH  25  26
HETATM   26  O3  UNL     1      -1.208  51.038 -27.495  1.00  0.00    -0.311 OA
BRANCH  26  27
HETATM   27  C21 UNL     1      -0.386  52.108 -27.400  1.00  0.00     0.293 C 
HETATM   28  O4  UNL     1       0.043  52.780 -28.325  1.00  0.00    -0.259 OA
BRANCH  27  29
HETATM   29  C22 UNL     1      -0.076  52.390 -25.970  1.00  0.00     0.039 A 
HETATM   30  C23 UNL     1       0.358  53.680 -25.626  1.00  0.00     0.019 A 
HETATM   31  C24 UNL     1       0.646  53.997 -24.295  1.00  0.00     0.025 A 
HETATM   32  C25 UNL     1       0.506  53.026 -23.303  1.00  0.00     0.034 A 
HETATM   33 CL1  UNL     1       0.867  53.413 -21.667  1.00  0.00    -0.084 Cl
HETATM   34  C26 UNL     1       0.080  51.740 -23.632  1.00  0.00     0.025 A 
HETATM   35  C27 UNL     1      -0.212  51.422 -24.962  1.00  0.00     0.019 A 
ENDBRANCH  27  29
ENDBRANCH  26  27
ENDBRANCH  25  26
ENDBRANCH  21  25
ENDBRANCH  19  20
ENDBRANCH   1  19
TORSDOF 9
ENDMDL
MODEL 9
REMARK minimizedAffinity -8.55435753
REMARK  9 active torsions:
REMARK  status: ('A' for Active; 'I' for Inactive)
REMARK    1  A    between atoms: C11_11  and  C13_13 
REMARK    2  A    between atoms: C13_13  and  O2_15 
REMARK    3  A    between atoms: C15_17  and  C16_18 
REMARK    4  A    between atoms: C16_18  and  C17_19 
REMARK    5  A    between atoms: C17_19  and  C18_20 
REMARK    6  A    between atoms: C19_21  and  C20_22 
REMARK    7  A    between atoms: C20_22  and  O3_23 
REMARK    8  A    between atoms: O3_23  and  C21_24 
REMARK    9  A    between atoms: C21_24  and  C22_26 
ROOT
HETATM    1  C16 UNL     1      -1.938  50.288 -23.703  1.00  0.00     0.014 C 
ENDROOT
BRANCH   1   2
HETATM    2  C15 UNL     1      -2.711  50.145 -22.363  1.00  0.00     0.022 C 
HETATM    3  C2  UNL     1      -3.786  51.201 -22.116  1.00  0.00    -0.084 C 
HETATM    4  C1  UNL     1      -4.283  52.071 -23.013  1.00  0.00     0.014 C 
HETATM    5  C3  UNL     1      -4.332  51.161 -20.713  1.00  0.00     0.034 C 
HETATM    6  C4  UNL     1      -4.990  49.811 -20.468  1.00  0.00     0.011 C 
HETATM    7  C5  UNL     1      -4.060  48.597 -20.721  1.00  0.00     0.012 C 
HETATM    8  C6  UNL     1      -3.324  48.703 -22.125  1.00  0.00    -0.032 C 
HETATM    9  C11 UNL     1      -3.132  48.158 -19.505  1.00  0.00     0.049 C 
HETATM   10  C7  UNL     1      -4.348  48.378 -23.249  1.00  0.00     0.016 C 
HETATM   11  C8  UNL     1      -2.251  47.590 -22.172  1.00  0.00     0.010 C 
HETATM   12  C9  UNL     1      -1.143  47.779 -21.147  1.00  0.00     0.002 C 
HETATM   13  C10 UNL     1      -1.624  48.332 -19.806  1.00  0.00     0.020 C 
HETATM   14  C12 UNL     1      -3.397  48.914 -18.180  1.00  0.00     0.026 C 
BRANCH   9  15
HETATM   15  C13 UNL     1      -3.497  46.693 -19.159  1.00  0.00     0.267 C 
HETATM   16  O1  UNL     1      -2.959  46.058 -18.256  1.00  0.00    -0.264 OA
BRANCH  15  17
HETATM   17  O2  UNL     1      -4.489  46.196 -19.946  1.00  0.00    -0.326 OA
HETATM   18  C14 UNL     1      -4.658  44.781 -19.870  1.00  0.00     0.213 C 
ENDBRANCH  15  17
ENDBRANCH   9  15
ENDBRANCH   1   2
BRANCH   1  19
HETATM   19  C17 UNL     1      -1.717  51.758 -24.099  1.00  0.00     0.042 C 
BRANCH  19  20
HETATM   20  C18 UNL     1      -0.548  51.928 -25.015  1.00  0.00    -0.024 A 
HETATM   21  C19 UNL     1       0.556  52.752 -24.845  1.00  0.00     0.083 A 
HETATM   22  O5  UNL     1       1.407  52.619 -25.905  1.00  0.00    -0.324 OA
HETATM   23  C28 UNL     1       0.861  51.710 -26.748  1.00  0.00     0.143 A 
HETATM   24  C29 UNL     1      -0.337  51.256 -26.254  1.00  0.00     0.034 A 
BRANCH  21  25
HETATM   25  C20 UNL     1       0.971  53.725 -23.799  1.00  0.00     0.244 C 
BRANCH  25  26
HETATM   26  O3  UNL     1       1.116  52.993 -22.574  1.00  0.00    -0.311 OA
BRANCH  26  27
HETATM   27  C21 UNL     1       1.274  53.726 -21.448  1.00  0.00     0.293 C 
HETATM   28  O4  UNL     1       1.779  54.834 -21.367  1.00  0.00    -0.259 OA
BRANCH  27  29
HETATM   29  C22 UNL     1       0.711  52.994 -20.277  1.00  0.00     0.039 A 
HETATM   30  C23 UNL     1       1.396  53.072 -19.055  1.00  0.00     0.019 A 
HETATM   31  C24 UNL     1       0.899  52.415 -17.925  1.00  0.00     0.025 A 
HETATM   32  C25 UNL     1      -0.281  51.676 -18.013  1.00  0.00     0.034 A 
HETATM   33 CL1  UNL     1      -0.889  50.862 -16.626  1.00  0.00    -0.084 Cl
HETATM   34  C26 UNL     1      -0.968  51.587 -19.223  1.00  0.00     0.025 A 
HETATM   35  C27 UNL     1      -0.475  52.246 -20.353  1.00  0.00     0.019 A 
ENDBRANCH  27  29
ENDBRANCH  26  27
ENDBRANCH  25  26
ENDBRANCH  21  25
ENDBRANCH  19  20
ENDBRANCH   1  19
TORSDOF 9
ENDMDL
