MODEL 1
REMARK minimizedAffinity -7.38158226
REMARK CNNscore 0.843699753
REMARK CNNaffinity 7.41798353
REMARK  9 active torsions:
REMARK  status: ('A' for Active; 'I' for Inactive)
REMARK    1  A    between atoms: C2_2  and  C3_3 
REMARK    2  A    between atoms: C2_2  and  C9_12 
REMARK    3  A    between atoms: C3_3  and  C4_4 
REMARK    4  A    between atoms: C4_4  and  C5_5 
REMARK    5  A    between atoms: C5_5  and  O1_6 
REMARK    6  A    between atoms: C5_5  and  C6_7 
REMARK    7  A    between atoms: C6_7  and  O2_9 
REMARK    8  A    between atoms: C6_7  and  C8_10 
REMARK    9  A    between atoms: C8_10  and  O3_11 
ROOT
HETATM    1  C9  UNL     1      -1.903  52.142 -10.198  1.00  0.00    -0.002 C 
HETATM    2  C10 UNL     1      -1.231  50.752 -10.368  1.00  0.00     0.007 C 
HETATM    3  C11 UNL     1       0.273  50.942 -10.087  1.00  0.00     0.015 C 
HETATM    4  C12 UNL     1       0.379  52.300  -9.366  1.00  0.00    -0.005 C 
HETATM    5  C13 UNL     1       0.030  52.045  -7.866  1.00  0.00     0.021 C 
HETATM    6  C14 UNL     1       1.697  53.062  -9.320  1.00  0.00    -0.000 C 
HETATM    7  C15 UNL     1       1.717  54.419  -9.237  1.00  0.00    -0.060 C 
HETATM    8  C16 UNL     1       0.414  55.226  -9.259  1.00  0.00     0.036 C 
HETATM    9  C17 UNL     1      -0.909  54.454  -9.449  1.00  0.00     0.015 C 
HETATM   10  C18 UNL     1      -0.695  53.127 -10.184  1.00  0.00    -0.028 C 
HETATM   11  C19 UNL     1      -0.239  53.443 -11.638  1.00  0.00     0.016 C 
HETATM   12  C20 UNL     1       3.037  55.236  -9.171  1.00  0.00    -0.014 C 
HETATM   13  C21 UNL     1       3.371  55.607 -10.635  1.00  0.00     0.020 C 
HETATM   14  C22 UNL     1       2.873  56.533  -8.336  1.00  0.00     0.021 C 
HETATM   15  C23 UNL     1       4.177  57.284  -8.115  1.00  0.00     0.080 C 
HETATM   16  C24 UNL     1       5.174  56.396  -7.416  1.00  0.00     0.135 C 
HETATM   17  O4  UNL     1       5.757  56.799  -6.410  1.00  0.00    -0.297 OA
HETATM   18  C25 UNL     1       5.471  55.030  -8.054  1.00  0.00     0.018 C 
HETATM   19  C26 UNL     1       6.186  54.157  -6.990  1.00  0.00     0.023 C 
HETATM   20  C27 UNL     1       6.467  55.239  -9.204  1.00  0.00     0.023 C 
HETATM   21  C28 UNL     1       4.116  54.347  -8.457  1.00  0.00     0.020 C 
HETATM   22  C29 UNL     1       4.291  53.030  -9.218  1.00  0.00     0.090 C 
HETATM   23  C30 UNL     1       2.980  52.285  -9.322  1.00  0.00     0.157 C 
HETATM   24  O5  UNL     1       2.987  51.060  -9.431  1.00  0.00    -0.293 OA
ENDROOT
BRANCH   1  25
HETATM   25  C2  UNL     1      -3.164  52.345 -11.095  1.00  0.00    -0.014 C 
HETATM   26  C1  UNL     1      -4.141  53.444 -10.668  1.00  0.00     0.010 C 
BRANCH  25  27
HETATM   27  C3  UNL     1      -3.897  51.007 -11.348  1.00  0.00     0.007 C 
BRANCH  27  28
HETATM   28  C4  UNL     1      -4.979  50.654 -10.309  1.00  0.00     0.035 C 
BRANCH  28  29
HETATM   29  C5  UNL     1      -5.537  49.230 -10.438  1.00  0.00     0.154 C 
BRANCH  29  30
HETATM   30  O1  UNL     1      -5.445  48.819 -11.811  1.00  0.00    -0.392 OA
HETATM   31  H10 UNL     1      -5.971  47.992 -11.854  1.00  0.00     0.210 HD
ENDBRANCH  29  30
BRANCH  29  32
HETATM   32  C6  UNL     1      -7.008  49.064  -9.971  1.00  0.00     0.101 C 
HETATM   33  C7  UNL     1      -7.129  48.412  -8.588  1.00  0.00     0.051 C 
BRANCH  32  34
HETATM   34  O2  UNL     1      -7.546  50.403  -9.835  1.00  0.00    -0.385 OA
HETATM   35  H14 UNL     1      -8.516  50.304  -9.938  1.00  0.00     0.210 HD
ENDBRANCH  32  34
BRANCH  32  36
HETATM   36  C8  UNL     1      -7.859  48.320 -11.020  1.00  0.00     0.204 C 
BRANCH  36  37
HETATM   37  O3  UNL     1      -8.764  49.235 -11.647  1.00  0.00    -0.398 OA
HETATM   38  H17 UNL     1      -9.549  49.309 -11.075  1.00  0.00     0.209 HD
ENDBRANCH  36  37
ENDBRANCH  32  36
ENDBRANCH  29  32
ENDBRANCH  28  29
ENDBRANCH  27  28
ENDBRANCH  25  27
ENDBRANCH   1  25
TORSDOF 9
ENDMDL
MODEL 2
REMARK minimizedAffinity -6.80282784
REMARK CNNscore 0.72154367
REMARK CNNaffinity 6.94257116
REMARK  9 active torsions:
REMARK  status: ('A' for Active; 'I' for Inactive)
REMARK    1  A    between atoms: C2_2  and  C3_3 
REMARK    2  A    between atoms: C2_2  and  C9_12 
REMARK    3  A    between atoms: C3_3  and  C4_4 
REMARK    4  A    between atoms: C4_4  and  C5_5 
REMARK    5  A    between atoms: C5_5  and  O1_6 
REMARK    6  A    between atoms: C5_5  and  C6_7 
REMARK    7  A    between atoms: C6_7  and  O2_9 
REMARK    8  A    between atoms: C6_7  and  C8_10 
REMARK    9  A    between atoms: C8_10  and  O3_11 
ROOT
HETATM    1  C9  UNL     1      -1.789  52.229 -10.247  1.00  0.00    -0.002 C 
HETATM    2  C10 UNL     1      -1.100  50.857 -10.488  1.00  0.00     0.007 C 
HETATM    3  C11 UNL     1       0.401  51.048 -10.195  1.00  0.00     0.015 C 
HETATM    4  C12 UNL     1       0.491  52.368  -9.404  1.00  0.00    -0.005 C 
HETATM    5  C13 UNL     1       0.143  52.032  -7.920  1.00  0.00     0.021 C 
HETATM    6  C14 UNL     1       1.800  53.141  -9.316  1.00  0.00    -0.000 C 
HETATM    7  C15 UNL     1       1.806  54.492  -9.163  1.00  0.00    -0.060 C 
HETATM    8  C16 UNL     1       0.493  55.284  -9.145  1.00  0.00     0.036 C 
HETATM    9  C17 UNL     1      -0.820  54.510  -9.377  1.00  0.00     0.015 C 
HETATM   10  C18 UNL     1      -0.591  53.224 -10.179  1.00  0.00    -0.028 C 
HETATM   11  C19 UNL     1      -0.138  53.621 -11.615  1.00  0.00     0.016 C 
HETATM   12  C20 UNL     1       3.116  55.319  -9.052  1.00  0.00    -0.014 C 
HETATM   13  C21 UNL     1       3.447  55.769 -10.494  1.00  0.00     0.020 C 
HETATM   14  C22 UNL     1       2.937  56.568  -8.151  1.00  0.00     0.021 C 
HETATM   15  C23 UNL     1       4.232  57.322  -7.889  1.00  0.00     0.080 C 
HETATM   16  C24 UNL     1       5.238  56.409  -7.236  1.00  0.00     0.135 C 
HETATM   17  O4  UNL     1       5.816  56.766  -6.209  1.00  0.00    -0.297 OA
HETATM   18  C25 UNL     1       5.551  55.081  -7.943  1.00  0.00     0.018 C 
HETATM   19  C26 UNL     1       6.274  54.162  -6.925  1.00  0.00     0.023 C 
HETATM   20  C27 UNL     1       6.546  55.361  -9.079  1.00  0.00     0.023 C 
HETATM   21  C28 UNL     1       4.204  54.406  -8.384  1.00  0.00     0.020 C 
HETATM   22  C29 UNL     1       4.394  53.132  -9.212  1.00  0.00     0.090 C 
HETATM   23  C30 UNL     1       3.092  52.379  -9.357  1.00  0.00     0.157 C 
HETATM   24  O5  UNL     1       3.112  51.162  -9.530  1.00  0.00    -0.293 OA
ENDROOT
BRANCH   1  25
HETATM   25  C2  UNL     1      -3.050  52.464 -11.134  1.00  0.00    -0.014 C 
HETATM   26  C1  UNL     1      -4.311  51.681 -10.757  1.00  0.00     0.010 C 
BRANCH  25  27
HETATM   27  C3  UNL     1      -2.719  52.309 -12.638  1.00  0.00     0.007 C 
BRANCH  27  28
HETATM   28  C4  UNL     1      -3.268  51.028 -13.293  1.00  0.00     0.035 C 
BRANCH  28  29
HETATM   29  C5  UNL     1      -2.589  50.657 -14.620  1.00  0.00     0.154 C 
BRANCH  29  30
HETATM   30  O1  UNL     1      -3.433  51.076 -15.703  1.00  0.00    -0.392 OA
HETATM   31  H10 UNL     1      -3.036  50.658 -16.497  1.00  0.00     0.210 HD
ENDBRANCH  29  30
BRANCH  29  32
HETATM   32  C6  UNL     1      -2.281  49.146 -14.791  1.00  0.00     0.101 C 
HETATM   33  C7  UNL     1      -2.056  48.424 -13.455  1.00  0.00     0.051 C 
BRANCH  32  34
HETATM   34  O2  UNL     1      -3.465  48.551 -15.377  1.00  0.00    -0.385 OA
HETATM   35  H14 UNL     1      -3.150  47.744 -15.836  1.00  0.00     0.210 HD
ENDBRANCH  32  34
BRANCH  32  36
HETATM   36  C8  UNL     1      -1.107  48.909 -15.762  1.00  0.00     0.204 C 
BRANCH  36  37
HETATM   37  O3  UNL     1      -1.513  48.016 -16.804  1.00  0.00    -0.398 OA
HETATM   38  H17 UNL     1      -1.408  47.108 -16.470  1.00  0.00     0.209 HD
ENDBRANCH  36  37
ENDBRANCH  32  36
ENDBRANCH  29  32
ENDBRANCH  28  29
ENDBRANCH  27  28
ENDBRANCH  25  27
ENDBRANCH   1  25
TORSDOF 9
ENDMDL
MODEL 3
REMARK minimizedAffinity -7.40217495
REMARK CNNscore 0.619988382
REMARK CNNaffinity 7.03336096
REMARK  9 active torsions:
REMARK  status: ('A' for Active; 'I' for Inactive)
REMARK    1  A    between atoms: C2_2  and  C3_3 
REMARK    2  A    between atoms: C2_2  and  C9_12 
REMARK    3  A    between atoms: C3_3  and  C4_4 
REMARK    4  A    between atoms: C4_4  and  C5_5 
REMARK    5  A    between atoms: C5_5  and  O1_6 
REMARK    6  A    between atoms: C5_5  and  C6_7 
REMARK    7  A    between atoms: C6_7  and  O2_9 
REMARK    8  A    between atoms: C6_7  and  C8_10 
REMARK    9  A    between atoms: C8_10  and  O3_11 
ROOT
HETATM    1  C9  UNL     1       2.300  54.165 -10.418  1.00  0.00    -0.002 C 
HETATM    2  C10 UNL     1       1.141  55.061  -9.899  1.00  0.00     0.007 C 
HETATM    3  C11 UNL     1       1.697  55.877  -8.716  1.00  0.00     0.015 C 
HETATM    4  C12 UNL     1       3.230  55.761  -8.833  1.00  0.00    -0.005 C 
HETATM    5  C13 UNL     1       3.682  56.811  -9.897  1.00  0.00     0.021 C 
HETATM    6  C14 UNL     1       4.130  56.031  -7.635  1.00  0.00    -0.000 C 
HETATM    7  C15 UNL     1       5.336  55.415  -7.514  1.00  0.00    -0.060 C 
HETATM    8  C16 UNL     1       5.793  54.378  -8.546  1.00  0.00     0.036 C 
HETATM    9  C17 UNL     1       4.814  54.007  -9.679  1.00  0.00     0.015 C 
HETATM   10  C18 UNL     1       3.356  54.247  -9.275  1.00  0.00    -0.028 C 
HETATM   11  C19 UNL     1       2.996  53.250  -8.134  1.00  0.00     0.016 C 
HETATM   12  C20 UNL     1       6.293  55.672  -6.317  1.00  0.00    -0.014 C 
HETATM   13  C21 UNL     1       5.955  54.583  -5.272  1.00  0.00     0.020 C 
HETATM   14  C22 UNL     1       7.782  55.544  -6.731  1.00  0.00     0.021 C 
HETATM   15  C23 UNL     1       8.756  55.938  -5.631  1.00  0.00     0.080 C 
HETATM   16  C24 UNL     1       8.506  57.362  -5.205  1.00  0.00     0.135 C 
HETATM   17  O4  UNL     1       9.441  58.160  -5.150  1.00  0.00    -0.297 OA
HETATM   18  C25 UNL     1       7.076  57.730  -4.780  1.00  0.00     0.018 C 
HETATM   19  C26 UNL     1       6.969  59.277  -4.775  1.00  0.00     0.023 C 
HETATM   20  C27 UNL     1       6.865  57.263  -3.333  1.00  0.00     0.023 C 
HETATM   21  C28 UNL     1       6.064  57.146  -5.827  1.00  0.00     0.020 C 
HETATM   22  C29 UNL     1       4.595  57.343  -5.443  1.00  0.00     0.090 C 
HETATM   23  C30 UNL     1       3.682  57.027  -6.605  1.00  0.00     0.157 C 
HETATM   24  O5  UNL     1       2.581  57.570  -6.676  1.00  0.00    -0.293 OA
ENDROOT
BRANCH   1  25
HETATM   25  C2  UNL     1       1.821  52.820 -11.047  1.00  0.00    -0.014 C 
HETATM   26  C1  UNL     1       2.821  52.090 -11.949  1.00  0.00     0.010 C 
BRANCH  25  27
HETATM   27  C3  UNL     1       0.448  52.980 -11.742  1.00  0.00     0.007 C 
BRANCH  27  28
HETATM   28  C4  UNL     1      -0.727  52.291 -11.021  1.00  0.00     0.035 C 
BRANCH  28  29
HETATM   29  C5  UNL     1      -1.963  52.065 -11.903  1.00  0.00     0.154 C 
BRANCH  29  30
HETATM   30  O1  UNL     1      -1.700  52.592 -13.213  1.00  0.00    -0.392 OA
HETATM   31  H10 UNL     1      -2.572  52.578 -13.661  1.00  0.00     0.210 HD
ENDBRANCH  29  30
BRANCH  29  32
HETATM   32  C6  UNL     1      -3.270  52.707 -11.366  1.00  0.00     0.101 C 
HETATM   33  C7  UNL     1      -3.016  53.784 -10.302  1.00  0.00     0.051 C 
BRANCH  32  34
HETATM   34  O2  UNL     1      -3.882  53.387 -12.490  1.00  0.00    -0.385 OA
HETATM   35  H14 UNL     1      -4.838  53.435 -12.274  1.00  0.00     0.210 HD
ENDBRANCH  32  34
BRANCH  32  36
HETATM   36  C8  UNL     1      -4.265  51.643 -10.862  1.00  0.00     0.204 C 
BRANCH  36  37
HETATM   37  O3  UNL     1      -3.847  51.158  -9.582  1.00  0.00    -0.398 OA
HETATM   38  H17 UNL     1      -3.188  50.457  -9.734  1.00  0.00     0.209 HD
ENDBRANCH  36  37
ENDBRANCH  32  36
ENDBRANCH  29  32
ENDBRANCH  28  29
ENDBRANCH  27  28
ENDBRANCH  25  27
ENDBRANCH   1  25
TORSDOF 9
ENDMDL
MODEL 4
REMARK minimizedAffinity -6.58272028
REMARK CNNscore 0.596787333
REMARK CNNaffinity 6.89692926
REMARK  9 active torsions:
REMARK  status: ('A' for Active; 'I' for Inactive)
REMARK    1  A    between atoms: C2_2  and  C3_3 
REMARK    2  A    between atoms: C2_2  and  C9_12 
REMARK    3  A    between atoms: C3_3  and  C4_4 
REMARK    4  A    between atoms: C4_4  and  C5_5 
REMARK    5  A    between atoms: C5_5  and  O1_6 
REMARK    6  A    between atoms: C5_5  and  C6_7 
REMARK    7  A    between atoms: C6_7  and  O2_9 
REMARK    8  A    between atoms: C6_7  and  C8_10 
REMARK    9  A    between atoms: C8_10  and  O3_11 
ROOT
HETATM    1  C9  UNL     1      -1.577  52.295 -11.198  1.00  0.00    -0.002 C 
HETATM    2  C10 UNL     1      -0.538  52.613 -12.308  1.00  0.00     0.007 C 
HETATM    3  C11 UNL     1       0.512  53.554 -11.685  1.00  0.00     0.015 C 
HETATM    4  C12 UNL     1       0.310  53.430 -10.162  1.00  0.00    -0.005 C 
HETATM    5  C13 UNL     1       1.059  52.137  -9.711  1.00  0.00     0.021 C 
HETATM    6  C14 UNL     1       0.820  54.508  -9.214  1.00  0.00    -0.000 C 
HETATM    7  C15 UNL     1       0.202  54.742  -8.025  1.00  0.00    -0.060 C 
HETATM    8  C16 UNL     1      -1.068  53.976  -7.638  1.00  0.00     0.036 C 
HETATM    9  C17 UNL     1      -1.657  52.988  -8.666  1.00  0.00     0.015 C 
HETATM   10  C18 UNL     1      -1.269  53.359 -10.102  1.00  0.00    -0.028 C 
HETATM   11  C19 UNL     1      -1.952  54.713 -10.456  1.00  0.00     0.016 C 
HETATM   12  C20 UNL     1       0.697  55.819  -7.021  1.00  0.00    -0.014 C 
HETATM   13  C21 UNL     1      -0.099  57.101  -7.361  1.00  0.00     0.020 C 
HETATM   14  C22 UNL     1       0.414  55.412  -5.552  1.00  0.00     0.021 C 
HETATM   15  C23 UNL     1       1.018  56.362  -4.529  1.00  0.00     0.080 C 
HETATM   16  C24 UNL     1       2.511  56.442  -4.717  1.00  0.00     0.135 C 
HETATM   17  O4  UNL     1       3.261  56.283  -3.755  1.00  0.00    -0.297 OA
HETATM   18  C25 UNL     1       3.027  56.802  -6.119  1.00  0.00     0.018 C 
HETATM   19  C26 UNL     1       4.534  56.441  -6.174  1.00  0.00     0.023 C 
HETATM   20  C27 UNL     1       2.925  58.324  -6.297  1.00  0.00     0.023 C 
HETATM   21  C28 UNL     1       2.252  55.950  -7.185  1.00  0.00     0.020 C 
HETATM   22  C29 UNL     1       2.594  56.312  -8.632  1.00  0.00     0.090 C 
HETATM   23  C30 UNL     1       2.048  55.281  -9.594  1.00  0.00     0.157 C 
HETATM   24  O5  UNL     1       2.603  55.110 -10.678  1.00  0.00    -0.293 OA
ENDROOT
BRANCH   1  25
HETATM   25  C2  UNL     1      -3.013  52.016 -11.742  1.00  0.00    -0.014 C 
HETATM   26  C1  UNL     1      -4.096  51.720 -10.700  1.00  0.00     0.010 C 
BRANCH  25  27
HETATM   27  C3  UNL     1      -2.995  50.943 -12.856  1.00  0.00     0.007 C 
BRANCH  27  28
HETATM   28  C4  UNL     1      -3.075  51.498 -14.291  1.00  0.00     0.035 C 
BRANCH  28  29
HETATM   29  C5  UNL     1      -3.234  50.423 -15.376  1.00  0.00     0.154 C 
BRANCH  29  30
HETATM   30  O1  UNL     1      -3.242  49.131 -14.749  1.00  0.00    -0.392 OA
HETATM   31  H10 UNL     1      -3.166  48.498 -15.494  1.00  0.00     0.210 HD
ENDBRANCH  29  30
BRANCH  29  32
HETATM   32  C6  UNL     1      -2.132  50.435 -16.468  1.00  0.00     0.101 C 
HETATM   33  C7  UNL     1      -2.012  49.100 -17.215  1.00  0.00     0.051 C 
BRANCH  32  34
HETATM   34  O2  UNL     1      -2.544  51.413 -17.454  1.00  0.00    -0.385 OA
HETATM   35  H14 UNL     1      -1.717  51.703 -17.893  1.00  0.00     0.210 HD
ENDBRANCH  32  34
BRANCH  32  36
HETATM   36  C8  UNL     1      -0.770  50.884 -15.901  1.00  0.00     0.204 C 
BRANCH  36  37
HETATM   37  O3  UNL     1       0.258  50.656 -16.870  1.00  0.00    -0.398 OA
HETATM   38  H17 UNL     1       0.539  49.728 -16.786  1.00  0.00     0.209 HD
ENDBRANCH  36  37
ENDBRANCH  32  36
ENDBRANCH  29  32
ENDBRANCH  28  29
ENDBRANCH  27  28
ENDBRANCH  25  27
ENDBRANCH   1  25
TORSDOF 9
ENDMDL
MODEL 5
REMARK minimizedAffinity -8.49744606
REMARK CNNscore 0.509554565
REMARK CNNaffinity 5.5797019
REMARK  9 active torsions:
REMARK  status: ('A' for Active; 'I' for Inactive)
REMARK    1  A    between atoms: C2_2  and  C3_3 
REMARK    2  A    between atoms: C2_2  and  C9_12 
REMARK    3  A    between atoms: C3_3  and  C4_4 
REMARK    4  A    between atoms: C4_4  and  C5_5 
REMARK    5  A    between atoms: C5_5  and  O1_6 
REMARK    6  A    between atoms: C5_5  and  C6_7 
REMARK    7  A    between atoms: C6_7  and  O2_9 
REMARK    8  A    between atoms: C6_7  and  C8_10 
REMARK    9  A    between atoms: C8_10  and  O3_11 
ROOT
HETATM    1  C9  UNL     1       3.309  67.560 -36.604  1.00  0.00    -0.002 C 
HETATM    2  C10 UNL     1       3.060  68.911 -35.879  1.00  0.00     0.007 C 
HETATM    3  C11 UNL     1       1.978  69.660 -36.681  1.00  0.00     0.015 C 
HETATM    4  C12 UNL     1       1.333  68.590 -37.583  1.00  0.00    -0.005 C 
HETATM    5  C13 UNL     1       0.292  67.826 -36.705  1.00  0.00     0.021 C 
HETATM    6  C14 UNL     1       0.553  68.983 -38.831  1.00  0.00    -0.000 C 
HETATM    7  C15 UNL     1       0.482  68.149 -39.903  1.00  0.00    -0.060 C 
HETATM    8  C16 UNL     1       1.243  66.818 -39.912  1.00  0.00     0.036 C 
HETATM    9  C17 UNL     1       2.143  66.493 -38.702  1.00  0.00     0.015 C 
HETATM   10  C18 UNL     1       2.620  67.763 -37.987  1.00  0.00    -0.028 C 
HETATM   11  C19 UNL     1       3.563  68.539 -38.952  1.00  0.00     0.016 C 
HETATM   12  C20 UNL     1      -0.314  68.501 -41.189  1.00  0.00    -0.014 C 
HETATM   13  C21 UNL     1       0.706  69.169 -42.140  1.00  0.00     0.020 C 
HETATM   14  C22 UNL     1      -0.902  67.237 -41.870  1.00  0.00     0.021 C 
HETATM   15  C23 UNL     1      -1.817  67.547 -43.044  1.00  0.00     0.080 C 
HETATM   16  C24 UNL     1      -2.963  68.415 -42.591  1.00  0.00     0.135 C 
HETATM   17  O4  UNL     1      -4.120  68.099 -42.868  1.00  0.00    -0.297 OA
HETATM   18  C25 UNL     1      -2.614  69.718 -41.855  1.00  0.00     0.018 C 
HETATM   19  C26 UNL     1      -3.901  70.224 -41.154  1.00  0.00     0.023 C 
HETATM   20  C27 UNL     1      -2.229  70.775 -42.899  1.00  0.00     0.023 C 
HETATM   21  C28 UNL     1      -1.519  69.417 -40.772  1.00  0.00     0.020 C 
HETATM   22  C29 UNL     1      -0.999  70.666 -40.055  1.00  0.00     0.090 C 
HETATM   23  C30 UNL     1      -0.176  70.295 -38.843  1.00  0.00     0.157 C 
HETATM   24  O5  UNL     1      -0.098  71.079 -37.900  1.00  0.00    -0.293 OA
ENDROOT
BRANCH   1  25
HETATM   25  C2  UNL     1       4.763  67.018 -36.443  1.00  0.00    -0.014 C 
HETATM   26  C1  UNL     1       5.036  65.611 -36.983  1.00  0.00     0.010 C 
BRANCH  25  27
HETATM   27  C3  UNL     1       5.263  67.169 -34.986  1.00  0.00     0.007 C 
BRANCH  27  28
HETATM   28  C4  UNL     1       5.804  65.875 -34.350  1.00  0.00     0.035 C 
BRANCH  28  29
HETATM   29  C5  UNL     1       4.902  65.285 -33.255  1.00  0.00     0.154 C 
BRANCH  29  30
HETATM   30  O1  UNL     1       5.598  65.345 -32.001  1.00  0.00    -0.392 OA
HETATM   31  H10 UNL     1       5.053  64.802 -31.393  1.00  0.00     0.210 HD
ENDBRANCH  29  30
BRANCH  29  32
HETATM   32  C6  UNL     1       4.455  63.820 -33.502  1.00  0.00     0.101 C 
HETATM   33  C7  UNL     1       3.988  63.112 -32.224  1.00  0.00     0.051 C 
BRANCH  32  34
HETATM   34  O2  UNL     1       3.298  63.888 -34.372  1.00  0.00    -0.385 OA
HETATM   35  H14 UNL     1       3.269  63.022 -34.832  1.00  0.00     0.210 HD
ENDBRANCH  32  34
BRANCH  32  36
HETATM   36  C8  UNL     1       5.543  63.006 -34.229  1.00  0.00     0.204 C 
BRANCH  36  37
HETATM   37  O3  UNL     1       6.532  62.571 -33.290  1.00  0.00    -0.398 OA
HETATM   38  H17 UNL     1       7.167  63.300 -33.174  1.00  0.00     0.209 HD
ENDBRANCH  36  37
ENDBRANCH  32  36
ENDBRANCH  29  32
ENDBRANCH  28  29
ENDBRANCH  27  28
ENDBRANCH  25  27
ENDBRANCH   1  25
TORSDOF 9
ENDMDL
MODEL 6
REMARK minimizedAffinity -7.64045095
REMARK CNNscore 0.488273978
REMARK CNNaffinity 5.80545425
REMARK  9 active torsions:
REMARK  status: ('A' for Active; 'I' for Inactive)
REMARK    1  A    between atoms: C2_2  and  C3_3 
REMARK    2  A    between atoms: C2_2  and  C9_12 
REMARK    3  A    between atoms: C3_3  and  C4_4 
REMARK    4  A    between atoms: C4_4  and  C5_5 
REMARK    5  A    between atoms: C5_5  and  O1_6 
REMARK    6  A    between atoms: C5_5  and  C6_7 
REMARK    7  A    between atoms: C6_7  and  O2_9 
REMARK    8  A    between atoms: C6_7  and  C8_10 
REMARK    9  A    between atoms: C8_10  and  O3_11 
ROOT
HETATM    1  C9  UNL     1       5.630  67.923 -36.256  1.00  0.00    -0.002 C 
HETATM    2  C10 UNL     1       6.593  67.703 -37.455  1.00  0.00     0.007 C 
HETATM    3  C11 UNL     1       5.768  67.917 -38.740  1.00  0.00     0.015 C 
HETATM    4  C12 UNL     1       4.492  68.649 -38.281  1.00  0.00    -0.005 C 
HETATM    5  C13 UNL     1       4.861  70.160 -38.149  1.00  0.00     0.021 C 
HETATM    6  C14 UNL     1       3.235  68.645 -39.140  1.00  0.00    -0.000 C 
HETATM    7  C15 UNL     1       2.002  68.745 -38.575  1.00  0.00    -0.060 C 
HETATM    8  C16 UNL     1       1.840  68.794 -37.051  1.00  0.00     0.036 C 
HETATM    9  C17 UNL     1       3.109  68.655 -36.186  1.00  0.00     0.015 C 
HETATM   10  C18 UNL     1       4.219  67.894 -36.918  1.00  0.00    -0.028 C 
HETATM   11  C19 UNL     1       3.748  66.424 -37.122  1.00  0.00     0.016 C 
HETATM   12  C20 UNL     1       0.694  68.760 -39.413  1.00  0.00    -0.014 C 
HETATM   13  C21 UNL     1       0.227  67.287 -39.483  1.00  0.00     0.020 C 
HETATM   14  C22 UNL     1      -0.411  69.619 -38.743  1.00  0.00     0.021 C 
HETATM   15  C23 UNL     1      -1.655  69.789 -39.602  1.00  0.00     0.080 C 
HETATM   16  C24 UNL     1      -1.291  70.430 -40.917  1.00  0.00     0.135 C 
HETATM   17  O4  UNL     1      -1.916  71.412 -41.315  1.00  0.00    -0.297 OA
HETATM   18  C25 UNL     1      -0.184  69.760 -41.745  1.00  0.00     0.018 C 
HETATM   19  C26 UNL     1       0.285  70.778 -42.817  1.00  0.00     0.023 C 
HETATM   20  C27 UNL     1      -0.794  68.568 -42.497  1.00  0.00     0.023 C 
HETATM   21  C28 UNL     1       1.022  69.411 -40.803  1.00  0.00     0.020 C 
HETATM   22  C29 UNL     1       2.139  68.625 -41.494  1.00  0.00     0.090 C 
HETATM   23  C30 UNL     1       3.379  68.572 -40.632  1.00  0.00     0.157 C 
HETATM   24  O5  UNL     1       4.481  68.447 -41.163  1.00  0.00    -0.293 OA
ENDROOT
BRANCH   1  25
HETATM   25  C2  UNL     1       6.000  67.088 -34.991  1.00  0.00    -0.014 C 
HETATM   26  C1  UNL     1       6.663  67.846 -33.837  1.00  0.00     0.010 C 
BRANCH  25  27
HETATM   27  C3  UNL     1       6.804  65.820 -35.367  1.00  0.00     0.007 C 
BRANCH  27  28
HETATM   28  C4  UNL     1       6.774  64.698 -34.312  1.00  0.00     0.035 C 
BRANCH  28  29
HETATM   29  C5  UNL     1       5.735  63.601 -34.587  1.00  0.00     0.154 C 
BRANCH  29  30
HETATM   30  O1  UNL     1       5.434  63.590 -35.991  1.00  0.00    -0.392 OA
HETATM   31  H10 UNL     1       4.651  63.005 -36.068  1.00  0.00     0.210 HD
ENDBRANCH  29  30
BRANCH  29  32
HETATM   32  C6  UNL     1       4.407  63.752 -33.799  1.00  0.00     0.101 C 
HETATM   33  C7  UNL     1       4.518  64.725 -32.617  1.00  0.00     0.051 C 
BRANCH  32  34
HETATM   34  O2  UNL     1       3.452  64.340 -34.717  1.00  0.00    -0.385 OA
HETATM   35  H14 UNL     1       2.571  64.072 -34.380  1.00  0.00     0.210 HD
ENDBRANCH  32  34
BRANCH  32  36
HETATM   36  C8  UNL     1       3.850  62.386 -33.351  1.00  0.00     0.204 C 
BRANCH  36  37
HETATM   37  O3  UNL     1       4.100  62.194 -31.955  1.00  0.00    -0.398 OA
HETATM   38  H17 UNL     1       5.004  61.845 -31.865  1.00  0.00     0.209 HD
ENDBRANCH  36  37
ENDBRANCH  32  36
ENDBRANCH  29  32
ENDBRANCH  28  29
ENDBRANCH  27  28
ENDBRANCH  25  27
ENDBRANCH   1  25
TORSDOF 9
ENDMDL
MODEL 7
REMARK minimizedAffinity -9.6971674
REMARK CNNscore 0.476249248
REMARK CNNaffinity 7.1257267
REMARK  9 active torsions:
REMARK  status: ('A' for Active; 'I' for Inactive)
REMARK    1  A    between atoms: C2_2  and  C3_3 
REMARK    2  A    between atoms: C2_2  and  C9_12 
REMARK    3  A    between atoms: C3_3  and  C4_4 
REMARK    4  A    between atoms: C4_4  and  C5_5 
REMARK    5  A    between atoms: C5_5  and  O1_6 
REMARK    6  A    between atoms: C5_5  and  C6_7 
REMARK    7  A    between atoms: C6_7  and  O2_9 
REMARK    8  A    between atoms: C6_7  and  C8_10 
REMARK    9  A    between atoms: C8_10  and  O3_11 
ROOT
HETATM    1  C9  UNL     1      -1.305  50.722 -23.003  1.00  0.00    -0.002 C 
HETATM    2  C10 UNL     1      -0.822  52.188 -23.181  1.00  0.00     0.007 C 
HETATM    3  C11 UNL     1      -0.285  52.655 -21.814  1.00  0.00     0.015 C 
HETATM    4  C12 UNL     1      -0.077  51.361 -21.001  1.00  0.00    -0.005 C 
HETATM    5  C13 UNL     1       1.294  50.763 -21.446  1.00  0.00     0.021 C 
HETATM    6  C14 UNL     1       0.004  51.396 -19.481  1.00  0.00    -0.000 C 
HETATM    7  C15 UNL     1      -0.387  50.328 -18.735  1.00  0.00    -0.060 C 
HETATM    8  C16 UNL     1      -0.988  49.085 -19.401  1.00  0.00     0.036 C 
HETATM    9  C17 UNL     1      -1.198  49.116 -20.929  1.00  0.00     0.015 C 
HETATM   10  C18 UNL     1      -1.355  50.546 -21.456  1.00  0.00    -0.028 C 
HETATM   11  C19 UNL     1      -2.682  51.130 -20.888  1.00  0.00     0.016 C 
HETATM   12  C20 UNL     1      -0.306  50.314 -17.184  1.00  0.00    -0.014 C 
HETATM   13  C21 UNL     1      -1.688  50.801 -16.690  1.00  0.00     0.020 C 
HETATM   14  C22 UNL     1      -0.035  48.889 -16.633  1.00  0.00     0.021 C 
HETATM   15  C23 UNL     1       0.206  48.851 -15.132  1.00  0.00     0.080 C 
HETATM   16  C24 UNL     1       1.380  49.727 -14.775  1.00  0.00     0.135 C 
HETATM   17  O4  UNL     1       2.289  49.281 -14.075  1.00  0.00    -0.297 OA
HETATM   18  C25 UNL     1       1.343  51.187 -15.252  1.00  0.00     0.018 C 
HETATM   19  C26 UNL     1       2.778  51.761 -15.128  1.00  0.00     0.023 C 
HETATM   20  C27 UNL     1       0.455  51.988 -14.289  1.00  0.00     0.023 C 
HETATM   21  C28 UNL     1       0.901  51.223 -16.758  1.00  0.00     0.020 C 
HETATM   22  C29 UNL     1       0.707  52.637 -17.311  1.00  0.00     0.090 C 
HETATM   23  C30 UNL     1       0.568  52.617 -18.816  1.00  0.00     0.157 C 
HETATM   24  O5  UNL     1       0.896  53.607 -19.467  1.00  0.00    -0.293 OA
ENDROOT
BRANCH   1  25
HETATM   25  C2  UNL     1      -2.482  50.329 -23.949  1.00  0.00    -0.014 C 
HETATM   26  C1  UNL     1      -3.069  48.926 -23.768  1.00  0.00     0.010 C 
BRANCH  25  27
HETATM   27  C3  UNL     1      -2.132  50.607 -25.431  1.00  0.00     0.007 C 
BRANCH  27  28
HETATM   28  C4  UNL     1      -2.448  52.035 -25.914  1.00  0.00     0.035 C 
BRANCH  28  29
HETATM   29  C5  UNL     1      -2.006  52.325 -27.356  1.00  0.00     0.154 C 
BRANCH  29  30
HETATM   30  O1  UNL     1      -2.277  51.170 -28.164  1.00  0.00    -0.392 OA
HETATM   31  H10 UNL     1      -1.818  51.351 -29.011  1.00  0.00     0.210 HD
ENDBRANCH  29  30
BRANCH  29  32
HETATM   32  C6  UNL     1      -0.508  52.698 -27.514  1.00  0.00     0.101 C 
HETATM   33  C7  UNL     1       0.396  51.475 -27.717  1.00  0.00     0.051 C 
BRANCH  32  34
HETATM   34  O2  UNL     1      -0.408  53.480 -28.729  1.00  0.00    -0.385 OA
HETATM   35  H14 UNL     1       0.399  54.026 -28.620  1.00  0.00     0.210 HD
ENDBRANCH  32  34
BRANCH  32  36
HETATM   36  C8  UNL     1      -0.012  53.575 -26.347  1.00  0.00     0.204 C 
BRANCH  36  37
HETATM   37  O3  UNL     1       0.079  54.939 -26.772  1.00  0.00    -0.398 OA
HETATM   38  H17 UNL     1       0.940  55.053 -27.212  1.00  0.00     0.209 HD
ENDBRANCH  36  37
ENDBRANCH  32  36
ENDBRANCH  29  32
ENDBRANCH  28  29
ENDBRANCH  27  28
ENDBRANCH  25  27
ENDBRANCH   1  25
TORSDOF 9
ENDMDL
MODEL 8
REMARK minimizedAffinity -9.09790993
REMARK CNNscore 0.353653908
REMARK CNNaffinity 6.81677294
REMARK  9 active torsions:
REMARK  status: ('A' for Active; 'I' for Inactive)
REMARK    1  A    between atoms: C2_2  and  C3_3 
REMARK    2  A    between atoms: C2_2  and  C9_12 
REMARK    3  A    between atoms: C3_3  and  C4_4 
REMARK    4  A    between atoms: C4_4  and  C5_5 
REMARK    5  A    between atoms: C5_5  and  O1_6 
REMARK    6  A    between atoms: C5_5  and  C6_7 
REMARK    7  A    between atoms: C6_7  and  O2_9 
REMARK    8  A    between atoms: C6_7  and  C8_10 
REMARK    9  A    between atoms: C8_10  and  O3_11 
ROOT
HETATM    1  C9  UNL     1      -2.025  50.450 -22.603  1.00  0.00    -0.002 C 
HETATM    2  C10 UNL     1      -1.542  51.896 -22.904  1.00  0.00     0.007 C 
HETATM    3  C11 UNL     1      -0.833  52.408 -21.634  1.00  0.00     0.015 C 
HETATM    4  C12 UNL     1      -0.550  51.146 -20.796  1.00  0.00    -0.005 C 
HETATM    5  C13 UNL     1       0.746  50.498 -21.377  1.00  0.00     0.021 C 
HETATM    6  C14 UNL     1      -0.282  51.242 -19.300  1.00  0.00    -0.000 C 
HETATM    7  C15 UNL     1      -0.596  50.216 -18.465  1.00  0.00    -0.060 C 
HETATM    8  C16 UNL     1      -1.296  48.960 -18.997  1.00  0.00     0.036 C 
HETATM    9  C17 UNL     1      -1.691  48.930 -20.488  1.00  0.00     0.015 C 
HETATM   10  C18 UNL     1      -1.888  50.340 -21.055  1.00  0.00    -0.028 C 
HETATM   11  C19 UNL     1      -3.125  50.978 -20.357  1.00  0.00     0.016 C 
HETATM   12  C20 UNL     1      -0.326  50.265 -16.936  1.00  0.00    -0.014 C 
HETATM   13  C21 UNL     1      -1.629  50.803 -16.300  1.00  0.00     0.020 C 
HETATM   14  C22 UNL     1      -0.014  48.859 -16.360  1.00  0.00     0.021 C 
HETATM   15  C23 UNL     1       0.408  48.880 -14.899  1.00  0.00     0.080 C 
HETATM   16  C24 UNL     1       1.632  49.743 -14.727  1.00  0.00     0.135 C 
HETATM   17  O4  UNL     1       2.612  49.307 -14.124  1.00  0.00    -0.297 OA
HETATM   18  C25 UNL     1       1.561  51.182 -15.261  1.00  0.00     0.018 C 
HETATM   19  C26 UNL     1       3.011  51.729 -15.338  1.00  0.00     0.023 C 
HETATM   20  C27 UNL     1       0.812  52.044 -14.234  1.00  0.00     0.023 C 
HETATM   21  C28 UNL     1       0.939  51.164 -16.701  1.00  0.00     0.020 C 
HETATM   22  C29 UNL     1       0.702  52.558 -17.289  1.00  0.00     0.090 C 
HETATM   23  C30 UNL     1       0.380  52.478 -18.764  1.00  0.00     0.157 C 
HETATM   24  O5  UNL     1       0.642  53.431 -19.494  1.00  0.00    -0.293 OA
ENDROOT
BRANCH   1  25
HETATM   25  C2  UNL     1      -3.315  50.044 -23.380  1.00  0.00    -0.014 C 
HETATM   26  C1  UNL     1      -4.628  50.070 -22.593  1.00  0.00     0.010 C 
BRANCH  25  27
HETATM   27  C3  UNL     1      -3.129  48.697 -24.119  1.00  0.00     0.007 C 
BRANCH  27  28
HETATM   28  C4  UNL     1      -2.659  48.819 -25.581  1.00  0.00     0.035 C 
BRANCH  28  29
HETATM   29  C5  UNL     1      -3.199  50.055 -26.316  1.00  0.00     0.154 C 
BRANCH  29  30
HETATM   30  O1  UNL     1      -4.067  49.621 -27.374  1.00  0.00    -0.392 OA
HETATM   31  H10 UNL     1      -4.230  50.430 -27.903  1.00  0.00     0.210 HD
ENDBRANCH  29  30
BRANCH  29  32
HETATM   32  C6  UNL     1      -2.109  50.979 -26.920  1.00  0.00     0.101 C 
HETATM   33  C7  UNL     1      -0.686  50.580 -26.505  1.00  0.00     0.051 C 
BRANCH  32  34
HETATM   34  O2  UNL     1      -2.175  50.803 -28.356  1.00  0.00    -0.385 OA
HETATM   35  H14 UNL     1      -1.805  51.628 -28.736  1.00  0.00     0.210 HD
ENDBRANCH  32  34
BRANCH  32  36
HETATM   36  C8  UNL     1      -2.386  52.465 -26.615  1.00  0.00     0.204 C 
BRANCH  36  37
HETATM   37  O3  UNL     1      -3.558  52.581 -25.801  1.00  0.00    -0.398 OA
HETATM   38  H17 UNL     1      -4.330  52.568 -26.395  1.00  0.00     0.209 HD
ENDBRANCH  36  37
ENDBRANCH  32  36
ENDBRANCH  29  32
ENDBRANCH  28  29
ENDBRANCH  27  28
ENDBRANCH  25  27
ENDBRANCH   1  25
TORSDOF 9
ENDMDL
MODEL 9
REMARK minimizedAffinity -7.39677954
REMARK CNNscore 0.339752406
REMARK CNNaffinity 5.89976311
REMARK  9 active torsions:
REMARK  status: ('A' for Active; 'I' for Inactive)
REMARK    1  A    between atoms: C2_2  and  C3_3 
REMARK    2  A    between atoms: C2_2  and  C9_12 
REMARK    3  A    between atoms: C3_3  and  C4_4 
REMARK    4  A    between atoms: C4_4  and  C5_5 
REMARK    5  A    between atoms: C5_5  and  O1_6 
REMARK    6  A    between atoms: C5_5  and  C6_7 
REMARK    7  A    between atoms: C6_7  and  O2_9 
REMARK    8  A    between atoms: C6_7  and  C8_10 
REMARK    9  A    between atoms: C8_10  and  O3_11 
ROOT
HETATM    1  C9  UNL     1     -12.951  45.691 -27.019  1.00  0.00    -0.002 C 
HETATM    2  C10 UNL     1     -13.512  44.677 -28.054  1.00  0.00     0.007 C 
HETATM    3  C11 UNL     1     -12.508  44.623 -29.222  1.00  0.00     0.015 C 
HETATM    4  C12 UNL     1     -11.217  45.261 -28.672  1.00  0.00    -0.005 C 
HETATM    5  C13 UNL     1     -10.478  44.154 -27.857  1.00  0.00     0.021 C 
HETATM    6  C14 UNL     1     -10.152  45.808 -29.612  1.00  0.00    -0.000 C 
HETATM    7  C15 UNL     1      -9.344  46.834 -29.232  1.00  0.00    -0.060 C 
HETATM    8  C16 UNL     1      -9.531  47.516 -27.872  1.00  0.00     0.036 C 
HETATM    9  C17 UNL     1     -10.704  47.049 -26.986  1.00  0.00     0.015 C 
HETATM   10  C18 UNL     1     -11.838  46.437 -27.815  1.00  0.00    -0.028 C 
HETATM   11  C19 UNL     1     -12.463  47.563 -28.691  1.00  0.00     0.016 C 
HETATM   12  C20 UNL     1      -8.234  47.413 -30.152  1.00  0.00    -0.014 C 
HETATM   13  C21 UNL     1      -8.893  48.590 -30.909  1.00  0.00     0.020 C 
HETATM   14  C22 UNL     1      -7.024  47.938 -29.337  1.00  0.00     0.021 C 
HETATM   15  C23 UNL     1      -5.849  48.372 -30.200  1.00  0.00     0.080 C 
HETATM   16  C24 UNL     1      -5.380  47.220 -31.051  1.00  0.00     0.135 C 
HETATM   17  O4  UNL     1      -4.188  46.915 -31.071  1.00  0.00    -0.297 OA
HETATM   18  C25 UNL     1      -6.429  46.517 -31.927  1.00  0.00     0.018 C 
HETATM   19  C26 UNL     1      -5.831  45.162 -32.385  1.00  0.00     0.023 C 
HETATM   20  C27 UNL     1      -6.647  47.360 -33.192  1.00  0.00     0.023 C 
HETATM   21  C28 UNL     1      -7.717  46.250 -31.071  1.00  0.00     0.020 C 
HETATM   22  C29 UNL     1      -8.882  45.664 -31.873  1.00  0.00     0.090 C 
HETATM   23  C30 UNL     1      -9.975  45.165 -30.957  1.00  0.00     0.157 C 
HETATM   24  O5  UNL     1     -10.716  44.259 -31.334  1.00  0.00    -0.293 OA
ENDROOT
BRANCH   1  25
HETATM   25  C2  UNL     1     -14.055  46.425 -26.196  1.00  0.00    -0.014 C 
HETATM   26  C1  UNL     1     -13.859  46.479 -24.678  1.00  0.00     0.010 C 
BRANCH  25  27
HETATM   27  C3  UNL     1     -15.468  45.912 -26.564  1.00  0.00     0.007 C 
BRANCH  27  28
HETATM   28  C4  UNL     1     -16.552  46.185 -25.504  1.00  0.00     0.035 C 
BRANCH  28  29
HETATM   29  C5  UNL     1     -17.823  45.340 -25.669  1.00  0.00     0.154 C 
BRANCH  29  30
HETATM   30  O1  UNL     1     -18.372  45.580 -26.974  1.00  0.00    -0.392 OA
HETATM   31  H10 UNL     1     -19.257  45.160 -26.948  1.00  0.00     0.210 HD
ENDBRANCH  29  30
BRANCH  29  32
HETATM   32  C6  UNL     1     -18.927  45.613 -24.613  1.00  0.00     0.101 C 
HETATM   33  C7  UNL     1     -18.403  46.357 -23.377  1.00  0.00     0.051 C 
BRANCH  32  34
HETATM   34  O2  UNL     1     -19.884  46.499 -25.242  1.00  0.00    -0.385 OA
HETATM   35  H14 UNL     1     -20.727  46.352 -24.764  1.00  0.00     0.210 HD
ENDBRANCH  32  34
BRANCH  32  36
HETATM   36  C8  UNL     1     -19.671  44.322 -24.217  1.00  0.00     0.204 C 
BRANCH  36  37
HETATM   37  O3  UNL     1     -20.865  44.651 -23.499  1.00  0.00    -0.398 OA
HETATM   38  H17 UNL     1     -20.618  44.784 -22.567  1.00  0.00     0.209 HD
ENDBRANCH  36  37
ENDBRANCH  32  36
ENDBRANCH  29  32
ENDBRANCH  28  29
ENDBRANCH  27  28
ENDBRANCH  25  27
ENDBRANCH   1  25
TORSDOF 9
ENDMDL
