MODEL 1
REMARK minimizedAffinity -7.99075651
REMARK CNNscore 0.434105575
REMARK CNNaffinity 6.87285233
REMARK  0 active torsions:
REMARK  status: ('A' for Active; 'I' for Inactive)
ROOT
HETATM    1  C1  UNL     1       3.009  56.610  -5.116  1.00  0.00     0.023 C 
HETATM    2  C2  UNL     1       3.022  56.930  -6.620  1.00  0.00     0.017 C 
HETATM    3  C3  UNL     1       2.722  58.445  -6.769  1.00  0.00     0.023 C 
HETATM    4  C4  UNL     1       4.451  56.693  -7.142  1.00  0.00     0.135 C 
HETATM    5  O1  UNL     1       5.294  57.593  -7.179  1.00  0.00    -0.297 OA
HETATM    6  C5  UNL     1       4.854  55.283  -7.494  1.00  0.00     0.080 C 
HETATM    7  C6  UNL     1       3.800  54.607  -8.362  1.00  0.00     0.017 C 
HETATM    8  C7  UNL     1       2.360  54.610  -7.762  1.00  0.00    -0.035 C 
HETATM    9  C8  UNL     1       2.405  53.737  -6.476  1.00  0.00     0.016 C 
HETATM   10  C9  UNL     1       1.996  56.109  -7.483  1.00  0.00     0.009 C 
HETATM   11  C10 UNL     1       0.540  56.237  -6.999  1.00  0.00     0.007 C 
HETATM   12  C11 UNL     1      -0.425  55.761  -8.079  1.00  0.00     0.011 C 
HETATM   13  C12 UNL     1      -0.254  54.281  -8.513  1.00  0.00    -0.032 C 
HETATM   14  C13 UNL     1      -0.712  53.395  -7.319  1.00  0.00     0.016 C 
HETATM   15  C14 UNL     1       1.292  53.949  -8.786  1.00  0.00     0.003 C 
HETATM   16  C15 UNL     1       1.642  54.174 -10.268  1.00  0.00     0.006 C 
HETATM   17  C16 UNL     1       0.813  53.320 -11.232  1.00  0.00     0.006 C 
HETATM   18  C17 UNL     1      -0.518  52.817 -10.665  1.00  0.00    -0.000 C 
HETATM   19  C18 UNL     1      -1.446  52.238 -11.766  1.00  0.00     0.009 C 
HETATM   20  C19 UNL     1      -0.973  51.058 -12.646  1.00  0.00     0.067 A 
HETATM   21  C20 UNL     1      -2.306  50.369 -13.079  1.00  0.00     0.140 A 
HETATM   22  C21 UNL     1      -3.445  51.123 -12.382  1.00  0.00     0.042 C 
HETATM   23  C22 UNL     1      -2.765  51.715 -11.146  1.00  0.00    -0.037 C 
HETATM   24  C23 UNL     1      -2.587  50.585 -10.098  1.00  0.00     0.015 C 
HETATM   25  C24 UNL     1      -3.513  52.901 -10.529  1.00  0.00     0.010 C 
HETATM   26  C25 UNL     1      -2.675  53.549  -9.413  1.00  0.00     0.011 C 
HETATM   27  C26 UNL     1      -1.209  53.958  -9.824  1.00  0.00    -0.032 C 
HETATM   28  C27 UNL     1      -1.408  55.221 -10.730  1.00  0.00     0.016 C 
HETATM   29  O2  UNL     1      -2.469  50.467 -14.500  1.00  0.00    -0.313 OA
HETATM   30  C28 UNL     1      -1.366  51.038 -15.057  1.00  0.00     0.297 A 
HETATM   31  O3  UNL     1      -1.184  51.214 -16.251  1.00  0.00    -0.262 OA
HETATM   32  C29 UNL     1      -0.407  51.361 -13.990  1.00  0.00     0.175 A 
HETATM   33  C30 UNL     1       1.079  51.316 -14.251  1.00  0.00     0.218 A 
HETATM   34  O4  UNL     1       0.363  52.553 -14.137  1.00  0.00    -0.364 OA
ENDROOT
TORSDOF 0
ENDMDL
MODEL 2
REMARK minimizedAffinity -6.86974716
REMARK CNNscore 0.428960115
REMARK CNNaffinity 6.39218903
REMARK  0 active torsions:
REMARK  status: ('A' for Active; 'I' for Inactive)
ROOT
HETATM    1  C1  UNL     1      -3.941  49.197 -12.380  1.00  0.00     0.023 C 
HETATM    2  C2  UNL     1      -2.465  48.964 -12.017  1.00  0.00     0.017 C 
HETATM    3  C3  UNL     1      -2.383  47.594 -11.292  1.00  0.00     0.023 C 
HETATM    4  C4  UNL     1      -1.669  48.835 -13.328  1.00  0.00     0.135 C 
HETATM    5  O1  UNL     1      -1.468  47.746 -13.869  1.00  0.00    -0.297 OA
HETATM    6  C5  UNL     1      -1.240  50.102 -14.025  1.00  0.00     0.080 C 
HETATM    7  C6  UNL     1      -0.598  51.080 -13.050  1.00  0.00     0.017 C 
HETATM    8  C7  UNL     1      -1.471  51.433 -11.806  1.00  0.00    -0.035 C 
HETATM    9  C8  UNL     1      -2.721  52.193 -12.333  1.00  0.00     0.016 C 
HETATM   10  C9  UNL     1      -1.821  50.073 -11.107  1.00  0.00     0.009 C 
HETATM   11  C10 UNL     1      -2.585  50.315  -9.792  1.00  0.00     0.007 C 
HETATM   12  C11 UNL     1      -1.718  51.088  -8.806  1.00  0.00     0.011 C 
HETATM   13  C12 UNL     1      -1.254  52.488  -9.287  1.00  0.00    -0.032 C 
HETATM   14  C13 UNL     1      -2.514  53.402  -9.327  1.00  0.00     0.016 C 
HETATM   15  C14 UNL     1      -0.679  52.408 -10.784  1.00  0.00     0.003 C 
HETATM   16  C15 UNL     1       0.843  52.175 -10.767  1.00  0.00     0.006 C 
HETATM   17  C16 UNL     1       1.625  53.268 -10.034  1.00  0.00     0.006 C 
HETATM   18  C17 UNL     1       0.806  54.079  -9.025  1.00  0.00    -0.000 C 
HETATM   19  C18 UNL     1       1.702  54.942  -8.097  1.00  0.00     0.009 C 
HETATM   20  C19 UNL     1       2.661  55.996  -8.696  1.00  0.00     0.067 A 
HETATM   21  C20 UNL     1       2.822  57.038  -7.544  1.00  0.00     0.140 A 
HETATM   22  C21 UNL     1       1.911  56.582  -6.399  1.00  0.00     0.042 C 
HETATM   23  C22 UNL     1       0.834  55.766  -7.116  1.00  0.00    -0.037 C 
HETATM   24  C23 UNL     1      -0.155  56.751  -7.793  1.00  0.00     0.015 C 
HETATM   25  C24 UNL     1       0.077  54.794  -6.205  1.00  0.00     0.010 C 
HETATM   26  C25 UNL     1      -0.851  53.888  -7.032  1.00  0.00     0.011 C 
HETATM   27  C26 UNL     1      -0.159  53.123  -8.223  1.00  0.00    -0.032 C 
HETATM   28  C27 UNL     1       0.687  52.008  -7.518  1.00  0.00     0.016 C 
HETATM   29  O2  UNL     1       4.183  57.062  -7.092  1.00  0.00    -0.313 OA
HETATM   30  C28 UNL     1       4.946  56.246  -7.869  1.00  0.00     0.297 A 
HETATM   31  O3  UNL     1       6.151  56.090  -7.763  1.00  0.00    -0.262 OA
HETATM   32  C29 UNL     1       4.090  55.623  -8.889  1.00  0.00     0.175 A 
HETATM   33  C30 UNL     1       4.642  55.281 -10.252  1.00  0.00     0.218 A 
HETATM   34  O4  UNL     1       4.384  54.277  -9.261  1.00  0.00    -0.364 OA
ENDROOT
TORSDOF 0
ENDMDL
MODEL 3
REMARK minimizedAffinity -8.32650471
REMARK CNNscore 0.427750438
REMARK CNNaffinity 5.77141333
REMARK  0 active torsions:
REMARK  status: ('A' for Active; 'I' for Inactive)
ROOT
HETATM    1  C1  UNL     1      -7.227  46.709 -19.252  1.00  0.00     0.023 C 
HETATM    2  C2  UNL     1      -7.937  47.546 -20.328  1.00  0.00     0.017 C 
HETATM    3  C3  UNL     1      -7.503  49.022 -20.121  1.00  0.00     0.023 C 
HETATM    4  C4  UNL     1      -7.404  47.102 -21.702  1.00  0.00     0.135 C 
HETATM    5  O1  UNL     1      -6.440  47.650 -22.242  1.00  0.00    -0.297 OA
HETATM    6  C5  UNL     1      -8.011  45.874 -22.336  1.00  0.00     0.080 C 
HETATM    7  C6  UNL     1      -9.533  45.923 -22.292  1.00  0.00     0.017 C 
HETATM    8  C7  UNL     1     -10.139  46.137 -20.870  1.00  0.00    -0.035 C 
HETATM    9  C8  UNL     1      -9.779  44.879 -20.031  1.00  0.00     0.016 C 
HETATM   10  C9  UNL     1      -9.508  47.459 -20.310  1.00  0.00     0.009 C 
HETATM   11  C10 UNL     1     -10.131  47.831 -18.953  1.00  0.00     0.007 C 
HETATM   12  C11 UNL     1     -11.622  48.107 -19.109  1.00  0.00     0.011 C 
HETATM   13  C12 UNL     1     -12.463  46.919 -19.648  1.00  0.00    -0.032 C 
HETATM   14  C13 UNL     1     -12.495  45.835 -18.532  1.00  0.00     0.016 C 
HETATM   15  C14 UNL     1     -11.753  46.262 -20.929  1.00  0.00     0.003 C 
HETATM   16  C15 UNL     1     -12.273  46.906 -22.227  1.00  0.00     0.006 C 
HETATM   17  C16 UNL     1     -13.786  46.768 -22.420  1.00  0.00     0.006 C 
HETATM   18  C17 UNL     1     -14.578  46.517 -21.133  1.00  0.00    -0.000 C 
HETATM   19  C18 UNL     1     -16.107  46.700 -21.338  1.00  0.00     0.009 C 
HETATM   20  C19 UNL     1     -16.862  45.851 -22.384  1.00  0.00     0.067 A 
HETATM   21  C20 UNL     1     -18.324  45.811 -21.835  1.00  0.00     0.140 A 
HETATM   22  C21 UNL     1     -18.317  46.557 -20.495  1.00  0.00     0.042 C 
HETATM   23  C22 UNL     1     -16.870  46.409 -20.022  1.00  0.00    -0.037 C 
HETATM   24  C23 UNL     1     -16.681  44.973 -19.466  1.00  0.00     0.015 C 
HETATM   25  C24 UNL     1     -16.445  47.445 -18.977  1.00  0.00     0.010 C 
HETATM   26  C25 UNL     1     -14.937  47.344 -18.695  1.00  0.00     0.011 C 
HETATM   27  C26 UNL     1     -14.008  47.414 -19.967  1.00  0.00    -0.032 C 
HETATM   28  C27 UNL     1     -14.065  48.919 -20.397  1.00  0.00     0.016 C 
HETATM   29  O2  UNL     1     -19.208  46.476 -22.747  1.00  0.00    -0.313 OA
HETATM   30  C28 UNL     1     -18.528  46.851 -23.865  1.00  0.00     0.297 A 
HETATM   31  O3  UNL     1     -19.015  47.395 -24.842  1.00  0.00    -0.262 OA
HETATM   32  C29 UNL     1     -17.122  46.446 -23.724  1.00  0.00     0.175 A 
HETATM   33  C30 UNL     1     -16.309  46.055 -24.935  1.00  0.00     0.218 A 
HETATM   34  O4  UNL     1     -16.130  47.314 -24.272  1.00  0.00    -0.364 OA
ENDROOT
TORSDOF 0
ENDMDL
MODEL 4
REMARK minimizedAffinity -7.07103014
REMARK CNNscore 0.418478876
REMARK CNNaffinity 5.34726954
REMARK  0 active torsions:
REMARK  status: ('A' for Active; 'I' for Inactive)
ROOT
HETATM    1  C1  UNL     1      -8.082  43.878 -29.437  1.00  0.00     0.023 C 
HETATM    2  C2  UNL     1      -9.336  44.610 -29.942  1.00  0.00     0.017 C 
HETATM    3  C3  UNL     1      -8.860  45.928 -30.609  1.00  0.00     0.023 C 
HETATM    4  C4  UNL     1      -9.978  43.746 -31.043  1.00  0.00     0.135 C 
HETATM    5  O1  UNL     1      -9.697  43.888 -32.236  1.00  0.00    -0.297 OA
HETATM    6  C5  UNL     1     -10.878  42.612 -30.622  1.00  0.00     0.080 C 
HETATM    7  C6  UNL     1     -11.889  43.066 -29.577  1.00  0.00     0.017 C 
HETATM    8  C7  UNL     1     -11.268  43.743 -28.317  1.00  0.00    -0.035 C 
HETATM    9  C8  UNL     1     -10.435  42.654 -27.583  1.00  0.00     0.016 C 
HETATM   10  C9  UNL     1     -10.403  44.943 -28.835  1.00  0.00     0.009 C 
HETATM   11  C10 UNL     1      -9.837  45.759 -27.658  1.00  0.00     0.007 C 
HETATM   12  C11 UNL     1     -10.969  46.374 -26.844  1.00  0.00     0.011 C 
HETATM   13  C12 UNL     1     -11.960  45.359 -26.215  1.00  0.00    -0.032 C 
HETATM   14  C13 UNL     1     -11.192  44.598 -25.096  1.00  0.00     0.016 C 
HETATM   15  C14 UNL     1     -12.417  44.270 -27.302  1.00  0.00     0.003 C 
HETATM   16  C15 UNL     1     -13.705  44.722 -28.014  1.00  0.00     0.006 C 
HETATM   17  C16 UNL     1     -14.886  44.945 -27.066  1.00  0.00     0.006 C 
HETATM   18  C17 UNL     1     -14.499  45.205 -25.607  1.00  0.00    -0.000 C 
HETATM   19  C18 UNL     1     -15.694  45.731 -24.766  1.00  0.00     0.009 C 
HETATM   20  C19 UNL     1     -16.989  44.898 -24.641  1.00  0.00     0.067 A 
HETATM   21  C20 UNL     1     -17.594  45.366 -23.279  1.00  0.00     0.140 A 
HETATM   22  C21 UNL     1     -16.602  46.363 -22.670  1.00  0.00     0.042 C 
HETATM   23  C22 UNL     1     -15.267  45.951 -23.294  1.00  0.00    -0.037 C 
HETATM   24  C23 UNL     1     -14.761  44.677 -22.567  1.00  0.00     0.015 C 
HETATM   25  C24 UNL     1     -14.196  47.046 -23.258  1.00  0.00     0.010 C 
HETATM   26  C25 UNL     1     -12.958  46.619 -24.064  1.00  0.00     0.011 C 
HETATM   27  C26 UNL     1     -13.244  46.157 -25.544  1.00  0.00    -0.032 C 
HETATM   28  C27 UNL     1     -13.567  47.490 -26.302  1.00  0.00     0.016 C 
HETATM   29  O2  UNL     1     -18.852  46.019 -23.500  1.00  0.00    -0.313 OA
HETATM   30  C28 UNL     1     -19.191  45.944 -24.816  1.00  0.00     0.297 A 
HETATM   31  O3  UNL     1     -20.225  46.364 -25.308  1.00  0.00    -0.262 OA
HETATM   32  C29 UNL     1     -18.131  45.226 -25.540  1.00  0.00     0.175 A 
HETATM   33  C30 UNL     1     -18.460  44.376 -26.744  1.00  0.00     0.218 A 
HETATM   34  O4  UNL     1     -17.832  45.660 -26.867  1.00  0.00    -0.364 OA
ENDROOT
TORSDOF 0
ENDMDL
MODEL 5
REMARK minimizedAffinity -10.7954226
REMARK CNNscore 0.408357173
REMARK CNNaffinity 6.9650569
REMARK  0 active torsions:
REMARK  status: ('A' for Active; 'I' for Inactive)
ROOT
HETATM    1  C1  UNL     1      -7.964  46.612 -20.312  1.00  0.00     0.023 C 
HETATM    2  C2  UNL     1      -7.421  47.901 -19.673  1.00  0.00     0.017 C 
HETATM    3  C3  UNL     1      -8.645  48.784 -19.311  1.00  0.00     0.023 C 
HETATM    4  C4  UNL     1      -6.726  47.520 -18.354  1.00  0.00     0.135 C 
HETATM    5  O1  UNL     1      -7.323  47.513 -17.275  1.00  0.00    -0.297 OA
HETATM    6  C5  UNL     1      -5.304  47.019 -18.420  1.00  0.00     0.080 C 
HETATM    7  C6  UNL     1      -4.440  47.920 -19.293  1.00  0.00     0.017 C 
HETATM    8  C7  UNL     1      -4.985  48.151 -20.736  1.00  0.00    -0.035 C 
HETATM    9  C8  UNL     1      -4.944  46.775 -21.460  1.00  0.00     0.016 C 
HETATM   10  C9  UNL     1      -6.435  48.727 -20.579  1.00  0.00     0.009 C 
HETATM   11  C10 UNL     1      -7.025  49.106 -21.949  1.00  0.00     0.007 C 
HETATM   12  C11 UNL     1      -6.199  50.210 -22.598  1.00  0.00     0.011 C 
HETATM   13  C12 UNL     1      -4.711  49.856 -22.863  1.00  0.00    -0.032 C 
HETATM   14  C13 UNL     1      -4.687  48.788 -23.994  1.00  0.00     0.016 C 
HETATM   15  C14 UNL     1      -4.052  49.186 -21.562  1.00  0.00     0.003 C 
HETATM   16  C15 UNL     1      -3.390  50.257 -20.677  1.00  0.00     0.006 C 
HETATM   17  C16 UNL     1      -2.292  51.052 -21.389  1.00  0.00     0.006 C 
HETATM   18  C17 UNL     1      -2.383  51.047 -22.919  1.00  0.00    -0.000 C 
HETATM   19  C18 UNL     1      -1.454  52.108 -23.568  1.00  0.00     0.009 C 
HETATM   20  C19 UNL     1       0.069  52.077 -23.309  1.00  0.00     0.067 A 
HETATM   21  C20 UNL     1       0.668  52.771 -24.573  1.00  0.00     0.140 A 
HETATM   22  C21 UNL     1      -0.507  53.090 -25.505  1.00  0.00     0.042 C 
HETATM   23  C22 UNL     1      -1.556  52.049 -25.111  1.00  0.00    -0.037 C 
HETATM   24  C23 UNL     1      -1.152  50.687 -25.737  1.00  0.00     0.015 C 
HETATM   25  C24 UNL     1      -2.986  52.418 -25.518  1.00  0.00     0.010 C 
HETATM   26  C25 UNL     1      -3.993  51.418 -24.925  1.00  0.00     0.011 C 
HETATM   27  C26 UNL     1      -3.888  51.198 -23.368  1.00  0.00    -0.032 C 
HETATM   28  C27 UNL     1      -4.480  52.514 -22.758  1.00  0.00     0.016 C 
HETATM   29  O2  UNL     1       1.324  53.990 -24.199  1.00  0.00    -0.313 OA
HETATM   30  C28 UNL     1       1.318  54.124 -22.844  1.00  0.00     0.297 A 
HETATM   31  O3  UNL     1       1.841  55.033 -22.219  1.00  0.00    -0.262 OA
HETATM   32  C29 UNL     1       0.626  52.969 -22.254  1.00  0.00     0.175 A 
HETATM   33  C30 UNL     1       1.032  52.438 -20.901  1.00  0.00     0.218 A 
HETATM   34  O4  UNL     1      -0.167  53.202 -21.090  1.00  0.00    -0.364 OA
ENDROOT
TORSDOF 0
ENDMDL
MODEL 6
REMARK minimizedAffinity -7.64589691
REMARK CNNscore 0.295665741
REMARK CNNaffinity 5.62960196
REMARK  0 active torsions:
REMARK  status: ('A' for Active; 'I' for Inactive)
ROOT
HETATM    1  C1  UNL     1     -19.166  43.679 -24.679  1.00  0.00     0.023 C 
HETATM    2  C2  UNL     1     -18.659  44.770 -25.637  1.00  0.00     0.017 C 
HETATM    3  C3  UNL     1     -19.552  44.718 -26.905  1.00  0.00     0.023 C 
HETATM    4  C4  UNL     1     -18.894  46.135 -24.967  1.00  0.00     0.135 C 
HETATM    5  O1  UNL     1     -19.928  46.785 -25.146  1.00  0.00    -0.297 OA
HETATM    6  C5  UNL     1     -17.877  46.620 -23.965  1.00  0.00     0.080 C 
HETATM    7  C6  UNL     1     -16.458  46.473 -24.501  1.00  0.00     0.017 C 
HETATM    8  C7  UNL     1     -16.085  45.036 -24.979  1.00  0.00    -0.035 C 
HETATM    9  C8  UNL     1     -16.108  44.122 -23.722  1.00  0.00     0.016 C 
HETATM   10  C9  UNL     1     -17.150  44.634 -26.058  1.00  0.00     0.009 C 
HETATM   11  C10 UNL     1     -16.804  43.273 -26.688  1.00  0.00     0.007 C 
HETATM   12  C11 UNL     1     -15.468  43.347 -27.418  1.00  0.00     0.011 C 
HETATM   13  C12 UNL     1     -14.249  43.724 -26.534  1.00  0.00    -0.032 C 
HETATM   14  C13 UNL     1     -13.982  42.522 -25.582  1.00  0.00     0.016 C 
HETATM   15  C14 UNL     1     -14.594  44.992 -25.611  1.00  0.00     0.003 C 
HETATM   16  C15 UNL     1     -14.185  46.300 -26.313  1.00  0.00     0.006 C 
HETATM   17  C16 UNL     1     -12.695  46.374 -26.656  1.00  0.00     0.006 C 
HETATM   18  C17 UNL     1     -11.987  45.019 -26.747  1.00  0.00    -0.000 C 
HETATM   19  C18 UNL     1     -10.582  45.130 -27.398  1.00  0.00     0.009 C 
HETATM   20  C19 UNL     1      -9.503  46.046 -26.777  1.00  0.00     0.067 A 
HETATM   21  C20 UNL     1      -8.161  45.395 -27.239  1.00  0.00     0.140 A 
HETATM   22  C21 UNL     1      -8.527  44.127 -28.018  1.00  0.00     0.042 C 
HETATM   23  C22 UNL     1      -9.892  43.745 -27.442  1.00  0.00    -0.037 C 
HETATM   24  C23 UNL     1      -9.669  43.085 -26.056  1.00  0.00     0.015 C 
HETATM   25  C24 UNL     1     -10.715  42.822 -28.346  1.00  0.00     0.010 C 
HETATM   26  C25 UNL     1     -12.135  42.640 -27.783  1.00  0.00     0.011 C 
HETATM   27  C26 UNL     1     -12.916  43.975 -27.478  1.00  0.00    -0.032 C 
HETATM   28  C27 UNL     1     -13.296  44.524 -28.895  1.00  0.00     0.016 C 
HETATM   29  O2  UNL     1      -7.450  46.295 -28.099  1.00  0.00    -0.313 OA
HETATM   30  C28 UNL     1      -8.106  47.486 -28.172  1.00  0.00     0.297 A 
HETATM   31  O3  UNL     1      -7.727  48.468 -28.787  1.00  0.00    -0.262 OA
HETATM   32  C29 UNL     1      -9.321  47.411 -27.347  1.00  0.00     0.175 A 
HETATM   33  C30 UNL     1      -9.853  48.638 -26.647  1.00  0.00     0.218 A 
HETATM   34  O4  UNL     1     -10.480  48.097 -27.818  1.00  0.00    -0.364 OA
ENDROOT
TORSDOF 0
ENDMDL
MODEL 7
REMARK minimizedAffinity -7.30365801
REMARK CNNscore 0.253409237
REMARK CNNaffinity 6.20650625
REMARK  0 active torsions:
REMARK  status: ('A' for Active; 'I' for Inactive)
ROOT
HETATM    1  C1  UNL     1       0.358  50.090 -12.501  1.00  0.00     0.023 C 
HETATM    2  C2  UNL     1       0.012  51.574 -12.299  1.00  0.00     0.017 C 
HETATM    3  C3  UNL     1      -0.083  52.219 -13.707  1.00  0.00     0.023 C 
HETATM    4  C4  UNL     1      -1.389  51.652 -11.665  1.00  0.00     0.135 C 
HETATM    5  O1  UNL     1      -2.413  51.745 -12.345  1.00  0.00    -0.297 OA
HETATM    6  C5  UNL     1      -1.502  51.479 -10.171  1.00  0.00     0.080 C 
HETATM    7  C6  UNL     1      -0.483  52.339  -9.435  1.00  0.00     0.017 C 
HETATM    8  C7  UNL     1       0.996  52.125  -9.879  1.00  0.00    -0.035 C 
HETATM    9  C8  UNL     1       1.380  50.670  -9.487  1.00  0.00     0.016 C 
HETATM   10  C9  UNL     1       1.040  52.383 -11.425  1.00  0.00     0.009 C 
HETATM   11  C10 UNL     1       2.485  52.316 -11.951  1.00  0.00     0.007 C 
HETATM   12  C11 UNL     1       3.335  53.409 -11.315  1.00  0.00     0.011 C 
HETATM   13  C12 UNL     1       3.446  53.347  -9.769  1.00  0.00    -0.032 C 
HETATM   14  C13 UNL     1       4.297  52.092  -9.418  1.00  0.00     0.016 C 
HETATM   15  C14 UNL     1       1.998  53.138  -9.108  1.00  0.00     0.003 C 
HETATM   16  C15 UNL     1       1.357  54.495  -8.768  1.00  0.00     0.006 C 
HETATM   17  C16 UNL     1       2.185  55.342  -7.797  1.00  0.00     0.006 C 
HETATM   18  C17 UNL     1       3.674  54.986  -7.743  1.00  0.00    -0.000 C 
HETATM   19  C18 UNL     1       4.510  56.062  -6.998  1.00  0.00     0.009 C 
HETATM   20  C19 UNL     1       4.185  56.427  -5.532  1.00  0.00     0.067 A 
HETATM   21  C20 UNL     1       5.548  56.947  -4.975  1.00  0.00     0.140 A 
HETATM   22  C21 UNL     1       6.579  56.787  -6.099  1.00  0.00     0.042 C 
HETATM   23  C22 UNL     1       6.001  55.649  -6.942  1.00  0.00    -0.037 C 
HETATM   24  C23 UNL     1       6.277  54.309  -6.208  1.00  0.00     0.015 C 
HETATM   25  C24 UNL     1       6.543  55.593  -8.373  1.00  0.00     0.010 C 
HETATM   26  C25 UNL     1       5.780  54.546  -9.201  1.00  0.00     0.011 C 
HETATM   27  C26 UNL     1       4.211  54.697  -9.198  1.00  0.00    -0.032 C 
HETATM   28  C27 UNL     1       3.948  55.948 -10.104  1.00  0.00     0.016 C 
HETATM   29  O2  UNL     1       5.437  58.333  -4.624  1.00  0.00    -0.313 OA
HETATM   30  C28 UNL     1       4.152  58.753  -4.783  1.00  0.00     0.297 A 
HETATM   31  O3  UNL     1       3.732  59.867  -4.521  1.00  0.00    -0.262 OA
HETATM   32  C29 UNL     1       3.342  57.628  -5.273  1.00  0.00     0.175 A 
HETATM   33  C30 UNL     1       1.886  57.505  -4.893  1.00  0.00     0.218 A 
HETATM   34  O4  UNL     1       2.299  57.924  -6.201  1.00  0.00    -0.364 OA
ENDROOT
TORSDOF 0
ENDMDL
MODEL 8
REMARK minimizedAffinity -7.405128
REMARK CNNscore 0.238338068
REMARK CNNaffinity 5.9204483
REMARK  0 active torsions:
REMARK  status: ('A' for Active; 'I' for Inactive)
ROOT
HETATM    1  C1  UNL     1      -6.578  47.181 -33.554  1.00  0.00     0.023 C 
HETATM    2  C2  UNL     1      -6.162  46.443 -32.272  1.00  0.00     0.017 C 
HETATM    3  C3  UNL     1      -5.621  45.052 -32.698  1.00  0.00     0.023 C 
HETATM    4  C4  UNL     1      -4.991  47.215 -31.639  1.00  0.00     0.135 C 
HETATM    5  O1  UNL     1      -3.814  46.949 -31.896  1.00  0.00    -0.297 OA
HETATM    6  C5  UNL     1      -5.311  48.413 -30.780  1.00  0.00     0.080 C 
HETATM    7  C6  UNL     1      -6.407  48.093 -29.772  1.00  0.00     0.017 C 
HETATM    8  C7  UNL     1      -7.720  47.523 -30.392  1.00  0.00    -0.035 C 
HETATM    9  C8  UNL     1      -8.333  48.652 -31.269  1.00  0.00     0.016 C 
HETATM   10  C9  UNL     1      -7.310  46.252 -31.213  1.00  0.00     0.009 C 
HETATM   11  C10 UNL     1      -8.553  45.537 -31.773  1.00  0.00     0.007 C 
HETATM   12  C11 UNL     1      -9.439  45.039 -30.636  1.00  0.00     0.011 C 
HETATM   13  C12 UNL     1      -9.978  46.141 -29.685  1.00  0.00    -0.032 C 
HETATM   14  C13 UNL     1     -11.007  46.983 -30.493  1.00  0.00     0.016 C 
HETATM   15  C14 UNL     1      -8.795  47.133 -29.244  1.00  0.00     0.003 C 
HETATM   16  C15 UNL     1      -8.147  46.654 -27.933  1.00  0.00     0.006 C 
HETATM   17  C16 UNL     1      -9.128  46.561 -26.760  1.00  0.00     0.006 C 
HETATM   18  C17 UNL     1     -10.601  46.432 -27.162  1.00  0.00    -0.000 C 
HETATM   19  C18 UNL     1     -11.504  46.027 -25.965  1.00  0.00     0.009 C 
HETATM   20  C19 UNL     1     -11.564  46.908 -24.697  1.00  0.00     0.067 A 
HETATM   21  C20 UNL     1     -12.972  46.594 -24.101  1.00  0.00     0.140 A 
HETATM   22  C21 UNL     1     -13.662  45.630 -25.072  1.00  0.00     0.042 C 
HETATM   23  C22 UNL     1     -12.985  45.937 -26.409  1.00  0.00    -0.037 C 
HETATM   24  C23 UNL     1     -13.577  47.260 -26.964  1.00  0.00     0.015 C 
HETATM   25  C24 UNL     1     -13.113  44.819 -27.447  1.00  0.00     0.010 C 
HETATM   26  C25 UNL     1     -12.254  45.127 -28.685  1.00  0.00     0.011 C 
HETATM   27  C26 UNL     1     -10.740  45.452 -28.389  1.00  0.00    -0.032 C 
HETATM   28  C27 UNL     1     -10.119  44.063 -28.015  1.00  0.00     0.016 C 
HETATM   29  O2  UNL     1     -12.832  45.962 -22.821  1.00  0.00    -0.313 OA
HETATM   30  C28 UNL     1     -11.519  45.919 -22.464  1.00  0.00     0.297 A 
HETATM   31  O3  UNL     1     -11.084  45.485 -21.410  1.00  0.00    -0.262 OA
HETATM   32  C29 UNL     1     -10.715  46.530 -23.533  1.00  0.00     0.175 A 
HETATM   33  C30 UNL     1      -9.439  47.269 -23.210  1.00  0.00     0.218 A 
HETATM   34  O4  UNL     1      -9.433  45.961 -23.798  1.00  0.00    -0.364 OA
ENDROOT
TORSDOF 0
ENDMDL
MODEL 9
REMARK minimizedAffinity -7.28854084
REMARK CNNscore 0.217553303
REMARK CNNaffinity 5.43493223
REMARK  0 active torsions:
REMARK  status: ('A' for Active; 'I' for Inactive)
ROOT
HETATM    1  C1  UNL     1      -6.244  46.331 -30.458  1.00  0.00     0.023 C 
HETATM    2  C2  UNL     1      -7.620  46.676 -31.051  1.00  0.00     0.017 C 
HETATM    3  C3  UNL     1      -7.537  48.129 -31.588  1.00  0.00     0.023 C 
HETATM    4  C4  UNL     1      -7.859  45.754 -32.261  1.00  0.00     0.135 C 
HETATM    5  O1  UNL     1      -7.541  46.081 -33.407  1.00  0.00    -0.297 OA
HETATM    6  C5  UNL     1      -8.380  44.363 -32.002  1.00  0.00     0.080 C 
HETATM    7  C6  UNL     1      -9.566  44.385 -31.047  1.00  0.00     0.017 C 
HETATM    8  C7  UNL     1      -9.301  45.109 -29.692  1.00  0.00    -0.035 C 
HETATM    9  C8  UNL     1      -8.227  44.276 -28.937  1.00  0.00     0.016 C 
HETATM   10  C9  UNL     1      -8.825  46.561 -30.047  1.00  0.00     0.009 C 
HETATM   11  C10 UNL     1      -8.649  47.406 -28.772  1.00  0.00     0.007 C 
HETATM   12  C11 UNL     1      -9.981  47.563 -28.048  1.00  0.00     0.011 C 
HETATM   13  C12 UNL     1     -10.645  46.238 -27.587  1.00  0.00    -0.032 C 
HETATM   14  C13 UNL     1      -9.768  45.660 -26.438  1.00  0.00     0.016 C 
HETATM   15  C14 UNL     1     -10.637  45.160 -28.777  1.00  0.00     0.003 C 
HETATM   16  C15 UNL     1     -11.939  45.247 -29.594  1.00  0.00     0.006 C 
HETATM   17  C16 UNL     1     -13.204  45.006 -28.766  1.00  0.00     0.006 C 
HETATM   18  C17 UNL     1     -13.042  45.245 -27.261  1.00  0.00    -0.000 C 
HETATM   19  C18 UNL     1     -14.407  45.296 -26.523  1.00  0.00     0.009 C 
HETATM   20  C19 UNL     1     -15.374  44.092 -26.584  1.00  0.00     0.067 A 
HETATM   21  C20 UNL     1     -16.207  44.227 -25.270  1.00  0.00     0.140 A 
HETATM   22  C21 UNL     1     -15.639  45.427 -24.503  1.00  0.00     0.042 C 
HETATM   23  C22 UNL     1     -14.196  45.509 -25.004  1.00  0.00    -0.037 C 
HETATM   24  C23 UNL     1     -13.371  44.399 -24.301  1.00  0.00     0.015 C 
HETATM   25  C24 UNL     1     -13.538  46.876 -24.793  1.00  0.00     0.010 C 
HETATM   26  C25 UNL     1     -12.166  46.930 -25.486  1.00  0.00     0.011 C 
HETATM   27  C26 UNL     1     -12.166  46.533 -27.012  1.00  0.00    -0.032 C 
HETATM   28  C27 UNL     1     -12.835  47.759 -27.723  1.00  0.00     0.016 C 
HETATM   29  O2  UNL     1     -17.585  44.470 -25.586  1.00  0.00    -0.313 OA
HETATM   30  C28 UNL     1     -17.772  44.408 -26.932  1.00  0.00     0.297 A 
HETATM   31  O3  UNL     1     -18.842  44.526 -27.506  1.00  0.00    -0.262 OA
HETATM   32  C29 UNL     1     -16.482  44.124 -27.579  1.00  0.00     0.175 A 
HETATM   33  C30 UNL     1     -16.422  43.323 -28.857  1.00  0.00     0.218 A 
HETATM   34  O4  UNL     1     -16.229  44.743 -28.840  1.00  0.00    -0.364 OA
ENDROOT
TORSDOF 0
ENDMDL
