MODEL 1
REMARK minimizedAffinity -10.0043488
REMARK CNNscore 0.822196662
REMARK CNNaffinity 7.39830828
REMARK  8 active torsions:
REMARK  status: ('A' for Active; 'I' for Inactive)
REMARK    1  A    between atoms: C2_2  and  C4_4 
REMARK    2  A    between atoms: C4_4  and  O1_6 
REMARK    3  A    between atoms: C4_4  and  C6_7 
REMARK    4  A    between atoms: C7_9  and  C8_10 
REMARK    5  A    between atoms: C8_10  and  O3_12 
REMARK    6  A    between atoms: C8_10  and  C10_13 
REMARK    7  A    between atoms: C17_20  and  O4_21 
REMARK    8  A    between atoms: C23_28  and  O6_29 
ROOT
HETATM    1  C10 UNL     1       0.713   6.068  11.932  1.00  0.00     0.034 C 
HETATM    2  C11 UNL     1       1.001   6.020  10.404  1.00  0.00     0.021 C 
HETATM    3  C12 UNL     1       2.236   6.947  10.121  1.00  0.00    -0.004 C 
HETATM    4  C13 UNL     1       3.205   6.296   9.113  1.00  0.00     0.013 C 
HETATM    5  C14 UNL     1       2.506   6.427   7.771  1.00  0.00     0.001 C 
HETATM    6  C15 UNL     1       1.779   7.759   7.835  1.00  0.00     0.001 C 
HETATM    7  C16 UNL     1       1.756   8.177   9.314  1.00  0.00     0.013 C 
HETATM    8  C17 UNL     1       2.842   7.130  11.553  1.00  0.00     0.097 C 
HETATM    9  C18 UNL     1       3.907   8.133  11.976  1.00  0.00    -0.036 C 
HETATM   10  C19 UNL     1       4.451   9.062  11.178  1.00  0.00     0.057 C 
HETATM   11  C20 UNL     1       5.322  10.135  11.706  1.00  0.00     0.154 C 
HETATM   12  O5  UNL     1       5.815  10.931  10.906  1.00  0.00    -0.293 OA
HETATM   13  C21 UNL     1       5.496  10.252  13.218  1.00  0.00     0.071 C 
HETATM   14  C22 UNL     1       6.719  11.124  13.556  1.00  0.00     0.045 C 
HETATM   15  C23 UNL     1       8.065  10.403  13.410  1.00  0.00     0.119 C 
HETATM   16  C24 UNL     1       7.970   9.012  12.790  1.00  0.00     0.032 C 
HETATM   17  C25 UNL     1       6.882   8.120  13.397  1.00  0.00     0.013 C 
HETATM   18  C26 UNL     1       5.575   8.852  13.864  1.00  0.00    -0.026 C 
HETATM   19  C27 UNL     1       5.646   8.980  15.407  1.00  0.00     0.016 C 
HETATM   20  C28 UNL     1       4.319   7.987  13.457  1.00  0.00     0.026 C 
HETATM   21  C29 UNL     1       3.065   8.139  14.347  1.00  0.00     0.011 C 
HETATM   22  C30 UNL     1       1.965   7.135  13.951  1.00  0.00     0.014 C 
HETATM   23  C31 UNL     1       1.561   7.273  12.463  1.00  0.00    -0.002 C 
HETATM   24  C32 UNL     1       0.862   8.644  12.309  1.00  0.00     0.019 C 
ENDROOT
BRANCH   1  25
HETATM   25  C8  UNL     1      -0.768   5.824  12.356  1.00  0.00     0.087 C 
HETATM   26  C9  UNL     1      -0.820   5.591  13.879  1.00  0.00     0.049 C 
BRANCH  25  27
HETATM   27  C7  UNL     1      -1.502   4.760  11.573  1.00  0.00     0.188 A 
HETATM   28  C6  UNL     1      -2.540   3.808  12.168  1.00  0.00     0.188 A 
HETATM   29  O2  UNL     1      -1.191   3.400  11.892  1.00  0.00    -0.369 OA
BRANCH  28  30
HETATM   30  C4  UNL     1      -3.599   3.053  11.382  1.00  0.00     0.086 C 
HETATM   31  C5  UNL     1      -3.527   1.532  11.600  1.00  0.00     0.049 C 
BRANCH  30  32
HETATM   32  C2  UNL     1      -5.027   3.612  11.707  1.00  0.00     0.014 C 
HETATM   33  C1  UNL     1      -5.069   4.448  12.997  1.00  0.00     0.012 C 
HETATM   34  C3  UNL     1      -6.085   2.503  11.839  1.00  0.00     0.012 C 
ENDBRANCH  30  32
BRANCH  30  35
HETATM   35  O1  UNL     1      -3.332   3.282   9.990  1.00  0.00    -0.387 OA
HETATM   36  H11 UNL     1      -2.463   2.891   9.785  1.00  0.00     0.210 HD
ENDBRANCH  30  35
ENDBRANCH  28  30
ENDBRANCH  25  27
BRANCH  25  37
HETATM   37  O3  UNL     1      -1.475   7.054  12.113  1.00  0.00    -0.387 OA
HETATM   38  H17 UNL     1      -2.313   7.021  12.602  1.00  0.00     0.210 HD
ENDBRANCH  25  37
ENDBRANCH   1  25
BRANCH   8  39
HETATM   39  O4  UNL     1       3.461   5.851  11.855  1.00  0.00    -0.384 OA
HETATM   40  H29 UNL     1       4.325   5.830  11.407  1.00  0.00     0.211 HD
ENDBRANCH   8  39
BRANCH  15  41
HETATM   41  O6  UNL     1       8.679  10.276  14.694  1.00  0.00    -0.396 OA
HETATM   42  H35 UNL     1       8.857  11.179  15.018  1.00  0.00     0.210 HD
ENDBRANCH  15  41
TORSDOF 8
ENDMDL
MODEL 2
REMARK minimizedAffinity -9.92327404
REMARK CNNscore 0.658867002
REMARK CNNaffinity 7.46761274
REMARK  8 active torsions:
REMARK  status: ('A' for Active; 'I' for Inactive)
REMARK    1  A    between atoms: C2_2  and  C4_4 
REMARK    2  A    between atoms: C4_4  and  O1_6 
REMARK    3  A    between atoms: C4_4  and  C6_7 
REMARK    4  A    between atoms: C7_9  and  C8_10 
REMARK    5  A    between atoms: C8_10  and  O3_12 
REMARK    6  A    between atoms: C8_10  and  C10_13 
REMARK    7  A    between atoms: C17_20  and  O4_21 
REMARK    8  A    between atoms: C23_28  and  O6_29 
ROOT
HETATM    1  C10 UNL     1       0.318   8.575  14.549  1.00  0.00     0.034 C 
HETATM    2  C11 UNL     1       0.038   9.629  15.659  1.00  0.00     0.021 C 
HETATM    3  C12 UNL     1      -1.512   9.663  15.905  1.00  0.00    -0.004 C 
HETATM    4  C13 UNL     1      -1.838   9.746  17.411  1.00  0.00     0.013 C 
HETATM    5  C14 UNL     1      -1.512  11.179  17.795  1.00  0.00     0.001 C 
HETATM    6  C15 UNL     1      -1.891  12.008  16.580  1.00  0.00     0.001 C 
HETATM    7  C16 UNL     1      -2.061  11.023  15.411  1.00  0.00     0.013 C 
HETATM    8  C17 UNL     1      -1.980   8.330  15.230  1.00  0.00     0.097 C 
HETATM    9  C18 UNL     1      -3.411   7.918  14.912  1.00  0.00    -0.036 C 
HETATM   10  C19 UNL     1      -4.496   8.678  15.118  1.00  0.00     0.057 C 
HETATM   11  C20 UNL     1      -5.827   8.300  14.594  1.00  0.00     0.154 C 
HETATM   12  O5  UNL     1      -6.785   9.030  14.855  1.00  0.00    -0.293 OA
HETATM   13  C21 UNL     1      -5.932   7.076  13.688  1.00  0.00     0.071 C 
HETATM   14  C22 UNL     1      -7.393   6.604  13.581  1.00  0.00     0.045 C 
HETATM   15  C23 UNL     1      -7.886   5.807  14.795  1.00  0.00     0.119 C 
HETATM   16  C24 UNL     1      -6.907   5.770  15.964  1.00  0.00     0.032 C 
HETATM   17  C25 UNL     1      -5.465   5.426  15.574  1.00  0.00     0.013 C 
HETATM   18  C26 UNL     1      -4.987   5.958  14.178  1.00  0.00    -0.026 C 
HETATM   19  C27 UNL     1      -5.021   4.761  13.193  1.00  0.00     0.016 C 
HETATM   20  C28 UNL     1      -3.510   6.502  14.305  1.00  0.00     0.026 C 
HETATM   21  C29 UNL     1      -2.644   6.438  13.027  1.00  0.00     0.011 C 
HETATM   22  C30 UNL     1      -1.185   6.845  13.312  1.00  0.00     0.014 C 
HETATM   23  C31 UNL     1      -1.087   8.260  13.931  1.00  0.00    -0.002 C 
HETATM   24  C32 UNL     1      -1.529   9.263  12.840  1.00  0.00     0.019 C 
ENDROOT
BRANCH   1  25
HETATM   25  C8  UNL     1       1.588   8.822  13.678  1.00  0.00     0.087 C 
HETATM   26  C9  UNL     1       2.206  10.179  14.068  1.00  0.00     0.049 C 
BRANCH  25  27
HETATM   27  C7  UNL     1       1.394   8.670  12.187  1.00  0.00     0.188 A 
HETATM   28  C6  UNL     1       2.021   7.560  11.342  1.00  0.00     0.188 A 
HETATM   29  O2  UNL     1       2.544   8.897  11.366  1.00  0.00    -0.369 OA
BRANCH  28  30
HETATM   30  C4  UNL     1       1.526   7.103   9.979  1.00  0.00     0.086 C 
HETATM   31  C5  UNL     1       0.303   7.902   9.494  1.00  0.00     0.049 C 
BRANCH  30  32
HETATM   32  C2  UNL     1       2.690   7.142   8.930  1.00  0.00     0.014 C 
HETATM   33  C1  UNL     1       2.558   8.298   7.925  1.00  0.00     0.012 C 
HETATM   34  C3  UNL     1       2.808   5.839   8.123  1.00  0.00     0.012 C 
ENDBRANCH  30  32
BRANCH  30  35
HETATM   35  O1  UNL     1       1.096   5.741  10.124  1.00  0.00    -0.387 OA
HETATM   36  H11 UNL     1       0.343   5.729  10.742  1.00  0.00     0.210 HD
ENDBRANCH  30  35
ENDBRANCH  28  30
ENDBRANCH  25  27
BRANCH  25  37
HETATM   37  O3  UNL     1       2.548   7.819  14.057  1.00  0.00    -0.387 OA
HETATM   38  H17 UNL     1       3.421   8.101  13.736  1.00  0.00     0.210 HD
ENDBRANCH  25  37
ENDBRANCH   1  25
BRANCH   8  39
HETATM   39  O4  UNL     1      -1.534   7.285  16.134  1.00  0.00    -0.384 OA
HETATM   40  H29 UNL     1      -2.176   7.233  16.863  1.00  0.00     0.211 HD
ENDBRANCH   8  39
BRANCH  15  41
HETATM   41  O6  UNL     1      -8.158   4.460  14.400  1.00  0.00    -0.396 OA
HETATM   42  H35 UNL     1      -8.884   4.492  13.749  1.00  0.00     0.210 HD
ENDBRANCH  15  41
TORSDOF 8
ENDMDL
MODEL 3
REMARK minimizedAffinity -7.55052137
REMARK CNNscore 0.637945652
REMARK CNNaffinity 6.6668992
REMARK  8 active torsions:
REMARK  status: ('A' for Active; 'I' for Inactive)
REMARK    1  A    between atoms: C2_2  and  C4_4 
REMARK    2  A    between atoms: C4_4  and  O1_6 
REMARK    3  A    between atoms: C4_4  and  C6_7 
REMARK    4  A    between atoms: C7_9  and  C8_10 
REMARK    5  A    between atoms: C8_10  and  O3_12 
REMARK    6  A    between atoms: C8_10  and  C10_13 
REMARK    7  A    between atoms: C17_20  and  O4_21 
REMARK    8  A    between atoms: C23_28  and  O6_29 
ROOT
HETATM    1  C10 UNL     1      -2.809   7.227  14.748  1.00  0.00     0.034 C 
HETATM    2  C11 UNL     1      -1.515   7.217  13.885  1.00  0.00     0.021 C 
HETATM    3  C12 UNL     1      -1.042   8.704  13.713  1.00  0.00    -0.004 C 
HETATM    4  C13 UNL     1       0.488   8.827  13.864  1.00  0.00     0.013 C 
HETATM    5  C14 UNL     1       1.046   8.257  12.571  1.00  0.00     0.001 C 
HETATM    6  C15 UNL     1       0.050   8.664  11.500  1.00  0.00     0.001 C 
HETATM    7  C16 UNL     1      -1.225   9.113  12.232  1.00  0.00     0.013 C 
HETATM    8  C17 UNL     1      -1.849   9.435  14.840  1.00  0.00     0.097 C 
HETATM    9  C18 UNL     1      -2.017  10.938  15.017  1.00  0.00    -0.036 C 
HETATM   10  C19 UNL     1      -1.535  11.871  14.185  1.00  0.00     0.057 C 
HETATM   11  C20 UNL     1      -1.913  13.297  14.304  1.00  0.00     0.154 C 
HETATM   12  O5  UNL     1      -1.400  14.102  13.526  1.00  0.00    -0.293 OA
HETATM   13  C21 UNL     1      -2.979  13.684  15.325  1.00  0.00     0.071 C 
HETATM   14  C22 UNL     1      -2.946  15.199  15.596  1.00  0.00     0.045 C 
HETATM   15  C23 UNL     1      -1.819  15.645  16.534  1.00  0.00     0.119 C 
HETATM   16  C24 UNL     1      -0.827  14.544  16.895  1.00  0.00     0.032 C 
HETATM   17  C25 UNL     1      -1.473  13.224  17.329  1.00  0.00     0.013 C 
HETATM   18  C26 UNL     1      -2.820  12.852  16.616  1.00  0.00    -0.026 C 
HETATM   19  C27 UNL     1      -3.969  13.176  17.604  1.00  0.00     0.016 C 
HETATM   20  C28 UNL     1      -2.823  11.309  16.281  1.00  0.00     0.026 C 
HETATM   21  C29 UNL     1      -4.207  10.625  16.215  1.00  0.00     0.011 C 
HETATM   22  C30 UNL     1      -4.077   9.100  16.040  1.00  0.00     0.014 C 
HETATM   23  C31 UNL     1      -3.258   8.728  14.780  1.00  0.00    -0.002 C 
HETATM   24  C32 UNL     1      -4.096   9.156  13.553  1.00  0.00     0.019 C 
ENDROOT
BRANCH   1  25
HETATM   25  C8  UNL     1      -3.805   6.052  14.500  1.00  0.00     0.087 C 
HETATM   26  C9  UNL     1      -3.865   5.173  15.765  1.00  0.00     0.049 C 
BRANCH  25  27
HETATM   27  C7  UNL     1      -3.567   5.254  13.239  1.00  0.00     0.188 A 
HETATM   28  C6  UNL     1      -3.924   3.777  13.071  1.00  0.00     0.188 A 
HETATM   29  O2  UNL     1      -2.580   4.220  13.312  1.00  0.00    -0.369 OA
BRANCH  28  30
HETATM   30  C4  UNL     1      -4.122   3.062  11.743  1.00  0.00     0.086 C 
HETATM   31  C5  UNL     1      -3.349   1.735  11.664  1.00  0.00     0.049 C 
BRANCH  30  32
HETATM   32  C2  UNL     1      -5.649   2.855  11.454  1.00  0.00     0.014 C 
HETATM   33  C1  UNL     1      -6.554   3.371  12.585  1.00  0.00     0.012 C 
HETATM   34  C3  UNL     1      -6.013   1.382  11.206  1.00  0.00     0.012 C 
ENDBRANCH  30  32
BRANCH  30  35
HETATM   35  O1  UNL     1      -3.582   3.915  10.723  1.00  0.00    -0.387 OA
HETATM   36  H11 UNL     1      -2.624   4.002  10.882  1.00  0.00     0.210 HD
ENDBRANCH  30  35
ENDBRANCH  28  30
ENDBRANCH  25  27
BRANCH  25  37
HETATM   37  O3  UNL     1      -5.110   6.641  14.357  1.00  0.00    -0.387 OA
HETATM   38  H17 UNL     1      -5.771   5.937  14.466  1.00  0.00     0.210 HD
ENDBRANCH  25  37
ENDBRANCH   1  25
BRANCH   8  39
HETATM   39  O4  UNL     1      -1.200   9.031  16.075  1.00  0.00    -0.384 OA
HETATM   40  H29 UNL     1      -0.403   9.580  16.181  1.00  0.00     0.211 HD
ENDBRANCH   8  39
BRANCH  15  41
HETATM   41  O6  UNL     1      -2.382  16.150  17.747  1.00  0.00    -0.396 OA
HETATM   42  H35 UNL     1      -2.906  16.939  17.514  1.00  0.00     0.210 HD
ENDBRANCH  15  41
TORSDOF 8
ENDMDL
MODEL 4
REMARK minimizedAffinity -9.62175941
REMARK CNNscore 0.637097061
REMARK CNNaffinity 7.23624039
REMARK  8 active torsions:
REMARK  status: ('A' for Active; 'I' for Inactive)
REMARK    1  A    between atoms: C2_2  and  C4_4 
REMARK    2  A    between atoms: C4_4  and  O1_6 
REMARK    3  A    between atoms: C4_4  and  C6_7 
REMARK    4  A    between atoms: C7_9  and  C8_10 
REMARK    5  A    between atoms: C8_10  and  O3_12 
REMARK    6  A    between atoms: C8_10  and  C10_13 
REMARK    7  A    between atoms: C17_20  and  O4_21 
REMARK    8  A    between atoms: C23_28  and  O6_29 
ROOT
HETATM    1  C10 UNL     1      -0.254   9.048  15.547  1.00  0.00     0.034 C 
HETATM    2  C11 UNL     1      -0.749  10.029  16.649  1.00  0.00     0.021 C 
HETATM    3  C12 UNL     1      -2.316   9.946  16.696  1.00  0.00    -0.004 C 
HETATM    4  C13 UNL     1      -2.833   9.938  18.149  1.00  0.00     0.013 C 
HETATM    5  C14 UNL     1      -2.664  11.371  18.623  1.00  0.00     0.001 C 
HETATM    6  C15 UNL     1      -2.949  12.225  17.400  1.00  0.00     0.001 C 
HETATM    7  C16 UNL     1      -2.897  11.286  16.184  1.00  0.00     0.013 C 
HETATM    8  C17 UNL     1      -2.595   8.615  15.918  1.00  0.00     0.097 C 
HETATM    9  C18 UNL     1      -3.940   8.121  15.404  1.00  0.00    -0.036 C 
HETATM   10  C19 UNL     1      -5.096   8.794  15.496  1.00  0.00     0.057 C 
HETATM   11  C20 UNL     1      -6.319   8.349  14.792  1.00  0.00     0.154 C 
HETATM   12  O5  UNL     1      -7.353   8.999  14.955  1.00  0.00    -0.293 OA
HETATM   13  C21 UNL     1      -6.218   7.163  13.837  1.00  0.00     0.071 C 
HETATM   14  C22 UNL     1      -7.615   6.597  13.527  1.00  0.00     0.045 C 
HETATM   15  C23 UNL     1      -8.196   5.713  14.638  1.00  0.00     0.119 C 
HETATM   16  C24 UNL     1      -7.372   5.691  15.921  1.00  0.00     0.032 C 
HETATM   17  C25 UNL     1      -5.871   5.466  15.707  1.00  0.00     0.013 C 
HETATM   18  C26 UNL     1      -5.262   6.091  14.404  1.00  0.00    -0.026 C 
HETATM   19  C27 UNL     1      -5.084   4.941  13.381  1.00  0.00     0.016 C 
HETATM   20  C28 UNL     1      -3.857   6.729  14.739  1.00  0.00     0.026 C 
HETATM   21  C29 UNL     1      -2.835   6.783  13.582  1.00  0.00     0.011 C 
HETATM   22  C30 UNL     1      -1.457   7.276  14.066  1.00  0.00     0.014 C 
HETATM   23  C31 UNL     1      -1.543   8.665  14.743  1.00  0.00    -0.002 C 
HETATM   24  C32 UNL     1      -1.917   9.684  13.641  1.00  0.00     0.019 C 
ENDROOT
BRANCH   1  25
HETATM   25  C8  UNL     1       1.094   9.421  14.856  1.00  0.00     0.087 C 
HETATM   26  C9  UNL     1       1.284  10.949  14.921  1.00  0.00     0.049 C 
BRANCH  25  27
HETATM   27  C7  UNL     1       1.288   8.862  13.465  1.00  0.00     0.188 A 
HETATM   28  C6  UNL     1       2.334   7.810  13.094  1.00  0.00     0.188 A 
HETATM   29  O2  UNL     1       2.508   9.205  12.802  1.00  0.00    -0.369 OA
BRANCH  28  30
HETATM   30  C4  UNL     1       2.285   6.912  11.868  1.00  0.00     0.086 C 
HETATM   31  C5  UNL     1       1.254   5.778  12.004  1.00  0.00     0.049 C 
BRANCH  30  32
HETATM   32  C2  UNL     1       2.035   7.763  10.574  1.00  0.00     0.014 C 
HETATM   33  C1  UNL     1       0.691   7.449   9.896  1.00  0.00     0.012 C 
HETATM   34  C3  UNL     1       3.139   7.580   9.520  1.00  0.00     0.012 C 
ENDBRANCH  30  32
BRANCH  30  35
HETATM   35  O1  UNL     1       3.572   6.287  11.754  1.00  0.00    -0.387 OA
HETATM   36  H11 UNL     1       3.701   5.724  12.539  1.00  0.00     0.210 HD
ENDBRANCH  30  35
ENDBRANCH  28  30
ENDBRANCH  25  27
BRANCH  25  37
HETATM   37  O3  UNL     1       2.141   8.851  15.662  1.00  0.00    -0.387 OA
HETATM   38  H17 UNL     1       2.978   9.278  15.415  1.00  0.00     0.210 HD
ENDBRANCH  25  37
ENDBRANCH   1  25
BRANCH   8  39
HETATM   39  O4  UNL     1      -2.189   7.563  16.834  1.00  0.00    -0.384 OA
HETATM   40  H29 UNL     1      -2.913   7.434  17.472  1.00  0.00     0.211 HD
ENDBRANCH   8  39
BRANCH  15  41
HETATM   41  O6  UNL     1      -8.316   4.370  14.163  1.00  0.00    -0.396 OA
HETATM   42  H35 UNL     1      -8.955   4.382  13.426  1.00  0.00     0.210 HD
ENDBRANCH  15  41
TORSDOF 8
ENDMDL
MODEL 5
REMARK minimizedAffinity -9.48776531
REMARK CNNscore 0.525502563
REMARK CNNaffinity 7.1533494
REMARK  8 active torsions:
REMARK  status: ('A' for Active; 'I' for Inactive)
REMARK    1  A    between atoms: C2_2  and  C4_4 
REMARK    2  A    between atoms: C4_4  and  O1_6 
REMARK    3  A    between atoms: C4_4  and  C6_7 
REMARK    4  A    between atoms: C7_9  and  C8_10 
REMARK    5  A    between atoms: C8_10  and  O3_12 
REMARK    6  A    between atoms: C8_10  and  C10_13 
REMARK    7  A    between atoms: C17_20  and  O4_21 
REMARK    8  A    between atoms: C23_28  and  O6_29 
ROOT
HETATM    1  C10 UNL     1      -1.146   7.320  12.615  1.00  0.00     0.034 C 
HETATM    2  C11 UNL     1      -2.684   7.104  12.706  1.00  0.00     0.021 C 
HETATM    3  C12 UNL     1      -3.201   7.874  13.973  1.00  0.00    -0.004 C 
HETATM    4  C13 UNL     1      -4.524   8.610  13.679  1.00  0.00     0.013 C 
HETATM    5  C14 UNL     1      -5.571   7.510  13.635  1.00  0.00     0.001 C 
HETATM    6  C15 UNL     1      -5.127   6.502  14.680  1.00  0.00     0.001 C 
HETATM    7  C16 UNL     1      -3.667   6.839  15.024  1.00  0.00     0.013 C 
HETATM    8  C17 UNL     1      -2.001   8.831  14.285  1.00  0.00     0.097 C 
HETATM    9  C18 UNL     1      -1.790   9.652  15.550  1.00  0.00    -0.036 C 
HETATM   10  C19 UNL     1      -2.590   9.630  16.625  1.00  0.00     0.057 C 
HETATM   11  C20 UNL     1      -2.212  10.291  17.894  1.00  0.00     0.154 C 
HETATM   12  O5  UNL     1      -3.015  10.259  18.828  1.00  0.00    -0.293 OA
HETATM   13  C21 UNL     1      -0.818  10.900  18.011  1.00  0.00     0.071 C 
HETATM   14  C22 UNL     1      -0.749  11.874  19.201  1.00  0.00     0.045 C 
HETATM   15  C23 UNL     1      -1.378  13.245  18.928  1.00  0.00     0.119 C 
HETATM   16  C24 UNL     1      -2.112  13.347  17.595  1.00  0.00     0.032 C 
HETATM   17  C25 UNL     1      -1.328  12.805  16.395  1.00  0.00     0.013 C 
HETATM   18  C26 UNL     1      -0.406  11.568  16.681  1.00  0.00    -0.026 C 
HETATM   19  C27 UNL     1       1.050  12.091  16.774  1.00  0.00     0.016 C 
HETATM   20  C28 UNL     1      -0.528  10.540  15.488  1.00  0.00     0.026 C 
HETATM   21  C29 UNL     1       0.705   9.648  15.224  1.00  0.00     0.011 C 
HETATM   22  C30 UNL     1       0.529   8.804  13.946  1.00  0.00     0.014 C 
HETATM   23  C31 UNL     1      -0.742   7.923  14.002  1.00  0.00    -0.002 C 
HETATM   24  C32 UNL     1      -0.507   6.859  15.101  1.00  0.00     0.019 C 
ENDROOT
BRANCH   1  25
HETATM   25  C8  UNL     1      -0.336   6.182  11.919  1.00  0.00     0.087 C 
HETATM   26  C9  UNL     1       0.689   5.614  12.920  1.00  0.00     0.049 C 
BRANCH  25  27
HETATM   27  C7  UNL     1       0.279   6.543  10.587  1.00  0.00     0.188 A 
HETATM   28  C6  UNL     1       1.631   7.238  10.418  1.00  0.00     0.188 A 
HETATM   29  O2  UNL     1       0.384   7.938  10.287  1.00  0.00    -0.369 OA
BRANCH  28  30
HETATM   30  C4  UNL     1       2.480   7.223   9.157  1.00  0.00     0.086 C 
HETATM   31  C5  UNL     1       2.835   5.798   8.700  1.00  0.00     0.049 C 
BRANCH  30  32
HETATM   32  C2  UNL     1       1.778   8.034   8.013  1.00  0.00     0.014 C 
HETATM   33  C1  UNL     1       0.288   8.295   8.285  1.00  0.00     0.012 C 
HETATM   34  C3  UNL     1       1.885   7.344   6.643  1.00  0.00     0.012 C 
ENDBRANCH  30  32
BRANCH  30  35
HETATM   35  O1  UNL     1       3.718   7.874   9.477  1.00  0.00    -0.387 OA
HETATM   36  H11 UNL     1       4.170   7.340  10.155  1.00  0.00     0.210 HD
ENDBRANCH  30  35
ENDBRANCH  28  30
ENDBRANCH  25  27
BRANCH  25  37
HETATM   37  O3  UNL     1      -1.268   5.118  11.650  1.00  0.00    -0.387 OA
HETATM   38  H17 UNL     1      -0.758   4.312  11.466  1.00  0.00     0.210 HD
ENDBRANCH  25  37
ENDBRANCH   1  25
BRANCH   8  39
HETATM   39  O4  UNL     1      -2.060   9.844  13.245  1.00  0.00    -0.384 OA
HETATM   40  H29 UNL     1      -2.743  10.488  13.502  1.00  0.00     0.211 HD
ENDBRANCH   8  39
BRANCH  15  41
HETATM   41  O6  UNL     1      -0.360  14.248  18.953  1.00  0.00    -0.396 OA
HETATM   42  H35 UNL     1       0.008  14.263  19.856  1.00  0.00     0.210 HD
ENDBRANCH  15  41
TORSDOF 8
ENDMDL
MODEL 6
REMARK minimizedAffinity -8.44571495
REMARK CNNscore 0.505288601
REMARK CNNaffinity 6.56966257
REMARK  8 active torsions:
REMARK  status: ('A' for Active; 'I' for Inactive)
REMARK    1  A    between atoms: C2_2  and  C4_4 
REMARK    2  A    between atoms: C4_4  and  O1_6 
REMARK    3  A    between atoms: C4_4  and  C6_7 
REMARK    4  A    between atoms: C7_9  and  C8_10 
REMARK    5  A    between atoms: C8_10  and  O3_12 
REMARK    6  A    between atoms: C8_10  and  C10_13 
REMARK    7  A    between atoms: C17_20  and  O4_21 
REMARK    8  A    between atoms: C23_28  and  O6_29 
ROOT
HETATM    1  C10 UNL     1       1.298  10.729  17.698  1.00  0.00     0.034 C 
HETATM    2  C11 UNL     1      -0.244  10.729  17.904  1.00  0.00     0.021 C 
HETATM    3  C12 UNL     1      -0.904  10.204  16.580  1.00  0.00    -0.004 C 
HETATM    4  C13 UNL     1      -2.063   9.232  16.880  1.00  0.00     0.013 C 
HETATM    5  C14 UNL     1      -3.194  10.124  17.364  1.00  0.00     0.001 C 
HETATM    6  C15 UNL     1      -3.063  11.400  16.552  1.00  0.00     0.001 C 
HETATM    7  C16 UNL     1      -1.666  11.373  15.911  1.00  0.00     0.013 C 
HETATM    8  C17 UNL     1       0.311   9.534  15.853  1.00  0.00     0.097 C 
HETATM    9  C18 UNL     1       0.367   9.067  14.405  1.00  0.00    -0.036 C 
HETATM   10  C19 UNL     1      -0.618   9.217  13.508  1.00  0.00     0.057 C 
HETATM   11  C20 UNL     1      -0.416   8.931  12.070  1.00  0.00     0.154 C 
HETATM   12  O5  UNL     1      -1.379   9.057  11.312  1.00  0.00    -0.293 OA
HETATM   13  C21 UNL     1       0.988   8.579  11.588  1.00  0.00     0.071 C 
HETATM   14  C22 UNL     1       0.935   7.927  10.194  1.00  0.00     0.045 C 
HETATM   15  C23 UNL     1       0.518   6.452  10.206  1.00  0.00     0.119 C 
HETATM   16  C24 UNL     1       0.061   5.937  11.567  1.00  0.00     0.032 C 
HETATM   17  C25 UNL     1       0.994   6.299  12.728  1.00  0.00     0.013 C 
HETATM   18  C26 UNL     1       1.709   7.691  12.625  1.00  0.00    -0.026 C 
HETATM   19  C27 UNL     1       3.169   7.426  12.177  1.00  0.00     0.016 C 
HETATM   20  C28 UNL     1       1.705   8.386  14.042  1.00  0.00     0.026 C 
HETATM   21  C29 UNL     1       2.864   9.367  14.329  1.00  0.00     0.011 C 
HETATM   22  C30 UNL     1       2.842   9.858  15.790  1.00  0.00     0.014 C 
HETATM   23  C31 UNL     1       1.497  10.529  16.157  1.00  0.00    -0.002 C 
HETATM   24  C32 UNL     1       1.408  11.840  15.341  1.00  0.00     0.019 C 
ENDROOT
BRANCH   1  25
HETATM   25  C8  UNL     1       2.098  11.783  18.524  1.00  0.00     0.087 C 
HETATM   26  C9  UNL     1       3.322  12.237  17.703  1.00  0.00     0.049 C 
BRANCH  25  27
HETATM   27  C7  UNL     1       2.456  11.369  19.933  1.00  0.00     0.188 A 
HETATM   28  C6  UNL     1       3.841  11.536  20.558  1.00  0.00     0.188 A 
HETATM   29  O2  UNL     1       3.365  10.273  20.068  1.00  0.00    -0.369 OA
BRANCH  28  30
HETATM   30  C4  UNL     1       4.139  11.559  22.049  1.00  0.00     0.086 C 
HETATM   31  C5  UNL     1       4.335  10.151  22.636  1.00  0.00     0.049 C 
BRANCH  30  32
HETATM   32  C2  UNL     1       5.371  12.482  22.347  1.00  0.00     0.014 C 
HETATM   33  C1  UNL     1       6.470  11.777  23.159  1.00  0.00     0.012 C 
HETATM   34  C3  UNL     1       4.986  13.763  23.106  1.00  0.00     0.012 C 
ENDBRANCH  30  32
BRANCH  30  35
HETATM   35  O1  UNL     1       2.988  12.120  22.698  1.00  0.00    -0.387 OA
HETATM   36  H11 UNL     1       2.237  11.518  22.547  1.00  0.00     0.210 HD
ENDBRANCH  30  35
ENDBRANCH  28  30
ENDBRANCH  25  27
BRANCH  25  37
HETATM   37  O3  UNL     1       1.249  12.937  18.652  1.00  0.00    -0.387 OA
HETATM   38  H17 UNL     1       1.802  13.689  18.922  1.00  0.00     0.210 HD
ENDBRANCH  25  37
ENDBRANCH   1  25
BRANCH   8  39
HETATM   39  O4  UNL     1       0.555   8.311  16.599  1.00  0.00    -0.384 OA
HETATM   40  H29 UNL     1      -0.092   7.649  16.297  1.00  0.00     0.211 HD
ENDBRANCH   8  39
BRANCH  15  41
HETATM   41  O6  UNL     1       1.614   5.644   9.770  1.00  0.00    -0.396 OA
HETATM   42  H35 UNL     1       1.805   5.893   8.847  1.00  0.00     0.210 HD
ENDBRANCH  15  41
TORSDOF 8
ENDMDL
MODEL 7
REMARK minimizedAffinity -8.0357914
REMARK CNNscore 0.504197121
REMARK CNNaffinity 6.01057863
REMARK  8 active torsions:
REMARK  status: ('A' for Active; 'I' for Inactive)
REMARK    1  A    between atoms: C2_2  and  C4_4 
REMARK    2  A    between atoms: C4_4  and  O1_6 
REMARK    3  A    between atoms: C4_4  and  C6_7 
REMARK    4  A    between atoms: C7_9  and  C8_10 
REMARK    5  A    between atoms: C8_10  and  O3_12 
REMARK    6  A    between atoms: C8_10  and  C10_13 
REMARK    7  A    between atoms: C17_20  and  O4_21 
REMARK    8  A    between atoms: C23_28  and  O6_29 
ROOT
HETATM    1  C10 UNL     1      -5.412  -9.974   4.455  1.00  0.00     0.034 C 
HETATM    2  C11 UNL     1      -6.902  -9.853   4.025  1.00  0.00     0.021 C 
HETATM    3  C12 UNL     1      -7.784  -9.967   5.319  1.00  0.00    -0.004 C 
HETATM    4  C13 UNL     1      -8.937  -8.942   5.303  1.00  0.00     0.013 C 
HETATM    5  C14 UNL     1      -9.930  -9.501   4.298  1.00  0.00     0.001 C 
HETATM    6  C15 UNL     1      -9.852 -11.008   4.465  1.00  0.00     0.001 C 
HETATM    7  C16 UNL     1      -8.572 -11.297   5.265  1.00  0.00     0.013 C 
HETATM    8  C17 UNL     1      -6.732  -9.717   6.453  1.00  0.00     0.097 C 
HETATM    9  C18 UNL     1      -6.922  -9.952   7.946  1.00  0.00    -0.036 C 
HETATM   10  C19 UNL     1      -8.021 -10.472   8.511  1.00  0.00     0.057 C 
HETATM   11  C20 UNL     1      -8.056 -10.866   9.936  1.00  0.00     0.154 C 
HETATM   12  O5  UNL     1      -9.114 -11.301  10.394  1.00  0.00    -0.293 OA
HETATM   13  C21 UNL     1      -6.763 -10.794  10.743  1.00  0.00     0.071 C 
HETATM   14  C22 UNL     1      -7.063 -10.837  12.253  1.00  0.00     0.045 C 
HETATM   15  C23 UNL     1      -7.555  -9.506  12.834  1.00  0.00     0.119 C 
HETATM   16  C24 UNL     1      -7.828  -8.426  11.792  1.00  0.00     0.032 C 
HETATM   17  C25 UNL     1      -6.712  -8.245  10.758  1.00  0.00     0.013 C 
HETATM   18  C26 UNL     1      -5.944  -9.548  10.342  1.00  0.00    -0.026 C 
HETATM   19  C27 UNL     1      -4.586  -9.540  11.089  1.00  0.00     0.016 C 
HETATM   20  C28 UNL     1      -5.695  -9.532   8.783  1.00  0.00     0.026 C 
HETATM   21  C29 UNL     1      -4.453 -10.300   8.279  1.00  0.00     0.011 C 
HETATM   22  C30 UNL     1      -4.226 -10.082   6.770  1.00  0.00     0.014 C 
HETATM   23  C31 UNL     1      -5.460 -10.492   5.932  1.00  0.00    -0.002 C 
HETATM   24  C32 UNL     1      -5.599 -12.028   6.051  1.00  0.00     0.019 C 
ENDROOT
BRANCH   1  25
HETATM   25  C8  UNL     1      -4.438 -10.559   3.385  1.00  0.00     0.087 C 
HETATM   26  C9  UNL     1      -3.053  -9.906   3.561  1.00  0.00     0.049 C 
BRANCH  25  27
HETATM   27  C7  UNL     1      -4.935 -10.512   1.959  1.00  0.00     0.188 A 
HETATM   28  C6  UNL     1      -4.586 -11.545   0.887  1.00  0.00     0.188 A 
HETATM   29  O2  UNL     1      -3.955 -10.257   0.948  1.00  0.00    -0.369 OA
BRANCH  28  30
HETATM   30  C4  UNL     1      -5.378 -11.798  -0.386  1.00  0.00     0.086 C 
HETATM   31  C5  UNL     1      -6.894 -11.624  -0.184  1.00  0.00     0.049 C 
BRANCH  30  32
HETATM   32  C2  UNL     1      -4.847 -10.895  -1.552  1.00  0.00     0.014 C 
HETATM   33  C1  UNL     1      -5.873  -9.852  -2.023  1.00  0.00     0.012 C 
HETATM   34  C3  UNL     1      -4.414 -11.708  -2.783  1.00  0.00     0.012 C 
ENDBRANCH  30  32
BRANCH  30  35
HETATM   35  O1  UNL     1      -5.166 -13.171  -0.746  1.00  0.00    -0.387 OA
HETATM   36  H11 UNL     1      -5.540 -13.728  -0.039  1.00  0.00     0.210 HD
ENDBRANCH  30  35
ENDBRANCH  28  30
ENDBRANCH  25  27
BRANCH  25  37
HETATM   37  O3  UNL     1      -4.269 -11.953   3.701  1.00  0.00    -0.387 OA
HETATM   38  H17 UNL     1      -3.483 -12.275   3.229  1.00  0.00     0.210 HD
ENDBRANCH  25  37
ENDBRANCH   1  25
BRANCH   8  39
HETATM   39  O4  UNL     1      -6.447  -8.294   6.381  1.00  0.00    -0.384 OA
HETATM   40  H29 UNL     1      -7.168  -7.827   6.839  1.00  0.00     0.211 HD
ENDBRANCH   8  39
BRANCH  15  41
HETATM   41  O6  UNL     1      -6.585  -9.001  13.754  1.00  0.00    -0.396 OA
HETATM   42  H35 UNL     1      -6.522  -9.642  14.486  1.00  0.00     0.210 HD
ENDBRANCH  15  41
TORSDOF 8
ENDMDL
MODEL 8
REMARK minimizedAffinity -8.64315701
REMARK CNNscore 0.47106564
REMARK CNNaffinity 6.55431557
REMARK  8 active torsions:
REMARK  status: ('A' for Active; 'I' for Inactive)
REMARK    1  A    between atoms: C2_2  and  C4_4 
REMARK    2  A    between atoms: C4_4  and  O1_6 
REMARK    3  A    between atoms: C4_4  and  C6_7 
REMARK    4  A    between atoms: C7_9  and  C8_10 
REMARK    5  A    between atoms: C8_10  and  O3_12 
REMARK    6  A    between atoms: C8_10  and  C10_13 
REMARK    7  A    between atoms: C17_20  and  O4_21 
REMARK    8  A    between atoms: C23_28  and  O6_29 
ROOT
HETATM    1  C10 UNL     1      -0.451   9.274  15.838  1.00  0.00     0.034 C 
HETATM    2  C11 UNL     1      -1.033  10.256  16.895  1.00  0.00     0.021 C 
HETATM    3  C12 UNL     1      -2.597  10.120  16.864  1.00  0.00    -0.004 C 
HETATM    4  C13 UNL     1      -3.188  10.120  18.289  1.00  0.00     0.013 C 
HETATM    5  C14 UNL     1      -3.091  11.567  18.743  1.00  0.00     0.001 C 
HETATM    6  C15 UNL     1      -3.341  12.389  17.491  1.00  0.00     0.001 C 
HETATM    7  C16 UNL     1      -3.196  11.430  16.298  1.00  0.00     0.013 C 
HETATM    8  C17 UNL     1      -2.792   8.768  16.099  1.00  0.00     0.097 C 
HETATM    9  C18 UNL     1      -4.092   8.218  15.527  1.00  0.00    -0.036 C 
HETATM   10  C19 UNL     1      -5.272   8.853  15.548  1.00  0.00     0.057 C 
HETATM   11  C20 UNL     1      -6.442   8.354  14.792  1.00  0.00     0.154 C 
HETATM   12  O5  UNL     1      -7.504   8.971  14.889  1.00  0.00    -0.293 OA
HETATM   13  C21 UNL     1      -6.254   7.156  13.866  1.00  0.00     0.071 C 
HETATM   14  C22 UNL     1      -7.614   6.537  13.496  1.00  0.00     0.045 C 
HETATM   15  C23 UNL     1      -8.221   5.654  14.593  1.00  0.00     0.119 C 
HETATM   16  C24 UNL     1      -7.463   5.683  15.916  1.00  0.00     0.032 C 
HETATM   17  C25 UNL     1      -5.947   5.505  15.783  1.00  0.00     0.013 C 
HETATM   18  C26 UNL     1      -5.293   6.128  14.501  1.00  0.00    -0.026 C 
HETATM   19  C27 UNL     1      -5.024   4.966  13.511  1.00  0.00     0.016 C 
HETATM   20  C28 UNL     1      -3.929   6.819  14.894  1.00  0.00     0.026 C 
HETATM   21  C29 UNL     1      -2.851   6.888  13.790  1.00  0.00     0.011 C 
HETATM   22  C30 UNL     1      -1.517   7.436  14.333  1.00  0.00     0.014 C 
HETATM   23  C31 UNL     1      -1.683   8.833  14.978  1.00  0.00    -0.002 C 
HETATM   24  C32 UNL     1      -2.034   9.819  13.839  1.00  0.00     0.019 C 
ENDROOT
BRANCH   1  25
HETATM   25  C8  UNL     1       0.918   9.680  15.210  1.00  0.00     0.087 C 
HETATM   26  C9  UNL     1       1.536   8.448  14.520  1.00  0.00     0.049 C 
BRANCH  25  27
HETATM   27  C7  UNL     1       1.880  10.377  16.143  1.00  0.00     0.188 A 
HETATM   28  C6  UNL     1       3.403  10.306  16.026  1.00  0.00     0.188 A 
HETATM   29  O2  UNL     1       2.669   9.539  16.993  1.00  0.00    -0.369 OA
BRANCH  28  30
HETATM   30  C4  UNL     1       4.382  11.302  16.625  1.00  0.00     0.086 C 
HETATM   31  C5  UNL     1       4.124  11.560  18.120  1.00  0.00     0.049 C 
BRANCH  30  32
HETATM   32  C2  UNL     1       5.859  10.843  16.369  1.00  0.00     0.014 C 
HETATM   33  C1  UNL     1       6.748  11.960  15.798  1.00  0.00     0.012 C 
HETATM   34  C3  UNL     1       5.952   9.643  15.411  1.00  0.00     0.012 C 
ENDBRANCH  30  32
BRANCH  30  35
HETATM   35  O1  UNL     1       4.175  12.552  15.951  1.00  0.00    -0.387 OA
HETATM   36  H11 UNL     1       3.271  12.854  16.152  1.00  0.00     0.210 HD
ENDBRANCH  30  35
ENDBRANCH  28  30
ENDBRANCH  25  27
BRANCH  25  37
HETATM   37  O3  UNL     1       0.627  10.623  14.163  1.00  0.00    -0.387 OA
HETATM   38  H17 UNL     1       1.410  10.690  13.591  1.00  0.00     0.210 HD
ENDBRANCH  25  37
ENDBRANCH   1  25
BRANCH   8  39
HETATM   39  O4  UNL     1      -2.399   7.746  17.054  1.00  0.00    -0.384 OA
HETATM   40  H29 UNL     1      -3.149   7.604  17.657  1.00  0.00     0.211 HD
ENDBRANCH   8  39
BRANCH  15  41
HETATM   41  O6  UNL     1      -8.272   4.300  14.139  1.00  0.00    -0.396 OA
HETATM   42  H35 UNL     1      -8.871   4.276  13.371  1.00  0.00     0.210 HD
ENDBRANCH  15  41
TORSDOF 8
ENDMDL
MODEL 9
REMARK minimizedAffinity -9.19568253
REMARK CNNscore 0.44751218
REMARK CNNaffinity 6.61508751
REMARK  8 active torsions:
REMARK  status: ('A' for Active; 'I' for Inactive)
REMARK    1  A    between atoms: C2_2  and  C4_4 
REMARK    2  A    between atoms: C4_4  and  O1_6 
REMARK    3  A    between atoms: C4_4  and  C6_7 
REMARK    4  A    between atoms: C7_9  and  C8_10 
REMARK    5  A    between atoms: C8_10  and  O3_12 
REMARK    6  A    between atoms: C8_10  and  C10_13 
REMARK    7  A    between atoms: C17_20  and  O4_21 
REMARK    8  A    between atoms: C23_28  and  O6_29 
ROOT
HETATM    1  C10 UNL     1      -1.986   9.113  16.253  1.00  0.00     0.034 C 
HETATM    2  C11 UNL     1      -3.238   8.409  15.654  1.00  0.00     0.021 C 
HETATM    3  C12 UNL     1      -2.870   7.931  14.204  1.00  0.00    -0.004 C 
HETATM    4  C13 UNL     1      -3.419   6.517  13.925  1.00  0.00     0.013 C 
HETATM    5  C14 UNL     1      -4.912   6.718  13.730  1.00  0.00     0.001 C 
HETATM    6  C15 UNL     1      -5.041   8.063  13.036  1.00  0.00     0.001 C 
HETATM    7  C16 UNL     1      -3.684   8.768  13.188  1.00  0.00     0.013 C 
HETATM    8  C17 UNL     1      -1.306   8.010  14.221  1.00  0.00     0.097 C 
HETATM    9  C18 UNL     1      -0.372   7.918  13.022  1.00  0.00    -0.036 C 
HETATM   10  C19 UNL     1      -0.765   7.809  11.745  1.00  0.00     0.057 C 
HETATM   11  C20 UNL     1       0.188   7.935  10.620  1.00  0.00     0.154 C 
HETATM   12  O5  UNL     1      -0.242   7.786   9.475  1.00  0.00    -0.293 OA
HETATM   13  C21 UNL     1       1.630   8.326  10.928  1.00  0.00     0.071 C 
HETATM   14  C22 UNL     1       2.544   8.012   9.730  1.00  0.00     0.045 C 
HETATM   15  C23 UNL     1       2.923   6.532   9.600  1.00  0.00     0.119 C 
HETATM   16  C24 UNL     1       2.193   5.607  10.568  1.00  0.00     0.032 C 
HETATM   17  C25 UNL     1       2.183   6.091  12.022  1.00  0.00     0.013 C 
HETATM   18  C26 UNL     1       2.110   7.644  12.228  1.00  0.00    -0.026 C 
HETATM   19  C27 UNL     1       3.537   8.129  12.589  1.00  0.00     0.016 C 
HETATM   20  C28 UNL     1       1.120   7.967  13.415  1.00  0.00     0.026 C 
HETATM   21  C29 UNL     1       1.393   9.269  14.201  1.00  0.00     0.011 C 
HETATM   22  C30 UNL     1       0.467   9.396  15.426  1.00  0.00     0.014 C 
HETATM   23  C31 UNL     1      -1.028   9.334  15.033  1.00  0.00    -0.002 C 
HETATM   24  C32 UNL     1      -1.336  10.615  14.223  1.00  0.00     0.019 C 
ENDROOT
BRANCH   1  25
HETATM   25  C8  UNL     1      -2.267  10.216  17.319  1.00  0.00     0.087 C 
HETATM   26  C9  UNL     1      -3.382  11.144  16.796  1.00  0.00     0.049 C 
BRANCH  25  27
HETATM   27  C7  UNL     1      -1.053  10.972  17.808  1.00  0.00     0.188 A 
HETATM   28  C6  UNL     1      -0.193  10.550  18.999  1.00  0.00     0.188 A 
HETATM   29  O2  UNL     1      -1.164  11.603  19.087  1.00  0.00    -0.369 OA
BRANCH  28  30
HETATM   30  C4  UNL     1       1.239  10.992  19.254  1.00  0.00     0.086 C 
HETATM   31  C5  UNL     1       1.606  12.279  18.495  1.00  0.00     0.049 C 
BRANCH  30  32
HETATM   32  C2  UNL     1       1.503  11.139  20.793  1.00  0.00     0.014 C 
HETATM   33  C1  UNL     1       2.234  12.441  21.158  1.00  0.00     0.012 C 
HETATM   34  C3  UNL     1       2.320   9.971  21.370  1.00  0.00     0.012 C 
ENDBRANCH  30  32
BRANCH  30  35
HETATM   35  O1  UNL     1       2.095   9.957  18.747  1.00  0.00    -0.387 OA
HETATM   36  H11 UNL     1       1.960   9.903  17.783  1.00  0.00     0.210 HD
ENDBRANCH  30  35
ENDBRANCH  28  30
ENDBRANCH  25  27
BRANCH  25  37
HETATM   37  O3  UNL     1      -2.808   9.547  18.472  1.00  0.00    -0.387 OA
HETATM   38  H17 UNL     1      -3.232  10.215  19.036  1.00  0.00     0.210 HD
ENDBRANCH  25  37
ENDBRANCH   1  25
BRANCH   8  39
HETATM   39  O4  UNL     1      -0.891   6.888  15.045  1.00  0.00    -0.384 OA
HETATM   40  H29 UNL     1      -0.924   6.089  14.490  1.00  0.00     0.211 HD
ENDBRANCH   8  39
BRANCH  15  41
HETATM   41  O6  UNL     1       4.328   6.380   9.814  1.00  0.00    -0.396 OA
HETATM   42  H35 UNL     1       4.782   6.868   9.102  1.00  0.00     0.210 HD
ENDBRANCH  15  41
TORSDOF 8
ENDMDL
