MODEL 1
REMARK minimizedAffinity -9.40420723
REMARK  9 active torsions:
REMARK  status: ('A' for Active; 'I' for Inactive)
REMARK    1  A    between atoms: C3_3  and  C4_4 
REMARK    2  A    between atoms: C3_3  and  C27_30 
REMARK    3  A    between atoms: C4_4  and  C5_5 
REMARK    4  A    between atoms: C5_5  and  C6_6 
REMARK    5  A    between atoms: C6_6  and  C8_8 
REMARK    6  A    between atoms: C15_15  and  O1_16 
REMARK    7  A    between atoms: C18_19  and  C19_20 
REMARK    8  A    between atoms: C19_20  and  O2_21 
REMARK    9  A    between atoms: C22_24  and  O3_25 
ROOT
HETATM    1  C8  UNL     1       1.263   6.633  13.014  1.00  0.00     0.001 C 
HETATM    2  C9  UNL     1       0.500   7.764  13.750  1.00  0.00     0.006 C 
HETATM    3  C10 UNL     1      -0.984   7.366  13.747  1.00  0.00     0.010 C 
HETATM    4  C11 UNL     1      -0.990   5.915  13.270  1.00  0.00     0.026 C 
HETATM    5  C12 UNL     1      -2.265   5.252  12.797  1.00  0.00    -0.072 C 
HETATM    6  C13 UNL     1      -2.202   4.172  11.975  1.00  0.00    -0.064 C 
HETATM    7  C14 UNL     1      -0.853   3.667  11.441  1.00  0.00     0.068 C 
HETATM    8  C15 UNL     1       0.416   4.389  11.958  1.00  0.00     0.131 C 
HETATM    9  C16 UNL     1       0.149   5.886  12.216  1.00  0.00    -0.006 C 
HETATM   10  C17 UNL     1      -0.218   6.622  10.903  1.00  0.00     0.019 C 
HETATM   11  C18 UNL     1      -3.492   3.452  11.473  1.00  0.00     0.009 C 
HETATM   12  C20 UNL     1      -3.331   1.897  11.384  1.00  0.00     0.019 C 
HETATM   13  C21 UNL     1      -4.486   1.062  11.962  1.00  0.00     0.033 C 
HETATM   14  C22 UNL     1      -5.873   1.630  11.692  1.00  0.00     0.118 C 
HETATM   15  C23 UNL     1      -6.004   3.106  12.082  1.00  0.00     0.037 C 
HETATM   16  C24 UNL     1      -4.660   3.745  12.472  1.00  0.00     0.003 C 
HETATM   17  C25 UNL     1      -4.826   5.240  12.736  1.00  0.00     0.010 C 
HETATM   18  C26 UNL     1      -3.553   5.824  13.341  1.00  0.00     0.035 C 
ENDROOT
BRANCH   1  19
HETATM   19  C6  UNL     1       2.564   7.056  12.268  1.00  0.00    -0.013 C 
HETATM   20  C7  UNL     1       2.355   8.453  11.657  1.00  0.00     0.010 C 
BRANCH  19  21
HETATM   21  C5  UNL     1       3.038   6.081  11.164  1.00  0.00     0.009 C 
BRANCH  21  22
HETATM   22  C4  UNL     1       3.714   6.720   9.936  1.00  0.00     0.034 C 
BRANCH  22  23
HETATM   23  C3  UNL     1       3.102   6.353   8.593  1.00  0.00    -0.081 C 
HETATM   24  C2  UNL     1       3.207   5.115   8.066  1.00  0.00    -0.028 C 
HETATM   25  C1  UNL     1       3.941   3.952   8.656  1.00  0.00     0.036 C 
BRANCH  23  26
HETATM   26  C27 UNL     1       2.274   7.458   7.932  1.00  0.00     0.006 C 
HETATM   27  C28 UNL     1       2.975   8.817   7.841  1.00  0.00     0.014 C 
HETATM   28  C29 UNL     1       1.806   7.016   6.541  1.00  0.00     0.014 C 
ENDBRANCH  23  26
ENDBRANCH  22  23
ENDBRANCH  21  22
ENDBRANCH  19  21
ENDBRANCH   1  19
BRANCH   8  29
HETATM   29  O1  UNL     1       1.497   4.172  11.055  1.00  0.00    -0.394 OA
HETATM   30  H22 UNL     1       1.277   4.579  10.201  1.00  0.00     0.210 HD
ENDBRANCH   8  29
BRANCH  11  31
HETATM   31  C19 UNL     1      -3.740   4.038  10.042  1.00  0.00     0.178 C 
BRANCH  31  32
HETATM   32  O2  UNL     1      -4.593   3.236   9.235  1.00  0.00    -0.400 OA
HETATM   33  H28 UNL     1      -4.737   3.732   8.407  1.00  0.00     0.209 HD
ENDBRANCH  31  32
ENDBRANCH  11  31
BRANCH  14  34
HETATM   34  O3  UNL     1      -6.202   1.443  10.320  1.00  0.00    -0.396 OA
HETATM   35  H34 UNL     1      -5.704   2.124   9.816  1.00  0.00     0.210 HD
ENDBRANCH  14  34
TORSDOF 9
ENDMDL
MODEL 2
REMARK minimizedAffinity -9.34241009
REMARK  9 active torsions:
REMARK  status: ('A' for Active; 'I' for Inactive)
REMARK    1  A    between atoms: C3_3  and  C4_4 
REMARK    2  A    between atoms: C3_3  and  C27_30 
REMARK    3  A    between atoms: C4_4  and  C5_5 
REMARK    4  A    between atoms: C5_5  and  C6_6 
REMARK    5  A    between atoms: C6_6  and  C8_8 
REMARK    6  A    between atoms: C15_15  and  O1_16 
REMARK    7  A    between atoms: C18_19  and  C19_20 
REMARK    8  A    between atoms: C19_20  and  O2_21 
REMARK    9  A    between atoms: C22_24  and  O3_25 
ROOT
HETATM    1  C8  UNL     1      -1.762   5.554  12.115  1.00  0.00     0.001 C 
HETATM    2  C9  UNL     1      -2.233   4.207  11.510  1.00  0.00     0.006 C 
HETATM    3  C10 UNL     1      -3.718   4.056  11.878  1.00  0.00     0.010 C 
HETATM    4  C11 UNL     1      -4.117   5.425  12.428  1.00  0.00     0.026 C 
HETATM    5  C12 UNL     1      -5.392   5.609  13.220  1.00  0.00    -0.072 C 
HETATM    6  C13 UNL     1      -5.518   6.663  14.068  1.00  0.00    -0.064 C 
HETATM    7  C14 UNL     1      -4.344   7.625  14.305  1.00  0.00     0.068 C 
HETATM    8  C15 UNL     1      -3.063   7.383  13.468  1.00  0.00     0.131 C 
HETATM    9  C16 UNL     1      -2.844   5.882  13.191  1.00  0.00    -0.006 C 
HETATM   10  C17 UNL     1      -2.611   5.099  14.507  1.00  0.00     0.019 C 
HETATM   11  C18 UNL     1      -6.820   6.895  14.894  1.00  0.00     0.009 C 
HETATM   12  C20 UNL     1      -7.195   8.409  15.035  1.00  0.00     0.019 C 
HETATM   13  C21 UNL     1      -8.670   8.768  14.789  1.00  0.00     0.033 C 
HETATM   14  C22 UNL     1      -9.666   7.755  15.337  1.00  0.00     0.118 C 
HETATM   15  C23 UNL     1      -9.363   6.318  14.902  1.00  0.00     0.037 C 
HETATM   16  C24 UNL     1      -8.013   6.183  14.176  1.00  0.00     0.003 C 
HETATM   17  C25 UNL     1      -7.705   4.718  13.870  1.00  0.00     0.010 C 
HETATM   18  C26 UNL     1      -6.489   4.605  12.955  1.00  0.00     0.035 C 
ENDROOT
BRANCH   1  19
HETATM   19  C6  UNL     1      -0.258   5.637  12.515  1.00  0.00    -0.013 C 
HETATM   20  C7  UNL     1      -0.160   5.870  14.033  1.00  0.00     0.010 C 
BRANCH  19  21
HETATM   21  C5  UNL     1       0.562   6.721  11.777  1.00  0.00     0.009 C 
BRANCH  21  22
HETATM   22  C4  UNL     1       1.063   6.353  10.368  1.00  0.00     0.034 C 
BRANCH  22  23
HETATM   23  C3  UNL     1       2.034   7.343   9.743  1.00  0.00    -0.081 C 
HETATM   24  C2  UNL     1       3.315   7.454  10.154  1.00  0.00    -0.028 C 
HETATM   25  C1  UNL     1       3.966   6.694  11.266  1.00  0.00     0.036 C 
BRANCH  23  26
HETATM   26  C27 UNL     1       1.484   8.130   8.552  1.00  0.00     0.006 C 
HETATM   27  C28 UNL     1       1.765   7.500   7.183  1.00  0.00     0.014 C 
HETATM   28  C29 UNL     1      -0.020   8.372   8.717  1.00  0.00     0.014 C 
ENDBRANCH  23  26
ENDBRANCH  22  23
ENDBRANCH  21  22
ENDBRANCH  19  21
ENDBRANCH   1  19
BRANCH   8  29
HETATM   29  O1  UNL     1      -1.945   7.991  14.108  1.00  0.00    -0.394 OA
HETATM   30  H22 UNL     1      -1.801   7.556  14.965  1.00  0.00     0.210 HD
ENDBRANCH   8  29
BRANCH  11  31
HETATM   31  C19 UNL     1      -6.502   6.299  16.307  1.00  0.00     0.178 C 
BRANCH  31  32
HETATM   32  O2  UNL     1      -7.140   6.987  17.375  1.00  0.00    -0.400 OA
HETATM   33  H28 UNL     1      -6.936   6.487  18.188  1.00  0.00     0.209 HD
ENDBRANCH  31  32
ENDBRANCH  11  31
BRANCH  14  34
HETATM   34  O3  UNL     1      -9.706   7.851  16.757  1.00  0.00    -0.396 OA
HETATM   35  H34 UNL     1      -8.897   7.403  17.091  1.00  0.00     0.210 HD
ENDBRANCH  14  34
TORSDOF 9
ENDMDL
MODEL 3
REMARK minimizedAffinity -9.32550526
REMARK  9 active torsions:
REMARK  status: ('A' for Active; 'I' for Inactive)
REMARK    1  A    between atoms: C3_3  and  C4_4 
REMARK    2  A    between atoms: C3_3  and  C27_30 
REMARK    3  A    between atoms: C4_4  and  C5_5 
REMARK    4  A    between atoms: C5_5  and  C6_6 
REMARK    5  A    between atoms: C6_6  and  C8_8 
REMARK    6  A    between atoms: C15_15  and  O1_16 
REMARK    7  A    between atoms: C18_19  and  C19_20 
REMARK    8  A    between atoms: C19_20  and  O2_21 
REMARK    9  A    between atoms: C22_24  and  O3_25 
ROOT
HETATM    1  C8  UNL     1       0.320   6.598  11.537  1.00  0.00     0.001 C 
HETATM    2  C9  UNL     1       0.496   5.157  10.993  1.00  0.00     0.006 C 
HETATM    3  C10 UNL     1      -0.832   4.426  11.248  1.00  0.00     0.010 C 
HETATM    4  C11 UNL     1      -1.802   5.531  11.664  1.00  0.00     0.026 C 
HETATM    5  C12 UNL     1      -3.119   5.204  12.334  1.00  0.00    -0.072 C 
HETATM    6  C13 UNL     1      -3.745   6.142  13.091  1.00  0.00    -0.064 C 
HETATM    7  C14 UNL     1      -3.090   7.506  13.354  1.00  0.00     0.068 C 
HETATM    8  C15 UNL     1      -1.740   7.780  12.644  1.00  0.00     0.131 C 
HETATM    9  C16 UNL     1      -0.908   6.490  12.494  1.00  0.00    -0.006 C 
HETATM   10  C17 UNL     1      -0.518   5.914  13.878  1.00  0.00     0.019 C 
HETATM   11  C18 UNL     1      -5.109   5.850  13.789  1.00  0.00     0.009 C 
HETATM   12  C20 UNL     1      -6.075   7.083  13.790  1.00  0.00     0.019 C 
HETATM   13  C21 UNL     1      -7.534   6.801  13.398  1.00  0.00     0.033 C 
HETATM   14  C22 UNL     1      -8.090   5.488  13.934  1.00  0.00     0.118 C 
HETATM   15  C23 UNL     1      -7.190   4.286  13.629  1.00  0.00     0.037 C 
HETATM   16  C24 UNL     1      -5.833   4.690  13.028  1.00  0.00     0.003 C 
HETATM   17  C25 UNL     1      -4.931   3.469  12.853  1.00  0.00     0.010 C 
HETATM   18  C26 UNL     1      -3.685   3.832  12.052  1.00  0.00     0.035 C 
ENDROOT
BRANCH   1  19
HETATM   19  C6  UNL     1       1.612   7.299  12.053  1.00  0.00    -0.013 C 
HETATM   20  C7  UNL     1       1.457   8.820  11.877  1.00  0.00     0.010 C 
BRANCH  19  21
HETATM   21  C5  UNL     1       2.926   6.838  11.378  1.00  0.00     0.009 C 
BRANCH  21  22
HETATM   22  C4  UNL     1       3.326   7.579  10.089  1.00  0.00     0.034 C 
BRANCH  22  23
HETATM   23  C3  UNL     1       2.904   6.905   8.793  1.00  0.00    -0.081 C 
HETATM   24  C2  UNL     1       3.104   5.589   8.565  1.00  0.00    -0.028 C 
HETATM   25  C1  UNL     1       3.780   4.617   9.480  1.00  0.00     0.036 C 
BRANCH  23  26
HETATM   26  C27 UNL     1       2.146   7.800   7.810  1.00  0.00     0.006 C 
HETATM   27  C28 UNL     1       1.835   7.149   6.458  1.00  0.00     0.014 C 
HETATM   28  C29 UNL     1       0.855   8.324   8.449  1.00  0.00     0.014 C 
ENDBRANCH  23  26
ENDBRANCH  22  23
ENDBRANCH  21  22
ENDBRANCH  19  21
ENDBRANCH   1  19
BRANCH   8  29
HETATM   29  O1  UNL     1      -1.035   8.812  13.329  1.00  0.00    -0.394 OA
HETATM   30  H22 UNL     1      -0.818   8.501  14.224  1.00  0.00     0.210 HD
ENDBRANCH   8  29
BRANCH  11  31
HETATM   31  C19 UNL     1      -4.727   5.480  15.262  1.00  0.00     0.178 C 
BRANCH  31  32
HETATM   32  O2  UNL     1      -4.754   6.586  16.155  1.00  0.00    -0.400 OA
HETATM   33  H28 UNL     1      -4.579   6.227  17.045  1.00  0.00     0.209 HD
ENDBRANCH  31  32
ENDBRANCH  11  31
BRANCH  14  34
HETATM   34  O3  UNL     1      -8.312   5.605  15.336  1.00  0.00    -0.396 OA
HETATM   35  H34 UNL     1      -7.432   5.537  15.766  1.00  0.00     0.210 HD
ENDBRANCH  14  34
TORSDOF 9
ENDMDL
MODEL 4
REMARK minimizedAffinity -9.25435638
REMARK  9 active torsions:
REMARK  status: ('A' for Active; 'I' for Inactive)
REMARK    1  A    between atoms: C3_3  and  C4_4 
REMARK    2  A    between atoms: C3_3  and  C27_30 
REMARK    3  A    between atoms: C4_4  and  C5_5 
REMARK    4  A    between atoms: C5_5  and  C6_6 
REMARK    5  A    between atoms: C6_6  and  C8_8 
REMARK    6  A    between atoms: C15_15  and  O1_16 
REMARK    7  A    between atoms: C18_19  and  C19_20 
REMARK    8  A    between atoms: C19_20  and  O2_21 
REMARK    9  A    between atoms: C22_24  and  O3_25 
ROOT
HETATM    1  C8  UNL     1      -5.768   6.414  13.427  1.00  0.00     0.001 C 
HETATM    2  C9  UNL     1      -5.930   7.910  13.802  1.00  0.00     0.006 C 
HETATM    3  C10 UNL     1      -4.549   8.560  13.621  1.00  0.00     0.010 C 
HETATM    4  C11 UNL     1      -3.722   7.503  12.891  1.00  0.00     0.026 C 
HETATM    5  C12 UNL     1      -2.213   7.600  12.823  1.00  0.00    -0.072 C 
HETATM    6  C13 UNL     1      -1.472   6.484  12.595  1.00  0.00    -0.064 C 
HETATM    7  C14 UNL     1      -2.139   5.104  12.495  1.00  0.00     0.068 C 
HETATM    8  C15 UNL     1      -3.686   5.069  12.577  1.00  0.00     0.131 C 
HETATM    9  C16 UNL     1      -4.228   6.172  13.508  1.00  0.00    -0.006 C 
HETATM   10  C17 UNL     1      -3.750   5.956  14.966  1.00  0.00     0.019 C 
HETATM   11  C18 UNL     1       0.084   6.542  12.506  1.00  0.00     0.009 C 
HETATM   12  C20 UNL     1       0.673   5.575  11.425  1.00  0.00     0.019 C 
HETATM   13  C21 UNL     1       1.756   6.165  10.506  1.00  0.00     0.033 C 
HETATM   14  C22 UNL     1       2.734   7.101  11.202  1.00  0.00     0.118 C 
HETATM   15  C23 UNL     1       2.040   8.196  12.019  1.00  0.00     0.037 C 
HETATM   16  C24 UNL     1       0.519   7.995  12.122  1.00  0.00     0.003 C 
HETATM   17  C25 UNL     1      -0.108   9.042  13.040  1.00  0.00     0.010 C 
HETATM   18  C26 UNL     1      -1.630   8.986  12.960  1.00  0.00     0.035 C 
ENDROOT
BRANCH   1  19
HETATM   19  C6  UNL     1      -6.723   5.418  14.151  1.00  0.00    -0.013 C 
HETATM   20  C7  UNL     1      -7.097   4.290  13.175  1.00  0.00     0.010 C 
BRANCH  19  21
HETATM   21  C5  UNL     1      -8.014   6.045  14.728  1.00  0.00     0.009 C 
BRANCH  21  22
HETATM   22  C4  UNL     1      -9.127   6.365  13.713  1.00  0.00     0.034 C 
BRANCH  22  23
HETATM   23  C3  UNL     1     -10.290   7.180  14.258  1.00  0.00    -0.081 C 
HETATM   24  C2  UNL     1     -10.144   8.058  15.273  1.00  0.00    -0.028 C 
HETATM   25  C1  UNL     1      -8.887   8.343  16.033  1.00  0.00     0.036 C 
BRANCH  23  26
HETATM   26  C27 UNL     1     -11.613   7.008  13.507  1.00  0.00     0.006 C 
HETATM   27  C28 UNL     1     -12.724   6.329  14.314  1.00  0.00     0.014 C 
HETATM   28  C29 UNL     1     -12.105   8.357  12.973  1.00  0.00     0.014 C 
ENDBRANCH  23  26
ENDBRANCH  22  23
ENDBRANCH  21  22
ENDBRANCH  19  21
ENDBRANCH   1  19
BRANCH   8  29
HETATM   29  O1  UNL     1      -4.120   3.767  12.958  1.00  0.00    -0.394 OA
HETATM   30  H22 UNL     1      -3.792   3.577  13.853  1.00  0.00     0.210 HD
ENDBRANCH   8  29
BRANCH  11  31
HETATM   31  C19 UNL     1       0.577   6.105  13.927  1.00  0.00     0.178 C 
BRANCH  31  32
HETATM   32  O2  UNL     1       1.953   6.373  14.163  1.00  0.00    -0.400 OA
HETATM   33  H28 UNL     1       2.126   6.135  15.094  1.00  0.00     0.209 HD
ENDBRANCH  31  32
ENDBRANCH  11  31
BRANCH  14  34
HETATM   34  O3  UNL     1       3.611   6.341  12.027  1.00  0.00    -0.396 OA
HETATM   35  H34 UNL     1       3.100   6.097  12.830  1.00  0.00     0.210 HD
ENDBRANCH  14  34
TORSDOF 9
ENDMDL
MODEL 5
REMARK minimizedAffinity -8.99500847
REMARK  9 active torsions:
REMARK  status: ('A' for Active; 'I' for Inactive)
REMARK    1  A    between atoms: C3_3  and  C4_4 
REMARK    2  A    between atoms: C3_3  and  C27_30 
REMARK    3  A    between atoms: C4_4  and  C5_5 
REMARK    4  A    between atoms: C5_5  and  C6_6 
REMARK    5  A    between atoms: C6_6  and  C8_8 
REMARK    6  A    between atoms: C15_15  and  O1_16 
REMARK    7  A    between atoms: C18_19  and  C19_20 
REMARK    8  A    between atoms: C19_20  and  O2_21 
REMARK    9  A    between atoms: C22_24  and  O3_25 
ROOT
HETATM    1  C8  UNL     1      -1.678   5.511  13.140  1.00  0.00     0.001 C 
HETATM    2  C9  UNL     1      -1.733   4.774  11.777  1.00  0.00     0.006 C 
HETATM    3  C10 UNL     1      -0.349   4.945  11.129  1.00  0.00     0.010 C 
HETATM    4  C11 UNL     1       0.525   5.522  12.242  1.00  0.00     0.026 C 
HETATM    5  C12 UNL     1       1.862   6.159  11.936  1.00  0.00    -0.072 C 
HETATM    6  C13 UNL     1       2.406   7.046  12.809  1.00  0.00    -0.064 C 
HETATM    7  C14 UNL     1       1.639   7.483  14.066  1.00  0.00     0.068 C 
HETATM    8  C15 UNL     1       0.274   6.798  14.324  1.00  0.00     0.131 C 
HETATM    9  C16 UNL     1      -0.448   6.462  13.003  1.00  0.00    -0.006 C 
HETATM   10  C17 UNL     1      -0.793   7.749  12.212  1.00  0.00     0.019 C 
HETATM   11  C18 UNL     1       3.788   7.717  12.537  1.00  0.00     0.009 C 
HETATM   12  C20 UNL     1       4.648   7.900  13.833  1.00  0.00     0.019 C 
HETATM   13  C21 UNL     1       6.127   7.494  13.728  1.00  0.00     0.033 C 
HETATM   14  C22 UNL     1       6.788   7.854  12.404  1.00  0.00     0.118 C 
HETATM   15  C23 UNL     1       5.992   7.376  11.186  1.00  0.00     0.037 C 
HETATM   16  C24 UNL     1       4.608   6.816  11.556  1.00  0.00     0.003 C 
HETATM   17  C25 UNL     1       3.811   6.464  10.301  1.00  0.00     0.010 C 
HETATM   18  C26 UNL     1       2.541   5.702  10.667  1.00  0.00     0.035 C 
ENDROOT
BRANCH   1  19
HETATM   19  C6  UNL     1      -3.026   6.099  13.655  1.00  0.00    -0.013 C 
HETATM   20  C7  UNL     1      -3.221   5.682  15.123  1.00  0.00     0.010 C 
BRANCH  19  21
HETATM   21  C5  UNL     1      -4.276   5.696  12.839  1.00  0.00     0.009 C 
BRANCH  21  22
HETATM   22  C4  UNL     1      -4.623   4.195  12.822  1.00  0.00     0.034 C 
BRANCH  22  23
HETATM   23  C3  UNL     1      -6.093   3.870  12.607  1.00  0.00    -0.081 C 
HETATM   24  C2  UNL     1      -6.501   2.732  12.006  1.00  0.00    -0.028 C 
HETATM   25  C1  UNL     1      -5.626   1.660  11.435  1.00  0.00     0.036 C 
BRANCH  23  26
HETATM   26  C27 UNL     1      -7.077   4.875  13.210  1.00  0.00     0.006 C 
HETATM   27  C28 UNL     1      -8.346   5.106  12.383  1.00  0.00     0.014 C 
HETATM   28  C29 UNL     1      -7.451   4.468  14.639  1.00  0.00     0.014 C 
ENDBRANCH  23  26
ENDBRANCH  22  23
ENDBRANCH  21  22
ENDBRANCH  19  21
ENDBRANCH   1  19
BRANCH   8  29
HETATM   29  O1  UNL     1      -0.517   7.607  15.190  1.00  0.00    -0.394 OA
HETATM   30  H22 UNL     1      -0.710   8.448  14.743  1.00  0.00     0.210 HD
ENDBRANCH   8  29
BRANCH  11  31
HETATM   31  C19 UNL     1       3.434   9.121  11.939  1.00  0.00     0.178 C 
BRANCH  31  32
HETATM   32  O2  UNL     1       2.230   9.675  12.454  1.00  0.00    -0.400 OA
HETATM   33  H28 UNL     1       2.154  10.571  12.075  1.00  0.00     0.209 HD
ENDBRANCH  31  32
ENDBRANCH  11  31
BRANCH  14  34
HETATM   34  O3  UNL     1       6.996   9.261  12.346  1.00  0.00    -0.396 OA
HETATM   35  H34 UNL     1       6.123   9.666  12.148  1.00  0.00     0.210 HD
ENDBRANCH  14  34
TORSDOF 9
ENDMDL
MODEL 6
REMARK minimizedAffinity -8.99255848
REMARK  9 active torsions:
REMARK  status: ('A' for Active; 'I' for Inactive)
REMARK    1  A    between atoms: C3_3  and  C4_4 
REMARK    2  A    between atoms: C3_3  and  C27_30 
REMARK    3  A    between atoms: C4_4  and  C5_5 
REMARK    4  A    between atoms: C5_5  and  C6_6 
REMARK    5  A    between atoms: C6_6  and  C8_8 
REMARK    6  A    between atoms: C15_15  and  O1_16 
REMARK    7  A    between atoms: C18_19  and  C19_20 
REMARK    8  A    between atoms: C19_20  and  O2_21 
REMARK    9  A    between atoms: C22_24  and  O3_25 
ROOT
HETATM    1  C8  UNL     1      -1.600   5.515  13.160  1.00  0.00     0.001 C 
HETATM    2  C9  UNL     1      -1.622   4.794  11.787  1.00  0.00     0.006 C 
HETATM    3  C10 UNL     1      -0.233   4.997  11.162  1.00  0.00     0.010 C 
HETATM    4  C11 UNL     1       0.615   5.574  12.295  1.00  0.00     0.026 C 
HETATM    5  C12 UNL     1       1.946   6.238  12.016  1.00  0.00    -0.072 C 
HETATM    6  C13 UNL     1       2.462   7.122  12.908  1.00  0.00    -0.064 C 
HETATM    7  C14 UNL     1       1.670   7.530  14.160  1.00  0.00     0.068 C 
HETATM    8  C15 UNL     1       0.312   6.819  14.388  1.00  0.00     0.131 C 
HETATM    9  C16 UNL     1      -0.384   6.488  13.053  1.00  0.00    -0.006 C 
HETATM   10  C17 UNL     1      -0.740   7.779  12.274  1.00  0.00     0.019 C 
HETATM   11  C18 UNL     1       3.836   7.820  12.665  1.00  0.00     0.009 C 
HETATM   12  C20 UNL     1       4.673   8.000  13.976  1.00  0.00     0.019 C 
HETATM   13  C21 UNL     1       6.161   7.621  13.887  1.00  0.00     0.033 C 
HETATM   14  C22 UNL     1       6.834   8.009  12.578  1.00  0.00     0.118 C 
HETATM   15  C23 UNL     1       6.064   7.533  11.342  1.00  0.00     0.037 C 
HETATM   16  C24 UNL     1       4.685   6.946  11.684  1.00  0.00     0.003 C 
HETATM   17  C25 UNL     1       3.912   6.596  10.413  1.00  0.00     0.010 C 
HETATM   18  C26 UNL     1       2.650   5.808  10.751  1.00  0.00     0.035 C 
ENDROOT
BRANCH   1  19
HETATM   19  C6  UNL     1      -2.965   6.073  13.663  1.00  0.00    -0.013 C 
HETATM   20  C7  UNL     1      -3.124   5.727  15.154  1.00  0.00     0.010 C 
BRANCH  19  21
HETATM   21  C5  UNL     1      -4.207   5.575  12.887  1.00  0.00     0.009 C 
BRANCH  21  22
HETATM   22  C4  UNL     1      -4.568   4.088  13.062  1.00  0.00     0.034 C 
BRANCH  22  23
HETATM   23  C3  UNL     1      -5.905   3.669  12.469  1.00  0.00    -0.081 C 
HETATM   24  C2  UNL     1      -7.082   3.978  13.052  1.00  0.00    -0.028 C 
HETATM   25  C1  UNL     1      -7.275   4.713  14.341  1.00  0.00     0.036 C 
BRANCH  23  26
HETATM   26  C27 UNL     1      -5.822   2.963  11.114  1.00  0.00     0.006 C 
HETATM   27  C28 UNL     1      -4.599   3.336  10.270  1.00  0.00     0.014 C 
HETATM   28  C29 UNL     1      -5.886   1.443  11.297  1.00  0.00     0.014 C 
ENDBRANCH  23  26
ENDBRANCH  22  23
ENDBRANCH  21  22
ENDBRANCH  19  21
ENDBRANCH   1  19
BRANCH   8  29
HETATM   29  O1  UNL     1      -0.504   7.603  15.254  1.00  0.00    -0.394 OA
HETATM   30  H22 UNL     1      -0.705   8.446  14.814  1.00  0.00     0.210 HD
ENDBRANCH   8  29
BRANCH  11  31
HETATM   31  C19 UNL     1       3.466   9.225  12.080  1.00  0.00     0.178 C 
BRANCH  31  32
HETATM   32  O2  UNL     1       2.253   9.759  12.595  1.00  0.00    -0.400 OA
HETATM   33  H28 UNL     1       2.167  10.657  12.224  1.00  0.00     0.209 HD
ENDBRANCH  31  32
ENDBRANCH  11  31
BRANCH  14  34
HETATM   34  O3  UNL     1       7.019   9.420  12.540  1.00  0.00    -0.396 OA
HETATM   35  H34 UNL     1       6.142   9.813  12.334  1.00  0.00     0.210 HD
ENDBRANCH  14  34
TORSDOF 9
ENDMDL
MODEL 7
REMARK minimizedAffinity -8.95339012
REMARK  9 active torsions:
REMARK  status: ('A' for Active; 'I' for Inactive)
REMARK    1  A    between atoms: C3_3  and  C4_4 
REMARK    2  A    between atoms: C3_3  and  C27_30 
REMARK    3  A    between atoms: C4_4  and  C5_5 
REMARK    4  A    between atoms: C5_5  and  C6_6 
REMARK    5  A    between atoms: C6_6  and  C8_8 
REMARK    6  A    between atoms: C15_15  and  O1_16 
REMARK    7  A    between atoms: C18_19  and  C19_20 
REMARK    8  A    between atoms: C19_20  and  O2_21 
REMARK    9  A    between atoms: C22_24  and  O3_25 
ROOT
HETATM    1  C8  UNL     1      -5.245   4.486  13.635  1.00  0.00     0.001 C 
HETATM    2  C9  UNL     1      -5.122   3.877  12.215  1.00  0.00     0.006 C 
HETATM    3  C10 UNL     1      -3.734   4.273  11.686  1.00  0.00     0.010 C 
HETATM    4  C11 UNL     1      -3.010   4.845  12.904  1.00  0.00     0.026 C 
HETATM    5  C12 UNL     1      -1.748   5.665  12.750  1.00  0.00    -0.072 C 
HETATM    6  C13 UNL     1      -1.375   6.525  13.732  1.00  0.00    -0.064 C 
HETATM    7  C14 UNL     1      -2.267   6.748  14.963  1.00  0.00     0.068 C 
HETATM    8  C15 UNL     1      -3.549   5.883  15.062  1.00  0.00     0.131 C 
HETATM    9  C16 UNL     1      -4.139   5.587  13.668  1.00  0.00    -0.006 C 
HETATM   10  C17 UNL     1      -4.595   6.890  12.966  1.00  0.00     0.019 C 
HETATM   11  C18 UNL     1      -0.075   7.380  13.619  1.00  0.00     0.009 C 
HETATM   12  C20 UNL     1       0.673   7.544  14.985  1.00  0.00     0.019 C 
HETATM   13  C21 UNL     1       2.195   7.331  14.954  1.00  0.00     0.033 C 
HETATM   14  C22 UNL     1       2.886   7.889  13.717  1.00  0.00     0.118 C 
HETATM   15  C23 UNL     1       2.233   7.434  12.408  1.00  0.00     0.037 C 
HETATM   16  C24 UNL     1       0.911   6.679  12.627  1.00  0.00     0.003 C 
HETATM   17  C25 UNL     1       0.244   6.351  11.293  1.00  0.00     0.010 C 
HETATM   18  C26 UNL     1      -0.940   5.411  11.500  1.00  0.00     0.035 C 
ENDROOT
BRANCH   1  19
HETATM   19  C6  UNL     1      -6.686   4.857  14.099  1.00  0.00    -0.013 C 
HETATM   20  C7  UNL     1      -7.561   3.592  14.060  1.00  0.00     0.010 C 
BRANCH  19  21
HETATM   21  C5  UNL     1      -7.372   5.980  13.286  1.00  0.00     0.009 C 
BRANCH  21  22
HETATM   22  C4  UNL     1      -8.888   5.827  13.061  1.00  0.00     0.034 C 
BRANCH  22  23
HETATM   23  C3  UNL     1      -9.758   6.849  13.777  1.00  0.00    -0.081 C 
HETATM   24  C2  UNL     1      -9.267   7.683  14.718  1.00  0.00    -0.028 C 
HETATM   25  C1  UNL     1      -7.861   7.722  15.232  1.00  0.00     0.036 C 
BRANCH  23  26
HETATM   26  C27 UNL     1     -11.203   6.934  13.281  1.00  0.00     0.006 C 
HETATM   27  C28 UNL     1     -12.261   6.548  14.321  1.00  0.00     0.014 C 
HETATM   28  C29 UNL     1     -11.499   8.332  12.728  1.00  0.00     0.014 C 
ENDBRANCH  23  26
ENDBRANCH  22  23
ENDBRANCH  21  22
ENDBRANCH  19  21
ENDBRANCH   1  19
BRANCH   8  29
HETATM   29  O1  UNL     1      -4.487   6.507  15.934  1.00  0.00    -0.394 OA
HETATM   30  H22 UNL     1      -4.757   7.356  15.546  1.00  0.00     0.210 HD
ENDBRANCH   8  29
BRANCH  11  31
HETATM   31  C19 UNL     1      -0.567   8.781  13.117  1.00  0.00     0.178 C 
BRANCH  31  32
HETATM   32  O2  UNL     1       0.007   9.874  13.822  1.00  0.00    -0.400 OA
HETATM   33  H28 UNL     1      -0.307  10.684  13.378  1.00  0.00     0.209 HD
ENDBRANCH  31  32
ENDBRANCH  11  31
BRANCH  14  34
HETATM   34  O3  UNL     1       2.917   9.311  13.792  1.00  0.00    -0.396 OA
HETATM   35  H34 UNL     1       2.014   9.624  13.566  1.00  0.00     0.210 HD
ENDBRANCH  14  34
TORSDOF 9
ENDMDL
MODEL 8
REMARK minimizedAffinity -8.80762863
REMARK  9 active torsions:
REMARK  status: ('A' for Active; 'I' for Inactive)
REMARK    1  A    between atoms: C3_3  and  C4_4 
REMARK    2  A    between atoms: C3_3  and  C27_30 
REMARK    3  A    between atoms: C4_4  and  C5_5 
REMARK    4  A    between atoms: C5_5  and  C6_6 
REMARK    5  A    between atoms: C6_6  and  C8_8 
REMARK    6  A    between atoms: C15_15  and  O1_16 
REMARK    7  A    between atoms: C18_19  and  C19_20 
REMARK    8  A    between atoms: C19_20  and  O2_21 
REMARK    9  A    between atoms: C22_24  and  O3_25 
ROOT
HETATM    1  C8  UNL     1      -1.673   5.638  13.272  1.00  0.00     0.001 C 
HETATM    2  C9  UNL     1      -1.830   4.831  11.958  1.00  0.00     0.006 C 
HETATM    3  C10 UNL     1      -0.474   4.900  11.236  1.00  0.00     0.010 C 
HETATM    4  C11 UNL     1       0.480   5.493  12.271  1.00  0.00     0.026 C 
HETATM    5  C12 UNL     1       1.828   6.048  11.866  1.00  0.00    -0.072 C 
HETATM    6  C13 UNL     1       2.455   6.953  12.661  1.00  0.00    -0.064 C 
HETATM    7  C14 UNL     1       1.773   7.494  13.926  1.00  0.00     0.068 C 
HETATM    8  C15 UNL     1       0.392   6.891  14.287  1.00  0.00     0.131 C 
HETATM    9  C16 UNL     1      -0.409   6.519  13.023  1.00  0.00    -0.006 C 
HETATM   10  C17 UNL     1      -0.735   7.776  12.178  1.00  0.00     0.019 C 
HETATM   11  C18 UNL     1       3.850   7.541  12.286  1.00  0.00     0.009 C 
HETATM   12  C20 UNL     1       4.781   7.752  13.527  1.00  0.00     0.019 C 
HETATM   13  C21 UNL     1       6.234   7.271  13.375  1.00  0.00     0.033 C 
HETATM   14  C22 UNL     1       6.843   7.526  12.003  1.00  0.00     0.118 C 
HETATM   15  C23 UNL     1       5.966   7.021  10.853  1.00  0.00     0.037 C 
HETATM   16  C24 UNL     1       4.578   6.550  11.319  1.00  0.00     0.003 C 
HETATM   17  C25 UNL     1       3.704   6.168  10.125  1.00  0.00     0.010 C 
HETATM   18  C26 UNL     1       2.421   5.489  10.594  1.00  0.00     0.035 C 
ENDROOT
BRANCH   1  19
HETATM   19  C6  UNL     1      -2.965   6.317  13.817  1.00  0.00    -0.013 C 
HETATM   20  C7  UNL     1      -3.149   5.924  15.293  1.00  0.00     0.010 C 
BRANCH  19  21
HETATM   21  C5  UNL     1      -4.261   5.992  13.036  1.00  0.00     0.009 C 
BRANCH  21  22
HETATM   22  C4  UNL     1      -5.571   6.533  13.637  1.00  0.00     0.034 C 
BRANCH  22  23
HETATM   23  C3  UNL     1      -6.622   5.482  13.960  1.00  0.00    -0.081 C 
HETATM   24  C2  UNL     1      -7.174   5.365  15.186  1.00  0.00    -0.028 C 
HETATM   25  C1  UNL     1      -6.839   6.177  16.398  1.00  0.00     0.036 C 
BRANCH  23  26
HETATM   26  C27 UNL     1      -7.082   4.636  12.770  1.00  0.00     0.006 C 
HETATM   27  C28 UNL     1      -7.300   3.152  13.085  1.00  0.00     0.014 C 
HETATM   28  C29 UNL     1      -8.350   5.231  12.148  1.00  0.00     0.014 C 
ENDBRANCH  23  26
ENDBRANCH  22  23
ENDBRANCH  21  22
ENDBRANCH  19  21
ENDBRANCH   1  19
BRANCH   8  29
HETATM   29  O1  UNL     1      -0.316   7.783  15.143  1.00  0.00    -0.394 OA
HETATM   30  H22 UNL     1      -0.493   8.607  14.658  1.00  0.00     0.210 HD
ENDBRANCH   8  29
BRANCH  11  31
HETATM   31  C19 UNL     1       3.531   8.926  11.626  1.00  0.00     0.178 C 
BRANCH  31  32
HETATM   32  O2  UNL     1       4.302  10.000  12.150  1.00  0.00    -0.400 OA
HETATM   33  H28 UNL     1       4.077  10.786  11.617  1.00  0.00     0.209 HD
ENDBRANCH  31  32
ENDBRANCH  11  31
BRANCH  14  34
HETATM   34  O3  UNL     1       7.111   8.916  11.855  1.00  0.00    -0.396 OA
HETATM   35  H34 UNL     1       6.249   9.351  11.676  1.00  0.00     0.210 HD
ENDBRANCH  14  34
TORSDOF 9
ENDMDL
MODEL 9
REMARK minimizedAffinity -8.78988934
REMARK  9 active torsions:
REMARK  status: ('A' for Active; 'I' for Inactive)
REMARK    1  A    between atoms: C3_3  and  C4_4 
REMARK    2  A    between atoms: C3_3  and  C27_30 
REMARK    3  A    between atoms: C4_4  and  C5_5 
REMARK    4  A    between atoms: C5_5  and  C6_6 
REMARK    5  A    between atoms: C6_6  and  C8_8 
REMARK    6  A    between atoms: C15_15  and  O1_16 
REMARK    7  A    between atoms: C18_19  and  C19_20 
REMARK    8  A    between atoms: C19_20  and  O2_21 
REMARK    9  A    between atoms: C22_24  and  O3_25 
ROOT
HETATM    1  C8  UNL     1       2.246   6.752  10.745  1.00  0.00     0.001 C 
HETATM    2  C9  UNL     1       2.239   5.206  10.626  1.00  0.00     0.006 C 
HETATM    3  C10 UNL     1       0.923   4.724  11.258  1.00  0.00     0.010 C 
HETATM    4  C11 UNL     1       0.106   5.999  11.460  1.00  0.00     0.026 C 
HETATM    5  C12 UNL     1      -1.105   6.016  12.366  1.00  0.00    -0.072 C 
HETATM    6  C13 UNL     1      -1.540   7.190  12.893  1.00  0.00    -0.064 C 
HETATM    7  C14 UNL     1      -0.764   8.494  12.657  1.00  0.00     0.068 C 
HETATM    8  C15 UNL     1       0.471   8.412  11.724  1.00  0.00     0.131 C 
HETATM    9  C16 UNL     1       1.182   7.049  11.847  1.00  0.00    -0.006 C 
HETATM   10  C17 UNL     1       1.749   6.841  13.274  1.00  0.00     0.019 C 
HETATM   11  C18 UNL     1      -2.792   7.254  13.821  1.00  0.00     0.009 C 
HETATM   12  C20 UNL     1      -3.662   8.536  13.592  1.00  0.00     0.019 C 
HETATM   13  C21 UNL     1      -5.181   8.316  13.499  1.00  0.00     0.033 C 
HETATM   14  C22 UNL     1      -5.729   7.273  14.463  1.00  0.00     0.118 C 
HETATM   15  C23 UNL     1      -4.970   5.944  14.405  1.00  0.00     0.037 C 
HETATM   16  C24 UNL     1      -3.702   6.014  13.536  1.00  0.00     0.003 C 
HETATM   17  C25 UNL     1      -2.922   4.703  13.606  1.00  0.00     0.010 C 
HETATM   18  C26 UNL     1      -1.798   4.691  12.574  1.00  0.00     0.035 C 
ENDROOT
BRANCH   1  19
HETATM   19  C6  UNL     1       3.648   7.424  10.856  1.00  0.00    -0.013 C 
HETATM   20  C7  UNL     1       3.920   8.221   9.568  1.00  0.00     0.010 C 
BRANCH  19  21
HETATM   21  C5  UNL     1       4.825   6.455  11.116  1.00  0.00     0.009 C 
BRANCH  21  22
HETATM   22  C4  UNL     1       6.238   7.062  11.028  1.00  0.00     0.034 C 
BRANCH  22  23
HETATM   23  C3  UNL     1       6.610   8.009  12.159  1.00  0.00    -0.081 C 
HETATM   24  C2  UNL     1       6.858   9.319  11.952  1.00  0.00    -0.028 C 
HETATM   25  C1  UNL     1       6.852  10.032  10.636  1.00  0.00     0.036 C 
BRANCH  23  26
HETATM   26  C27 UNL     1       6.585   7.391  13.559  1.00  0.00     0.006 C 
HETATM   27  C28 UNL     1       7.875   7.574  14.365  1.00  0.00     0.014 C 
HETATM   28  C29 UNL     1       5.390   7.923  14.357  1.00  0.00     0.014 C 
ENDBRANCH  23  26
ENDBRANCH  22  23
ENDBRANCH  21  22
ENDBRANCH  19  21
ENDBRANCH   1  19
BRANCH   8  29
HETATM   29  O1  UNL     1       1.342   9.510  11.978  1.00  0.00    -0.394 OA
HETATM   30  H22 UNL     1       1.678   9.439  12.887  1.00  0.00     0.210 HD
ENDBRANCH   8  29
BRANCH  11  31
HETATM   31  C19 UNL     1      -2.205   7.270  15.274  1.00  0.00     0.178 C 
BRANCH  31  32
HETATM   32  O2  UNL     1      -3.127   6.840  16.268  1.00  0.00    -0.400 OA
HETATM   33  H28 UNL     1      -2.634   6.816  17.110  1.00  0.00     0.209 HD
ENDBRANCH  31  32
ENDBRANCH  11  31
BRANCH  14  34
HETATM   34  O3  UNL     1      -5.717   7.799  15.786  1.00  0.00    -0.396 OA
HETATM   35  H34 UNL     1      -4.785   7.758  16.096  1.00  0.00     0.210 HD
ENDBRANCH  14  34
TORSDOF 9
ENDMDL
