MODEL 1
REMARK minimizedAffinity -7.85960436
REMARK CNNscore 0.525693655
REMARK CNNaffinity 6.24821281
REMARK  12 active torsions:
REMARK  status: ('A' for Active; 'I' for Inactive)
REMARK    1  A    between atoms: C3_3  and  O1_4 
REMARK    2  A    between atoms: N1_14  and  O2_16 
REMARK    3  A    between atoms: O2_16  and  C13_17 
REMARK    4  A    between atoms: C13_17  and  C14_18 
REMARK       I    between atoms: C14_18  and  N2_20 
REMARK    5  A    between atoms: N2_20  and  C15_21 
REMARK    6  A    between atoms: C15_21  and  C16_22 
REMARK    7  A    between atoms: C15_21  and  C23_33 
REMARK       I    between atoms: C16_22  and  N3_24 
REMARK    8  A    between atoms: N3_24  and  C17_25 
REMARK    9  A    between atoms: C17_25  and  C18_26 
REMARK   10  A    between atoms: C17_25  and  C19_29 
REMARK   11  A    between atoms: C18_26  and  O6_28 
REMARK   12  A    between atoms: C19_29  and  C21_31 
ROOT
HETATM    1  C1  UNL     1       0.270  52.573 -22.117  1.00  0.00     0.015 C 
HETATM    2  C2  UNL     1      -0.386  51.627 -21.769  1.00  0.00    -0.078 C 
HETATM    3  C3  UNL     1      -1.174  50.451 -21.352  1.00  0.00     0.128 C 
HETATM    4  C4  UNL     1      -0.287  49.451 -20.583  1.00  0.00     0.052 C 
HETATM    5  C5  UNL     1      -1.184  48.758 -19.553  1.00  0.00     0.010 C 
HETATM    6  C6  UNL     1      -2.574  49.402 -19.648  1.00  0.00     0.002 C 
HETATM    7  C7  UNL     1      -3.684  48.466 -20.196  1.00  0.00    -0.004 C 
HETATM    8  C8  UNL     1      -3.349  47.587 -21.417  1.00  0.00     0.010 C 
HETATM    9  C9  UNL     1      -4.469  46.589 -21.700  1.00  0.00     0.035 C 
HETATM   10  C10 UNL     1      -5.808  47.262 -21.880  1.00  0.00    -0.069 C 
HETATM   11  C11 UNL     1      -6.611  46.891 -22.895  1.00  0.00     0.030 C 
HETATM   12  C12 UNL     1      -7.995  47.414 -23.040  1.00  0.00     0.032 C 
HETATM   13  N1  UNL     1      -8.670  47.050 -24.095  1.00  0.00    -0.271 N 
ATOM     14  H1  UNL     1      -8.303  46.443 -24.828  1.00  0.00     0.194 HD
HETATM   15  C26 UNL     1      -8.541  48.287 -21.926  1.00  0.00     0.060 C 
HETATM   16  C27 UNL     1      -7.415  49.137 -21.347  1.00  0.00     0.020 C 
HETATM   17  C28 UNL     1      -6.201  48.310 -20.836  1.00  0.00    -0.016 C 
HETATM   18  C29 UNL     1      -6.643  47.553 -19.556  1.00  0.00     0.020 C 
HETATM   19  C30 UNL     1      -4.989  49.267 -20.458  1.00  0.00     0.002 C 
HETATM   20  C31 UNL     1      -4.678  50.381 -21.482  1.00  0.00     0.007 C 
HETATM   21  C32 UNL     1      -3.604  51.358 -20.994  1.00  0.00     0.014 C 
HETATM   22  C33 UNL     1      -2.334  50.764 -20.353  1.00  0.00     0.003 C 
HETATM   23  C34 UNL     1      -1.853  51.782 -19.269  1.00  0.00     0.020 C 
ENDROOT
BRANCH   3  24
HETATM   24  O1  UNL     1      -1.675  49.867 -22.547  1.00  0.00    -0.377 OA
HETATM   25  H2  UNL     1      -1.219  49.015 -22.690  1.00  0.00     0.211 HD
ENDBRANCH   3  24
BRANCH  13  26
HETATM   26  O2  UNL     1      -9.961  47.596 -24.097  1.00  0.00    -0.271 OA
BRANCH  26  27
HETATM   27  C13 UNL     1     -10.562  47.352 -25.367  1.00  0.00     0.303 C 
BRANCH  27  28
HETATM   28  C14 UNL     1     -11.592  46.230 -25.260  1.00  0.00     0.244 C 
HETATM   29  O3  UNL     1     -11.371  45.189 -24.642  1.00  0.00    -0.271 OA
HETATM   30  N2  UNL     1     -12.799  46.492 -25.880  1.00  0.00    -0.346 N 
HETATM   31  H16 UNL     1     -12.992  47.479 -26.038  1.00  0.00     0.163 HD
BRANCH  30  32
HETATM   32  C15 UNL     1     -13.951  45.632 -25.639  1.00  0.00     0.180 C 
BRANCH  32  33
HETATM   33  C16 UNL     1     -14.963  46.408 -24.763  1.00  0.00     0.241 C 
HETATM   34  O4  UNL     1     -14.729  47.532 -24.321  1.00  0.00    -0.271 OA
HETATM   35  N3  UNL     1     -16.161  45.755 -24.550  1.00  0.00    -0.344 N 
HETATM   36  H18 UNL     1     -16.398  45.018 -25.205  1.00  0.00     0.163 HD
BRANCH  35  37
HETATM   37  C17 UNL     1     -17.281  46.444 -23.895  1.00  0.00     0.186 C 
BRANCH  37  38
HETATM   38  C18 UNL     1     -18.406  46.561 -24.929  1.00  0.00     0.163 C 
HETATM   39  O5  UNL     1     -19.418  47.239 -24.823  1.00  0.00    -0.648 OA
BRANCH  38  40
HETATM   40  O6  UNL     1     -18.180  45.842 -26.045  1.00  0.00    -0.775 OA
HETATM   41  H20 UNL     1     -18.975  45.986 -26.599  1.00  0.00     0.167 HD
ENDBRANCH  38  40
ENDBRANCH  37  38
BRANCH  37  42
HETATM   42  C19 UNL     1     -17.704  45.710 -22.602  1.00  0.00     0.014 C 
HETATM   43  C20 UNL     1     -19.220  45.755 -22.355  1.00  0.00     0.012 C 
BRANCH  42  44
HETATM   44  C21 UNL     1     -16.982  46.210 -21.331  1.00  0.00     0.002 C 
HETATM   45  C22 UNL     1     -17.919  46.803 -20.286  1.00  0.00     0.005 C 
ENDBRANCH  42  44
ENDBRANCH  37  42
ENDBRANCH  35  37
ENDBRANCH  32  33
BRANCH  32  46
HETATM   46  C23 UNL     1     -14.606  45.125 -26.945  1.00  0.00     0.009 C 
HETATM   47  C24 UNL     1     -14.375  46.058 -28.139  1.00  0.00     0.012 C 
HETATM   48  C25 UNL     1     -14.114  43.714 -27.289  1.00  0.00     0.012 C 
ENDBRANCH  32  46
ENDBRANCH  30  32
ENDBRANCH  27  28
ENDBRANCH  26  27
ENDBRANCH  13  26
TORSDOF 12
ENDMDL
MODEL 2
REMARK minimizedAffinity -8.84052944
REMARK CNNscore 0.442524284
REMARK CNNaffinity 6.75143099
REMARK  12 active torsions:
REMARK  status: ('A' for Active; 'I' for Inactive)
REMARK    1  A    between atoms: C3_3  and  O1_4 
REMARK    2  A    between atoms: N1_14  and  O2_16 
REMARK    3  A    between atoms: O2_16  and  C13_17 
REMARK    4  A    between atoms: C13_17  and  C14_18 
REMARK       I    between atoms: C14_18  and  N2_20 
REMARK    5  A    between atoms: N2_20  and  C15_21 
REMARK    6  A    between atoms: C15_21  and  C16_22 
REMARK    7  A    between atoms: C15_21  and  C23_33 
REMARK       I    between atoms: C16_22  and  N3_24 
REMARK    8  A    between atoms: N3_24  and  C17_25 
REMARK    9  A    between atoms: C17_25  and  C18_26 
REMARK   10  A    between atoms: C17_25  and  C19_29 
REMARK   11  A    between atoms: C18_26  and  O6_28 
REMARK   12  A    between atoms: C19_29  and  C21_31 
ROOT
HETATM    1  C1  UNL     1      -7.748  49.578 -23.312  1.00  0.00     0.015 C 
HETATM    2  C2  UNL     1      -6.558  49.489 -23.171  1.00  0.00    -0.078 C 
HETATM    3  C3  UNL     1      -5.098  49.356 -22.998  1.00  0.00     0.128 C 
HETATM    4  C4  UNL     1      -4.521  48.356 -24.021  1.00  0.00     0.052 C 
HETATM    5  C5  UNL     1      -3.102  48.825 -24.353  1.00  0.00     0.010 C 
HETATM    6  C6  UNL     1      -2.866  50.142 -23.600  1.00  0.00     0.002 C 
HETATM    7  C7  UNL     1      -1.812  50.057 -22.464  1.00  0.00    -0.004 C 
HETATM    8  C8  UNL     1      -1.857  48.834 -21.528  1.00  0.00     0.010 C 
HETATM    9  C9  UNL     1      -0.641  48.803 -20.605  1.00  0.00     0.035 C 
HETATM   10  C10 UNL     1      -0.490  50.077 -19.809  1.00  0.00    -0.069 C 
HETATM   11  C11 UNL     1      -0.210  50.015 -18.495  1.00  0.00     0.030 C 
HETATM   12  C12 UNL     1       0.091  51.229 -17.691  1.00  0.00     0.032 C 
HETATM   13  N1  UNL     1       0.281  51.073 -16.410  1.00  0.00    -0.271 N 
ATOM     14  H1  UNL     1       0.222  50.176 -15.928  1.00  0.00     0.194 HD
HETATM   15  C26 UNL     1       0.209  52.550 -18.425  1.00  0.00     0.060 C 
HETATM   16  C27 UNL     1      -0.778  52.577 -19.588  1.00  0.00     0.020 C 
HETATM   17  C28 UNL     1      -0.611  51.393 -20.582  1.00  0.00    -0.016 C 
HETATM   18  C29 UNL     1       0.715  51.604 -21.359  1.00  0.00     0.020 C 
HETATM   19  C30 UNL     1      -1.807  51.368 -21.630  1.00  0.00     0.002 C 
HETATM   20  C31 UNL     1      -3.217  51.569 -21.033  1.00  0.00     0.007 C 
HETATM   21  C32 UNL     1      -4.307  51.686 -22.104  1.00  0.00     0.014 C 
HETATM   22  C33 UNL     1      -4.287  50.665 -23.259  1.00  0.00     0.003 C 
HETATM   23  C34 UNL     1      -4.840  51.399 -24.523  1.00  0.00     0.020 C 
ENDROOT
BRANCH   3  24
HETATM   24  O1  UNL     1      -4.899  48.890 -21.670  1.00  0.00    -0.377 OA
HETATM   25  H2  UNL     1      -4.580  47.967 -21.709  1.00  0.00     0.211 HD
ENDBRANCH   3  24
BRANCH  13  26
HETATM   26  O2  UNL     1       0.574  52.289 -15.779  1.00  0.00    -0.271 OA
BRANCH  26  27
HETATM   27  C13 UNL     1       1.326  52.024 -14.596  1.00  0.00     0.303 C 
BRANCH  27  28
HETATM   28  C14 UNL     1       0.412  52.040 -13.373  1.00  0.00     0.244 C 
HETATM   29  O3  UNL     1      -0.557  51.290 -13.263  1.00  0.00    -0.271 OA
HETATM   30  N2  UNL     1       0.782  52.936 -12.387  1.00  0.00    -0.346 N 
HETATM   31  H16 UNL     1       1.756  53.229 -12.420  1.00  0.00     0.163 HD
BRANCH  30  32
HETATM   32  C15 UNL     1       0.163  52.874 -11.069  1.00  0.00     0.180 C 
BRANCH  32  33
HETATM   33  C16 UNL     1       1.230  53.250 -10.012  1.00  0.00     0.241 C 
HETATM   34  O4  UNL     1       0.955  53.410  -8.824  1.00  0.00    -0.271 OA
HETATM   35  N3  UNL     1       2.516  53.351 -10.502  1.00  0.00    -0.344 N 
HETATM   36  H18 UNL     1       2.704  52.885 -11.384  1.00  0.00     0.163 HD
BRANCH  35  37
HETATM   37  C17 UNL     1       3.654  53.519  -9.587  1.00  0.00     0.186 C 
BRANCH  37  38
HETATM   38  C18 UNL     1       4.183  52.118  -9.264  1.00  0.00     0.163 C 
HETATM   39  O5  UNL     1       4.001  51.497  -8.225  1.00  0.00    -0.648 OA
BRANCH  38  40
HETATM   40  O6  UNL     1       4.885  51.567 -10.273  1.00  0.00    -0.775 OA
HETATM   41  H20 UNL     1       5.179  50.699  -9.926  1.00  0.00     0.167 HD
ENDBRANCH  38  40
ENDBRANCH  37  38
BRANCH  37  42
HETATM   42  C19 UNL     1       4.722  54.458 -10.195  1.00  0.00     0.014 C 
HETATM   43  C20 UNL     1       5.914  54.697  -9.256  1.00  0.00     0.012 C 
BRANCH  42  44
HETATM   44  C21 UNL     1       4.168  55.826 -10.650  1.00  0.00     0.002 C 
HETATM   45  C22 UNL     1       3.449  56.595  -9.548  1.00  0.00     0.005 C 
ENDBRANCH  42  44
ENDBRANCH  37  42
ENDBRANCH  35  37
ENDBRANCH  32  33
BRANCH  32  46
HETATM   46  C23 UNL     1      -1.090  53.773 -10.951  1.00  0.00     0.009 C 
HETATM   47  C24 UNL     1      -2.209  53.144 -10.114  1.00  0.00     0.012 C 
HETATM   48  C25 UNL     1      -0.724  55.146 -10.377  1.00  0.00     0.012 C 
ENDBRANCH  32  46
ENDBRANCH  30  32
ENDBRANCH  27  28
ENDBRANCH  26  27
ENDBRANCH  13  26
TORSDOF 12
ENDMDL
MODEL 3
REMARK minimizedAffinity -7.90121269
REMARK CNNscore 0.333404064
REMARK CNNaffinity 6.10523224
REMARK  12 active torsions:
REMARK  status: ('A' for Active; 'I' for Inactive)
REMARK    1  A    between atoms: C3_3  and  O1_4 
REMARK    2  A    between atoms: N1_14  and  O2_16 
REMARK    3  A    between atoms: O2_16  and  C13_17 
REMARK    4  A    between atoms: C13_17  and  C14_18 
REMARK       I    between atoms: C14_18  and  N2_20 
REMARK    5  A    between atoms: N2_20  and  C15_21 
REMARK    6  A    between atoms: C15_21  and  C16_22 
REMARK    7  A    between atoms: C15_21  and  C23_33 
REMARK       I    between atoms: C16_22  and  N3_24 
REMARK    8  A    between atoms: N3_24  and  C17_25 
REMARK    9  A    between atoms: C17_25  and  C18_26 
REMARK   10  A    between atoms: C17_25  and  C19_29 
REMARK   11  A    between atoms: C18_26  and  O6_28 
REMARK   12  A    between atoms: C19_29  and  C21_31 
ROOT
HETATM    1  C1  UNL     1      -2.793  52.619 -24.007  1.00  0.00     0.015 C 
HETATM    2  C2  UNL     1      -3.165  51.560 -23.575  1.00  0.00    -0.078 C 
HETATM    3  C3  UNL     1      -3.617  50.251 -23.067  1.00  0.00     0.128 C 
HETATM    4  C4  UNL     1      -2.599  49.150 -23.427  1.00  0.00     0.052 C 
HETATM    5  C5  UNL     1      -2.646  48.112 -22.301  1.00  0.00     0.010 C 
HETATM    6  C6  UNL     1      -3.622  48.634 -21.237  1.00  0.00     0.002 C 
HETATM    7  C7  UNL     1      -4.927  47.807 -21.095  1.00  0.00    -0.004 C 
HETATM    8  C8  UNL     1      -5.637  47.353 -22.386  1.00  0.00     0.010 C 
HETATM    9  C9  UNL     1      -6.780  46.389 -22.075  1.00  0.00     0.035 C 
HETATM   10  C10 UNL     1      -7.772  46.967 -21.096  1.00  0.00    -0.069 C 
HETATM   11  C11 UNL     1      -9.091  46.841 -21.329  1.00  0.00     0.030 C 
HETATM   12  C12 UNL     1     -10.114  47.262 -20.335  1.00  0.00     0.032 C 
HETATM   13  N1  UNL     1     -11.368  47.165 -20.681  1.00  0.00    -0.271 N 
ATOM     14  H1  UNL     1     -11.686  46.832 -21.592  1.00  0.00     0.194 HD
HETATM   15  C26 UNL     1      -9.629  47.723 -18.974  1.00  0.00     0.060 C 
HETATM   16  C27 UNL     1      -8.303  48.460 -19.129  1.00  0.00     0.020 C 
HETATM   17  C28 UNL     1      -7.198  47.628 -19.839  1.00  0.00    -0.016 C 
HETATM   18  C29 UNL     1      -6.758  46.496 -18.875  1.00  0.00     0.020 C 
HETATM   19  C30 UNL     1      -5.932  48.534 -20.160  1.00  0.00     0.002 C 
HETATM   20  C31 UNL     1      -6.243  49.920 -20.767  1.00  0.00     0.007 C 
HETATM   21  C32 UNL     1      -4.999  50.801 -20.912  1.00  0.00     0.014 C 
HETATM   22  C33 UNL     1      -3.733  50.158 -21.512  1.00  0.00     0.003 C 
HETATM   23  C34 UNL     1      -2.506  50.853 -20.838  1.00  0.00     0.020 C 
ENDROOT
BRANCH   3  24
HETATM   24  O1  UNL     1      -4.872  49.999 -23.687  1.00  0.00    -0.377 OA
HETATM   25  H2  UNL     1      -4.761  49.269 -24.326  1.00  0.00     0.211 HD
ENDBRANCH   3  24
BRANCH  13  26
HETATM   26  O2  UNL     1     -12.223  47.574 -19.649  1.00  0.00    -0.271 OA
BRANCH  26  27
HETATM   27  C13 UNL     1     -13.291  46.637 -19.537  1.00  0.00     0.303 C 
BRANCH  27  28
HETATM   28  C14 UNL     1     -14.553  47.189 -20.195  1.00  0.00     0.244 C 
HETATM   29  O3  UNL     1     -14.539  48.187 -20.914  1.00  0.00    -0.271 OA
HETATM   30  N2  UNL     1     -15.701  46.459 -19.948  1.00  0.00    -0.346 N 
HETATM   31  H16 UNL     1     -15.540  45.497 -19.658  1.00  0.00     0.163 HD
BRANCH  30  32
HETATM   32  C15 UNL     1     -16.913  46.715 -20.716  1.00  0.00     0.180 C 
BRANCH  32  33
HETATM   33  C16 UNL     1     -16.845  45.893 -22.024  1.00  0.00     0.241 C 
HETATM   34  O4  UNL     1     -16.837  44.664 -22.033  1.00  0.00    -0.271 OA
HETATM   35  N3  UNL     1     -16.832  46.649 -23.180  1.00  0.00    -0.344 N 
HETATM   36  H18 UNL     1     -17.175  47.600 -23.104  1.00  0.00     0.163 HD
BRANCH  35  37
HETATM   37  C17 UNL     1     -16.953  46.005 -24.495  1.00  0.00     0.186 C 
BRANCH  37  38
HETATM   38  C18 UNL     1     -18.290  46.453 -25.095  1.00  0.00     0.163 C 
HETATM   39  O5  UNL     1     -18.873  47.502 -24.860  1.00  0.00    -0.648 OA
BRANCH  38  40
HETATM   40  O6  UNL     1     -18.802  45.570 -25.974  1.00  0.00    -0.775 OA
HETATM   41  H20 UNL     1     -19.654  45.965 -26.255  1.00  0.00     0.167 HD
ENDBRANCH  38  40
ENDBRANCH  37  38
BRANCH  37  42
HETATM   42  C19 UNL     1     -15.734  46.334 -25.389  1.00  0.00     0.014 C 
HETATM   43  C20 UNL     1     -15.676  45.476 -26.663  1.00  0.00     0.012 C 
BRANCH  42  44
HETATM   44  C21 UNL     1     -14.376  46.230 -24.661  1.00  0.00     0.002 C 
HETATM   45  C22 UNL     1     -13.235  46.931 -25.387  1.00  0.00     0.005 C 
ENDBRANCH  42  44
ENDBRANCH  37  42
ENDBRANCH  35  37
ENDBRANCH  32  33
BRANCH  32  46
HETATM   46  C23 UNL     1     -18.204  46.406 -19.920  1.00  0.00     0.009 C 
HETATM   47  C24 UNL     1     -18.972  47.663 -19.501  1.00  0.00     0.012 C 
HETATM   48  C25 UNL     1     -19.126  45.478 -20.719  1.00  0.00     0.012 C 
ENDBRANCH  32  46
ENDBRANCH  30  32
ENDBRANCH  27  28
ENDBRANCH  26  27
ENDBRANCH  13  26
TORSDOF 12
ENDMDL
MODEL 4
REMARK minimizedAffinity -7.99084663
REMARK CNNscore 0.303836167
REMARK CNNaffinity 6.81845808
REMARK  12 active torsions:
REMARK  status: ('A' for Active; 'I' for Inactive)
REMARK    1  A    between atoms: C3_3  and  O1_4 
REMARK    2  A    between atoms: N1_14  and  O2_16 
REMARK    3  A    between atoms: O2_16  and  C13_17 
REMARK    4  A    between atoms: C13_17  and  C14_18 
REMARK       I    between atoms: C14_18  and  N2_20 
REMARK    5  A    between atoms: N2_20  and  C15_21 
REMARK    6  A    between atoms: C15_21  and  C16_22 
REMARK    7  A    between atoms: C15_21  and  C23_33 
REMARK       I    between atoms: C16_22  and  N3_24 
REMARK    8  A    between atoms: N3_24  and  C17_25 
REMARK    9  A    between atoms: C17_25  and  C18_26 
REMARK   10  A    between atoms: C17_25  and  C19_29 
REMARK   11  A    between atoms: C18_26  and  O6_28 
REMARK   12  A    between atoms: C19_29  and  C21_31 
ROOT
HETATM    1  C1  UNL     1      -0.013  55.713 -27.323  1.00  0.00     0.015 C 
HETATM    2  C2  UNL     1      -0.157  54.550 -27.058  1.00  0.00    -0.078 C 
HETATM    3  C3  UNL     1      -0.325  53.116 -26.754  1.00  0.00     0.128 C 
HETATM    4  C4  UNL     1       0.985  52.349 -27.025  1.00  0.00     0.052 C 
HETATM    5  C5  UNL     1       1.044  51.194 -26.021  1.00  0.00     0.010 C 
HETATM    6  C6  UNL     1      -0.179  51.323 -25.101  1.00  0.00     0.002 C 
HETATM    7  C7  UNL     1      -1.231  50.194 -25.264  1.00  0.00    -0.004 C 
HETATM    8  C8  UNL     1      -1.602  49.754 -26.693  1.00  0.00     0.010 C 
HETATM    9  C9  UNL     1      -2.488  48.510 -26.673  1.00  0.00     0.035 C 
HETATM   10  C10 UNL     1      -3.729  48.701 -25.834  1.00  0.00    -0.069 C 
HETATM   11  C11 UNL     1      -4.922  48.291 -26.304  1.00  0.00     0.030 C 
HETATM   12  C12 UNL     1      -6.153  48.321 -25.472  1.00  0.00     0.032 C 
HETATM   13  N1  UNL     1      -7.274  47.970 -26.039  1.00  0.00    -0.271 N 
ATOM     14  H1  UNL     1      -7.358  47.691 -27.016  1.00  0.00     0.194 HD
HETATM   15  C26 UNL     1      -6.009  48.706 -24.012  1.00  0.00     0.060 C 
HETATM   16  C27 UNL     1      -4.912  49.754 -23.867  1.00  0.00     0.020 C 
HETATM   17  C28 UNL     1      -3.537  49.313 -24.444  1.00  0.00    -0.016 C 
HETATM   18  C29 UNL     1      -2.965  48.205 -23.521  1.00  0.00     0.020 C 
HETATM   19  C30 UNL     1      -2.516  50.531 -24.458  1.00  0.00     0.002 C 
HETATM   20  C31 UNL     1      -3.084  51.867 -24.985  1.00  0.00     0.007 C 
HETATM   21  C32 UNL     1      -2.102  53.033 -24.833  1.00  0.00     0.014 C 
HETATM   22  C33 UNL     1      -0.639  52.798 -25.257  1.00  0.00     0.003 C 
HETATM   23  C34 UNL     1       0.253  53.675 -24.320  1.00  0.00     0.020 C 
ENDROOT
BRANCH   3  24
HETATM   24  O1  UNL     1      -1.366  52.651 -27.603  1.00  0.00    -0.377 OA
HETATM   25  H2  UNL     1      -0.978  52.058 -28.274  1.00  0.00     0.211 HD
ENDBRANCH   3  24
BRANCH  13  26
HETATM   26  O2  UNL     1      -8.348  48.024 -25.139  1.00  0.00    -0.271 OA
BRANCH  26  27
HETATM   27  C13 UNL     1      -9.397  48.795 -25.721  1.00  0.00     0.303 C 
BRANCH  27  28
HETATM   28  C14 UNL     1     -10.547  47.888 -26.151  1.00  0.00     0.244 C 
HETATM   29  O3  UNL     1     -11.720  48.132 -25.870  1.00  0.00    -0.271 OA
HETATM   30  N2  UNL     1     -10.168  46.794 -26.907  1.00  0.00    -0.346 N 
HETATM   31  H16 UNL     1      -9.264  46.885 -27.365  1.00  0.00     0.163 HD
BRANCH  30  32
HETATM   32  C15 UNL     1     -11.173  45.997 -27.599  1.00  0.00     0.180 C 
BRANCH  32  33
HETATM   33  C16 UNL     1     -11.963  45.186 -26.544  1.00  0.00     0.241 C 
HETATM   34  O4  UNL     1     -12.070  43.963 -26.595  1.00  0.00    -0.271 OA
HETATM   35  N3  UNL     1     -12.502  45.942 -25.522  1.00  0.00    -0.344 N 
HETATM   36  H18 UNL     1     -12.095  46.858 -25.371  1.00  0.00     0.163 HD
BRANCH  35  37
HETATM   37  C17 UNL     1     -13.118  45.292 -24.357  1.00  0.00     0.186 C 
BRANCH  37  38
HETATM   38  C18 UNL     1     -12.186  45.528 -23.164  1.00  0.00     0.163 C 
HETATM   39  O5  UNL     1     -12.174  44.893 -22.118  1.00  0.00    -0.648 OA
BRANCH  38  40
HETATM   40  O6  UNL     1     -11.305  46.527 -23.365  1.00  0.00    -0.775 OA
HETATM   41  H20 UNL     1     -10.798  46.584 -22.529  1.00  0.00     0.167 HD
ENDBRANCH  38  40
ENDBRANCH  37  38
BRANCH  37  42
HETATM   42  C19 UNL     1     -14.557  45.810 -24.128  1.00  0.00     0.014 C 
HETATM   43  C20 UNL     1     -15.299  46.116 -25.438  1.00  0.00     0.012 C 
BRANCH  42  44
HETATM   44  C21 UNL     1     -14.639  47.050 -23.212  1.00  0.00     0.002 C 
HETATM   45  C22 UNL     1     -15.660  46.916 -22.087  1.00  0.00     0.005 C 
ENDBRANCH  42  44
ENDBRANCH  37  42
ENDBRANCH  35  37
ENDBRANCH  32  33
BRANCH  32  46
HETATM   46  C23 UNL     1     -12.117  46.852 -28.478  1.00  0.00     0.009 C 
HETATM   47  C24 UNL     1     -13.182  46.023 -29.205  1.00  0.00     0.012 C 
HETATM   48  C25 UNL     1     -12.794  47.946 -27.645  1.00  0.00     0.012 C 
ENDBRANCH  32  46
ENDBRANCH  30  32
ENDBRANCH  27  28
ENDBRANCH  26  27
ENDBRANCH  13  26
TORSDOF 12
ENDMDL
MODEL 5
REMARK minimizedAffinity -9.08722401
REMARK CNNscore 0.301402479
REMARK CNNaffinity 6.73597097
REMARK  12 active torsions:
REMARK  status: ('A' for Active; 'I' for Inactive)
REMARK    1  A    between atoms: C3_3  and  O1_4 
REMARK    2  A    between atoms: N1_14  and  O2_16 
REMARK    3  A    between atoms: O2_16  and  C13_17 
REMARK    4  A    between atoms: C13_17  and  C14_18 
REMARK       I    between atoms: C14_18  and  N2_20 
REMARK    5  A    between atoms: N2_20  and  C15_21 
REMARK    6  A    between atoms: C15_21  and  C16_22 
REMARK    7  A    between atoms: C15_21  and  C23_33 
REMARK       I    between atoms: C16_22  and  N3_24 
REMARK    8  A    between atoms: N3_24  and  C17_25 
REMARK    9  A    between atoms: C17_25  and  C18_26 
REMARK   10  A    between atoms: C17_25  and  C19_29 
REMARK   11  A    between atoms: C18_26  and  O6_28 
REMARK   12  A    between atoms: C19_29  and  C21_31 
ROOT
HETATM    1  C1  UNL     1      -7.769  49.552 -23.095  1.00  0.00     0.015 C 
HETATM    2  C2  UNL     1      -6.573  49.479 -23.016  1.00  0.00    -0.078 C 
HETATM    3  C3  UNL     1      -5.104  49.364 -22.918  1.00  0.00     0.128 C 
HETATM    4  C4  UNL     1      -4.571  48.351 -23.952  1.00  0.00     0.052 C 
HETATM    5  C5  UNL     1      -3.176  48.829 -24.367  1.00  0.00     0.010 C 
HETATM    6  C6  UNL     1      -2.916  50.163 -23.653  1.00  0.00     0.002 C 
HETATM    7  C7  UNL     1      -1.803  50.111 -22.573  1.00  0.00    -0.004 C 
HETATM    8  C8  UNL     1      -1.784  48.905 -21.613  1.00  0.00     0.010 C 
HETATM    9  C9  UNL     1      -0.521  48.905 -20.755  1.00  0.00     0.035 C 
HETATM   10  C10 UNL     1      -0.342  50.196 -19.993  1.00  0.00    -0.069 C 
HETATM   11  C11 UNL     1       0.008  50.162 -18.694  1.00  0.00     0.030 C 
HETATM   12  C12 UNL     1       0.337  51.394 -17.931  1.00  0.00     0.032 C 
HETATM   13  N1  UNL     1       0.596  51.265 -16.659  1.00  0.00    -0.271 N 
ATOM     14  H1  UNL     1       0.573  50.377 -16.158  1.00  0.00     0.194 HD
HETATM   15  C26 UNL     1       0.400  52.703 -18.695  1.00  0.00     0.060 C 
HETATM   16  C27 UNL     1      -0.647  52.696 -19.804  1.00  0.00     0.020 C 
HETATM   17  C28 UNL     1      -0.520  51.496 -20.783  1.00  0.00    -0.016 C 
HETATM   18  C29 UNL     1       0.761  51.705 -21.633  1.00  0.00     0.020 C 
HETATM   19  C30 UNL     1      -1.768  51.437 -21.765  1.00  0.00     0.002 C 
HETATM   20  C31 UNL     1      -3.148  51.635 -21.098  1.00  0.00     0.007 C 
HETATM   21  C32 UNL     1      -4.294  51.719 -22.111  1.00  0.00     0.014 C 
HETATM   22  C33 UNL     1      -4.324  50.677 -23.247  1.00  0.00     0.003 C 
HETATM   23  C34 UNL     1      -4.951  51.380 -24.493  1.00  0.00     0.020 C 
ENDROOT
BRANCH   3  24
HETATM   24  O1  UNL     1      -4.830  48.926 -21.594  1.00  0.00    -0.377 OA
HETATM   25  H2  UNL     1      -4.502  48.006 -21.633  1.00  0.00     0.211 HD
ENDBRANCH   3  24
BRANCH  13  26
HETATM   26  O2  UNL     1       0.908  52.497 -16.067  1.00  0.00    -0.271 OA
BRANCH  26  27
HETATM   27  C13 UNL     1       2.324  52.597 -15.933  1.00  0.00     0.303 C 
BRANCH  27  28
HETATM   28  C14 UNL     1       2.790  51.870 -14.673  1.00  0.00     0.244 C 
HETATM   29  O3  UNL     1       3.854  51.255 -14.623  1.00  0.00    -0.271 OA
HETATM   30  N2  UNL     1       1.940  51.990 -13.589  1.00  0.00    -0.346 N 
HETATM   31  H16 UNL     1       1.304  52.784 -13.631  1.00  0.00     0.163 HD
BRANCH  30  32
HETATM   32  C15 UNL     1       2.379  51.574 -12.263  1.00  0.00     0.180 C 
BRANCH  32  33
HETATM   33  C16 UNL     1       1.994  52.682 -11.253  1.00  0.00     0.241 C 
HETATM   34  O4  UNL     1       2.413  52.697 -10.097  1.00  0.00    -0.271 OA
HETATM   35  N3  UNL     1       1.177  53.669 -11.765  1.00  0.00    -0.344 N 
HETATM   36  H18 UNL     1       1.159  53.766 -12.775  1.00  0.00     0.163 HD
BRANCH  35  37
HETATM   37  C17 UNL     1       0.880  54.876 -10.980  1.00  0.00     0.186 C 
BRANCH  37  38
HETATM   38  C18 UNL     1      -0.479  54.654 -10.309  1.00  0.00     0.163 C 
HETATM   39  O5  UNL     1      -0.796  53.697  -9.614  1.00  0.00    -0.648 OA
BRANCH  38  40
HETATM   40  O6  UNL     1      -1.350  55.658 -10.524  1.00  0.00    -0.775 OA
HETATM   41  H20 UNL     1      -2.171  55.378 -10.067  1.00  0.00     0.167 HD
ENDBRANCH  38  40
ENDBRANCH  37  38
BRANCH  37  42
HETATM   42  C19 UNL     1       2.020  55.182  -9.981  1.00  0.00     0.014 C 
HETATM   43  C20 UNL     1       1.507  55.674  -8.619  1.00  0.00     0.012 C 
BRANCH  42  44
HETATM   44  C21 UNL     1       3.064  56.190 -10.510  1.00  0.00     0.002 C 
HETATM   45  C22 UNL     1       4.337  55.538 -11.035  1.00  0.00     0.005 C 
ENDBRANCH  42  44
ENDBRANCH  37  42
ENDBRANCH  35  37
ENDBRANCH  32  33
BRANCH  32  46
HETATM   46  C23 UNL     1       1.803  50.201 -11.843  1.00  0.00     0.009 C 
HETATM   47  C24 UNL     1       0.847  49.604 -12.881  1.00  0.00     0.012 C 
HETATM   48  C25 UNL     1       2.930  49.206 -11.546  1.00  0.00     0.012 C 
ENDBRANCH  32  46
ENDBRANCH  30  32
ENDBRANCH  27  28
ENDBRANCH  26  27
ENDBRANCH  13  26
TORSDOF 12
ENDMDL
MODEL 6
REMARK minimizedAffinity -7.98050451
REMARK CNNscore 0.227287948
REMARK CNNaffinity 6.27793312
REMARK  12 active torsions:
REMARK  status: ('A' for Active; 'I' for Inactive)
REMARK    1  A    between atoms: C3_3  and  O1_4 
REMARK    2  A    between atoms: N1_14  and  O2_16 
REMARK    3  A    between atoms: O2_16  and  C13_17 
REMARK    4  A    between atoms: C13_17  and  C14_18 
REMARK       I    between atoms: C14_18  and  N2_20 
REMARK    5  A    between atoms: N2_20  and  C15_21 
REMARK    6  A    between atoms: C15_21  and  C16_22 
REMARK    7  A    between atoms: C15_21  and  C23_33 
REMARK       I    between atoms: C16_22  and  N3_24 
REMARK    8  A    between atoms: N3_24  and  C17_25 
REMARK    9  A    between atoms: C17_25  and  C18_26 
REMARK   10  A    between atoms: C17_25  and  C19_29 
REMARK   11  A    between atoms: C18_26  and  O6_28 
REMARK   12  A    between atoms: C19_29  and  C21_31 
ROOT
HETATM    1  C1  UNL     1      -2.926  52.030 -22.879  1.00  0.00     0.015 C 
HETATM    2  C2  UNL     1      -2.687  51.386 -21.893  1.00  0.00    -0.078 C 
HETATM    3  C3  UNL     1      -2.415  50.585 -20.683  1.00  0.00     0.128 C 
HETATM    4  C4  UNL     1      -2.760  49.102 -20.927  1.00  0.00     0.052 C 
HETATM    5  C5  UNL     1      -1.791  48.272 -20.081  1.00  0.00     0.010 C 
HETATM    6  C6  UNL     1      -0.819  49.249 -19.405  1.00  0.00     0.002 C 
HETATM    7  C7  UNL     1      -0.968  49.347 -17.864  1.00  0.00    -0.004 C 
HETATM    8  C8  UNL     1      -2.392  49.421 -17.280  1.00  0.00     0.010 C 
HETATM    9  C9  UNL     1      -2.369  49.308 -15.757  1.00  0.00     0.035 C 
HETATM   10  C10 UNL     1      -1.475  50.343 -15.117  1.00  0.00    -0.069 C 
HETATM   11  C11 UNL     1      -1.906  51.021 -14.037  1.00  0.00     0.030 C 
HETATM   12  C12 UNL     1      -1.023  51.947 -13.279  1.00  0.00     0.032 C 
HETATM   13  N1  UNL     1      -1.553  52.612 -12.291  1.00  0.00    -0.271 N 
ATOM     14  H1  UNL     1      -2.533  52.547 -12.017  1.00  0.00     0.194 HD
HETATM   15  C26 UNL     1       0.440  52.009 -13.676  1.00  0.00     0.060 C 
HETATM   16  C27 UNL     1       0.567  51.828 -15.184  1.00  0.00     0.020 C 
HETATM   17  C28 UNL     1      -0.078  50.517 -15.718  1.00  0.00    -0.016 C 
HETATM   18  C29 UNL     1       0.790  49.326 -15.236  1.00  0.00     0.020 C 
HETATM   19  C30 UNL     1      -0.101  50.510 -17.307  1.00  0.00     0.002 C 
HETATM   20  C31 UNL     1      -0.569  51.824 -17.971  1.00  0.00     0.007 C 
HETATM   21  C32 UNL     1      -0.426  51.805 -19.496  1.00  0.00     0.014 C 
HETATM   22  C33 UNL     1      -0.916  50.551 -20.246  1.00  0.00     0.003 C 
HETATM   23  C34 UNL     1       0.007  50.379 -21.496  1.00  0.00     0.020 C 
ENDROOT
BRANCH   3  24
HETATM   24  O1  UNL     1      -3.232  51.131 -19.656  1.00  0.00    -0.377 OA
HETATM   25  H2  UNL     1      -3.935  50.487 -19.443  1.00  0.00     0.211 HD
ENDBRANCH   3  24
BRANCH  13  26
HETATM   26  O2  UNL     1      -0.609  53.428 -11.652  1.00  0.00    -0.271 OA
BRANCH  26  27
HETATM   27  C13 UNL     1      -1.249  54.122 -10.583  1.00  0.00     0.303 C 
BRANCH  27  28
HETATM   28  C14 UNL     1      -0.208  54.682  -9.616  1.00  0.00     0.244 C 
HETATM   29  O3  UNL     1      -0.496  55.046  -8.477  1.00  0.00    -0.271 OA
HETATM   30  N2  UNL     1       1.083  54.711 -10.110  1.00  0.00    -0.346 N 
HETATM   31  H16 UNL     1       1.257  54.078 -10.888  1.00  0.00     0.163 HD
BRANCH  30  32
HETATM   32  C15 UNL     1       2.205  54.971  -9.216  1.00  0.00     0.180 C 
BRANCH  32  33
HETATM   33  C16 UNL     1       3.210  53.802  -9.344  1.00  0.00     0.241 C 
HETATM   34  O4  UNL     1       3.582  53.365 -10.432  1.00  0.00    -0.271 OA
HETATM   35  N3  UNL     1       3.684  53.315  -8.142  1.00  0.00    -0.344 N 
HETATM   36  H18 UNL     1       3.599  53.928  -7.339  1.00  0.00     0.163 HD
BRANCH  35  37
HETATM   37  C17 UNL     1       4.777  52.334  -8.113  1.00  0.00     0.186 C 
BRANCH  37  38
HETATM   38  C18 UNL     1       4.156  50.958  -8.378  1.00  0.00     0.163 C 
HETATM   39  O5  UNL     1       4.706  50.008  -8.917  1.00  0.00    -0.648 OA
BRANCH  38  40
HETATM   40  O6  UNL     1       2.892  50.848  -7.927  1.00  0.00    -0.775 OA
HETATM   41  H20 UNL     1       2.615  49.943  -8.181  1.00  0.00     0.167 HD
ENDBRANCH  38  40
ENDBRANCH  37  38
BRANCH  37  42
HETATM   42  C19 UNL     1       5.892  52.712  -9.116  1.00  0.00     0.014 C 
HETATM   43  C20 UNL     1       6.768  51.516  -9.518  1.00  0.00     0.012 C 
BRANCH  42  44
HETATM   44  C21 UNL     1       6.809  53.857  -8.632  1.00  0.00     0.002 C 
HETATM   45  C22 UNL     1       6.714  55.120  -9.479  1.00  0.00     0.005 C 
ENDBRANCH  42  44
ENDBRANCH  37  42
ENDBRANCH  35  37
ENDBRANCH  32  33
BRANCH  32  46
HETATM   46  C23 UNL     1       2.885  56.334  -9.487  1.00  0.00     0.009 C 
HETATM   47  C24 UNL     1       3.889  56.735  -8.402  1.00  0.00     0.012 C 
HETATM   48  C25 UNL     1       3.575  56.335 -10.856  1.00  0.00     0.012 C 
ENDBRANCH  32  46
ENDBRANCH  30  32
ENDBRANCH  27  28
ENDBRANCH  26  27
ENDBRANCH  13  26
TORSDOF 12
ENDMDL
MODEL 7
REMARK minimizedAffinity -9.23109818
REMARK CNNscore 0.198181316
REMARK CNNaffinity 6.51070738
REMARK  12 active torsions:
REMARK  status: ('A' for Active; 'I' for Inactive)
REMARK    1  A    between atoms: C3_3  and  O1_4 
REMARK    2  A    between atoms: N1_14  and  O2_16 
REMARK    3  A    between atoms: O2_16  and  C13_17 
REMARK    4  A    between atoms: C13_17  and  C14_18 
REMARK       I    between atoms: C14_18  and  N2_20 
REMARK    5  A    between atoms: N2_20  and  C15_21 
REMARK    6  A    between atoms: C15_21  and  C16_22 
REMARK    7  A    between atoms: C15_21  and  C23_33 
REMARK       I    between atoms: C16_22  and  N3_24 
REMARK    8  A    between atoms: N3_24  and  C17_25 
REMARK    9  A    between atoms: C17_25  and  C18_26 
REMARK   10  A    between atoms: C17_25  and  C19_29 
REMARK   11  A    between atoms: C18_26  and  O6_28 
REMARK   12  A    between atoms: C19_29  and  C21_31 
ROOT
HETATM    1  C1  UNL     1      -7.722  49.614 -23.290  1.00  0.00     0.015 C 
HETATM    2  C2  UNL     1      -6.533  49.511 -23.150  1.00  0.00    -0.078 C 
HETATM    3  C3  UNL     1      -5.075  49.360 -22.979  1.00  0.00     0.128 C 
HETATM    4  C4  UNL     1      -4.501  48.407 -24.047  1.00  0.00     0.052 C 
HETATM    5  C5  UNL     1      -3.077  48.883 -24.351  1.00  0.00     0.010 C 
HETATM    6  C6  UNL     1      -2.836  50.160 -23.535  1.00  0.00     0.002 C 
HETATM    7  C7  UNL     1      -1.787  50.014 -22.401  1.00  0.00    -0.004 C 
HETATM    8  C8  UNL     1      -1.842  48.746 -21.526  1.00  0.00     0.010 C 
HETATM    9  C9  UNL     1      -0.630  48.663 -20.601  1.00  0.00     0.035 C 
HETATM   10  C10 UNL     1      -0.473  49.897 -19.744  1.00  0.00    -0.069 C 
HETATM   11  C11 UNL     1      -0.198  49.768 -18.433  1.00  0.00     0.030 C 
HETATM   12  C12 UNL     1       0.107  50.940 -17.570  1.00  0.00     0.032 C 
HETATM   13  N1  UNL     1       0.291  50.721 -16.298  1.00  0.00    -0.271 N 
ATOM     14  H1  UNL     1       0.225  49.802 -15.860  1.00  0.00     0.194 HD
HETATM   15  C26 UNL     1       0.236  52.295 -18.239  1.00  0.00     0.060 C 
HETATM   16  C27 UNL     1      -0.747  52.384 -19.402  1.00  0.00     0.020 C 
HETATM   17  C28 UNL     1      -0.584  51.249 -20.453  1.00  0.00    -0.016 C 
HETATM   18  C29 UNL     1       0.746  51.489 -21.214  1.00  0.00     0.020 C 
HETATM   19  C30 UNL     1      -1.776  51.282 -21.504  1.00  0.00     0.002 C 
HETATM   20  C31 UNL     1      -3.188  51.463 -20.903  1.00  0.00     0.007 C 
HETATM   21  C32 UNL     1      -4.272  51.639 -21.970  1.00  0.00     0.014 C 
HETATM   22  C33 UNL     1      -4.255  50.675 -23.173  1.00  0.00     0.003 C 
HETATM   23  C34 UNL     1      -4.799  51.473 -24.402  1.00  0.00     0.020 C 
ENDROOT
BRANCH   3  24
HETATM   24  O1  UNL     1      -4.883  48.828 -21.674  1.00  0.00    -0.377 OA
HETATM   25  H2  UNL     1      -4.570  47.907 -21.757  1.00  0.00     0.211 HD
ENDBRANCH   3  24
BRANCH  13  26
HETATM   26  O2  UNL     1       0.590  51.903 -15.607  1.00  0.00    -0.271 OA
BRANCH  26  27
HETATM   27  C13 UNL     1       1.566  51.619 -14.608  1.00  0.00     0.303 C 
BRANCH  27  28
HETATM   28  C14 UNL     1       0.952  51.743 -13.216  1.00  0.00     0.244 C 
HETATM   29  O3  UNL     1       0.583  50.765 -12.568  1.00  0.00    -0.271 OA
HETATM   30  N2  UNL     1       0.878  53.036 -12.730  1.00  0.00    -0.346 N 
HETATM   31  H16 UNL     1       1.514  53.695 -13.174  1.00  0.00     0.163 HD
BRANCH  30  32
HETATM   32  C15 UNL     1       0.560  53.277 -11.328  1.00  0.00     0.180 C 
BRANCH  32  33
HETATM   33  C16 UNL     1       1.677  54.158 -10.721  1.00  0.00     0.241 C 
HETATM   34  O4  UNL     1       1.521  54.803  -9.685  1.00  0.00    -0.271 OA
HETATM   35  N3  UNL     1       2.872  54.133 -11.412  1.00  0.00    -0.344 N 
HETATM   36  H18 UNL     1       3.021  53.343 -12.031  1.00  0.00     0.163 HD
BRANCH  35  37
HETATM   37  C17 UNL     1       4.072  54.772 -10.855  1.00  0.00     0.186 C 
BRANCH  37  38
HETATM   38  C18 UNL     1       3.688  56.210 -10.489  1.00  0.00     0.163 C 
HETATM   39  O5  UNL     1       3.772  56.722  -9.381  1.00  0.00    -0.648 OA
BRANCH  38  40
HETATM   40  O6  UNL     1       3.247  56.928 -11.540  1.00  0.00    -0.775 OA
HETATM   41  H20 UNL     1       3.018  57.803 -11.164  1.00  0.00     0.167 HD
ENDBRANCH  38  40
ENDBRANCH  37  38
BRANCH  37  42
HETATM   42  C19 UNL     1       4.632  53.960  -9.664  1.00  0.00     0.014 C 
HETATM   43  C20 UNL     1       6.129  54.208  -9.421  1.00  0.00     0.012 C 
BRANCH  42  44
HETATM   44  C21 UNL     1       4.395  52.438  -9.776  1.00  0.00     0.002 C 
HETATM   45  C22 UNL     1       5.526  51.596  -9.197  1.00  0.00     0.005 C 
ENDBRANCH  42  44
ENDBRANCH  37  42
ENDBRANCH  35  37
ENDBRANCH  32  33
BRANCH  32  46
HETATM   46  C23 UNL     1      -0.835  53.915 -11.130  1.00  0.00     0.009 C 
HETATM   47  C24 UNL     1      -1.941  52.884 -10.876  1.00  0.00     0.012 C 
HETATM   48  C25 UNL     1      -0.809  54.937  -9.988  1.00  0.00     0.012 C 
ENDBRANCH  32  46
ENDBRANCH  30  32
ENDBRANCH  27  28
ENDBRANCH  26  27
ENDBRANCH  13  26
TORSDOF 12
ENDMDL
MODEL 8
REMARK minimizedAffinity -7.97490644
REMARK CNNscore 0.187397987
REMARK CNNaffinity 6.60590887
REMARK  12 active torsions:
REMARK  status: ('A' for Active; 'I' for Inactive)
REMARK    1  A    between atoms: C3_3  and  O1_4 
REMARK    2  A    between atoms: N1_14  and  O2_16 
REMARK    3  A    between atoms: O2_16  and  C13_17 
REMARK    4  A    between atoms: C13_17  and  C14_18 
REMARK       I    between atoms: C14_18  and  N2_20 
REMARK    5  A    between atoms: N2_20  and  C15_21 
REMARK    6  A    between atoms: C15_21  and  C16_22 
REMARK    7  A    between atoms: C15_21  and  C23_33 
REMARK       I    between atoms: C16_22  and  N3_24 
REMARK    8  A    between atoms: N3_24  and  C17_25 
REMARK    9  A    between atoms: C17_25  and  C18_26 
REMARK   10  A    between atoms: C17_25  and  C19_29 
REMARK   11  A    between atoms: C18_26  and  O6_28 
REMARK   12  A    between atoms: C19_29  and  C21_31 
ROOT
HETATM    1  C1  UNL     1      -0.101  55.660 -27.379  1.00  0.00     0.015 C 
HETATM    2  C2  UNL     1      -0.239  54.500 -27.099  1.00  0.00    -0.078 C 
HETATM    3  C3  UNL     1      -0.399  53.068 -26.777  1.00  0.00     0.128 C 
HETATM    4  C4  UNL     1       0.935  52.318 -26.971  1.00  0.00     0.052 C 
HETATM    5  C5  UNL     1       0.963  51.183 -25.943  1.00  0.00     0.010 C 
HETATM    6  C6  UNL     1      -0.304  51.308 -25.086  1.00  0.00     0.002 C 
HETATM    7  C7  UNL     1      -1.330  50.160 -25.277  1.00  0.00    -0.004 C 
HETATM    8  C8  UNL     1      -1.625  49.687 -26.714  1.00  0.00     0.010 C 
HETATM    9  C9  UNL     1      -2.492  48.430 -26.712  1.00  0.00     0.035 C 
HETATM   10  C10 UNL     1      -3.774  48.615 -25.938  1.00  0.00    -0.069 C 
HETATM   11  C11 UNL     1      -4.937  48.178 -26.456  1.00  0.00     0.030 C 
HETATM   12  C12 UNL     1      -6.207  48.203 -25.684  1.00  0.00     0.032 C 
HETATM   13  N1  UNL     1      -7.293  47.823 -26.297  1.00  0.00    -0.271 N 
ATOM     14  H1  UNL     1      -7.326  47.525 -27.272  1.00  0.00     0.194 HD
HETATM   15  C26 UNL     1      -6.139  48.615 -24.226  1.00  0.00     0.060 C 
HETATM   16  C27 UNL     1      -5.066  49.685 -24.049  1.00  0.00     0.020 C 
HETATM   17  C28 UNL     1      -3.659  49.255 -24.552  1.00  0.00    -0.016 C 
HETATM   18  C29 UNL     1      -3.114  48.174 -23.582  1.00  0.00     0.020 C 
HETATM   19  C30 UNL     1      -2.657  50.489 -24.540  1.00  0.00     0.002 C 
HETATM   20  C31 UNL     1      -3.220  51.807 -25.119  1.00  0.00     0.007 C 
HETATM   21  C32 UNL     1      -2.265  52.992 -24.942  1.00  0.00     0.014 C 
HETATM   22  C33 UNL     1      -0.779  52.772 -25.291  1.00  0.00     0.003 C 
HETATM   23  C34 UNL     1       0.052  53.681 -24.329  1.00  0.00     0.020 C 
ENDROOT
BRANCH   3  24
HETATM   24  O1  UNL     1      -1.391  52.571 -27.665  1.00  0.00    -0.377 OA
HETATM   25  H2  UNL     1      -0.961  51.973 -28.306  1.00  0.00     0.211 HD
ENDBRANCH   3  24
BRANCH  13  26
HETATM   26  O2  UNL     1      -8.410  47.875 -25.451  1.00  0.00    -0.271 OA
BRANCH  26  27
HETATM   27  C13 UNL     1      -8.551  46.617 -24.796  1.00  0.00     0.303 C 
BRANCH  27  28
HETATM   28  C14 UNL     1      -8.342  45.475 -25.788  1.00  0.00     0.244 C 
HETATM   29  O3  UNL     1      -8.223  44.304 -25.430  1.00  0.00    -0.271 OA
HETATM   30  N2  UNL     1      -8.334  45.859 -27.117  1.00  0.00    -0.346 N 
HETATM   31  H16 UNL     1      -8.784  46.752 -27.305  1.00  0.00     0.163 HD
BRANCH  30  32
HETATM   32  C15 UNL     1      -8.406  44.855 -28.171  1.00  0.00     0.180 C 
BRANCH  32  33
HETATM   33  C16 UNL     1      -9.798  44.951 -28.839  1.00  0.00     0.241 C 
HETATM   34  O4  UNL     1     -10.025  44.501 -29.961  1.00  0.00    -0.271 OA
HETATM   35  N3  UNL     1     -10.772  45.545 -28.061  1.00  0.00    -0.344 N 
HETATM   36  H18 UNL     1     -10.599  45.574 -27.062  1.00  0.00     0.163 HD
BRANCH  35  37
HETATM   37  C17 UNL     1     -12.177  45.540 -28.490  1.00  0.00     0.186 C 
BRANCH  37  38
HETATM   38  C18 UNL     1     -12.981  44.837 -27.391  1.00  0.00     0.163 C 
HETATM   39  O5  UNL     1     -12.548  44.444 -26.316  1.00  0.00    -0.648 OA
BRANCH  38  40
HETATM   40  O6  UNL     1     -14.286  44.694 -27.693  1.00  0.00    -0.775 OA
HETATM   41  H20 UNL     1     -14.668  44.216 -26.928  1.00  0.00     0.167 HD
ENDBRANCH  38  40
ENDBRANCH  37  38
BRANCH  37  42
HETATM   42  C19 UNL     1     -12.670  46.973 -28.795  1.00  0.00     0.014 C 
HETATM   43  C20 UNL     1     -11.727  47.745 -29.731  1.00  0.00     0.012 C 
BRANCH  42  44
HETATM   44  C21 UNL     1     -12.927  47.830 -27.536  1.00  0.00     0.002 C 
HETATM   45  C22 UNL     1     -11.660  48.187 -26.768  1.00  0.00     0.005 C 
ENDBRANCH  42  44
ENDBRANCH  37  42
ENDBRANCH  35  37
ENDBRANCH  32  33
BRANCH  32  46
HETATM   46  C23 UNL     1      -7.269  44.993 -29.210  1.00  0.00     0.009 C 
HETATM   47  C24 UNL     1      -7.155  43.785 -30.146  1.00  0.00     0.012 C 
HETATM   48  C25 UNL     1      -7.438  46.273 -30.036  1.00  0.00     0.012 C 
ENDBRANCH  32  46
ENDBRANCH  30  32
ENDBRANCH  27  28
ENDBRANCH  26  27
ENDBRANCH  13  26
TORSDOF 12
ENDMDL
MODEL 9
REMARK minimizedAffinity -7.64828157
REMARK CNNscore 0.170149609
REMARK CNNaffinity 6.41941595
REMARK  12 active torsions:
REMARK  status: ('A' for Active; 'I' for Inactive)
REMARK    1  A    between atoms: C3_3  and  O1_4 
REMARK    2  A    between atoms: N1_14  and  O2_16 
REMARK    3  A    between atoms: O2_16  and  C13_17 
REMARK    4  A    between atoms: C13_17  and  C14_18 
REMARK       I    between atoms: C14_18  and  N2_20 
REMARK    5  A    between atoms: N2_20  and  C15_21 
REMARK    6  A    between atoms: C15_21  and  C16_22 
REMARK    7  A    between atoms: C15_21  and  C23_33 
REMARK       I    between atoms: C16_22  and  N3_24 
REMARK    8  A    between atoms: N3_24  and  C17_25 
REMARK    9  A    between atoms: C17_25  and  C18_26 
REMARK   10  A    between atoms: C17_25  and  C19_29 
REMARK   11  A    between atoms: C18_26  and  O6_28 
REMARK   12  A    between atoms: C19_29  and  C21_31 
ROOT
HETATM    1  C1  UNL     1      -2.991  52.303 -23.141  1.00  0.00     0.015 C 
HETATM    2  C2  UNL     1      -2.737  51.546 -22.242  1.00  0.00    -0.078 C 
HETATM    3  C3  UNL     1      -2.448  50.605 -21.143  1.00  0.00     0.128 C 
HETATM    4  C4  UNL     1      -2.674  49.150 -21.601  1.00  0.00     0.052 C 
HETATM    5  C5  UNL     1      -1.674  48.279 -20.835  1.00  0.00     0.010 C 
HETATM    6  C6  UNL     1      -0.800  49.218 -19.991  1.00  0.00     0.002 C 
HETATM    7  C7  UNL     1      -1.007  49.089 -18.458  1.00  0.00    -0.004 C 
HETATM    8  C8  UNL     1      -2.452  48.983 -17.932  1.00  0.00     0.010 C 
HETATM    9  C9  UNL     1      -2.471  48.662 -16.439  1.00  0.00     0.035 C 
HETATM   10  C10 UNL     1      -1.679  49.656 -15.626  1.00  0.00    -0.069 C 
HETATM   11  C11 UNL     1      -2.195  50.147 -14.484  1.00  0.00     0.030 C 
HETATM   12  C12 UNL     1      -1.408  51.016 -13.569  1.00  0.00     0.032 C 
HETATM   13  N1  UNL     1      -2.018  51.499 -12.523  1.00  0.00    -0.271 N 
ATOM     14  H1  UNL     1      -3.000  51.329 -12.303  1.00  0.00     0.194 HD
HETATM   15  C26 UNL     1       0.058  51.234 -13.889  1.00  0.00     0.060 C 
HETATM   16  C27 UNL     1       0.249  51.273 -15.402  1.00  0.00     0.020 C 
HETATM   17  C28 UNL     1      -0.279  50.009 -16.136  1.00  0.00    -0.016 C 
HETATM   18  C29 UNL     1       0.659  48.824 -15.784  1.00  0.00     0.020 C 
HETATM   19  C30 UNL     1      -0.249  50.220 -17.712  1.00  0.00     0.002 C 
HETATM   20  C31 UNL     1      -0.790  51.579 -18.210  1.00  0.00     0.007 C 
HETATM   21  C32 UNL     1      -0.595  51.783 -19.715  1.00  0.00     0.014 C 
HETATM   22  C33 UNL     1      -0.965  50.614 -20.650  1.00  0.00     0.003 C 
HETATM   23  C34 UNL     1       0.009  50.682 -21.870  1.00  0.00     0.020 C 
ENDROOT
BRANCH   3  24
HETATM   24  O1  UNL     1      -3.337  50.946 -20.087  1.00  0.00    -0.377 OA
HETATM   25  H2  UNL     1      -3.997  50.231 -19.995  1.00  0.00     0.211 HD
ENDBRANCH   3  24
BRANCH  13  26
HETATM   26  O2  UNL     1      -1.160  52.282 -11.739  1.00  0.00    -0.271 OA
BRANCH  26  27
HETATM   27  C13 UNL     1      -1.944  53.109 -10.882  1.00  0.00     0.303 C 
BRANCH  27  28
HETATM   28  C14 UNL     1      -1.192  54.397 -10.554  1.00  0.00     0.244 C 
HETATM   29  O3  UNL     1      -1.767  55.419 -10.184  1.00  0.00    -0.271 OA
HETATM   30  N2  UNL     1       0.183  54.309 -10.672  1.00  0.00    -0.346 N 
HETATM   31  H16 UNL     1       0.555  53.363 -10.632  1.00  0.00     0.163 HD
BRANCH  30  32
HETATM   32  C15 UNL     1       1.033  55.369 -10.145  1.00  0.00     0.180 C 
BRANCH  32  33
HETATM   33  C16 UNL     1       0.957  55.331  -8.600  1.00  0.00     0.241 C 
HETATM   34  O4  UNL     1       1.420  54.403  -7.938  1.00  0.00    -0.271 OA
HETATM   35  N3  UNL     1       0.365  56.437  -8.024  1.00  0.00    -0.344 N 
HETATM   36  H18 UNL     1       0.324  57.277  -8.592  1.00  0.00     0.163 HD
BRANCH  35  37
HETATM   37  C17 UNL     1       0.387  56.623  -6.567  1.00  0.00     0.186 C 
BRANCH  37  38
HETATM   38  C18 UNL     1       0.148  55.249  -5.933  1.00  0.00     0.163 C 
HETATM   39  O5  UNL     1      -0.878  54.587  -6.006  1.00  0.00    -0.648 OA
BRANCH  38  40
HETATM   40  O6  UNL     1       1.219  54.774  -5.269  1.00  0.00    -0.775 OA
HETATM   41  H20 UNL     1       0.923  53.916  -4.900  1.00  0.00     0.167 HD
ENDBRANCH  38  40
ENDBRANCH  37  38
BRANCH  37  42
HETATM   42  C19 UNL     1       1.706  57.292  -6.113  1.00  0.00     0.014 C 
HETATM   43  C20 UNL     1       2.934  56.390  -6.310  1.00  0.00     0.012 C 
BRANCH  42  44
HETATM   44  C21 UNL     1       1.686  57.789  -4.651  1.00  0.00     0.002 C 
HETATM   45  C22 UNL     1       2.978  58.471  -4.216  1.00  0.00     0.005 C 
ENDBRANCH  42  44
ENDBRANCH  37  42
ENDBRANCH  35  37
ENDBRANCH  32  33
BRANCH  32  46
HETATM   46  C23 UNL     1       2.495  55.269 -10.642  1.00  0.00     0.009 C 
HETATM   47  C24 UNL     1       3.432  56.278  -9.971  1.00  0.00     0.012 C 
HETATM   48  C25 UNL     1       3.040  53.849 -10.449  1.00  0.00     0.012 C 
ENDBRANCH  32  46
ENDBRANCH  30  32
ENDBRANCH  27  28
ENDBRANCH  26  27
ENDBRANCH  13  26
TORSDOF 12
ENDMDL
