MODEL 1
REMARK minimizedAffinity -8.7683239
REMARK CNNscore 0.66437602
REMARK CNNaffinity 7.61910772
REMARK  15 active torsions:
REMARK  status: ('A' for Active; 'I' for Inactive)
REMARK    1  A    between atoms: C19_20  and  O2_21 
REMARK    2  A    between atoms: C19_20  and  C20_22 
REMARK    3  A    between atoms: C20_22  and  C21_24 
REMARK    4  A    between atoms: C21_24  and  O4_25 
REMARK    5  A    between atoms: O4_25  and  C22_26 
REMARK    6  A    between atoms: C22_26  and  C23_28 
REMARK    7  A    between atoms: C23_28  and  C24_29 
REMARK    8  A    between atoms: C24_29  and  C25_30 
REMARK       I    between atoms: C25_30  and  N1_32 
REMARK    9  A    between atoms: N1_32  and  C26_33 
REMARK   10  A    between atoms: C26_33  and  C27_34 
REMARK   11  A    between atoms: C27_34  and  C28_35 
REMARK   12  A    between atoms: C28_35  and  C29_36 
REMARK   13  A    between atoms: C29_36  and  C30_37 
REMARK   14  A    between atoms: C30_37  and  C31_38 
REMARK   15  A    between atoms: C31_38  and  O8_40 
ROOT
HETATM    1  C1  UNL     1       0.107   8.239  10.041  1.00  0.00     0.020 C 
HETATM    2  C2  UNL     1       0.894   7.811  11.306  1.00  0.00    -0.016 C 
HETATM    3  C3  UNL     1       2.070   8.826  11.422  1.00  0.00     0.022 C 
HETATM    4  C4  UNL     1       3.210   8.343  12.303  1.00  0.00     0.084 C 
HETATM    5  C5  UNL     1       3.730   7.037  11.759  1.00  0.00     0.149 C 
HETATM    6  O1  UNL     1       4.924   6.745  11.765  1.00  0.00    -0.293 OA
HETATM    7  C6  UNL     1       2.732   6.047  11.290  1.00  0.00     0.053 C 
HETATM    8  C7  UNL     1       1.439   6.385  11.141  1.00  0.00    -0.068 C 
HETATM    9  C8  UNL     1       0.399   5.311  10.942  1.00  0.00     0.035 C 
HETATM   10  C9  UNL     1      -0.539   5.289  12.150  1.00  0.00     0.010 C 
HETATM   11  C10 UNL     1      -1.141   6.673  12.456  1.00  0.00    -0.004 C 
HETATM   12  C11 UNL     1      -0.027   7.773  12.580  1.00  0.00     0.002 C 
HETATM   13  C12 UNL     1      -0.630   9.143  12.980  1.00  0.00     0.007 C 
HETATM   14  C13 UNL     1      -1.559   9.070  14.206  1.00  0.00     0.013 C 
HETATM   15  C14 UNL     1      -2.666   8.014  14.037  1.00  0.00    -0.002 C 
HETATM   16  C15 UNL     1      -3.636   8.455  12.906  1.00  0.00     0.019 C 
HETATM   17  C16 UNL     1      -1.964   6.663  13.751  1.00  0.00     0.002 C 
HETATM   18  C17 UNL     1      -3.085   5.640  13.888  1.00  0.00     0.009 C 
HETATM   19  C18 UNL     1      -3.970   6.193  15.021  1.00  0.00     0.047 C 
HETATM   20  C19 UNL     1      -3.472   7.635  15.318  1.00  0.00     0.128 C 
ENDROOT
BRANCH  20  21
HETATM   21  O2  UNL     1      -2.590   7.560  16.443  1.00  0.00    -0.381 OA
HETATM   22  H27 UNL     1      -3.116   7.268  17.216  1.00  0.00     0.211 HD
ENDBRANCH  20  21
BRANCH  20  23
HETATM   23  C20 UNL     1      -4.623   8.609  15.647  1.00  0.00     0.185 C 
HETATM   24  O3  UNL     1      -4.482   9.561  16.418  1.00  0.00    -0.292 OA
BRANCH  23  25
HETATM   25  C21 UNL     1      -5.973   8.330  14.986  1.00  0.00     0.260 C 
BRANCH  25  26
HETATM   26  O4  UNL     1      -6.847   7.593  15.843  1.00  0.00    -0.314 OA
BRANCH  26  27
HETATM   27  C22 UNL     1      -7.740   6.814  15.169  1.00  0.00     0.259 C 
HETATM   28  O5  UNL     1      -8.908   6.651  15.513  1.00  0.00    -0.265 OA
BRANCH  27  29
HETATM   29  C23 UNL     1      -7.107   6.086  14.003  1.00  0.00     0.120 C 
BRANCH  29  30
HETATM   30  C24 UNL     1      -8.066   5.212  13.203  1.00  0.00     0.112 C 
BRANCH  30  31
HETATM   31  C25 UNL     1      -7.531   3.806  13.022  1.00  0.00     0.217 C 
HETATM   32  O6  UNL     1      -7.896   2.852  13.697  1.00  0.00    -0.274 OA
HETATM   33  N1  UNL     1      -6.578   3.714  12.029  1.00  0.00    -0.361 N 
HETATM   34  H34 UNL     1      -6.542   4.461  11.345  1.00  0.00     0.162 HD
BRANCH  33  35
HETATM   35  C26 UNL     1      -6.030   2.423  11.663  1.00  0.00     0.122 C 
BRANCH  35  36
HETATM   36  C27 UNL     1      -5.066   2.542  10.487  1.00  0.00     0.020 C 
BRANCH  36  37
HETATM   37  C28 UNL     1      -4.004   3.627  10.678  1.00  0.00     0.002 C 
BRANCH  37  38
HETATM   38  C29 UNL     1      -2.549   3.170  10.538  1.00  0.00     0.010 C 
BRANCH  38  39
HETATM   39  C30 UNL     1      -2.262   1.833  11.222  1.00  0.00     0.110 C 
BRANCH  39  40
HETATM   40  C31 UNL     1      -0.998   1.204  10.701  1.00  0.00     0.139 C 
HETATM   41  O7  UNL     1      -0.897   0.243   9.959  1.00  0.00    -0.650 OA
BRANCH  40  42
HETATM   42  O8  UNL     1       0.099   1.846  11.144  1.00  0.00    -0.776 OA
HETATM   43  H45 UNL     1       0.842   1.342  10.748  1.00  0.00     0.167 HD
ENDBRANCH  40  42
ENDBRANCH  39  40
ENDBRANCH  38  39
ENDBRANCH  37  38
ENDBRANCH  36  37
ENDBRANCH  35  36
ENDBRANCH  33  35
ENDBRANCH  30  31
ENDBRANCH  29  30
ENDBRANCH  27  29
ENDBRANCH  26  27
ENDBRANCH  25  26
ENDBRANCH  23  25
ENDBRANCH  20  23
TORSDOF 15
ENDMDL
MODEL 2
REMARK minimizedAffinity -8.43873501
REMARK CNNscore 0.519719541
REMARK CNNaffinity 6.45160913
REMARK  15 active torsions:
REMARK  status: ('A' for Active; 'I' for Inactive)
REMARK    1  A    between atoms: C19_20  and  O2_21 
REMARK    2  A    between atoms: C19_20  and  C20_22 
REMARK    3  A    between atoms: C20_22  and  C21_24 
REMARK    4  A    between atoms: C21_24  and  O4_25 
REMARK    5  A    between atoms: O4_25  and  C22_26 
REMARK    6  A    between atoms: C22_26  and  C23_28 
REMARK    7  A    between atoms: C23_28  and  C24_29 
REMARK    8  A    between atoms: C24_29  and  C25_30 
REMARK       I    between atoms: C25_30  and  N1_32 
REMARK    9  A    between atoms: N1_32  and  C26_33 
REMARK   10  A    between atoms: C26_33  and  C27_34 
REMARK   11  A    between atoms: C27_34  and  C28_35 
REMARK   12  A    between atoms: C28_35  and  C29_36 
REMARK   13  A    between atoms: C29_36  and  C30_37 
REMARK   14  A    between atoms: C30_37  and  C31_38 
REMARK   15  A    between atoms: C31_38  and  O8_40 
ROOT
HETATM    1  C1  UNL     1       3.998   8.483  10.095  1.00  0.00     0.020 C 
HETATM    2  C2  UNL     1       3.151   7.194   9.942  1.00  0.00    -0.016 C 
HETATM    3  C3  UNL     1       4.175   6.021   9.992  1.00  0.00     0.022 C 
HETATM    4  C4  UNL     1       3.641   4.719   9.419  1.00  0.00     0.084 C 
HETATM    5  C5  UNL     1       3.216   4.949   7.991  1.00  0.00     0.149 C 
HETATM    6  O1  UNL     1       3.384   4.113   7.106  1.00  0.00    -0.293 OA
HETATM    7  C6  UNL     1       2.489   6.204   7.690  1.00  0.00     0.053 C 
HETATM    8  C7  UNL     1       2.412   7.195   8.596  1.00  0.00    -0.068 C 
HETATM    9  C8  UNL     1       1.442   8.330   8.389  1.00  0.00     0.035 C 
HETATM   10  C9  UNL     1       0.372   8.283   9.482  1.00  0.00     0.010 C 
HETATM   11  C10 UNL     1       0.975   8.246  10.898  1.00  0.00    -0.004 C 
HETATM   12  C11 UNL     1       2.034   7.096  11.045  1.00  0.00     0.002 C 
HETATM   13  C12 UNL     1       2.568   7.004  12.496  1.00  0.00     0.007 C 
HETATM   14  C13 UNL     1       1.454   6.950  13.557  1.00  0.00     0.013 C 
HETATM   15  C14 UNL     1       0.455   8.114  13.415  1.00  0.00    -0.002 C 
HETATM   16  C15 UNL     1       1.170   9.454  13.745  1.00  0.00     0.019 C 
HETATM   17  C16 UNL     1      -0.105   8.056  11.972  1.00  0.00     0.002 C 
HETATM   18  C17 UNL     1      -1.275   9.032  12.002  1.00  0.00     0.009 C 
HETATM   19  C18 UNL     1      -1.872   8.868  13.413  1.00  0.00     0.047 C 
HETATM   20  C19 UNL     1      -0.872   7.999  14.226  1.00  0.00     0.128 C 
ENDROOT
BRANCH  20  21
HETATM   21  O2  UNL     1      -1.350   6.650  14.189  1.00  0.00    -0.381 OA
HETATM   22  H27 UNL     1      -2.209   6.624  14.659  1.00  0.00     0.211 HD
ENDBRANCH  20  21
BRANCH  20  23
HETATM   23  C20 UNL     1      -0.750   8.447  15.698  1.00  0.00     0.185 C 
HETATM   24  O3  UNL     1      -0.127   7.793  16.538  1.00  0.00    -0.292 OA
BRANCH  23  25
HETATM   25  C21 UNL     1      -1.462   9.743  16.085  1.00  0.00     0.260 C 
BRANCH  25  26
HETATM   26  O4  UNL     1      -1.296  10.052  17.470  1.00  0.00    -0.314 OA
BRANCH  26  27
HETATM   27  C22 UNL     1      -0.542  11.166  17.693  1.00  0.00     0.259 C 
HETATM   28  O5  UNL     1      -0.076  11.872  16.802  1.00  0.00    -0.265 OA
BRANCH  27  29
HETATM   29  C23 UNL     1      -0.253  11.383  19.163  1.00  0.00     0.120 C 
BRANCH  29  30
HETATM   30  C24 UNL     1       1.206  11.683  19.487  1.00  0.00     0.112 C 
BRANCH  30  31
HETATM   31  C25 UNL     1       1.954  10.441  19.925  1.00  0.00     0.217 C 
HETATM   32  O6  UNL     1       2.529   9.689  19.148  1.00  0.00    -0.274 OA
HETATM   33  N1  UNL     1       1.908  10.235  21.288  1.00  0.00    -0.361 N 
HETATM   34  H34 UNL     1       1.668  11.027  21.873  1.00  0.00     0.162 HD
BRANCH  33  35
HETATM   35  C26 UNL     1       2.650   9.142  21.885  1.00  0.00     0.122 C 
BRANCH  35  36
HETATM   36  C27 UNL     1       3.578   9.638  22.988  1.00  0.00     0.020 C 
BRANCH  36  37
HETATM   37  C28 UNL     1       4.226  10.990  22.677  1.00  0.00     0.002 C 
BRANCH  37  38
HETATM   38  C29 UNL     1       5.692  11.140  23.093  1.00  0.00     0.010 C 
BRANCH  38  39
HETATM   39  C30 UNL     1       6.184  12.588  23.074  1.00  0.00     0.110 C 
BRANCH  39  40
HETATM   40  C31 UNL     1       7.682  12.665  23.197  1.00  0.00     0.139 C 
HETATM   41  O7  UNL     1       8.478  11.743  23.172  1.00  0.00    -0.650 OA
BRANCH  40  42
HETATM   42  O8  UNL     1       8.108  13.934  23.336  1.00  0.00    -0.776 OA
HETATM   43  H45 UNL     1       9.082  13.848  23.416  1.00  0.00     0.167 HD
ENDBRANCH  40  42
ENDBRANCH  39  40
ENDBRANCH  38  39
ENDBRANCH  37  38
ENDBRANCH  36  37
ENDBRANCH  35  36
ENDBRANCH  33  35
ENDBRANCH  30  31
ENDBRANCH  29  30
ENDBRANCH  27  29
ENDBRANCH  26  27
ENDBRANCH  25  26
ENDBRANCH  23  25
ENDBRANCH  20  23
TORSDOF 15
ENDMDL
MODEL 3
REMARK minimizedAffinity -8.13977337
REMARK CNNscore 0.500675738
REMARK CNNaffinity 6.57640886
REMARK  15 active torsions:
REMARK  status: ('A' for Active; 'I' for Inactive)
REMARK    1  A    between atoms: C19_20  and  O2_21 
REMARK    2  A    between atoms: C19_20  and  C20_22 
REMARK    3  A    between atoms: C20_22  and  C21_24 
REMARK    4  A    between atoms: C21_24  and  O4_25 
REMARK    5  A    between atoms: O4_25  and  C22_26 
REMARK    6  A    between atoms: C22_26  and  C23_28 
REMARK    7  A    between atoms: C23_28  and  C24_29 
REMARK    8  A    between atoms: C24_29  and  C25_30 
REMARK       I    between atoms: C25_30  and  N1_32 
REMARK    9  A    between atoms: N1_32  and  C26_33 
REMARK   10  A    between atoms: C26_33  and  C27_34 
REMARK   11  A    between atoms: C27_34  and  C28_35 
REMARK   12  A    between atoms: C28_35  and  C29_36 
REMARK   13  A    between atoms: C29_36  and  C30_37 
REMARK   14  A    between atoms: C30_37  and  C31_38 
REMARK   15  A    between atoms: C31_38  and  O8_40 
ROOT
HETATM    1  C1  UNL     1       1.379   5.452  11.333  1.00  0.00     0.020 C 
HETATM    2  C2  UNL     1       1.472   6.932  10.878  1.00  0.00    -0.016 C 
HETATM    3  C3  UNL     1       0.703   6.995   9.525  1.00  0.00     0.022 C 
HETATM    4  C4  UNL     1       1.042   8.216   8.686  1.00  0.00     0.084 C 
HETATM    5  C5  UNL     1       2.525   8.230   8.418  1.00  0.00     0.149 C 
HETATM    6  O1  UNL     1       3.000   8.595   7.345  1.00  0.00    -0.293 OA
HETATM    7  C6  UNL     1       3.425   7.872   9.539  1.00  0.00     0.053 C 
HETATM    8  C7  UNL     1       2.939   7.338  10.674  1.00  0.00    -0.068 C 
HETATM    9  C8  UNL     1       3.815   7.246  11.897  1.00  0.00     0.035 C 
HETATM   10  C9  UNL     1       3.251   8.158  12.989  1.00  0.00     0.010 C 
HETATM   11  C10 UNL     1       1.764   7.881  13.280  1.00  0.00    -0.004 C 
HETATM   12  C11 UNL     1       0.903   7.913  11.968  1.00  0.00     0.002 C 
HETATM   13  C12 UNL     1      -0.604   7.727  12.278  1.00  0.00     0.007 C 
HETATM   14  C13 UNL     1      -1.125   8.672  13.375  1.00  0.00     0.013 C 
HETATM   15  C14 UNL     1      -0.286   8.588  14.665  1.00  0.00    -0.002 C 
HETATM   16  C15 UNL     1      -0.470   7.188  15.312  1.00  0.00     0.019 C 
HETATM   17  C16 UNL     1       1.180   8.896  14.273  1.00  0.00     0.002 C 
HETATM   18  C17 UNL     1       1.879   9.080  15.614  1.00  0.00     0.009 C 
HETATM   19  C18 UNL     1       0.821   9.759  16.505  1.00  0.00     0.047 C 
HETATM   20  C19 UNL     1      -0.524   9.706  15.727  1.00  0.00     0.128 C 
ENDROOT
BRANCH  20  21
HETATM   21  O2  UNL     1      -0.690  10.969  15.075  1.00  0.00    -0.381 OA
HETATM   22  H27 UNL     1      -0.782  11.654  15.769  1.00  0.00     0.211 HD
ENDBRANCH  20  21
BRANCH  20  23
HETATM   23  C20 UNL     1      -1.737   9.452  16.646  1.00  0.00     0.185 C 
HETATM   24  O3  UNL     1      -2.709   8.782  16.287  1.00  0.00    -0.292 OA
BRANCH  23  25
HETATM   25  C21 UNL     1      -1.696  10.091  18.034  1.00  0.00     0.260 C 
BRANCH  25  26
HETATM   26  O4  UNL     1      -1.568  11.513  17.965  1.00  0.00    -0.314 OA
BRANCH  26  27
HETATM   27  C22 UNL     1      -0.912  12.053  19.031  1.00  0.00     0.259 C 
HETATM   28  O5  UNL     1      -0.924  13.249  19.313  1.00  0.00    -0.265 OA
BRANCH  27  29
HETATM   29  C23 UNL     1      -0.079  11.031  19.774  1.00  0.00     0.120 C 
BRANCH  29  30
HETATM   30  C24 UNL     1       1.157  11.598  20.463  1.00  0.00     0.112 C 
BRANCH  30  31
HETATM   31  C25 UNL     1       2.214  10.536  20.688  1.00  0.00     0.217 C 
HETATM   32  O6  UNL     1       2.639   9.807  19.801  1.00  0.00    -0.274 OA
HETATM   33  N1  UNL     1       2.637  10.465  21.999  1.00  0.00    -0.361 N 
HETATM   34  H34 UNL     1       2.458  11.266  22.593  1.00  0.00     0.162 HD
BRANCH  33  35
HETATM   35  C26 UNL     1       3.712   9.565  22.369  1.00  0.00     0.122 C 
BRANCH  35  36
HETATM   36  C27 UNL     1       4.758  10.271  23.225  1.00  0.00     0.020 C 
BRANCH  36  37
HETATM   37  C28 UNL     1       4.936  11.750  22.872  1.00  0.00     0.002 C 
BRANCH  37  38
HETATM   38  C29 UNL     1       6.231  12.112  22.140  1.00  0.00     0.010 C 
BRANCH  38  39
HETATM   39  C30 UNL     1       7.173  12.988  22.968  1.00  0.00     0.110 C 
BRANCH  39  40
HETATM   40  C31 UNL     1       8.453  12.268  23.296  1.00  0.00     0.139 C 
HETATM   41  O7  UNL     1       8.663  11.069  23.254  1.00  0.00    -0.650 OA
BRANCH  40  42
HETATM   42  O8  UNL     1       9.429  13.122  23.658  1.00  0.00    -0.776 OA
HETATM   43  H45 UNL     1      10.193  12.538  23.852  1.00  0.00     0.167 HD
ENDBRANCH  40  42
ENDBRANCH  39  40
ENDBRANCH  38  39
ENDBRANCH  37  38
ENDBRANCH  36  37
ENDBRANCH  35  36
ENDBRANCH  33  35
ENDBRANCH  30  31
ENDBRANCH  29  30
ENDBRANCH  27  29
ENDBRANCH  26  27
ENDBRANCH  25  26
ENDBRANCH  23  25
ENDBRANCH  20  23
TORSDOF 15
ENDMDL
MODEL 4
REMARK minimizedAffinity -8.10833263
REMARK CNNscore 0.484895229
REMARK CNNaffinity 7.23249865
REMARK  15 active torsions:
REMARK  status: ('A' for Active; 'I' for Inactive)
REMARK    1  A    between atoms: C19_20  and  O2_21 
REMARK    2  A    between atoms: C19_20  and  C20_22 
REMARK    3  A    between atoms: C20_22  and  C21_24 
REMARK    4  A    between atoms: C21_24  and  O4_25 
REMARK    5  A    between atoms: O4_25  and  C22_26 
REMARK    6  A    between atoms: C22_26  and  C23_28 
REMARK    7  A    between atoms: C23_28  and  C24_29 
REMARK    8  A    between atoms: C24_29  and  C25_30 
REMARK       I    between atoms: C25_30  and  N1_32 
REMARK    9  A    between atoms: N1_32  and  C26_33 
REMARK   10  A    between atoms: C26_33  and  C27_34 
REMARK   11  A    between atoms: C27_34  and  C28_35 
REMARK   12  A    between atoms: C28_35  and  C29_36 
REMARK   13  A    between atoms: C29_36  and  C30_37 
REMARK   14  A    between atoms: C30_37  and  C31_38 
REMARK   15  A    between atoms: C31_38  and  O8_40 
ROOT
HETATM    1  C1  UNL     1       2.974   8.323   9.300  1.00  0.00     0.020 C 
HETATM    2  C2  UNL     1       3.620   7.776  10.599  1.00  0.00    -0.016 C 
HETATM    3  C3  UNL     1       4.789   8.754  10.920  1.00  0.00     0.022 C 
HETATM    4  C4  UNL     1       5.826   8.176  11.870  1.00  0.00     0.084 C 
HETATM    5  C5  UNL     1       6.384   6.910  11.275  1.00  0.00     0.149 C 
HETATM    6  O1  UNL     1       7.568   6.595  11.379  1.00  0.00    -0.293 OA
HETATM    7  C6  UNL     1       5.430   5.982  10.623  1.00  0.00     0.053 C 
HETATM    8  C7  UNL     1       4.163   6.358  10.371  1.00  0.00    -0.068 C 
HETATM    9  C8  UNL     1       3.138   5.325   9.976  1.00  0.00     0.035 C 
HETATM   10  C9  UNL     1       2.078   5.222  11.075  1.00  0.00     0.010 C 
HETATM   11  C10 UNL     1       1.464   6.588  11.433  1.00  0.00    -0.004 C 
HETATM   12  C11 UNL     1       2.571   7.651  11.764  1.00  0.00     0.002 C 
HETATM   13  C12 UNL     1       1.945   8.996  12.213  1.00  0.00     0.007 C 
HETATM   14  C13 UNL     1       0.893   8.840  13.326  1.00  0.00     0.013 C 
HETATM   15  C14 UNL     1      -0.203   7.824  12.956  1.00  0.00    -0.002 C 
HETATM   16  C15 UNL     1      -1.045   8.376  11.772  1.00  0.00     0.019 C 
HETATM   17  C16 UNL     1       0.510   6.487  12.631  1.00  0.00     0.002 C 
HETATM   18  C17 UNL     1      -0.631   5.479  12.564  1.00  0.00     0.009 C 
HETATM   19  C18 UNL     1      -1.623   5.954  13.644  1.00  0.00     0.047 C 
HETATM   20  C19 UNL     1      -1.142   7.357  14.110  1.00  0.00     0.128 C 
ENDROOT
BRANCH  20  21
HETATM   21  O2  UNL     1      -0.384   7.171  15.310  1.00  0.00    -0.381 OA
HETATM   22  H27 UNL     1      -0.991   6.827  15.997  1.00  0.00     0.211 HD
ENDBRANCH  20  21
BRANCH  20  23
HETATM   23  C20 UNL     1      -2.310   8.324  14.400  1.00  0.00     0.185 C 
HETATM   24  O3  UNL     1      -2.571   9.281  13.669  1.00  0.00    -0.292 OA
BRANCH  23  25
HETATM   25  C21 UNL     1      -3.130   8.055  15.663  1.00  0.00     0.260 C 
BRANCH  25  26
HETATM   26  O4  UNL     1      -4.498   8.434  15.503  1.00  0.00    -0.314 OA
BRANCH  26  27
HETATM   27  C22 UNL     1      -5.307   7.405  15.121  1.00  0.00     0.259 C 
HETATM   28  O5  UNL     1      -4.952   6.230  15.078  1.00  0.00    -0.265 OA
BRANCH  27  29
HETATM   29  C23 UNL     1      -6.667   7.881  14.658  1.00  0.00     0.120 C 
BRANCH  29  30
HETATM   30  C24 UNL     1      -7.837   7.037  15.147  1.00  0.00     0.112 C 
BRANCH  30  31
HETATM   31  C25 UNL     1      -8.372   6.127  14.060  1.00  0.00     0.217 C 
HETATM   32  O6  UNL     1      -9.344   6.402  13.368  1.00  0.00    -0.274 OA
HETATM   33  N1  UNL     1      -7.661   4.952  13.941  1.00  0.00    -0.361 N 
HETATM   34  H34 UNL     1      -6.729   4.926  14.338  1.00  0.00     0.162 HD
BRANCH  33  35
HETATM   35  C26 UNL     1      -7.983   4.010  12.888  1.00  0.00     0.122 C 
BRANCH  35  36
HETATM   36  C27 UNL     1      -6.973   2.868  12.836  1.00  0.00     0.020 C 
BRANCH  36  37
HETATM   37  C28 UNL     1      -5.933   3.027  11.723  1.00  0.00     0.002 C 
BRANCH  37  38
HETATM   38  C29 UNL     1      -4.560   3.545  12.160  1.00  0.00     0.010 C 
BRANCH  38  39
HETATM   39  C30 UNL     1      -3.563   3.672  11.008  1.00  0.00     0.110 C 
BRANCH  39  40
HETATM   40  C31 UNL     1      -2.590   2.523  10.989  1.00  0.00     0.139 C 
HETATM   41  O7  UNL     1      -1.414   2.549  10.671  1.00  0.00    -0.650 OA
BRANCH  40  42
HETATM   42  O8  UNL     1      -3.164   1.375  11.396  1.00  0.00    -0.776 OA
HETATM   43  H45 UNL     1      -2.442   0.714  11.330  1.00  0.00     0.167 HD
ENDBRANCH  40  42
ENDBRANCH  39  40
ENDBRANCH  38  39
ENDBRANCH  37  38
ENDBRANCH  36  37
ENDBRANCH  35  36
ENDBRANCH  33  35
ENDBRANCH  30  31
ENDBRANCH  29  30
ENDBRANCH  27  29
ENDBRANCH  26  27
ENDBRANCH  25  26
ENDBRANCH  23  25
ENDBRANCH  20  23
TORSDOF 15
ENDMDL
MODEL 5
REMARK minimizedAffinity -8.29510117
REMARK CNNscore 0.448586106
REMARK CNNaffinity 6.50563192
REMARK  15 active torsions:
REMARK  status: ('A' for Active; 'I' for Inactive)
REMARK    1  A    between atoms: C19_20  and  O2_21 
REMARK    2  A    between atoms: C19_20  and  C20_22 
REMARK    3  A    between atoms: C20_22  and  C21_24 
REMARK    4  A    between atoms: C21_24  and  O4_25 
REMARK    5  A    between atoms: O4_25  and  C22_26 
REMARK    6  A    between atoms: C22_26  and  C23_28 
REMARK    7  A    between atoms: C23_28  and  C24_29 
REMARK    8  A    between atoms: C24_29  and  C25_30 
REMARK       I    between atoms: C25_30  and  N1_32 
REMARK    9  A    between atoms: N1_32  and  C26_33 
REMARK   10  A    between atoms: C26_33  and  C27_34 
REMARK   11  A    between atoms: C27_34  and  C28_35 
REMARK   12  A    between atoms: C28_35  and  C29_36 
REMARK   13  A    between atoms: C29_36  and  C30_37 
REMARK   14  A    between atoms: C30_37  and  C31_38 
REMARK   15  A    between atoms: C31_38  and  O8_40 
ROOT
HETATM    1  C1  UNL     1       4.032   8.153  10.067  1.00  0.00     0.020 C 
HETATM    2  C2  UNL     1       3.119   6.936   9.764  1.00  0.00    -0.016 C 
HETATM    3  C3  UNL     1       4.052   5.692   9.845  1.00  0.00     0.022 C 
HETATM    4  C4  UNL     1       3.490   4.461   9.153  1.00  0.00     0.084 C 
HETATM    5  C5  UNL     1       3.223   4.790   7.707  1.00  0.00     0.149 C 
HETATM    6  O1  UNL     1       3.420   3.988   6.797  1.00  0.00    -0.293 OA
HETATM    7  C6  UNL     1       2.614   6.108   7.408  1.00  0.00     0.053 C 
HETATM    8  C7  UNL     1       2.516   7.057   8.356  1.00  0.00    -0.068 C 
HETATM    9  C8  UNL     1       1.649   8.268   8.122  1.00  0.00     0.035 C 
HETATM   10  C9  UNL     1       0.477   8.245   9.105  1.00  0.00     0.010 C 
HETATM   11  C10 UNL     1       0.935   8.096  10.567  1.00  0.00    -0.004 C 
HETATM   12  C11 UNL     1       1.895   6.867  10.749  1.00  0.00     0.002 C 
HETATM   13  C12 UNL     1       2.278   6.666  12.237  1.00  0.00     0.007 C 
HETATM   14  C13 UNL     1       1.064   6.641  13.184  1.00  0.00     0.013 C 
HETATM   15  C14 UNL     1       0.165   7.879  13.013  1.00  0.00    -0.002 C 
HETATM   16  C15 UNL     1       0.932   9.146  13.483  1.00  0.00     0.019 C 
HETATM   17  C16 UNL     1      -0.254   7.932  11.523  1.00  0.00     0.002 C 
HETATM   18  C17 UNL     1      -1.354   8.988  11.497  1.00  0.00     0.009 C 
HETATM   19  C18 UNL     1      -2.095   8.799  12.835  1.00  0.00     0.047 C 
HETATM   20  C19 UNL     1      -1.240   7.821  13.689  1.00  0.00     0.128 C 
ENDROOT
BRANCH  20  21
HETATM   21  O2  UNL     1      -1.802   6.514  13.532  1.00  0.00    -0.381 OA
HETATM   22  H27 UNL     1      -2.702   6.528  13.917  1.00  0.00     0.211 HD
ENDBRANCH  20  21
BRANCH  20  23
HETATM   23  C20 UNL     1      -1.232   8.188  15.188  1.00  0.00     0.185 C 
HETATM   24  O3  UNL     1      -0.793   7.425  16.052  1.00  0.00    -0.292 OA
BRANCH  23  25
HETATM   25  C21 UNL     1      -1.821   9.546  15.569  1.00  0.00     0.260 C 
BRANCH  25  26
HETATM   26  O4  UNL     1      -2.918   9.420  16.475  1.00  0.00    -0.314 OA
BRANCH  26  27
HETATM   27  C22 UNL     1      -2.721  10.061  17.661  1.00  0.00     0.259 C 
HETATM   28  O5  UNL     1      -3.624  10.370  18.436  1.00  0.00    -0.265 OA
BRANCH  27  29
HETATM   29  C23 UNL     1      -1.273  10.443  17.878  1.00  0.00     0.120 C 
BRANCH  29  30
HETATM   30  C24 UNL     1      -0.993  11.155  19.196  1.00  0.00     0.112 C 
BRANCH  30  31
HETATM   31  C25 UNL     1       0.436  11.653  19.277  1.00  0.00     0.217 C 
HETATM   32  O6  UNL     1       0.773  12.788  18.968  1.00  0.00    -0.274 OA
HETATM   33  N1  UNL     1       1.319  10.690  19.719  1.00  0.00    -0.361 N 
HETATM   34  H34 UNL     1       0.934   9.893  20.213  1.00  0.00     0.162 HD
BRANCH  33  35
HETATM   35  C26 UNL     1       2.711  11.027  19.942  1.00  0.00     0.122 C 
BRANCH  35  36
HETATM   36  C27 UNL     1       2.871  11.966  21.133  1.00  0.00     0.020 C 
BRANCH  36  37
HETATM   37  C28 UNL     1       2.847  11.245  22.484  1.00  0.00     0.002 C 
BRANCH  37  38
HETATM   38  C29 UNL     1       4.124  10.489  22.861  1.00  0.00     0.010 C 
BRANCH  38  39
HETATM   39  C30 UNL     1       3.985   8.970  22.756  1.00  0.00     0.110 C 
BRANCH  39  40
HETATM   40  C31 UNL     1       2.573   8.524  23.025  1.00  0.00     0.139 C 
HETATM   41  O7  UNL     1       1.781   8.044  22.234  1.00  0.00    -0.650 OA
BRANCH  40  42
HETATM   42  O8  UNL     1       2.231   8.698  24.316  1.00  0.00    -0.776 OA
HETATM   43  H45 UNL     1       1.302   8.384  24.358  1.00  0.00     0.167 HD
ENDBRANCH  40  42
ENDBRANCH  39  40
ENDBRANCH  38  39
ENDBRANCH  37  38
ENDBRANCH  36  37
ENDBRANCH  35  36
ENDBRANCH  33  35
ENDBRANCH  30  31
ENDBRANCH  29  30
ENDBRANCH  27  29
ENDBRANCH  26  27
ENDBRANCH  25  26
ENDBRANCH  23  25
ENDBRANCH  20  23
TORSDOF 15
ENDMDL
MODEL 6
REMARK minimizedAffinity -7.14344215
REMARK CNNscore 0.444525063
REMARK CNNaffinity 6.87897253
REMARK  15 active torsions:
REMARK  status: ('A' for Active; 'I' for Inactive)
REMARK    1  A    between atoms: C19_20  and  O2_21 
REMARK    2  A    between atoms: C19_20  and  C20_22 
REMARK    3  A    between atoms: C20_22  and  C21_24 
REMARK    4  A    between atoms: C21_24  and  O4_25 
REMARK    5  A    between atoms: O4_25  and  C22_26 
REMARK    6  A    between atoms: C22_26  and  C23_28 
REMARK    7  A    between atoms: C23_28  and  C24_29 
REMARK    8  A    between atoms: C24_29  and  C25_30 
REMARK       I    between atoms: C25_30  and  N1_32 
REMARK    9  A    between atoms: N1_32  and  C26_33 
REMARK   10  A    between atoms: C26_33  and  C27_34 
REMARK   11  A    between atoms: C27_34  and  C28_35 
REMARK   12  A    between atoms: C28_35  and  C29_36 
REMARK   13  A    between atoms: C29_36  and  C30_37 
REMARK   14  A    between atoms: C30_37  and  C31_38 
REMARK   15  A    between atoms: C31_38  and  O8_40 
ROOT
HETATM    1  C1  UNL     1      -7.529   5.386  16.201  1.00  0.00     0.020 C 
HETATM    2  C2  UNL     1      -7.775   6.334  15.000  1.00  0.00    -0.016 C 
HETATM    3  C3  UNL     1      -8.807   7.384  15.509  1.00  0.00     0.022 C 
HETATM    4  C4  UNL     1      -9.526   8.124  14.393  1.00  0.00     0.084 C 
HETATM    5  C5  UNL     1     -10.227   7.122  13.512  1.00  0.00     0.149 C 
HETATM    6  O1  UNL     1     -11.331   7.335  13.014  1.00  0.00    -0.293 OA
HETATM    7  C6  UNL     1      -9.496   5.878  13.177  1.00  0.00     0.053 C 
HETATM    8  C7  UNL     1      -8.355   5.553  13.811  1.00  0.00    -0.068 C 
HETATM    9  C8  UNL     1      -7.482   4.450  13.270  1.00  0.00     0.035 C 
HETATM   10  C9  UNL     1      -6.152   5.044  12.802  1.00  0.00     0.010 C 
HETATM   11  C10 UNL     1      -5.466   5.888  13.892  1.00  0.00    -0.004 C 
HETATM   12  C11 UNL     1      -6.436   6.974  14.479  1.00  0.00     0.002 C 
HETATM   13  C12 UNL     1      -5.713   7.879  15.508  1.00  0.00     0.007 C 
HETATM   14  C13 UNL     1      -4.386   8.460  14.986  1.00  0.00     0.013 C 
HETATM   15  C14 UNL     1      -3.438   7.368  14.457  1.00  0.00    -0.002 C 
HETATM   16  C15 UNL     1      -2.971   6.470  15.637  1.00  0.00     0.019 C 
HETATM   17  C16 UNL     1      -4.209   6.591  13.362  1.00  0.00     0.002 C 
HETATM   18  C17 UNL     1      -3.131   5.742  12.698  1.00  0.00     0.009 C 
HETATM   19  C18 UNL     1      -1.873   6.632  12.726  1.00  0.00     0.047 C 
HETATM   20  C19 UNL     1      -2.206   7.852  13.631  1.00  0.00     0.128 C 
ENDROOT
BRANCH  20  21
HETATM   21  O2  UNL     1      -2.589   8.930  12.772  1.00  0.00    -0.381 OA
HETATM   22  H27 UNL     1      -1.810   9.172  12.230  1.00  0.00     0.211 HD
ENDBRANCH  20  21
BRANCH  20  23
HETATM   23  C20 UNL     1      -1.007   8.300  14.494  1.00  0.00     0.185 C 
HETATM   24  O3  UNL     1      -0.983   9.387  15.076  1.00  0.00    -0.292 OA
BRANCH  23  25
HETATM   25  C21 UNL     1       0.177   7.337  14.582  1.00  0.00     0.260 C 
BRANCH  25  26
HETATM   26  O4  UNL     1       1.421   7.995  14.338  1.00  0.00    -0.314 OA
BRANCH  26  27
HETATM   27  C22 UNL     1       2.304   7.891  15.371  1.00  0.00     0.259 C 
HETATM   28  O5  UNL     1       1.975   7.757  16.548  1.00  0.00    -0.265 OA
BRANCH  27  29
HETATM   29  C23 UNL     1       3.740   8.059  14.924  1.00  0.00     0.120 C 
BRANCH  29  30
HETATM   30  C24 UNL     1       3.921   8.915  13.675  1.00  0.00     0.112 C 
BRANCH  30  31
HETATM   31  C25 UNL     1       5.250   8.651  12.997  1.00  0.00     0.217 C 
HETATM   32  O6  UNL     1       5.560   9.126  11.912  1.00  0.00    -0.274 OA
HETATM   33  N1  UNL     1       6.067   7.809  13.720  1.00  0.00    -0.361 N 
HETATM   34  H34 UNL     1       5.866   7.694  14.707  1.00  0.00     0.162 HD
BRANCH  33  35
HETATM   35  C26 UNL     1       7.412   7.526  13.258  1.00  0.00     0.122 C 
BRANCH  35  36
HETATM   36  C27 UNL     1       8.458   8.100  14.208  1.00  0.00     0.020 C 
BRANCH  36  37
HETATM   37  C28 UNL     1       8.818   9.558  13.907  1.00  0.00     0.002 C 
BRANCH  37  38
HETATM   38  C29 UNL     1       9.950  10.154  14.749  1.00  0.00     0.010 C 
BRANCH  38  39
HETATM   39  C30 UNL     1       9.466  10.798  16.049  1.00  0.00     0.110 C 
BRANCH  39  40
HETATM   40  C31 UNL     1       9.736   9.916  17.238  1.00  0.00     0.139 C 
HETATM   41  O7  UNL     1       9.030   9.026  17.679  1.00  0.00    -0.650 OA
BRANCH  40  42
HETATM   42  O8  UNL     1      10.919  10.201  17.813  1.00  0.00    -0.776 OA
HETATM   43  H45 UNL     1      10.971   9.575  18.567  1.00  0.00     0.167 HD
ENDBRANCH  40  42
ENDBRANCH  39  40
ENDBRANCH  38  39
ENDBRANCH  37  38
ENDBRANCH  36  37
ENDBRANCH  35  36
ENDBRANCH  33  35
ENDBRANCH  30  31
ENDBRANCH  29  30
ENDBRANCH  27  29
ENDBRANCH  26  27
ENDBRANCH  25  26
ENDBRANCH  23  25
ENDBRANCH  20  23
TORSDOF 15
ENDMDL
MODEL 7
REMARK minimizedAffinity -7.87712574
REMARK CNNscore 0.417984188
REMARK CNNaffinity 6.79533339
REMARK  15 active torsions:
REMARK  status: ('A' for Active; 'I' for Inactive)
REMARK    1  A    between atoms: C19_20  and  O2_21 
REMARK    2  A    between atoms: C19_20  and  C20_22 
REMARK    3  A    between atoms: C20_22  and  C21_24 
REMARK    4  A    between atoms: C21_24  and  O4_25 
REMARK    5  A    between atoms: O4_25  and  C22_26 
REMARK    6  A    between atoms: C22_26  and  C23_28 
REMARK    7  A    between atoms: C23_28  and  C24_29 
REMARK    8  A    between atoms: C24_29  and  C25_30 
REMARK       I    between atoms: C25_30  and  N1_32 
REMARK    9  A    between atoms: N1_32  and  C26_33 
REMARK   10  A    between atoms: C26_33  and  C27_34 
REMARK   11  A    between atoms: C27_34  and  C28_35 
REMARK   12  A    between atoms: C28_35  and  C29_36 
REMARK   13  A    between atoms: C29_36  and  C30_37 
REMARK   14  A    between atoms: C30_37  and  C31_38 
REMARK   15  A    between atoms: C31_38  and  O8_40 
ROOT
HETATM    1  C1  UNL     1      -7.550   5.267  16.064  1.00  0.00     0.020 C 
HETATM    2  C2  UNL     1      -7.757   6.211  14.852  1.00  0.00    -0.016 C 
HETATM    3  C3  UNL     1      -8.772   7.288  15.339  1.00  0.00     0.022 C 
HETATM    4  C4  UNL     1      -9.458   8.036  14.207  1.00  0.00     0.084 C 
HETATM    5  C5  UNL     1     -10.169   7.044  13.324  1.00  0.00     0.149 C 
HETATM    6  O1  UNL     1     -11.260   7.278  12.808  1.00  0.00    -0.293 OA
HETATM    7  C6  UNL     1      -9.461   5.781  13.007  1.00  0.00     0.053 C 
HETATM    8  C7  UNL     1      -8.338   5.435  13.661  1.00  0.00    -0.068 C 
HETATM    9  C8  UNL     1      -7.482   4.308  13.141  1.00  0.00     0.035 C 
HETATM   10  C9  UNL     1      -6.132   4.869  12.688  1.00  0.00     0.010 C 
HETATM   11  C10 UNL     1      -5.443   5.705  13.782  1.00  0.00    -0.004 C 
HETATM   12  C11 UNL     1      -6.397   6.817  14.347  1.00  0.00     0.002 C 
HETATM   13  C12 UNL     1      -5.668   7.713  15.380  1.00  0.00     0.007 C 
HETATM   14  C13 UNL     1      -4.320   8.260  14.874  1.00  0.00     0.013 C 
HETATM   15  C14 UNL     1      -3.390   7.143  14.367  1.00  0.00    -0.002 C 
HETATM   16  C15 UNL     1      -2.961   6.243  15.559  1.00  0.00     0.019 C 
HETATM   17  C16 UNL     1      -4.163   6.375  13.265  1.00  0.00     0.002 C 
HETATM   18  C17 UNL     1      -3.095   5.497  12.624  1.00  0.00     0.009 C 
HETATM   19  C18 UNL     1      -1.818   6.359  12.664  1.00  0.00     0.047 C 
HETATM   20  C19 UNL     1      -2.136   7.592  13.556  1.00  0.00     0.128 C 
ENDROOT
BRANCH  20  21
HETATM   21  O2  UNL     1      -2.482   8.672  12.683  1.00  0.00    -0.381 OA
HETATM   22  H27 UNL     1      -1.689   8.893  12.151  1.00  0.00     0.211 HD
ENDBRANCH  20  21
BRANCH  20  23
HETATM   23  C20 UNL     1      -0.940   8.019  14.433  1.00  0.00     0.185 C 
HETATM   24  O3  UNL     1      -0.772   9.185  14.798  1.00  0.00    -0.292 OA
BRANCH  23  25
HETATM   25  C21 UNL     1       0.057   6.926  14.819  1.00  0.00     0.260 C 
BRANCH  25  26
HETATM   26  O4  UNL     1       1.398   7.280  14.479  1.00  0.00    -0.314 OA
BRANCH  26  27
HETATM   27  C22 UNL     1       2.147   7.668  15.550  1.00  0.00     0.259 C 
HETATM   28  O5  UNL     1       1.798   7.532  16.720  1.00  0.00    -0.265 OA
BRANCH  27  29
HETATM   29  C23 UNL     1       3.419   8.378  15.139  1.00  0.00     0.120 C 
BRANCH  29  30
HETATM   30  C24 UNL     1       3.250   9.373  13.996  1.00  0.00     0.112 C 
BRANCH  30  31
HETATM   31  C25 UNL     1       3.869   8.865  12.710  1.00  0.00     0.217 C 
HETATM   32  O6  UNL     1       4.626   9.531  12.016  1.00  0.00    -0.274 OA
HETATM   33  N1  UNL     1       3.479   7.581  12.393  1.00  0.00    -0.361 N 
HETATM   34  H34 UNL     1       3.094   7.011  13.138  1.00  0.00     0.162 HD
BRANCH  33  35
HETATM   35  C26 UNL     1       4.050   6.910  11.242  1.00  0.00     0.122 C 
BRANCH  35  36
HETATM   36  C27 UNL     1       3.074   5.900  10.647  1.00  0.00     0.020 C 
BRANCH  36  37
HETATM   37  C28 UNL     1       1.698   6.494  10.333  1.00  0.00     0.002 C 
BRANCH  37  38
HETATM   38  C29 UNL     1       1.692   7.709   9.402  1.00  0.00     0.010 C 
BRANCH  38  39
HETATM   39  C30 UNL     1       2.715   7.612   8.268  1.00  0.00     0.110 C 
BRANCH  39  40
HETATM   40  C31 UNL     1       2.184   6.806   7.113  1.00  0.00     0.139 C 
HETATM   41  O7  UNL     1       1.480   7.194   6.197  1.00  0.00    -0.650 OA
BRANCH  40  42
HETATM   42  O8  UNL     1       2.591   5.524   7.168  1.00  0.00    -0.776 OA
HETATM   43  H45 UNL     1       2.177   5.111   6.380  1.00  0.00     0.167 HD
ENDBRANCH  40  42
ENDBRANCH  39  40
ENDBRANCH  38  39
ENDBRANCH  37  38
ENDBRANCH  36  37
ENDBRANCH  35  36
ENDBRANCH  33  35
ENDBRANCH  30  31
ENDBRANCH  29  30
ENDBRANCH  27  29
ENDBRANCH  26  27
ENDBRANCH  25  26
ENDBRANCH  23  25
ENDBRANCH  20  23
TORSDOF 15
ENDMDL
MODEL 8
REMARK minimizedAffinity -7.73154163
REMARK CNNscore 0.386829734
REMARK CNNaffinity 6.86403227
REMARK  15 active torsions:
REMARK  status: ('A' for Active; 'I' for Inactive)
REMARK    1  A    between atoms: C19_20  and  O2_21 
REMARK    2  A    between atoms: C19_20  and  C20_22 
REMARK    3  A    between atoms: C20_22  and  C21_24 
REMARK    4  A    between atoms: C21_24  and  O4_25 
REMARK    5  A    between atoms: O4_25  and  C22_26 
REMARK    6  A    between atoms: C22_26  and  C23_28 
REMARK    7  A    between atoms: C23_28  and  C24_29 
REMARK    8  A    between atoms: C24_29  and  C25_30 
REMARK       I    between atoms: C25_30  and  N1_32 
REMARK    9  A    between atoms: N1_32  and  C26_33 
REMARK   10  A    between atoms: C26_33  and  C27_34 
REMARK   11  A    between atoms: C27_34  and  C28_35 
REMARK   12  A    between atoms: C28_35  and  C29_36 
REMARK   13  A    between atoms: C29_36  and  C30_37 
REMARK   14  A    between atoms: C30_37  and  C31_38 
REMARK   15  A    between atoms: C31_38  and  O8_40 
ROOT
HETATM    1  C1  UNL     1      -7.434   5.435  16.227  1.00  0.00     0.020 C 
HETATM    2  C2  UNL     1      -7.710   6.377  15.026  1.00  0.00    -0.016 C 
HETATM    3  C3  UNL     1      -8.839   7.336  15.507  1.00  0.00     0.022 C 
HETATM    4  C4  UNL     1      -9.574   8.032  14.373  1.00  0.00     0.084 C 
HETATM    5  C5  UNL     1     -10.161   6.990  13.457  1.00  0.00     0.149 C 
HETATM    6  O1  UNL     1     -11.259   7.123  12.921  1.00  0.00    -0.293 OA
HETATM    7  C6  UNL     1      -9.322   5.812  13.136  1.00  0.00     0.053 C 
HETATM    8  C7  UNL     1      -8.184   5.568  13.809  1.00  0.00    -0.068 C 
HETATM    9  C8  UNL     1      -7.207   4.544  13.290  1.00  0.00     0.035 C 
HETATM   10  C9  UNL     1      -5.912   5.247  12.878  1.00  0.00     0.010 C 
HETATM   11  C10 UNL     1      -5.334   6.127  14.001  1.00  0.00    -0.004 C 
HETATM   12  C11 UNL     1      -6.408   7.126  14.563  1.00  0.00     0.002 C 
HETATM   13  C12 UNL     1      -5.795   8.072  15.627  1.00  0.00     0.007 C 
HETATM   14  C13 UNL     1      -4.500   8.762  15.161  1.00  0.00     0.013 C 
HETATM   15  C14 UNL     1      -3.451   7.754  14.657  1.00  0.00    -0.002 C 
HETATM   16  C15 UNL     1      -2.958   6.880  15.843  1.00  0.00     0.019 C 
HETATM   17  C16 UNL     1      -4.118   6.933  13.525  1.00  0.00     0.002 C 
HETATM   18  C17 UNL     1      -2.953   6.180  12.893  1.00  0.00     0.009 C 
HETATM   19  C18 UNL     1      -1.772   7.165  12.977  1.00  0.00     0.047 C 
HETATM   20  C19 UNL     1      -2.232   8.343  13.882  1.00  0.00     0.128 C 
ENDROOT
BRANCH  20  21
HETATM   21  O2  UNL     1      -2.667   9.399  13.020  1.00  0.00    -0.381 OA
HETATM   22  H27 UNL     1      -1.890   9.709  12.511  1.00  0.00     0.211 HD
ENDBRANCH  20  21
BRANCH  20  23
HETATM   23  C20 UNL     1      -1.104   8.872  14.794  1.00  0.00     0.185 C 
HETATM   24  O3  UNL     1      -0.028   8.284  14.921  1.00  0.00    -0.292 OA
BRANCH  23  25
HETATM   25  C21 UNL     1      -1.388  10.163  15.562  1.00  0.00     0.260 C 
BRANCH  25  26
HETATM   26  O4  UNL     1      -0.316  11.101  15.448  1.00  0.00    -0.314 OA
BRANCH  26  27
HETATM   27  C22 UNL     1      -0.144  11.869  16.561  1.00  0.00     0.259 C 
HETATM   28  O5  UNL     1      -1.024  12.568  17.058  1.00  0.00    -0.265 OA
BRANCH  27  29
HETATM   29  C23 UNL     1       1.283  11.847  17.063  1.00  0.00     0.120 C 
BRANCH  29  30
HETATM   30  C24 UNL     1       1.747  10.498  17.602  1.00  0.00     0.112 C 
BRANCH  30  31
HETATM   31  C25 UNL     1       2.116  10.572  19.069  1.00  0.00     0.217 C 
HETATM   32  O6  UNL     1       2.655   9.656  19.677  1.00  0.00    -0.274 OA
HETATM   33  N1  UNL     1       1.766  11.771  19.654  1.00  0.00    -0.361 N 
HETATM   34  H34 UNL     1       1.594  12.559  19.040  1.00  0.00     0.162 HD
BRANCH  33  35
HETATM   35  C26 UNL     1       2.130  12.043  21.031  1.00  0.00     0.122 C 
BRANCH  35  36
HETATM   36  C27 UNL     1       3.564  12.552  21.137  1.00  0.00     0.020 C 
BRANCH  36  37
HETATM   37  C28 UNL     1       4.433  11.729  22.091  1.00  0.00     0.002 C 
BRANCH  37  38
HETATM   38  C29 UNL     1       3.678  10.855  23.097  1.00  0.00     0.010 C 
BRANCH  38  39
HETATM   39  C30 UNL     1       3.810   9.356  22.819  1.00  0.00     0.110 C 
BRANCH  39  40
HETATM   40  C31 UNL     1       2.548   8.616  23.173  1.00  0.00     0.139 C 
HETATM   41  O7  UNL     1       2.035   8.503  24.272  1.00  0.00    -0.650 OA
BRANCH  40  42
HETATM   42  O8  UNL     1       1.979   8.053  22.090  1.00  0.00    -0.776 OA
HETATM   43  H45 UNL     1       1.186   7.600  22.450  1.00  0.00     0.167 HD
ENDBRANCH  40  42
ENDBRANCH  39  40
ENDBRANCH  38  39
ENDBRANCH  37  38
ENDBRANCH  36  37
ENDBRANCH  35  36
ENDBRANCH  33  35
ENDBRANCH  30  31
ENDBRANCH  29  30
ENDBRANCH  27  29
ENDBRANCH  26  27
ENDBRANCH  25  26
ENDBRANCH  23  25
ENDBRANCH  20  23
TORSDOF 15
ENDMDL
MODEL 9
REMARK minimizedAffinity -6.90426779
REMARK CNNscore 0.35371688
REMARK CNNaffinity 7.02286339
REMARK  15 active torsions:
REMARK  status: ('A' for Active; 'I' for Inactive)
REMARK    1  A    between atoms: C19_20  and  O2_21 
REMARK    2  A    between atoms: C19_20  and  C20_22 
REMARK    3  A    between atoms: C20_22  and  C21_24 
REMARK    4  A    between atoms: C21_24  and  O4_25 
REMARK    5  A    between atoms: O4_25  and  C22_26 
REMARK    6  A    between atoms: C22_26  and  C23_28 
REMARK    7  A    between atoms: C23_28  and  C24_29 
REMARK    8  A    between atoms: C24_29  and  C25_30 
REMARK       I    between atoms: C25_30  and  N1_32 
REMARK    9  A    between atoms: N1_32  and  C26_33 
REMARK   10  A    between atoms: C26_33  and  C27_34 
REMARK   11  A    between atoms: C27_34  and  C28_35 
REMARK   12  A    between atoms: C28_35  and  C29_36 
REMARK   13  A    between atoms: C29_36  and  C30_37 
REMARK   14  A    between atoms: C30_37  and  C31_38 
REMARK   15  A    between atoms: C31_38  and  O8_40 
ROOT
HETATM    1  C1  UNL     1      -7.464   5.349  16.216  1.00  0.00     0.020 C 
HETATM    2  C2  UNL     1      -7.714   6.306  15.022  1.00  0.00    -0.016 C 
HETATM    3  C3  UNL     1      -8.814   7.295  15.511  1.00  0.00     0.022 C 
HETATM    4  C4  UNL     1      -9.530   8.018  14.383  1.00  0.00     0.084 C 
HETATM    5  C5  UNL     1     -10.150   6.999  13.462  1.00  0.00     0.149 C 
HETATM    6  O1  UNL     1     -11.244   7.167  12.928  1.00  0.00    -0.293 OA
HETATM    7  C6  UNL     1      -9.346   5.799  13.132  1.00  0.00     0.053 C 
HETATM    8  C7  UNL     1      -8.214   5.519  13.801  1.00  0.00    -0.068 C 
HETATM    9  C8  UNL     1      -7.269   4.469  13.274  1.00  0.00     0.035 C 
HETATM   10  C9  UNL     1      -5.955   5.136  12.863  1.00  0.00     0.010 C 
HETATM   11  C10 UNL     1      -5.349   5.993  13.990  1.00  0.00    -0.004 C 
HETATM   12  C11 UNL     1      -6.392   7.020  14.560  1.00  0.00     0.002 C 
HETATM   13  C12 UNL     1      -5.750   7.941  15.628  1.00  0.00     0.007 C 
HETATM   14  C13 UNL     1      -4.436   8.595  15.163  1.00  0.00     0.013 C 
HETATM   15  C14 UNL     1      -3.418   7.560  14.650  1.00  0.00    -0.002 C 
HETATM   16  C15 UNL     1      -2.948   6.665  15.831  1.00  0.00     0.019 C 
HETATM   17  C16 UNL     1      -4.111   6.766  13.516  1.00  0.00     0.002 C 
HETATM   18  C17 UNL     1      -2.970   5.983  12.877  1.00  0.00     0.009 C 
HETATM   19  C18 UNL     1      -1.760   6.933  12.964  1.00  0.00     0.047 C 
HETATM   20  C19 UNL     1      -2.183   8.118  13.877  1.00  0.00     0.128 C 
ENDROOT
BRANCH  20  21
HETATM   21  O2  UNL     1      -2.589   9.191  13.021  1.00  0.00    -0.381 OA
HETATM   22  H27 UNL     1      -1.805   9.481  12.512  1.00  0.00     0.211 HD
ENDBRANCH  20  21
BRANCH  20  23
HETATM   23  C20 UNL     1      -1.039   8.609  14.789  1.00  0.00     0.185 C 
HETATM   24  O3  UNL     1      -1.235   8.994  15.943  1.00  0.00    -0.292 OA
BRANCH  23  25
HETATM   25  C21 UNL     1       0.366   8.619  14.186  1.00  0.00     0.260 C 
BRANCH  25  26
HETATM   26  O4  UNL     1       1.141   9.725  14.653  1.00  0.00    -0.314 OA
BRANCH  26  27
HETATM   27  C22 UNL     1       2.444   9.411  14.900  1.00  0.00     0.259 C 
HETATM   28  O5  UNL     1       2.910   8.278  14.801  1.00  0.00    -0.265 OA
BRANCH  27  29
HETATM   29  C23 UNL     1       3.237  10.595  15.409  1.00  0.00     0.120 C 
BRANCH  29  30
HETATM   30  C24 UNL     1       2.392  11.735  15.966  1.00  0.00     0.112 C 
BRANCH  30  31
HETATM   31  C25 UNL     1       3.078  12.435  17.121  1.00  0.00     0.217 C 
HETATM   32  O6  UNL     1       2.876  13.606  17.417  1.00  0.00    -0.274 OA
HETATM   33  N1  UNL     1       3.966  11.622  17.795  1.00  0.00    -0.361 N 
HETATM   34  H34 UNL     1       3.866  10.621  17.676  1.00  0.00     0.162 HD
BRANCH  33  35
HETATM   35  C26 UNL     1       4.639  12.108  18.983  1.00  0.00     0.122 C 
BRANCH  35  36
HETATM   36  C27 UNL     1       3.952  11.613  20.252  1.00  0.00     0.020 C 
BRANCH  36  37
HETATM   37  C28 UNL     1       2.778  10.669  19.980  1.00  0.00     0.002 C 
BRANCH  37  38
HETATM   38  C29 UNL     1       2.019  10.175  21.215  1.00  0.00     0.010 C 
BRANCH  38  39
HETATM   39  C30 UNL     1       2.731   9.041  21.953  1.00  0.00     0.110 C 
BRANCH  39  40
HETATM   40  C31 UNL     1       3.316   9.511  23.257  1.00  0.00     0.139 C 
HETATM   41  O7  UNL     1       4.374  10.090  23.432  1.00  0.00    -0.650 OA
BRANCH  40  42
HETATM   42  O8  UNL     1       2.508   9.232  24.298  1.00  0.00    -0.776 OA
HETATM   43  H45 UNL     1       2.999   9.574  25.076  1.00  0.00     0.167 HD
ENDBRANCH  40  42
ENDBRANCH  39  40
ENDBRANCH  38  39
ENDBRANCH  37  38
ENDBRANCH  36  37
ENDBRANCH  35  36
ENDBRANCH  33  35
ENDBRANCH  30  31
ENDBRANCH  29  30
ENDBRANCH  27  29
ENDBRANCH  26  27
ENDBRANCH  25  26
ENDBRANCH  23  25
ENDBRANCH  20  23
TORSDOF 15
ENDMDL
