MODEL 1
REMARK minimizedAffinity -6.20335054
REMARK CNNscore 0.682794154
REMARK CNNaffinity 6.75756598
REMARK  6 active torsions:
REMARK  status: ('A' for Active; 'I' for Inactive)
REMARK    1  A    between atoms: C2_2  and  C30_31 
REMARK    2  A    between atoms: C3_3  and  C4_4 
REMARK    3  A    between atoms: C4_4  and  C5_5 
REMARK    4  A    between atoms: C5_5  and  C6_6 
REMARK    5  A    between atoms: C6_6  and  C8_8 
REMARK    6  A    between atoms: C30_31  and  O2_32 
ROOT
HETATM    1  C8  UNL     1     -13.345 -12.164  27.692  1.00  0.00    -0.002 C 
HETATM    2  C9  UNL     1     -14.777 -12.703  28.022  1.00  0.00     0.006 C 
HETATM    3  C10 UNL     1     -15.593 -11.537  28.614  1.00  0.00     0.011 C 
HETATM    4  C11 UNL     1     -14.517 -10.646  29.236  1.00  0.00    -0.032 C 
HETATM    5  C12 UNL     1     -14.057 -11.370  30.556  1.00  0.00     0.016 C 
HETATM    6  C13 UNL     1     -14.937  -9.226  29.698  1.00  0.00     0.004 C 
HETATM    7  C14 UNL     1     -15.756  -8.321  28.714  1.00  0.00     0.007 C 
HETATM    8  C15 UNL     1     -15.214  -6.862  28.545  1.00  0.00     0.007 C 
HETATM    9  C16 UNL     1     -14.915  -6.230  29.912  1.00  0.00     0.010 C 
HETATM   10  C17 UNL     1     -14.264  -4.861  30.111  1.00  0.00     0.018 C 
HETATM   11  C18 UNL     1     -15.101  -3.753  29.461  1.00  0.00     0.023 C 
HETATM   12  C19 UNL     1     -12.837  -4.809  29.554  1.00  0.00     0.023 C 
HETATM   13  C20 UNL     1     -14.240  -4.620  31.647  1.00  0.00     0.135 C 
HETATM   14  O1  UNL     1     -13.579  -3.700  32.137  1.00  0.00    -0.297 OA
HETATM   15  C21 UNL     1     -15.149  -5.481  32.553  1.00  0.00     0.080 C 
HETATM   16  C22 UNL     1     -15.199  -6.989  32.195  1.00  0.00     0.018 C 
HETATM   17  C23 UNL     1     -14.367  -7.202  30.940  1.00  0.00    -0.026 A 
HETATM   18  C24 UNL     1     -13.146  -7.927  31.407  1.00  0.00     0.021 A 
HETATM   19  C25 UNL     1     -13.715  -8.435  30.141  1.00  0.00    -0.027 A 
HETATM   20  C26 UNL     1     -12.545  -8.471  29.126  1.00  0.00     0.011 C 
HETATM   21  C27 UNL     1     -12.189  -9.903  28.656  1.00  0.00     0.011 C 
HETATM   22  C28 UNL     1     -13.422 -10.643  28.106  1.00  0.00    -0.032 C 
HETATM   23  C29 UNL     1     -13.808  -9.925  26.772  1.00  0.00     0.016 C 
ENDROOT
BRANCH   1  24
HETATM   24  C6  UNL     1     -12.139 -13.000  28.218  1.00  0.00    -0.014 C 
HETATM   25  C7  UNL     1     -12.486 -14.495  28.331  1.00  0.00     0.010 C 
BRANCH  24  26
HETATM   26  C5  UNL     1     -10.916 -12.846  27.269  1.00  0.00     0.008 C 
BRANCH  26  27
HETATM   27  C4  UNL     1     -11.196 -13.201  25.801  1.00  0.00     0.028 C 
BRANCH  27  28
HETATM   28  C3  UNL     1     -10.467 -12.345  24.805  1.00  0.00    -0.022 C 
HETATM   29  C2  UNL     1      -9.213 -12.520  24.340  1.00  0.00    -0.064 C 
HETATM   30  C1  UNL     1      -8.277 -13.610  24.793  1.00  0.00     0.045 C 
BRANCH  29  31
HETATM   31  C30 UNL     1      -8.630 -11.579  23.318  1.00  0.00     0.197 C 
BRANCH  31  32
HETATM   32  O2  UNL     1      -8.138 -12.328  22.217  1.00  0.00    -0.397 OA
HETATM   33  H48 UNL     1      -8.846 -12.948  21.968  1.00  0.00     0.209 HD
ENDBRANCH  31  32
ENDBRANCH  29  31
ENDBRANCH  27  28
ENDBRANCH  26  27
ENDBRANCH  24  26
ENDBRANCH   1  24
TORSDOF 6
ENDMDL
MODEL 2
REMARK minimizedAffinity -9.18359184
REMARK CNNscore 0.493418276
REMARK CNNaffinity 6.84481764
REMARK  6 active torsions:
REMARK  status: ('A' for Active; 'I' for Inactive)
REMARK    1  A    between atoms: C2_2  and  C30_31 
REMARK    2  A    between atoms: C3_3  and  C4_4 
REMARK    3  A    between atoms: C4_4  and  C5_5 
REMARK    4  A    between atoms: C5_5  and  C6_6 
REMARK    5  A    between atoms: C6_6  and  C8_8 
REMARK    6  A    between atoms: C30_31  and  O2_32 
ROOT
HETATM    1  C8  UNL     1      -2.495   8.501  15.235  1.00  0.00    -0.002 C 
HETATM    2  C9  UNL     1      -1.509   8.082  16.376  1.00  0.00     0.006 C 
HETATM    3  C10 UNL     1      -0.153   7.749  15.724  1.00  0.00     0.011 C 
HETATM    4  C11 UNL     1      -0.547   7.312  14.313  1.00  0.00    -0.032 C 
HETATM    5  C12 UNL     1      -1.156   5.867  14.456  1.00  0.00     0.016 C 
HETATM    6  C13 UNL     1       0.586   7.154  13.265  1.00  0.00     0.004 C 
HETATM    7  C14 UNL     1       1.631   8.311  13.100  1.00  0.00     0.007 C 
HETATM    8  C15 UNL     1       1.890   8.768  11.626  1.00  0.00     0.007 C 
HETATM    9  C16 UNL     1       2.112   7.556  10.710  1.00  0.00     0.010 C 
HETATM   10  C17 UNL     1       2.274   7.634   9.192  1.00  0.00     0.018 C 
HETATM   11  C18 UNL     1       3.477   8.506   8.811  1.00  0.00     0.023 C 
HETATM   12  C19 UNL     1       1.019   8.175   8.499  1.00  0.00     0.023 C 
HETATM   13  C20 UNL     1       2.553   6.180   8.718  1.00  0.00     0.135 C 
HETATM   14  O1  UNL     1       2.512   5.882   7.520  1.00  0.00    -0.297 OA
HETATM   15  C21 UNL     1       2.996   5.126   9.758  1.00  0.00     0.080 C 
HETATM   16  C22 UNL     1       2.232   5.169  11.107  1.00  0.00     0.018 C 
HETATM   17  C23 UNL     1       1.270   6.345  11.064  1.00  0.00    -0.026 A 
HETATM   18  C24 UNL     1      -0.087   5.728  10.956  1.00  0.00     0.021 A 
HETATM   19  C25 UNL     1      -0.005   6.869  11.892  1.00  0.00    -0.027 A 
HETATM   20  C26 UNL     1      -1.139   7.843  11.485  1.00  0.00     0.011 C 
HETATM   21  C27 UNL     1      -2.224   8.007  12.578  1.00  0.00     0.011 C 
HETATM   22  C28 UNL     1      -1.610   8.407  13.931  1.00  0.00    -0.032 C 
HETATM   23  C29 UNL     1      -1.069   9.863  13.758  1.00  0.00     0.016 C 
ENDROOT
BRANCH   1  24
HETATM   24  C6  UNL     1      -3.889   7.802  15.217  1.00  0.00    -0.014 C 
HETATM   25  C7  UNL     1      -5.027   8.792  15.525  1.00  0.00     0.010 C 
BRANCH  24  26
HETATM   26  C5  UNL     1      -4.156   7.159  13.826  1.00  0.00     0.008 C 
BRANCH  26  27
HETATM   27  C4  UNL     1      -4.659   5.709  13.878  1.00  0.00     0.028 C 
BRANCH  27  28
HETATM   28  C3  UNL     1      -6.124   5.550  13.583  1.00  0.00    -0.022 C 
HETATM   29  C2  UNL     1      -6.710   4.578  12.853  1.00  0.00    -0.064 C 
HETATM   30  C1  UNL     1      -5.968   3.479  12.139  1.00  0.00     0.045 C 
BRANCH  29  31
HETATM   31  C30 UNL     1      -8.205   4.546  12.668  1.00  0.00     0.197 C 
BRANCH  31  32
HETATM   32  O2  UNL     1      -8.707   3.297  13.119  1.00  0.00    -0.397 OA
HETATM   33  H48 UNL     1      -8.317   3.145  13.998  1.00  0.00     0.209 HD
ENDBRANCH  31  32
ENDBRANCH  29  31
ENDBRANCH  27  28
ENDBRANCH  26  27
ENDBRANCH  24  26
ENDBRANCH   1  24
TORSDOF 6
ENDMDL
MODEL 3
REMARK minimizedAffinity -7.7347393
REMARK CNNscore 0.479883671
REMARK CNNaffinity 6.55646753
REMARK  6 active torsions:
REMARK  status: ('A' for Active; 'I' for Inactive)
REMARK    1  A    between atoms: C2_2  and  C30_31 
REMARK    2  A    between atoms: C3_3  and  C4_4 
REMARK    3  A    between atoms: C4_4  and  C5_5 
REMARK    4  A    between atoms: C5_5  and  C6_6 
REMARK    5  A    between atoms: C6_6  and  C8_8 
REMARK    6  A    between atoms: C30_31  and  O2_32 
ROOT
HETATM    1  C8  UNL     1      -1.681   6.608  12.921  1.00  0.00    -0.002 C 
HETATM    2  C9  UNL     1      -2.166   5.552  13.970  1.00  0.00     0.006 C 
HETATM    3  C10 UNL     1      -2.842   6.315  15.126  1.00  0.00     0.011 C 
HETATM    4  C11 UNL     1      -2.152   7.680  15.087  1.00  0.00    -0.032 C 
HETATM    5  C12 UNL     1      -0.715   7.460  15.692  1.00  0.00     0.016 C 
HETATM    6  C13 UNL     1      -2.763   8.820  15.942  1.00  0.00     0.004 C 
HETATM    7  C14 UNL     1      -4.304   9.094  15.847  1.00  0.00     0.007 C 
HETATM    8  C15 UNL     1      -4.701  10.593  15.629  1.00  0.00     0.007 C 
HETATM    9  C16 UNL     1      -3.937  11.506  16.599  1.00  0.00     0.010 C 
HETATM   10  C17 UNL     1      -3.995  13.033  16.580  1.00  0.00     0.018 C 
HETATM   11  C18 UNL     1      -5.431  13.532  16.787  1.00  0.00     0.023 C 
HETATM   12  C19 UNL     1      -3.439  13.621  15.279  1.00  0.00     0.023 C 
HETATM   13  C20 UNL     1      -3.133  13.507  17.784  1.00  0.00     0.135 C 
HETATM   14  O1  UNL     1      -2.806  14.692  17.906  1.00  0.00    -0.297 OA
HETATM   15  C21 UNL     1      -2.780  12.494  18.896  1.00  0.00     0.080 C 
HETATM   16  C22 UNL     1      -2.370  11.084  18.397  1.00  0.00     0.018 C 
HETATM   17  C23 UNL     1      -2.515  11.060  16.884  1.00  0.00    -0.026 A 
HETATM   18  C24 UNL     1      -1.114  11.039  16.364  1.00  0.00     0.021 A 
HETATM   19  C25 UNL     1      -2.045  10.131  15.659  1.00  0.00    -0.027 A 
HETATM   20  C26 UNL     1      -1.900  10.452  14.150  1.00  0.00     0.011 C 
HETATM   21  C27 UNL     1      -1.330   9.271  13.327  1.00  0.00     0.011 C 
HETATM   22  C28 UNL     1      -2.144   7.983  13.544  1.00  0.00    -0.032 C 
HETATM   23  C29 UNL     1      -3.539   8.226  12.882  1.00  0.00     0.016 C 
ENDROOT
BRANCH   1  24
HETATM   24  C6  UNL     1      -0.203   6.492  12.437  1.00  0.00    -0.014 C 
HETATM   25  C7  UNL     1       0.313   5.045  12.521  1.00  0.00     0.010 C 
BRANCH  24  26
HETATM   26  C5  UNL     1      -0.075   6.979  10.964  1.00  0.00     0.008 C 
BRANCH  26  27
HETATM   27  C4  UNL     1       1.366   7.226  10.496  1.00  0.00     0.028 C 
BRANCH  27  28
HETATM   28  C3  UNL     1       1.801   6.363   9.345  1.00  0.00    -0.022 C 
HETATM   29  C2  UNL     1       2.325   6.770   8.171  1.00  0.00    -0.064 C 
HETATM   30  C1  UNL     1       2.522   8.210   7.775  1.00  0.00     0.045 C 
BRANCH  29  31
HETATM   31  C30 UNL     1       2.734   5.771   7.119  1.00  0.00     0.197 C 
BRANCH  31  32
HETATM   32  O2  UNL     1       3.415   4.691   7.738  1.00  0.00    -0.397 OA
HETATM   33  H48 UNL     1       2.865   4.414   8.492  1.00  0.00     0.209 HD
ENDBRANCH  31  32
ENDBRANCH  29  31
ENDBRANCH  27  28
ENDBRANCH  26  27
ENDBRANCH  24  26
ENDBRANCH   1  24
TORSDOF 6
ENDMDL
MODEL 4
REMARK minimizedAffinity -8.59234619
REMARK CNNscore 0.459405661
REMARK CNNaffinity 7.06444311
REMARK  6 active torsions:
REMARK  status: ('A' for Active; 'I' for Inactive)
REMARK    1  A    between atoms: C2_2  and  C30_31 
REMARK    2  A    between atoms: C3_3  and  C4_4 
REMARK    3  A    between atoms: C4_4  and  C5_5 
REMARK    4  A    between atoms: C5_5  and  C6_6 
REMARK    5  A    between atoms: C6_6  and  C8_8 
REMARK    6  A    between atoms: C30_31  and  O2_32 
ROOT
HETATM    1  C8  UNL     1       0.661   7.973  13.570  1.00  0.00    -0.002 C 
HETATM    2  C9  UNL     1       0.870   8.746  14.915  1.00  0.00     0.006 C 
HETATM    3  C10 UNL     1      -0.442   8.652  15.718  1.00  0.00     0.011 C 
HETATM    4  C11 UNL     1      -1.502   8.487  14.628  1.00  0.00    -0.032 C 
HETATM    5  C12 UNL     1      -1.673   9.905  13.966  1.00  0.00     0.016 C 
HETATM    6  C13 UNL     1      -2.934   8.088  15.071  1.00  0.00     0.004 C 
HETATM    7  C14 UNL     1      -3.113   6.883  16.058  1.00  0.00     0.007 C 
HETATM    8  C15 UNL     1      -4.185   5.827  15.628  1.00  0.00     0.007 C 
HETATM    9  C16 UNL     1      -5.489   6.515  15.200  1.00  0.00     0.010 C 
HETATM   10  C17 UNL     1      -6.699   5.790  14.611  1.00  0.00     0.018 C 
HETATM   11  C18 UNL     1      -7.239   4.738  15.587  1.00  0.00     0.023 C 
HETATM   12  C19 UNL     1      -6.382   5.120  13.271  1.00  0.00     0.023 C 
HETATM   13  C20 UNL     1      -7.791   6.879  14.411  1.00  0.00     0.135 C 
HETATM   14  O1  UNL     1      -8.808   6.647  13.750  1.00  0.00    -0.297 OA
HETATM   15  C21 UNL     1      -7.645   8.230  15.148  1.00  0.00     0.080 C 
HETATM   16  C22 UNL     1      -6.214   8.826  15.153  1.00  0.00     0.018 C 
HETATM   17  C23 UNL     1      -5.287   7.831  14.472  1.00  0.00    -0.026 A 
HETATM   18  C24 UNL     1      -4.942   8.462  13.162  1.00  0.00     0.021 A 
HETATM   19  C25 UNL     1      -3.804   7.819  13.853  1.00  0.00    -0.027 A 
HETATM   20  C26 UNL     1      -3.153   6.867  12.817  1.00  0.00     0.011 C 
HETATM   21  C27 UNL     1      -1.708   7.275  12.438  1.00  0.00     0.011 C 
HETATM   22  C28 UNL     1      -0.817   7.431  13.684  1.00  0.00    -0.032 C 
HETATM   23  C29 UNL     1      -0.630   5.996  14.275  1.00  0.00     0.016 C 
ENDROOT
BRANCH   1  24
HETATM   24  C6  UNL     1       1.061   8.718  12.260  1.00  0.00    -0.014 C 
HETATM   25  C7  UNL     1       2.512   9.228  12.314  1.00  0.00     0.010 C 
BRANCH  24  26
HETATM   26  C5  UNL     1       0.914   7.775  11.032  1.00  0.00     0.008 C 
BRANCH  26  27
HETATM   27  C4  UNL     1       0.308   8.436   9.785  1.00  0.00     0.028 C 
BRANCH  27  28
HETATM   28  C3  UNL     1       0.590   7.712   8.500  1.00  0.00    -0.022 C 
HETATM   29  C2  UNL     1       1.762   7.653   7.835  1.00  0.00    -0.064 C 
HETATM   30  C1  UNL     1       3.019   8.372   8.251  1.00  0.00     0.045 C 
BRANCH  29  31
HETATM   31  C30 UNL     1       1.889   6.859   6.560  1.00  0.00     0.197 C 
BRANCH  31  32
HETATM   32  O2  UNL     1       2.527   5.622   6.840  1.00  0.00    -0.397 OA
HETATM   33  H48 UNL     1       2.068   5.245   7.611  1.00  0.00     0.209 HD
ENDBRANCH  31  32
ENDBRANCH  29  31
ENDBRANCH  27  28
ENDBRANCH  26  27
ENDBRANCH  24  26
ENDBRANCH   1  24
TORSDOF 6
ENDMDL
MODEL 5
REMARK minimizedAffinity -8.30303288
REMARK CNNscore 0.37379545
REMARK CNNaffinity 6.57822418
REMARK  6 active torsions:
REMARK  status: ('A' for Active; 'I' for Inactive)
REMARK    1  A    between atoms: C2_2  and  C30_31 
REMARK    2  A    between atoms: C3_3  and  C4_4 
REMARK    3  A    between atoms: C4_4  and  C5_5 
REMARK    4  A    between atoms: C5_5  and  C6_6 
REMARK    5  A    between atoms: C6_6  and  C8_8 
REMARK    6  A    between atoms: C30_31  and  O2_32 
ROOT
HETATM    1  C8  UNL     1      -0.801  10.110  15.786  1.00  0.00    -0.002 C 
HETATM    2  C9  UNL     1      -0.214  10.428  14.370  1.00  0.00     0.006 C 
HETATM    3  C10 UNL     1      -1.084   9.701  13.327  1.00  0.00     0.011 C 
HETATM    4  C11 UNL     1      -1.640   8.511  14.111  1.00  0.00    -0.032 C 
HETATM    5  C12 UNL     1      -0.451   7.488  14.254  1.00  0.00     0.016 C 
HETATM    6  C13 UNL     1      -2.783   7.690  13.461  1.00  0.00     0.004 C 
HETATM    7  C14 UNL     1      -4.018   8.452  12.866  1.00  0.00     0.007 C 
HETATM    8  C15 UNL     1      -5.415   7.898  13.306  1.00  0.00     0.007 C 
HETATM    9  C16 UNL     1      -5.465   6.370  13.165  1.00  0.00     0.010 C 
HETATM   10  C17 UNL     1      -6.634   5.495  13.617  1.00  0.00     0.018 C 
HETATM   11  C18 UNL     1      -7.929   5.892  12.896  1.00  0.00     0.023 C 
HETATM   12  C19 UNL     1      -6.859   5.560  15.131  1.00  0.00     0.023 C 
HETATM   13  C20 UNL     1      -6.266   4.044  13.200  1.00  0.00     0.135 C 
HETATM   14  O1  UNL     1      -6.910   3.078  13.621  1.00  0.00    -0.297 OA
HETATM   15  C21 UNL     1      -5.147   3.826  12.156  1.00  0.00     0.080 C 
HETATM   16  C22 UNL     1      -3.895   4.723  12.335  1.00  0.00     0.018 C 
HETATM   17  C23 UNL     1      -4.158   5.673  13.493  1.00  0.00    -0.026 A 
HETATM   18  C24 UNL     1      -3.278   5.185  14.598  1.00  0.00     0.021 A 
HETATM   19  C25 UNL     1      -3.310   6.654  14.442  1.00  0.00    -0.027 A 
HETATM   20  C26 UNL     1      -3.637   7.230  15.843  1.00  0.00     0.011 C 
HETATM   21  C27 UNL     1      -2.486   8.081  16.436  1.00  0.00     0.011 C 
HETATM   22  C28 UNL     1      -2.047   9.194  15.468  1.00  0.00    -0.032 C 
HETATM   23  C29 UNL     1      -3.232  10.212  15.400  1.00  0.00     0.016 C 
ENDROOT
BRANCH   1  24
HETATM   24  C6  UNL     1       0.205   9.615  16.870  1.00  0.00    -0.014 C 
HETATM   25  C7  UNL     1       1.623   9.445  16.298  1.00  0.00     0.010 C 
BRANCH  24  26
HETATM   26  C5  UNL     1       0.267  10.624  18.053  1.00  0.00     0.008 C 
BRANCH  26  27
HETATM   27  C4  UNL     1       1.681  10.901  18.584  1.00  0.00     0.028 C 
BRANCH  27  28
HETATM   28  C3  UNL     1       2.080  10.053  19.758  1.00  0.00    -0.022 C 
HETATM   29  C2  UNL     1       2.326  10.466  21.019  1.00  0.00    -0.064 C 
HETATM   30  C1  UNL     1       2.295  11.903  21.470  1.00  0.00     0.045 C 
BRANCH  29  31
HETATM   31  C30 UNL     1       2.696   9.480  22.096  1.00  0.00     0.197 C 
BRANCH  31  32
HETATM   32  O2  UNL     1       1.867   8.333  21.988  1.00  0.00    -0.397 OA
HETATM   33  H48 UNL     1       1.885   8.068  21.052  1.00  0.00     0.209 HD
ENDBRANCH  31  32
ENDBRANCH  29  31
ENDBRANCH  27  28
ENDBRANCH  26  27
ENDBRANCH  24  26
ENDBRANCH   1  24
TORSDOF 6
ENDMDL
MODEL 6
REMARK minimizedAffinity -6.26907539
REMARK CNNscore 0.358729362
REMARK CNNaffinity 5.50549173
REMARK  6 active torsions:
REMARK  status: ('A' for Active; 'I' for Inactive)
REMARK    1  A    between atoms: C2_2  and  C30_31 
REMARK    2  A    between atoms: C3_3  and  C4_4 
REMARK    3  A    between atoms: C4_4  and  C5_5 
REMARK    4  A    between atoms: C5_5  and  C6_6 
REMARK    5  A    between atoms: C6_6  and  C8_8 
REMARK    6  A    between atoms: C30_31  and  O2_32 
ROOT
HETATM    1  C8  UNL     1       4.892   7.354  12.177  1.00  0.00    -0.002 C 
HETATM    2  C9  UNL     1       6.003   6.690  11.296  1.00  0.00     0.006 C 
HETATM    3  C10 UNL     1       7.370   7.115  11.866  1.00  0.00     0.011 C 
HETATM    4  C11 UNL     1       7.064   8.459  12.528  1.00  0.00    -0.032 C 
HETATM    5  C12 UNL     1       6.908   9.499  11.356  1.00  0.00     0.016 C 
HETATM    6  C13 UNL     1       8.151   9.072  13.450  1.00  0.00     0.004 C 
HETATM    7  C14 UNL     1       8.807   8.169  14.551  1.00  0.00     0.007 C 
HETATM    8  C15 UNL     1       8.862   8.800  15.982  1.00  0.00     0.007 C 
HETATM    9  C16 UNL     1       9.391  10.241  15.923  1.00  0.00     0.010 C 
HETATM   10  C17 UNL     1       9.462  11.188  17.121  1.00  0.00     0.018 C 
HETATM   11  C18 UNL     1      10.343  10.605  18.232  1.00  0.00     0.023 C 
HETATM   12  C19 UNL     1       8.077  11.511  17.691  1.00  0.00     0.023 C 
HETATM   13  C20 UNL     1      10.133  12.489  16.595  1.00  0.00     0.135 C 
HETATM   14  O1  UNL     1      10.133  13.523  17.270  1.00  0.00    -0.297 OA
HETATM   15  C21 UNL     1      10.905  12.444  15.257  1.00  0.00     0.080 C 
HETATM   16  C22 UNL     1      10.216  11.638  14.125  1.00  0.00     0.018 C 
HETATM   17  C23 UNL     1       8.952  11.014  14.694  1.00  0.00    -0.026 A 
HETATM   18  C24 UNL     1       7.830  11.780  14.069  1.00  0.00     0.021 A 
HETATM   19  C25 UNL     1       7.614  10.319  14.137  1.00  0.00    -0.027 A 
HETATM   20  C26 UNL     1       6.230  10.119  14.804  1.00  0.00     0.011 C 
HETATM   21  C27 UNL     1       5.189   9.462  13.864  1.00  0.00     0.011 C 
HETATM   22  C28 UNL     1       5.714   8.142  13.270  1.00  0.00    -0.032 C 
HETATM   23  C29 UNL     1       5.800   7.128  14.456  1.00  0.00     0.016 C 
ENDROOT
BRANCH   1  24
HETATM   24  C6  UNL     1       3.763   8.122  11.425  1.00  0.00    -0.014 C 
HETATM   25  C7  UNL     1       3.946   8.055   9.898  1.00  0.00     0.010 C 
BRANCH  24  26
HETATM   26  C5  UNL     1       2.370   7.526  11.782  1.00  0.00     0.008 C 
BRANCH  26  27
HETATM   27  C4  UNL     1       1.267   7.818  10.754  1.00  0.00     0.028 C 
BRANCH  27  28
HETATM   28  C3  UNL     1       0.101   8.593  11.299  1.00  0.00    -0.022 C 
HETATM   29  C2  UNL     1      -0.948   8.110  11.996  1.00  0.00    -0.064 C 
HETATM   30  C1  UNL     1      -1.167   6.654  12.312  1.00  0.00     0.045 C 
BRANCH  29  31
HETATM   31  C30 UNL     1      -2.032   9.029  12.496  1.00  0.00     0.197 C 
BRANCH  31  32
HETATM   32  O2  UNL     1      -1.443  10.211  13.017  1.00  0.00    -0.397 OA
HETATM   33  H48 UNL     1      -0.807  10.519  12.348  1.00  0.00     0.209 HD
ENDBRANCH  31  32
ENDBRANCH  29  31
ENDBRANCH  27  28
ENDBRANCH  26  27
ENDBRANCH  24  26
ENDBRANCH   1  24
TORSDOF 6
ENDMDL
MODEL 7
REMARK minimizedAffinity -6.95294571
REMARK CNNscore 0.333075166
REMARK CNNaffinity 6.12676764
REMARK  6 active torsions:
REMARK  status: ('A' for Active; 'I' for Inactive)
REMARK    1  A    between atoms: C2_2  and  C30_31 
REMARK    2  A    between atoms: C3_3  and  C4_4 
REMARK    3  A    between atoms: C4_4  and  C5_5 
REMARK    4  A    between atoms: C5_5  and  C6_6 
REMARK    5  A    between atoms: C6_6  and  C8_8 
REMARK    6  A    between atoms: C30_31  and  O2_32 
ROOT
HETATM    1  C8  UNL     1      -3.601   9.813  14.436  1.00  0.00    -0.002 C 
HETATM    2  C9  UNL     1      -4.553   9.133  15.476  1.00  0.00     0.006 C 
HETATM    3  C10 UNL     1      -4.121   9.597  16.880  1.00  0.00     0.011 C 
HETATM    4  C11 UNL     1      -2.635   9.908  16.698  1.00  0.00    -0.032 C 
HETATM    5  C12 UNL     1      -1.903   8.516  16.621  1.00  0.00     0.016 C 
HETATM    6  C13 UNL     1      -1.912  10.664  17.843  1.00  0.00     0.004 C 
HETATM    7  C14 UNL     1      -2.572  11.959  18.430  1.00  0.00     0.007 C 
HETATM    8  C15 UNL     1      -1.618  13.194  18.555  1.00  0.00     0.007 C 
HETATM    9  C16 UNL     1      -0.287  12.792  19.205  1.00  0.00     0.010 C 
HETATM   10  C17 UNL     1       0.914  13.723  19.370  1.00  0.00     0.018 C 
HETATM   11  C18 UNL     1       0.546  14.953  20.209  1.00  0.00     0.023 C 
HETATM   12  C19 UNL     1       1.485  14.182  18.025  1.00  0.00     0.023 C 
HETATM   13  C20 UNL     1       1.985  12.904  20.145  1.00  0.00     0.135 C 
HETATM   14  O1  UNL     1       3.148  13.306  20.241  1.00  0.00    -0.297 OA
HETATM   15  C21 UNL     1       1.549  11.625  20.896  1.00  0.00     0.080 C 
HETATM   16  C22 UNL     1       0.554  10.717  20.129  1.00  0.00     0.018 C 
HETATM   17  C23 UNL     1       0.199  11.407  18.822  1.00  0.00    -0.026 A 
HETATM   18  C24 UNL     1       0.883  10.601  17.764  1.00  0.00     0.021 A 
HETATM   19  C25 UNL     1      -0.493  11.021  17.423  1.00  0.00    -0.027 A 
HETATM   20  C26 UNL     1      -0.405  11.702  16.035  1.00  0.00     0.011 C 
HETATM   21  C27 UNL     1      -1.179  10.939  14.931  1.00  0.00     0.011 C 
HETATM   22  C28 UNL     1      -2.643  10.690  15.333  1.00  0.00    -0.032 C 
HETATM   23  C29 UNL     1      -3.342  12.089  15.344  1.00  0.00     0.016 C 
ENDROOT
BRANCH   1  24
HETATM   24  C6  UNL     1      -2.945   8.884  13.369  1.00  0.00    -0.014 C 
HETATM   25  C7  UNL     1      -1.482   9.274  13.095  1.00  0.00     0.010 C 
BRANCH  24  26
HETATM   26  C5  UNL     1      -2.982   7.402  13.842  1.00  0.00     0.008 C 
BRANCH  26  27
HETATM   27  C4  UNL     1      -4.095   6.556  13.209  1.00  0.00     0.028 C 
BRANCH  27  28
HETATM   28  C3  UNL     1      -3.627   5.254  12.622  1.00  0.00    -0.022 C 
HETATM   29  C2  UNL     1      -4.361   4.143  12.409  1.00  0.00    -0.064 C 
HETATM   30  C1  UNL     1      -5.812   3.990  12.784  1.00  0.00     0.045 C 
BRANCH  29  31
HETATM   31  C30 UNL     1      -3.744   2.917  11.785  1.00  0.00     0.197 C 
BRANCH  31  32
HETATM   32  O2  UNL     1      -4.076   2.875  10.406  1.00  0.00    -0.397 OA
HETATM   33  H48 UNL     1      -3.882   3.759  10.049  1.00  0.00     0.209 HD
ENDBRANCH  31  32
ENDBRANCH  29  31
ENDBRANCH  27  28
ENDBRANCH  26  27
ENDBRANCH  24  26
ENDBRANCH   1  24
TORSDOF 6
ENDMDL
MODEL 8
REMARK minimizedAffinity -8.60670471
REMARK CNNscore 0.327893555
REMARK CNNaffinity 6.69885492
REMARK  6 active torsions:
REMARK  status: ('A' for Active; 'I' for Inactive)
REMARK    1  A    between atoms: C2_2  and  C30_31 
REMARK    2  A    between atoms: C3_3  and  C4_4 
REMARK    3  A    between atoms: C4_4  and  C5_5 
REMARK    4  A    between atoms: C5_5  and  C6_6 
REMARK    5  A    between atoms: C6_6  and  C8_8 
REMARK    6  A    between atoms: C30_31  and  O2_32 
ROOT
HETATM    1  C8  UNL     1      -2.708   8.852  15.106  1.00  0.00    -0.002 C 
HETATM    2  C9  UNL     1      -1.936   8.207  16.304  1.00  0.00     0.006 C 
HETATM    3  C10 UNL     1      -0.580   7.704  15.773  1.00  0.00     0.011 C 
HETATM    4  C11 UNL     1      -0.870   7.428  14.297  1.00  0.00    -0.032 C 
HETATM    5  C12 UNL     1      -1.705   6.093  14.257  1.00  0.00     0.016 C 
HETATM    6  C13 UNL     1       0.339   7.159  13.363  1.00  0.00     0.004 C 
HETATM    7  C14 UNL     1       1.561   8.140  13.404  1.00  0.00     0.007 C 
HETATM    8  C15 UNL     1       2.055   8.645  12.007  1.00  0.00     0.007 C 
HETATM    9  C16 UNL     1       2.195   7.474  11.023  1.00  0.00     0.010 C 
HETATM   10  C17 UNL     1       2.541   7.624   9.542  1.00  0.00     0.018 C 
HETATM   11  C18 UNL     1       3.899   8.314   9.361  1.00  0.00     0.023 C 
HETATM   12  C19 UNL     1       1.473   8.403   8.769  1.00  0.00     0.023 C 
HETATM   13  C20 UNL     1       2.648   6.178   8.981  1.00  0.00     0.135 C 
HETATM   14  O1  UNL     1       2.701   5.968   7.766  1.00  0.00    -0.297 OA
HETATM   15  C21 UNL     1       2.802   5.001   9.972  1.00  0.00     0.080 C 
HETATM   16  C22 UNL     1       1.903   5.079  11.233  1.00  0.00     0.018 C 
HETATM   17  C23 UNL     1       1.142   6.395  11.187  1.00  0.00    -0.026 A 
HETATM   18  C24 UNL     1      -0.272   6.011  10.888  1.00  0.00     0.021 A 
HETATM   19  C25 UNL     1      -0.125   7.061  11.918  1.00  0.00    -0.027 A 
HETATM   20  C26 UNL     1      -1.042   8.229  11.476  1.00  0.00     0.011 C 
HETATM   21  C27 UNL     1      -2.209   8.494  12.459  1.00  0.00     0.011 C 
HETATM   22  C28 UNL     1      -1.703   8.702  13.898  1.00  0.00    -0.032 C 
HETATM   23  C29 UNL     1      -0.930  10.060  13.902  1.00  0.00     0.016 C 
ENDROOT
BRANCH   1  24
HETATM   24  C6  UNL     1      -4.181   8.389  14.885  1.00  0.00    -0.014 C 
HETATM   25  C7  UNL     1      -4.563   8.394  13.395  1.00  0.00     0.010 C 
BRANCH  24  26
HETATM   26  C5  UNL     1      -4.388   6.952  15.445  1.00  0.00     0.008 C 
BRANCH  26  27
HETATM   27  C4  UNL     1      -5.502   6.151  14.755  1.00  0.00     0.028 C 
BRANCH  27  28
HETATM   28  C3  UNL     1      -6.892   6.632  15.063  1.00  0.00    -0.022 C 
HETATM   29  C2  UNL     1      -7.988   6.514  14.285  1.00  0.00    -0.064 C 
HETATM   30  C1  UNL     1      -7.998   5.909  12.906  1.00  0.00     0.045 C 
BRANCH  29  31
HETATM   31  C30 UNL     1      -9.325   7.032  14.750  1.00  0.00     0.197 C 
BRANCH  31  32
HETATM   32  O2  UNL     1      -9.797   6.221  15.816  1.00  0.00    -0.397 OA
HETATM   33  H48 UNL     1      -9.058   6.133  16.443  1.00  0.00     0.209 HD
ENDBRANCH  31  32
ENDBRANCH  29  31
ENDBRANCH  27  28
ENDBRANCH  26  27
ENDBRANCH  24  26
ENDBRANCH   1  24
TORSDOF 6
ENDMDL
MODEL 9
REMARK minimizedAffinity -7.18741846
REMARK CNNscore 0.310326904
REMARK CNNaffinity 6.24203634
REMARK  6 active torsions:
REMARK  status: ('A' for Active; 'I' for Inactive)
REMARK    1  A    between atoms: C2_2  and  C30_31 
REMARK    2  A    between atoms: C3_3  and  C4_4 
REMARK    3  A    between atoms: C4_4  and  C5_5 
REMARK    4  A    between atoms: C5_5  and  C6_6 
REMARK    5  A    between atoms: C6_6  and  C8_8 
REMARK    6  A    between atoms: C30_31  and  O2_32 
ROOT
HETATM    1  C8  UNL     1      -1.260  11.337  17.522  1.00  0.00    -0.002 C 
HETATM    2  C9  UNL     1      -2.114  12.361  16.703  1.00  0.00     0.006 C 
HETATM    3  C10 UNL     1      -2.411  11.731  15.328  1.00  0.00     0.011 C 
HETATM    4  C11 UNL     1      -1.233  10.778  15.124  1.00  0.00    -0.032 C 
HETATM    5  C12 UNL     1       0.004  11.683  14.761  1.00  0.00     0.016 C 
HETATM    6  C13 UNL     1      -1.324   9.759  13.959  1.00  0.00     0.004 C 
HETATM    7  C14 UNL     1      -2.627   8.901  13.804  1.00  0.00     0.007 C 
HETATM    8  C15 UNL     1      -2.393   7.365  13.614  1.00  0.00     0.007 C 
HETATM    9  C16 UNL     1      -1.314   7.105  12.553  1.00  0.00     0.010 C 
HETATM   10  C17 UNL     1      -0.755   5.725  12.204  1.00  0.00     0.018 C 
HETATM   11  C18 UNL     1      -1.868   4.788  11.717  1.00  0.00     0.023 C 
HETATM   12  C19 UNL     1      -0.028   5.076  13.385  1.00  0.00     0.023 C 
HETATM   13  C20 UNL     1       0.241   5.954  11.032  1.00  0.00     0.135 C 
HETATM   14  O1  UNL     1       1.017   5.063  10.673  1.00  0.00    -0.297 OA
HETATM   15  C21 UNL     1       0.173   7.279  10.240  1.00  0.00     0.080 C 
HETATM   16  C22 UNL     1      -0.024   8.553  11.102  1.00  0.00     0.018 C 
HETATM   17  C23 UNL     1      -0.187   8.120  12.550  1.00  0.00    -0.026 A 
HETATM   18  C24 UNL     1       1.081   8.539  13.222  1.00  0.00     0.021 A 
HETATM   19  C25 UNL     1      -0.144   8.800  14.006  1.00  0.00    -0.027 A 
HETATM   20  C26 UNL     1       0.096   8.173  15.403  1.00  0.00     0.011 C 
HETATM   21  C27 UNL     1       0.134   9.221  16.543  1.00  0.00     0.011 C 
HETATM   22  C28 UNL     1      -1.125  10.106  16.542  1.00  0.00    -0.032 C 
HETATM   23  C29 UNL     1      -2.314   9.181  16.960  1.00  0.00     0.016 C 
ENDROOT
BRANCH   1  24
HETATM   24  C6  UNL     1       0.040  11.878  18.190  1.00  0.00    -0.014 C 
HETATM   25  C7  UNL     1       0.259  13.371  17.886  1.00  0.00     0.010 C 
BRANCH  24  26
HETATM   26  C5  UNL     1      -0.025  11.693  19.734  1.00  0.00     0.008 C 
BRANCH  26  27
HETATM   27  C4  UNL     1       0.930  10.626  20.291  1.00  0.00     0.028 C 
BRANCH  27  28
HETATM   28  C3  UNL     1       2.381  11.012  20.251  1.00  0.00    -0.022 C 
HETATM   29  C2  UNL     1       3.288  10.885  21.242  1.00  0.00    -0.064 C 
HETATM   30  C1  UNL     1       2.980  10.369  22.622  1.00  0.00     0.045 C 
BRANCH  29  31
HETATM   31  C30 UNL     1       4.722  11.301  21.035  1.00  0.00     0.197 C 
BRANCH  31  32
HETATM   32  O2  UNL     1       5.182  10.796  19.791  1.00  0.00    -0.397 OA
HETATM   33  H48 UNL     1       4.503  11.027  19.132  1.00  0.00     0.209 HD
ENDBRANCH  31  32
ENDBRANCH  29  31
ENDBRANCH  27  28
ENDBRANCH  26  27
ENDBRANCH  24  26
ENDBRANCH   1  24
TORSDOF 6
ENDMDL
