MODEL 1
REMARK minimizedAffinity -8.39913654
REMARK CNNscore 0.355984718
REMARK CNNaffinity 7.02409935
REMARK  10 active torsions:
REMARK  status: ('A' for Active; 'I' for Inactive)
REMARK    1  A    between atoms: O1_2  and  C2_3 
REMARK    2  A    between atoms: C2_3  and  C3_5 
REMARK    3  A    between atoms: C3_5  and  C4_6 
REMARK    4  A    between atoms: C3_5  and  N1_13 
REMARK    5  A    between atoms: C4_6  and  C5_7 
REMARK       I    between atoms: N1_13  and  C11_14 
REMARK    6  A    between atoms: C11_14  and  C12_16 
REMARK    7  A    between atoms: C12_16  and  O4_17 
REMARK    8  A    between atoms: O4_17  and  N2_18 
REMARK    9  A    between atoms: C27_34  and  O5_35 
REMARK   10  A    between atoms: C27_34  and  C28_36 
ROOT
HETATM    1  N2  UNL     1      -4.281   7.065  13.889  1.00  0.00    -0.271 N 
ATOM      2  H2  UNL     1      -3.711   7.877  14.128  1.00  0.00     0.194 HD
HETATM    3  C13 UNL     1      -5.573   7.008  14.050  1.00  0.00     0.032 C 
HETATM    4  C14 UNL     1      -6.238   8.179  14.673  1.00  0.00     0.030 C 
HETATM    5  C15 UNL     1      -7.556   8.195  14.937  1.00  0.00    -0.069 C 
HETATM    6  C16 UNL     1      -8.139   9.349  15.716  1.00  0.00     0.035 C 
HETATM    7  C17 UNL     1      -9.384   9.921  15.053  1.00  0.00     0.010 C 
HETATM    8  C18 UNL     1     -10.436   8.830  14.828  1.00  0.00    -0.004 C 
HETATM    9  C19 UNL     1      -9.844   7.698  13.934  1.00  0.00     0.002 C 
HETATM   10  C20 UNL     1     -10.920   6.644  13.559  1.00  0.00     0.007 C 
HETATM   11  C21 UNL     1     -12.220   7.259  13.008  1.00  0.00     0.013 C 
HETATM   12  C22 UNL     1     -12.805   8.329  13.948  1.00  0.00    -0.002 C 
HETATM   13  C23 UNL     1     -13.271   7.669  15.275  1.00  0.00     0.019 C 
HETATM   14  C24 UNL     1     -11.694   9.392  14.154  1.00  0.00     0.002 C 
HETATM   15  C25 UNL     1     -12.420  10.546  14.833  1.00  0.00     0.009 C 
HETATM   16  C26 UNL     1     -13.834  10.525  14.224  1.00  0.00     0.047 C 
HETATM   17  C27 UNL     1     -13.936   9.232  13.366  1.00  0.00     0.125 C 
HETATM   18  C30 UNL     1      -8.520   7.076  14.526  1.00  0.00    -0.016 C 
HETATM   19  C31 UNL     1      -8.800   6.205  15.771  1.00  0.00     0.020 C 
HETATM   20  C32 UNL     1      -7.859   6.200  13.424  1.00  0.00     0.020 C 
HETATM   21  C33 UNL     1      -6.421   5.799  13.727  1.00  0.00     0.060 C 
ENDROOT
BRANCH   1  22
HETATM   22  O4  UNL     1      -3.767   5.876  13.350  1.00  0.00    -0.271 OA
BRANCH  22  23
HETATM   23  C12 UNL     1      -2.681   5.448  14.163  1.00  0.00     0.303 C 
BRANCH  23  24
HETATM   24  C11 UNL     1      -1.495   6.365  13.911  1.00  0.00     0.244 C 
HETATM   25  N1  UNL     1      -1.694   7.290  12.909  1.00  0.00    -0.345 N 
HETATM   26  H12 UNL     1      -2.519   7.221  12.317  1.00  0.00     0.163 HD
HETATM   27  O3  UNL     1      -0.451   6.301  14.557  1.00  0.00    -0.271 OA
BRANCH  25  28
HETATM   28  C3  UNL     1      -0.644   8.234  12.515  1.00  0.00     0.188 C 
BRANCH  28  29
HETATM   29  C2  UNL     1      -0.744   9.442  13.446  1.00  0.00     0.281 C 
HETATM   30  O2  UNL     1      -1.605  10.311  13.349  1.00  0.00    -0.263 OA
BRANCH  29  31
HETATM   31  O1  UNL     1       0.240   9.415  14.386  1.00  0.00    -0.325 OA
HETATM   32  C1  UNL     1       1.551   9.657  13.875  1.00  0.00     0.213 C 
ENDBRANCH  29  31
ENDBRANCH  28  29
BRANCH  28  33
HETATM   33  C4  UNL     1      -0.822   8.674  11.055  1.00  0.00     0.074 C 
BRANCH  33  34
HETATM   34  C5  UNL     1       0.329   8.268  10.166  1.00  0.00    -0.056 A 
HETATM   35  C6  UNL     1       0.217   8.386   8.774  1.00  0.00     0.007 A 
HETATM   36  C7  UNL     1       1.270   7.998   7.944  1.00  0.00     0.001 A 
HETATM   37  C8  UNL     1       2.444   7.494   8.499  1.00  0.00     0.000 A 
HETATM   38  C9  UNL     1       2.567   7.376   9.882  1.00  0.00     0.001 A 
HETATM   39  C10 UNL     1       1.514   7.760  10.714  1.00  0.00     0.007 A 
ENDBRANCH  33  34
ENDBRANCH  28  33
ENDBRANCH  25  28
ENDBRANCH  23  24
ENDBRANCH  22  23
ENDBRANCH   1  22
BRANCH  17  40
HETATM   40  O5  UNL     1     -13.637   9.583  12.008  1.00  0.00    -0.381 OA
HETATM   41  H34 UNL     1     -14.241  10.305  11.750  1.00  0.00     0.211 HD
ENDBRANCH  17  40
BRANCH  17  42
HETATM   42  C28 UNL     1     -15.355   8.618  13.391  1.00  0.00     0.158 C 
HETATM   43  C29 UNL     1     -15.684   7.564  12.363  1.00  0.00     0.094 C 
HETATM   44  O6  UNL     1     -16.209   8.963  14.212  1.00  0.00    -0.295 OA
ENDBRANCH  17  42
TORSDOF 10
ENDMDL
MODEL 2
REMARK minimizedAffinity -8.92829323
REMARK CNNscore 0.316404909
REMARK CNNaffinity 7.19700432
REMARK  10 active torsions:
REMARK  status: ('A' for Active; 'I' for Inactive)
REMARK    1  A    between atoms: O1_2  and  C2_3 
REMARK    2  A    between atoms: C2_3  and  C3_5 
REMARK    3  A    between atoms: C3_5  and  C4_6 
REMARK    4  A    between atoms: C3_5  and  N1_13 
REMARK    5  A    between atoms: C4_6  and  C5_7 
REMARK       I    between atoms: N1_13  and  C11_14 
REMARK    6  A    between atoms: C11_14  and  C12_16 
REMARK    7  A    between atoms: C12_16  and  O4_17 
REMARK    8  A    between atoms: O4_17  and  N2_18 
REMARK    9  A    between atoms: C27_34  and  O5_35 
REMARK   10  A    between atoms: C27_34  and  C28_36 
ROOT
HETATM    1  N2  UNL     1      -2.722   5.070  13.422  1.00  0.00    -0.271 N 
ATOM      2  H2  UNL     1      -2.103   5.608  14.027  1.00  0.00     0.194 HD
HETATM    3  C13 UNL     1      -4.023   5.139  13.462  1.00  0.00     0.032 C 
HETATM    4  C14 UNL     1      -4.630   6.013  14.497  1.00  0.00     0.030 C 
HETATM    5  C15 UNL     1      -5.962   6.106  14.661  1.00  0.00    -0.069 C 
HETATM    6  C16 UNL     1      -6.507   6.886  15.832  1.00  0.00     0.035 C 
HETATM    7  C17 UNL     1      -7.598   7.862  15.416  1.00  0.00     0.010 C 
HETATM    8  C18 UNL     1      -8.726   7.140  14.670  1.00  0.00    -0.004 C 
HETATM    9  C19 UNL     1      -8.154   6.427  13.405  1.00  0.00     0.002 C 
HETATM   10  C20 UNL     1      -9.283   5.806  12.541  1.00  0.00     0.007 C 
HETATM   11  C21 UNL     1     -10.437   6.781  12.239  1.00  0.00     0.013 C 
HETATM   12  C22 UNL     1     -11.013   7.417  13.518  1.00  0.00    -0.002 C 
HETATM   13  C23 UNL     1     -11.699   6.327  14.388  1.00  0.00     0.019 C 
HETATM   14  C24 UNL     1      -9.829   8.113  14.238  1.00  0.00     0.002 C 
HETATM   15  C25 UNL     1     -10.505   8.957  15.312  1.00  0.00     0.009 C 
HETATM   16  C26 UNL     1     -11.831   9.407  14.671  1.00  0.00     0.047 C 
HETATM   17  C27 UNL     1     -11.967   8.636  13.327  1.00  0.00     0.125 C 
HETATM   18  C30 UNL     1      -6.982   5.425  13.741  1.00  0.00    -0.016 C 
HETATM   19  C31 UNL     1      -7.497   4.156  14.455  1.00  0.00     0.020 C 
HETATM   20  C32 UNL     1      -6.291   5.021  12.407  1.00  0.00     0.020 C 
HETATM   21  C33 UNL     1      -4.950   4.323  12.589  1.00  0.00     0.060 C 
ENDROOT
BRANCH   1  22
HETATM   22  O4  UNL     1      -2.276   4.166  12.445  1.00  0.00    -0.271 OA
BRANCH  22  23
HETATM   23  C12 UNL     1      -0.905   3.878  12.694  1.00  0.00     0.303 C 
BRANCH  23  24
HETATM   24  C11 UNL     1      -0.051   4.805  11.845  1.00  0.00     0.244 C 
HETATM   25  N1  UNL     1       0.533   5.840  12.545  1.00  0.00    -0.345 N 
HETATM   26  H12 UNL     1       0.260   6.012  13.509  1.00  0.00     0.163 HD
HETATM   27  O3  UNL     1       0.120   4.640  10.639  1.00  0.00    -0.271 OA
BRANCH  25  28
HETATM   28  C3  UNL     1       1.366   6.844  11.877  1.00  0.00     0.188 C 
BRANCH  28  29
HETATM   29  C2  UNL     1       0.487   7.559  10.852  1.00  0.00     0.281 C 
HETATM   30  O2  UNL     1      -0.493   8.236  11.145  1.00  0.00    -0.263 OA
BRANCH  29  31
HETATM   31  O1  UNL     1       0.942   7.345   9.587  1.00  0.00    -0.325 OA
HETATM   32  C1  UNL     1       0.594   8.368   8.653  1.00  0.00     0.213 C 
ENDBRANCH  29  31
ENDBRANCH  28  29
BRANCH  28  33
HETATM   33  C4  UNL     1       2.565   6.185  11.179  1.00  0.00     0.074 C 
BRANCH  33  34
HETATM   34  C5  UNL     1       3.883   6.845  11.506  1.00  0.00    -0.056 A 
HETATM   35  C6  UNL     1       5.016   6.576  10.728  1.00  0.00     0.007 A 
HETATM   36  C7  UNL     1       6.241   7.170  11.033  1.00  0.00     0.001 A 
HETATM   37  C8  UNL     1       6.342   8.042  12.115  1.00  0.00     0.000 A 
HETATM   38  C9  UNL     1       5.220   8.319  12.894  1.00  0.00     0.001 A 
HETATM   39  C10 UNL     1       3.994   7.723  12.592  1.00  0.00     0.007 A 
ENDBRANCH  33  34
ENDBRANCH  28  33
ENDBRANCH  25  28
ENDBRANCH  23  24
ENDBRANCH  22  23
ENDBRANCH   1  22
BRANCH  17  40
HETATM   40  O5  UNL     1     -11.474   9.489  12.283  1.00  0.00    -0.381 OA
HETATM   41  H34 UNL     1     -11.964  10.331  12.334  1.00  0.00     0.211 HD
ENDBRANCH  17  40
BRANCH  17  42
HETATM   42  C28 UNL     1     -13.435   8.286  12.993  1.00  0.00     0.158 C 
HETATM   43  C29 UNL     1     -14.024   7.049  13.625  1.00  0.00     0.094 C 
HETATM   44  O6  UNL     1     -14.122   8.976  12.236  1.00  0.00    -0.295 OA
ENDBRANCH  17  42
TORSDOF 10
ENDMDL
MODEL 3
REMARK minimizedAffinity -8.54198265
REMARK CNNscore 0.280945063
REMARK CNNaffinity 7.52003336
REMARK  10 active torsions:
REMARK  status: ('A' for Active; 'I' for Inactive)
REMARK    1  A    between atoms: O1_2  and  C2_3 
REMARK    2  A    between atoms: C2_3  and  C3_5 
REMARK    3  A    between atoms: C3_5  and  C4_6 
REMARK    4  A    between atoms: C3_5  and  N1_13 
REMARK    5  A    between atoms: C4_6  and  C5_7 
REMARK       I    between atoms: N1_13  and  C11_14 
REMARK    6  A    between atoms: C11_14  and  C12_16 
REMARK    7  A    between atoms: C12_16  and  O4_17 
REMARK    8  A    between atoms: O4_17  and  N2_18 
REMARK    9  A    between atoms: C27_34  and  O5_35 
REMARK   10  A    between atoms: C27_34  and  C28_36 
ROOT
HETATM    1  N2  UNL     1      -3.099   4.184  12.661  1.00  0.00    -0.271 N 
ATOM      2  H2  UNL     1      -2.286   4.690  13.011  1.00  0.00     0.194 HD
HETATM    3  C13 UNL     1      -4.330   4.482  12.967  1.00  0.00     0.032 C 
HETATM    4  C14 UNL     1      -4.548   5.589  13.931  1.00  0.00     0.030 C 
HETATM    5  C15 UNL     1      -5.775   5.934  14.358  1.00  0.00    -0.069 C 
HETATM    6  C16 UNL     1      -5.913   6.959  15.457  1.00  0.00     0.035 C 
HETATM    7  C17 UNL     1      -6.931   8.037  15.115  1.00  0.00     0.010 C 
HETATM    8  C18 UNL     1      -8.292   7.419  14.772  1.00  0.00    -0.004 C 
HETATM    9  C19 UNL     1      -8.143   6.441  13.566  1.00  0.00     0.002 C 
HETATM   10  C20 UNL     1      -9.519   5.905  13.092  1.00  0.00     0.007 C 
HETATM   11  C21 UNL     1     -10.570   7.009  12.874  1.00  0.00     0.013 C 
HETATM   12  C22 UNL     1     -10.730   7.916  14.108  1.00  0.00    -0.002 C 
HETATM   13  C23 UNL     1     -11.327   7.100  15.289  1.00  0.00     0.019 C 
HETATM   14  C24 UNL     1      -9.326   8.495  14.418  1.00  0.00     0.002 C 
HETATM   15  C25 UNL     1      -9.603   9.590  15.440  1.00  0.00     0.009 C 
HETATM   16  C26 UNL     1     -10.972  10.163  15.029  1.00  0.00     0.047 C 
HETATM   17  C27 UNL     1     -11.530   9.240  13.908  1.00  0.00     0.125 C 
HETATM   18  C30 UNL     1      -7.069   5.312  13.819  1.00  0.00    -0.016 C 
HETATM   19  C31 UNL     1      -7.563   4.269  14.845  1.00  0.00     0.020 C 
HETATM   20  C32 UNL     1      -6.781   4.604  12.464  1.00  0.00     0.020 C 
HETATM   21  C33 UNL     1      -5.541   3.719  12.477  1.00  0.00     0.060 C 
ENDROOT
BRANCH   1  22
HETATM   22  O4  UNL     1      -3.027   3.084  11.793  1.00  0.00    -0.271 OA
BRANCH  22  23
HETATM   23  C12 UNL     1      -1.921   3.276  10.918  1.00  0.00     0.303 C 
BRANCH  23  24
HETATM   24  C11 UNL     1      -0.934   4.221  11.583  1.00  0.00     0.244 C 
HETATM   25  N1  UNL     1      -0.829   5.454  10.975  1.00  0.00    -0.345 N 
HETATM   26  H12 UNL     1      -1.276   5.611  10.075  1.00  0.00     0.163 HD
HETATM   27  O3  UNL     1      -0.294   3.921  12.589  1.00  0.00    -0.271 OA
BRANCH  25  28
HETATM   28  C3  UNL     1       0.097   6.477  11.469  1.00  0.00     0.188 C 
BRANCH  28  29
HETATM   29  C2  UNL     1       1.504   6.068  11.037  1.00  0.00     0.281 C 
HETATM   30  O2  UNL     1       2.481   6.086  11.779  1.00  0.00    -0.263 OA
BRANCH  29  31
HETATM   31  O1  UNL     1       1.519   5.680   9.732  1.00  0.00    -0.325 OA
HETATM   32  C1  UNL     1       2.525   6.312   8.939  1.00  0.00     0.213 C 
ENDBRANCH  29  31
ENDBRANCH  28  29
BRANCH  28  33
HETATM   33  C4  UNL     1       0.025   6.590  12.999  1.00  0.00     0.074 C 
BRANCH  33  34
HETATM   34  C5  UNL     1      -1.102   7.472  13.479  1.00  0.00    -0.056 A 
HETATM   35  C6  UNL     1      -1.330   7.637  14.852  1.00  0.00     0.007 A 
HETATM   36  C7  UNL     1      -2.378   8.439  15.304  1.00  0.00     0.001 A 
HETATM   37  C8  UNL     1      -3.205   9.086  14.388  1.00  0.00     0.000 A 
HETATM   38  C9  UNL     1      -2.986   8.931  13.020  1.00  0.00     0.001 A 
HETATM   39  C10 UNL     1      -1.939   8.126  12.566  1.00  0.00     0.007 A 
ENDBRANCH  33  34
ENDBRANCH  28  33
ENDBRANCH  25  28
ENDBRANCH  23  24
ENDBRANCH  22  23
ENDBRANCH   1  22
BRANCH  17  40
HETATM   40  O5  UNL     1     -11.193   9.833  12.645  1.00  0.00    -0.381 OA
HETATM   41  H34 UNL     1     -11.539  10.745  12.646  1.00  0.00     0.211 HD
ENDBRANCH  17  40
BRANCH  17  42
HETATM   42  C28 UNL     1     -13.068   9.103  13.967  1.00  0.00     0.158 C 
HETATM   43  C29 UNL     1     -13.759   8.415  12.816  1.00  0.00     0.094 C 
HETATM   44  O6  UNL     1     -13.734   9.536  14.912  1.00  0.00    -0.295 OA
ENDBRANCH  17  42
TORSDOF 10
ENDMDL
MODEL 4
REMARK minimizedAffinity -8.61548615
REMARK CNNscore 0.236207813
REMARK CNNaffinity 7.08265352
REMARK  10 active torsions:
REMARK  status: ('A' for Active; 'I' for Inactive)
REMARK    1  A    between atoms: O1_2  and  C2_3 
REMARK    2  A    between atoms: C2_3  and  C3_5 
REMARK    3  A    between atoms: C3_5  and  C4_6 
REMARK    4  A    between atoms: C3_5  and  N1_13 
REMARK    5  A    between atoms: C4_6  and  C5_7 
REMARK       I    between atoms: N1_13  and  C11_14 
REMARK    6  A    between atoms: C11_14  and  C12_16 
REMARK    7  A    between atoms: C12_16  and  O4_17 
REMARK    8  A    between atoms: O4_17  and  N2_18 
REMARK    9  A    between atoms: C27_34  and  O5_35 
REMARK   10  A    between atoms: C27_34  and  C28_36 
ROOT
HETATM    1  N2  UNL     1     -10.611   7.026  13.825  1.00  0.00    -0.271 N 
ATOM      2  H2  UNL     1     -11.122   6.327  13.287  1.00  0.00     0.194 HD
HETATM    3  C13 UNL     1      -9.333   6.968  14.070  1.00  0.00     0.032 C 
HETATM    4  C14 UNL     1      -8.595   5.777  13.581  1.00  0.00     0.030 C 
HETATM    5  C15 UNL     1      -7.287   5.592  13.834  1.00  0.00    -0.069 C 
HETATM    6  C16 UNL     1      -6.638   4.286  13.447  1.00  0.00     0.035 C 
HETATM    7  C17 UNL     1      -5.335   4.493  12.689  1.00  0.00     0.010 C 
HETATM    8  C18 UNL     1      -4.365   5.366  13.494  1.00  0.00    -0.004 C 
HETATM    9  C19 UNL     1      -5.019   6.750  13.793  1.00  0.00     0.002 C 
HETATM   10  C20 UNL     1      -4.019   7.718  14.477  1.00  0.00     0.007 C 
HETATM   11  C21 UNL     1      -2.660   7.812  13.758  1.00  0.00     0.013 C 
HETATM   12  C22 UNL     1      -2.020   6.430  13.536  1.00  0.00    -0.002 C 
HETATM   13  C23 UNL     1      -1.643   5.795  14.904  1.00  0.00     0.019 C 
HETATM   14  C24 UNL     1      -3.048   5.588  12.739  1.00  0.00     0.002 C 
HETATM   15  C25 UNL     1      -2.254   4.364  12.302  1.00  0.00     0.009 C 
HETATM   16  C26 UNL     1      -0.830   4.896  12.057  1.00  0.00     0.047 C 
HETATM   17  C27 UNL     1      -0.805   6.367  12.560  1.00  0.00     0.125 C 
HETATM   18  C30 UNL     1      -6.403   6.627  14.540  1.00  0.00    -0.016 C 
HETATM   19  C31 UNL     1      -6.227   6.183  16.009  1.00  0.00     0.020 C 
HETATM   20  C32 UNL     1      -7.100   8.017  14.504  1.00  0.00     0.020 C 
HETATM   21  C33 UNL     1      -8.572   7.985  14.892  1.00  0.00     0.060 C 
ENDROOT
BRANCH   1  22
HETATM   22  O4  UNL     1     -11.201   8.167  14.391  1.00  0.00    -0.271 OA
BRANCH  22  23
HETATM   23  C12 UNL     1     -12.363   7.762  15.106  1.00  0.00     0.303 C 
BRANCH  23  24
HETATM   24  C11 UNL     1     -13.286   7.021  14.153  1.00  0.00     0.244 C 
HETATM   25  N1  UNL     1     -14.295   6.314  14.773  1.00  0.00    -0.345 N 
HETATM   26  H12 UNL     1     -14.284   6.204  15.783  1.00  0.00     0.163 HD
HETATM   27  O3  UNL     1     -13.158   7.061  12.931  1.00  0.00    -0.271 OA
BRANCH  25  28
HETATM   28  C3  UNL     1     -15.259   5.520  14.005  1.00  0.00     0.188 C 
BRANCH  28  29
HETATM   29  C2  UNL     1     -16.253   6.493  13.374  1.00  0.00     0.281 C 
HETATM   30  O2  UNL     1     -16.486   6.550  12.171  1.00  0.00    -0.263 OA
BRANCH  29  31
HETATM   31  O1  UNL     1     -16.839   7.274  14.323  1.00  0.00    -0.325 OA
HETATM   32  C1  UNL     1     -18.223   7.542  14.095  1.00  0.00     0.213 C 
ENDBRANCH  29  31
ENDBRANCH  28  29
BRANCH  28  33
HETATM   33  C4  UNL     1     -15.996   4.525  14.914  1.00  0.00     0.074 C 
BRANCH  33  34
HETATM   34  C5  UNL     1     -16.182   3.166  14.283  1.00  0.00    -0.056 A 
HETATM   35  C6  UNL     1     -15.326   2.110  14.622  1.00  0.00     0.007 A 
HETATM   36  C7  UNL     1     -15.482   0.855  14.032  1.00  0.00     0.001 A 
HETATM   37  C8  UNL     1     -16.499   0.645  13.102  1.00  0.00     0.000 A 
HETATM   38  C9  UNL     1     -17.358   1.687  12.761  1.00  0.00     0.001 A 
HETATM   39  C10 UNL     1     -17.201   2.945  13.347  1.00  0.00     0.007 A 
ENDBRANCH  33  34
ENDBRANCH  28  33
ENDBRANCH  25  28
ENDBRANCH  23  24
ENDBRANCH  22  23
ENDBRANCH   1  22
BRANCH  17  40
HETATM   40  O5  UNL     1      -1.039   7.219  11.428  1.00  0.00    -0.381 OA
HETATM   41  H34 UNL     1      -0.373   6.998  10.750  1.00  0.00     0.211 HD
ENDBRANCH  17  40
BRANCH  17  42
HETATM   42  C28 UNL     1       0.560   6.760  13.170  1.00  0.00     0.158 C 
HETATM   43  C29 UNL     1       0.837   8.226  13.390  1.00  0.00     0.094 C 
HETATM   44  O6  UNL     1       1.413   5.922  13.472  1.00  0.00    -0.295 OA
ENDBRANCH  17  42
TORSDOF 10
ENDMDL
MODEL 5
REMARK minimizedAffinity -8.07062435
REMARK CNNscore 0.201428354
REMARK CNNaffinity 5.80546236
REMARK  10 active torsions:
REMARK  status: ('A' for Active; 'I' for Inactive)
REMARK    1  A    between atoms: O1_2  and  C2_3 
REMARK    2  A    between atoms: C2_3  and  C3_5 
REMARK    3  A    between atoms: C3_5  and  C4_6 
REMARK    4  A    between atoms: C3_5  and  N1_13 
REMARK    5  A    between atoms: C4_6  and  C5_7 
REMARK       I    between atoms: N1_13  and  C11_14 
REMARK    6  A    between atoms: C11_14  and  C12_16 
REMARK    7  A    between atoms: C12_16  and  O4_17 
REMARK    8  A    between atoms: O4_17  and  N2_18 
REMARK    9  A    between atoms: C27_34  and  O5_35 
REMARK   10  A    between atoms: C27_34  and  C28_36 
ROOT
HETATM    1  N2  UNL     1       0.934  12.893  18.256  1.00  0.00    -0.271 N 
ATOM      2  H2  UNL     1      -0.027  13.150  18.481  1.00  0.00     0.194 HD
HETATM    3  C13 UNL     1       1.260  11.956  17.411  1.00  0.00     0.032 C 
HETATM    4  C14 UNL     1       0.157  11.182  16.787  1.00  0.00     0.030 C 
HETATM    5  C15 UNL     1       0.389  10.156  15.950  1.00  0.00    -0.069 C 
HETATM    6  C16 UNL     1      -0.770   9.312  15.479  1.00  0.00     0.035 C 
HETATM    7  C17 UNL     1      -0.758   9.108  13.971  1.00  0.00     0.010 C 
HETATM    8  C18 UNL     1       0.575   8.509  13.508  1.00  0.00    -0.004 C 
HETATM    9  C19 UNL     1       1.750   9.451  13.916  1.00  0.00     0.002 C 
HETATM   10  C20 UNL     1       3.103   8.957  13.340  1.00  0.00     0.007 C 
HETATM   11  C21 UNL     1       3.054   8.637  11.834  1.00  0.00     0.013 C 
HETATM   12  C22 UNL     1       1.918   7.658  11.482  1.00  0.00    -0.002 C 
HETATM   13  C23 UNL     1       2.200   6.270  12.121  1.00  0.00     0.019 C 
HETATM   14  C24 UNL     1       0.603   8.304  11.988  1.00  0.00     0.002 C 
HETATM   15  C25 UNL     1      -0.487   7.449  11.357  1.00  0.00     0.009 C 
HETATM   16  C26 UNL     1       0.089   7.035   9.991  1.00  0.00     0.047 C 
HETATM   17  C27 UNL     1       1.574   7.497   9.969  1.00  0.00     0.125 C 
HETATM   18  C30 UNL     1       1.786   9.753  15.464  1.00  0.00    -0.016 C 
HETATM   19  C31 UNL     1       2.241   8.523  16.280  1.00  0.00     0.020 C 
HETATM   20  C32 UNL     1       2.779  10.926  15.707  1.00  0.00     0.020 C 
HETATM   21  C33 UNL     1       2.681  11.547  17.094  1.00  0.00     0.060 C 
ENDROOT
BRANCH   1  22
HETATM   22  O4  UNL     1       2.064  13.505  18.820  1.00  0.00    -0.271 OA
BRANCH  22  23
HETATM   23  C12 UNL     1       1.742  13.902  20.148  1.00  0.00     0.303 C 
BRANCH  23  24
HETATM   24  C11 UNL     1       2.463  12.981  21.119  1.00  0.00     0.244 C 
HETATM   25  N1  UNL     1       3.467  12.228  20.549  1.00  0.00    -0.345 N 
HETATM   26  H12 UNL     1       3.571  12.212  19.538  1.00  0.00     0.163 HD
HETATM   27  O3  UNL     1       2.188  12.924  22.316  1.00  0.00    -0.271 OA
BRANCH  25  28
HETATM   28  C3  UNL     1       4.246  11.267  21.336  1.00  0.00     0.188 C 
BRANCH  28  29
HETATM   29  C2  UNL     1       3.450   9.964  21.385  1.00  0.00     0.281 C 
HETATM   30  O2  UNL     1       2.788   9.530  20.446  1.00  0.00    -0.263 OA
BRANCH  29  31
HETATM   31  O1  UNL     1       3.580   9.359  22.597  1.00  0.00    -0.325 OA
HETATM   32  C1  UNL     1       2.549   8.419  22.902  1.00  0.00     0.213 C 
ENDBRANCH  29  31
ENDBRANCH  28  29
BRANCH  28  33
HETATM   33  C4  UNL     1       4.490  11.792  22.758  1.00  0.00     0.074 C 
BRANCH  33  34
HETATM   34  C5  UNL     1       5.831  12.467  22.922  1.00  0.00    -0.056 A 
HETATM   35  C6  UNL     1       6.997  11.698  23.031  1.00  0.00     0.007 A 
HETATM   36  C7  UNL     1       8.238  12.313  23.197  1.00  0.00     0.001 A 
HETATM   37  C8  UNL     1       8.324  13.703  23.253  1.00  0.00     0.000 A 
HETATM   38  C9  UNL     1       7.171  14.478  23.142  1.00  0.00     0.001 A 
HETATM   39  C10 UNL     1       5.928  13.864  22.979  1.00  0.00     0.007 A 
ENDBRANCH  33  34
ENDBRANCH  28  33
ENDBRANCH  25  28
ENDBRANCH  23  24
ENDBRANCH  22  23
ENDBRANCH   1  22
BRANCH  17  40
HETATM   40  O5  UNL     1       1.626   8.773   9.314  1.00  0.00    -0.381 OA
HETATM   41  H34 UNL     1       1.206   8.671   8.439  1.00  0.00     0.211 HD
ENDBRANCH  17  40
BRANCH  17  42
HETATM   42  C28 UNL     1       2.483   6.527   9.181  1.00  0.00     0.158 C 
HETATM   43  C29 UNL     1       2.390   6.542   7.675  1.00  0.00     0.094 C 
HETATM   44  O6  UNL     1       3.265   5.753   9.740  1.00  0.00    -0.295 OA
ENDBRANCH  17  42
TORSDOF 10
ENDMDL
MODEL 6
REMARK minimizedAffinity -7.30243349
REMARK CNNscore 0.199866787
REMARK CNNaffinity 6.16584539
REMARK  10 active torsions:
REMARK  status: ('A' for Active; 'I' for Inactive)
REMARK    1  A    between atoms: O1_2  and  C2_3 
REMARK    2  A    between atoms: C2_3  and  C3_5 
REMARK    3  A    between atoms: C3_5  and  C4_6 
REMARK    4  A    between atoms: C3_5  and  N1_13 
REMARK    5  A    between atoms: C4_6  and  C5_7 
REMARK       I    between atoms: N1_13  and  C11_14 
REMARK    6  A    between atoms: C11_14  and  C12_16 
REMARK    7  A    between atoms: C12_16  and  O4_17 
REMARK    8  A    between atoms: O4_17  and  N2_18 
REMARK    9  A    between atoms: C27_34  and  O5_35 
REMARK   10  A    between atoms: C27_34  and  C28_36 
ROOT
HETATM    1  N2  UNL     1      -2.745  10.754  15.830  1.00  0.00    -0.271 N 
ATOM      2  H2  UNL     1      -3.131  10.686  14.889  1.00  0.00     0.194 HD
HETATM    3  C13 UNL     1      -3.255  11.491  16.776  1.00  0.00     0.032 C 
HETATM    4  C14 UNL     1      -4.435  12.323  16.435  1.00  0.00     0.030 C 
HETATM    5  C15 UNL     1      -4.998  13.162  17.322  1.00  0.00    -0.069 C 
HETATM    6  C16 UNL     1      -6.092  14.095  16.864  1.00  0.00     0.035 C 
HETATM    7  C17 UNL     1      -7.300  14.064  17.789  1.00  0.00     0.010 C 
HETATM    8  C18 UNL     1      -6.892  14.372  19.235  1.00  0.00    -0.004 C 
HETATM    9  C19 UNL     1      -5.837  13.332  19.721  1.00  0.00     0.002 C 
HETATM   10  C20 UNL     1      -5.505  13.517  21.226  1.00  0.00     0.007 C 
HETATM   11  C21 UNL     1      -6.750  13.610  22.126  1.00  0.00     0.013 C 
HETATM   12  C22 UNL     1      -7.739  14.688  21.647  1.00  0.00    -0.002 C 
HETATM   13  C23 UNL     1      -7.099  16.096  21.797  1.00  0.00     0.019 C 
HETATM   14  C24 UNL     1      -8.100  14.338  20.180  1.00  0.00     0.002 C 
HETATM   15  C25 UNL     1      -9.282  15.248  19.871  1.00  0.00     0.009 C 
HETATM   16  C26 UNL     1     -10.045  15.356  21.204  1.00  0.00     0.047 C 
HETATM   17  C27 UNL     1      -9.162  14.671  22.286  1.00  0.00     0.125 C 
HETATM   18  C30 UNL     1      -4.565  13.265  18.790  1.00  0.00    -0.016 C 
HETATM   19  C31 UNL     1      -3.675  14.518  18.939  1.00  0.00     0.020 C 
HETATM   20  C32 UNL     1      -3.744  12.002  19.179  1.00  0.00     0.020 C 
HETATM   21  C33 UNL     1      -2.672  11.621  18.166  1.00  0.00     0.060 C 
ENDROOT
BRANCH   1  22
HETATM   22  O4  UNL     1      -1.600  10.066  16.262  1.00  0.00    -0.271 OA
BRANCH  22  23
HETATM   23  C12 UNL     1      -1.966   8.720  16.542  1.00  0.00     0.303 C 
BRANCH  23  24
HETATM   24  C11 UNL     1      -2.556   8.105  15.283  1.00  0.00     0.244 C 
HETATM   25  N1  UNL     1      -3.621   7.260  15.509  1.00  0.00    -0.345 N 
HETATM   26  H12 UNL     1      -3.853   6.985  16.460  1.00  0.00     0.163 HD
HETATM   27  O3  UNL     1      -2.132   8.352  14.156  1.00  0.00    -0.271 OA
BRANCH  25  28
HETATM   28  C3  UNL     1      -4.292   6.560  14.409  1.00  0.00     0.188 C 
BRANCH  28  29
HETATM   29  C2  UNL     1      -5.796   6.637  14.668  1.00  0.00     0.281 C 
HETATM   30  O2  UNL     1      -6.601   7.136  13.887  1.00  0.00    -0.263 OA
BRANCH  29  31
HETATM   31  O1  UNL     1      -6.112   6.079  15.869  1.00  0.00    -0.325 OA
HETATM   32  C1  UNL     1      -7.427   5.526  15.934  1.00  0.00     0.213 C 
ENDBRANCH  29  31
ENDBRANCH  28  29
BRANCH  28  33
HETATM   33  C4  UNL     1      -3.842   5.094  14.337  1.00  0.00     0.074 C 
BRANCH  33  34
HETATM   34  C5  UNL     1      -4.208   4.421  13.036  1.00  0.00    -0.056 A 
HETATM   35  C6  UNL     1      -3.273   4.348  11.995  1.00  0.00     0.007 A 
HETATM   36  C7  UNL     1      -3.608   3.741  10.784  1.00  0.00     0.001 A 
HETATM   37  C8  UNL     1      -4.878   3.197  10.606  1.00  0.00     0.000 A 
HETATM   38  C9  UNL     1      -5.815   3.261  11.636  1.00  0.00     0.001 A 
HETATM   39  C10 UNL     1      -5.483   3.871  12.847  1.00  0.00     0.007 A 
ENDBRANCH  33  34
ENDBRANCH  28  33
ENDBRANCH  25  28
ENDBRANCH  23  24
ENDBRANCH  22  23
ENDBRANCH   1  22
BRANCH  17  40
HETATM   40  O5  UNL     1      -9.620  13.318  22.431  1.00  0.00    -0.381 OA
HETATM   41  H34 UNL     1     -10.574  13.350  22.629  1.00  0.00     0.211 HD
ENDBRANCH  17  40
BRANCH  17  42
HETATM   42  C28 UNL     1      -9.279  15.358  23.665  1.00  0.00     0.158 C 
HETATM   43  C29 UNL     1      -8.631  14.680  24.847  1.00  0.00     0.094 C 
HETATM   44  O6  UNL     1      -9.882  16.423  23.823  1.00  0.00    -0.295 OA
ENDBRANCH  17  42
TORSDOF 10
ENDMDL
MODEL 7
REMARK minimizedAffinity -8.17148018
REMARK CNNscore 0.199648917
REMARK CNNaffinity 6.55614424
REMARK  10 active torsions:
REMARK  status: ('A' for Active; 'I' for Inactive)
REMARK    1  A    between atoms: O1_2  and  C2_3 
REMARK    2  A    between atoms: C2_3  and  C3_5 
REMARK    3  A    between atoms: C3_5  and  C4_6 
REMARK    4  A    between atoms: C3_5  and  N1_13 
REMARK    5  A    between atoms: C4_6  and  C5_7 
REMARK       I    between atoms: N1_13  and  C11_14 
REMARK    6  A    between atoms: C11_14  and  C12_16 
REMARK    7  A    between atoms: C12_16  and  O4_17 
REMARK    8  A    between atoms: O4_17  and  N2_18 
REMARK    9  A    between atoms: C27_34  and  O5_35 
REMARK   10  A    between atoms: C27_34  and  C28_36 
ROOT
HETATM    1  N2  UNL     1      -6.749   5.561  14.809  1.00  0.00    -0.271 N 
ATOM      2  H2  UNL     1      -7.219   5.777  15.688  1.00  0.00     0.194 HD
HETATM    3  C13 UNL     1      -5.584   6.033  14.468  1.00  0.00     0.032 C 
HETATM    4  C14 UNL     1      -4.934   6.990  15.398  1.00  0.00     0.030 C 
HETATM    5  C15 UNL     1      -3.761   7.581  15.112  1.00  0.00    -0.069 C 
HETATM    6  C16 UNL     1      -3.237   8.662  16.024  1.00  0.00     0.035 C 
HETATM    7  C17 UNL     1      -1.778   8.443  16.399  1.00  0.00     0.010 C 
HETATM    8  C18 UNL     1      -0.903   8.315  15.147  1.00  0.00    -0.004 C 
HETATM    9  C19 UNL     1      -1.400   7.125  14.270  1.00  0.00     0.002 C 
HETATM   10  C20 UNL     1      -0.454   6.868  13.068  1.00  0.00     0.007 C 
HETATM   11  C21 UNL     1       1.032   6.775  13.460  1.00  0.00     0.013 C 
HETATM   12  C22 UNL     1       1.499   7.997  14.272  1.00  0.00    -0.002 C 
HETATM   13  C23 UNL     1       1.455   9.271  13.383  1.00  0.00     0.019 C 
HETATM   14  C24 UNL     1       0.570   8.087  15.510  1.00  0.00     0.002 C 
HETATM   15  C25 UNL     1       1.257   9.110  16.405  1.00  0.00     0.009 C 
HETATM   16  C26 UNL     1       2.761   8.886  16.163  1.00  0.00     0.047 C 
HETATM   17  C27 UNL     1       2.883   7.881  14.982  1.00  0.00     0.125 C 
HETATM   18  C30 UNL     1      -2.922   7.249  13.872  1.00  0.00    -0.016 C 
HETATM   19  C31 UNL     1      -3.154   8.361  12.826  1.00  0.00     0.020 C 
HETATM   20  C32 UNL     1      -3.383   5.885  13.282  1.00  0.00     0.020 C 
HETATM   21  C33 UNL     1      -4.893   5.741  13.155  1.00  0.00     0.060 C 
ENDROOT
BRANCH   1  22
HETATM   22  O4  UNL     1      -7.282   4.719  13.820  1.00  0.00    -0.271 OA
BRANCH  22  23
HETATM   23  C12 UNL     1      -8.071   5.508  12.937  1.00  0.00     0.303 C 
BRANCH  23  24
HETATM   24  C11 UNL     1      -8.944   6.436  13.765  1.00  0.00     0.244 C 
HETATM   25  N1  UNL     1     -10.297   6.295  13.540  1.00  0.00    -0.345 N 
HETATM   26  H12 UNL     1     -10.621   5.719  12.768  1.00  0.00     0.163 HD
HETATM   27  O3  UNL     1      -8.487   7.235  14.580  1.00  0.00    -0.271 OA
BRANCH  25  28
HETATM   28  C3  UNL     1     -11.282   7.131  14.234  1.00  0.00     0.188 C 
BRANCH  28  29
HETATM   29  C2  UNL     1     -12.666   6.570  13.911  1.00  0.00     0.281 C 
HETATM   30  O2  UNL     1     -13.200   5.661  14.540  1.00  0.00    -0.263 OA
BRANCH  29  31
HETATM   31  O1  UNL     1     -13.216   7.214  12.846  1.00  0.00    -0.325 OA
HETATM   32  C1  UNL     1     -14.629   7.049  12.721  1.00  0.00     0.213 C 
ENDBRANCH  29  31
ENDBRANCH  28  29
BRANCH  28  33
HETATM   33  C4  UNL     1     -11.182   8.592  13.774  1.00  0.00     0.074 C 
BRANCH  33  34
HETATM   34  C5  UNL     1     -11.041   9.569  14.916  1.00  0.00    -0.056 A 
HETATM   35  C6  UNL     1     -11.108  10.948  14.674  1.00  0.00     0.007 A 
HETATM   36  C7  UNL     1     -10.964  11.858  15.722  1.00  0.00     0.001 A 
HETATM   37  C8  UNL     1     -10.757  11.397  17.021  1.00  0.00     0.000 A 
HETATM   38  C9  UNL     1     -10.692  10.028  17.273  1.00  0.00     0.001 A 
HETATM   39  C10 UNL     1     -10.833   9.116  16.225  1.00  0.00     0.007 A 
ENDBRANCH  33  34
ENDBRANCH  28  33
ENDBRANCH  25  28
ENDBRANCH  23  24
ENDBRANCH  22  23
ENDBRANCH   1  22
BRANCH  17  40
HETATM   40  O5  UNL     1       3.042   6.568  15.540  1.00  0.00    -0.381 OA
HETATM   41  H34 UNL     1       3.806   6.596  16.146  1.00  0.00     0.211 HD
ENDBRANCH  17  40
BRANCH  17  42
HETATM   42  C28 UNL     1       4.113   8.164  14.090  1.00  0.00     0.158 C 
HETATM   43  C29 UNL     1       4.264   7.360  12.823  1.00  0.00     0.094 C 
HETATM   44  O6  UNL     1       4.960   9.012  14.384  1.00  0.00    -0.295 OA
ENDBRANCH  17  42
TORSDOF 10
ENDMDL
MODEL 8
REMARK minimizedAffinity -8.43404961
REMARK CNNscore 0.190911219
REMARK CNNaffinity 5.92401123
REMARK  10 active torsions:
REMARK  status: ('A' for Active; 'I' for Inactive)
REMARK    1  A    between atoms: O1_2  and  C2_3 
REMARK    2  A    between atoms: C2_3  and  C3_5 
REMARK    3  A    between atoms: C3_5  and  C4_6 
REMARK    4  A    between atoms: C3_5  and  N1_13 
REMARK    5  A    between atoms: C4_6  and  C5_7 
REMARK       I    between atoms: N1_13  and  C11_14 
REMARK    6  A    between atoms: C11_14  and  C12_16 
REMARK    7  A    between atoms: C12_16  and  O4_17 
REMARK    8  A    between atoms: O4_17  and  N2_18 
REMARK    9  A    between atoms: C27_34  and  O5_35 
REMARK   10  A    between atoms: C27_34  and  C28_36 
ROOT
HETATM    1  N2  UNL     1      -8.521  -7.442  -4.672  1.00  0.00    -0.271 N 
ATOM      2  H2  UNL     1      -7.881  -7.463  -5.466  1.00  0.00     0.194 HD
HETATM    3  C13 UNL     1      -8.307  -8.061  -3.546  1.00  0.00     0.032 C 
HETATM    4  C14 UNL     1      -7.083  -8.894  -3.444  1.00  0.00     0.030 C 
HETATM    5  C15 UNL     1      -6.802  -9.620  -2.348  1.00  0.00    -0.069 C 
HETATM    6  C16 UNL     1      -5.628 -10.568  -2.372  1.00  0.00     0.035 C 
HETATM    7  C17 UNL     1      -4.735 -10.409  -1.149  1.00  0.00     0.010 C 
HETATM    8  C18 UNL     1      -5.541 -10.573   0.144  1.00  0.00    -0.004 C 
HETATM    9  C19 UNL     1      -6.686  -9.516   0.195  1.00  0.00     0.002 C 
HETATM   10  C20 UNL     1      -7.436  -9.550   1.553  1.00  0.00     0.007 C 
HETATM   11  C21 UNL     1      -6.501  -9.515   2.775  1.00  0.00     0.013 C 
HETATM   12  C22 UNL     1      -5.422 -10.612   2.717  1.00  0.00    -0.002 C 
HETATM   13  C23 UNL     1      -6.086 -12.013   2.830  1.00  0.00     0.019 C 
HETATM   14  C24 UNL     1      -4.655 -10.409   1.385  1.00  0.00     0.002 C 
HETATM   15  C25 UNL     1      -3.439 -11.316   1.526  1.00  0.00     0.009 C 
HETATM   16  C26 UNL     1      -3.090 -11.263   3.025  1.00  0.00     0.047 C 
HETATM   17  C27 UNL     1      -4.242 -10.491   3.729  1.00  0.00     0.125 C 
HETATM   18  C30 UNL     1      -7.637  -9.580  -1.063  1.00  0.00    -0.016 C 
HETATM   19  C31 UNL     1      -8.540 -10.833  -1.039  1.00  0.00     0.020 C 
HETATM   20  C32 UNL     1      -8.529  -8.304  -1.063  1.00  0.00     0.020 C 
HETATM   21  C33 UNL     1      -9.264  -8.060  -2.374  1.00  0.00     0.060 C 
ENDROOT
BRANCH   1  22
HETATM   22  O4  UNL     1      -9.737  -6.742  -4.661  1.00  0.00    -0.271 OA
BRANCH  22  23
HETATM   23  C12 UNL     1      -9.568  -5.538  -5.401  1.00  0.00     0.303 C 
BRANCH  23  24
HETATM   24  C11 UNL     1     -10.704  -4.590  -5.055  1.00  0.00     0.244 C 
HETATM   25  N1  UNL     1     -10.383  -3.254  -5.162  1.00  0.00    -0.345 N 
HETATM   26  H12 UNL     1      -9.416  -2.980  -5.311  1.00  0.00     0.163 HD
HETATM   27  O3  UNL     1     -11.822  -4.980  -4.724  1.00  0.00    -0.271 OA
BRANCH  25  28
HETATM   28  C3  UNL     1     -11.353  -2.203  -4.839  1.00  0.00     0.188 C 
BRANCH  28  29
HETATM   29  C2  UNL     1     -12.324  -2.101  -6.014  1.00  0.00     0.281 C 
HETATM   30  O2  UNL     1     -11.987  -1.811  -7.158  1.00  0.00    -0.263 OA
BRANCH  29  31
HETATM   31  O1  UNL     1     -13.597  -2.378  -5.618  1.00  0.00    -0.325 OA
HETATM   32  C1  UNL     1     -14.608  -1.698  -6.364  1.00  0.00     0.213 C 
ENDBRANCH  29  31
ENDBRANCH  28  29
BRANCH  28  33
HETATM   33  C4  UNL     1     -10.649  -0.857  -4.615  1.00  0.00     0.074 C 
BRANCH  33  34
HETATM   34  C5  UNL     1      -9.330  -0.746  -5.341  1.00  0.00    -0.056 A 
HETATM   35  C6  UNL     1      -8.235  -1.521  -4.933  1.00  0.00     0.007 A 
HETATM   36  C7  UNL     1      -7.009  -1.413  -5.590  1.00  0.00     0.001 A 
HETATM   37  C8  UNL     1      -6.868  -0.535  -6.663  1.00  0.00     0.000 A 
HETATM   38  C9  UNL     1      -7.951   0.237  -7.079  1.00  0.00     0.001 A 
HETATM   39  C10 UNL     1      -9.178   0.134  -6.421  1.00  0.00     0.007 A 
ENDBRANCH  33  34
ENDBRANCH  28  33
ENDBRANCH  25  28
ENDBRANCH  23  24
ENDBRANCH  22  23
ENDBRANCH   1  22
BRANCH  17  40
HETATM   40  O5  UNL     1      -3.837  -9.120   3.852  1.00  0.00    -0.381 OA
HETATM   41  H34 UNL     1      -2.979  -9.106   4.317  1.00  0.00     0.211 HD
ENDBRANCH  17  40
BRANCH  17  42
HETATM   42  C28 UNL     1      -4.527 -11.026   5.151  1.00  0.00     0.158 C 
HETATM   43  C29 UNL     1      -3.766 -12.244   5.611  1.00  0.00     0.094 C 
HETATM   44  O6  UNL     1      -5.349 -10.495   5.903  1.00  0.00    -0.295 OA
ENDBRANCH  17  42
TORSDOF 10
ENDMDL
MODEL 9
REMARK minimizedAffinity -9.87171936
REMARK CNNscore 0.187451363
REMARK CNNaffinity 6.90597153
REMARK  10 active torsions:
REMARK  status: ('A' for Active; 'I' for Inactive)
REMARK    1  A    between atoms: O1_2  and  C2_3 
REMARK    2  A    between atoms: C2_3  and  C3_5 
REMARK    3  A    between atoms: C3_5  and  C4_6 
REMARK    4  A    between atoms: C3_5  and  N1_13 
REMARK    5  A    between atoms: C4_6  and  C5_7 
REMARK       I    between atoms: N1_13  and  C11_14 
REMARK    6  A    between atoms: C11_14  and  C12_16 
REMARK    7  A    between atoms: C12_16  and  O4_17 
REMARK    8  A    between atoms: O4_17  and  N2_18 
REMARK    9  A    between atoms: C27_34  and  O5_35 
REMARK   10  A    between atoms: C27_34  and  C28_36 
ROOT
HETATM    1  N2  UNL     1       3.040   6.962  13.036  1.00  0.00    -0.271 N 
ATOM      2  H2  UNL     1       3.408   6.096  12.643  1.00  0.00     0.194 HD
HETATM    3  C13 UNL     1       1.770   7.238  13.131  1.00  0.00     0.032 C 
HETATM    4  C14 UNL     1       0.811   6.251  12.576  1.00  0.00     0.030 C 
HETATM    5  C15 UNL     1      -0.516   6.469  12.570  1.00  0.00    -0.069 C 
HETATM    6  C16 UNL     1      -1.419   5.500  11.847  1.00  0.00     0.035 C 
HETATM    7  C17 UNL     1      -2.605   5.073  12.699  1.00  0.00     0.010 C 
HETATM    8  C18 UNL     1      -3.395   6.292  13.191  1.00  0.00    -0.004 C 
HETATM    9  C19 UNL     1      -2.465   7.227  14.023  1.00  0.00     0.002 C 
HETATM   10  C20 UNL     1      -3.258   8.397  14.663  1.00  0.00     0.007 C 
HETATM   11  C21 UNL     1      -4.524   7.948  15.415  1.00  0.00     0.013 C 
HETATM   12  C22 UNL     1      -5.444   7.077  14.540  1.00  0.00    -0.002 C 
HETATM   13  C23 UNL     1      -6.019   7.924  13.371  1.00  0.00     0.019 C 
HETATM   14  C24 UNL     1      -4.590   5.876  14.058  1.00  0.00     0.002 C 
HETATM   15  C25 UNL     1      -5.615   4.920  13.460  1.00  0.00     0.009 C 
HETATM   16  C26 UNL     1      -6.871   5.107  14.330  1.00  0.00     0.047 C 
HETATM   17  C27 UNL     1      -6.593   6.315  15.271  1.00  0.00     0.125 C 
HETATM   18  C30 UNL     1      -1.182   7.684  13.227  1.00  0.00    -0.016 C 
HETATM   19  C31 UNL     1      -1.524   8.701  12.117  1.00  0.00     0.020 C 
HETATM   20  C32 UNL     1      -0.192   8.337  14.235  1.00  0.00     0.020 C 
HETATM   21  C33 UNL     1       1.216   8.531  13.686  1.00  0.00     0.060 C 
ENDROOT
BRANCH   1  22
HETATM   22  O4  UNL     1       3.840   7.999  13.540  1.00  0.00    -0.271 OA
BRANCH  22  23
HETATM   23  C12 UNL     1       5.060   8.020  12.807  1.00  0.00     0.303 C 
BRANCH  23  24
HETATM   24  C11 UNL     1       4.850   7.284  11.494  1.00  0.00     0.244 C 
HETATM   25  N1  UNL     1       3.964   7.898  10.634  1.00  0.00    -0.345 N 
HETATM   26  H12 UNL     1       3.410   8.686  10.960  1.00  0.00     0.163 HD
HETATM   27  O3  UNL     1       5.433   6.240  11.212  1.00  0.00    -0.271 OA
BRANCH  25  28
HETATM   28  C3  UNL     1       3.624   7.310   9.334  1.00  0.00     0.188 C 
BRANCH  28  29
HETATM   29  C2  UNL     1       2.653   8.264   8.641  1.00  0.00     0.281 C 
HETATM   30  O2  UNL     1       2.877   8.807   7.564  1.00  0.00    -0.263 OA
BRANCH  29  31
HETATM   31  O1  UNL     1       1.517   8.421   9.376  1.00  0.00    -0.325 OA
HETATM   32  C1  UNL     1       0.312   8.396   8.612  1.00  0.00     0.213 C 
ENDBRANCH  29  31
ENDBRANCH  28  29
BRANCH  28  33
HETATM   33  C4  UNL     1       2.976   5.929   9.510  1.00  0.00     0.074 C 
BRANCH  33  34
HETATM   34  C5  UNL     1       3.478   4.904   8.522  1.00  0.00    -0.056 A 
HETATM   35  C6  UNL     1       4.323   3.871   8.949  1.00  0.00     0.007 A 
HETATM   36  C7  UNL     1       4.804   2.929   8.040  1.00  0.00     0.001 A 
HETATM   37  C8  UNL     1       4.440   3.008   6.697  1.00  0.00     0.000 A 
HETATM   38  C9  UNL     1       3.598   4.029   6.262  1.00  0.00     0.001 A 
HETATM   39  C10 UNL     1       3.119   4.976   7.170  1.00  0.00     0.007 A 
ENDBRANCH  33  34
ENDBRANCH  28  33
ENDBRANCH  25  28
ENDBRANCH  23  24
ENDBRANCH  22  23
ENDBRANCH   1  22
BRANCH  17  40
HETATM   40  O5  UNL     1      -6.120   5.794  16.522  1.00  0.00    -0.381 OA
HETATM   41  H34 UNL     1      -6.784   5.156  16.845  1.00  0.00     0.211 HD
ENDBRANCH  17  40
BRANCH  17  42
HETATM   42  C28 UNL     1      -7.864   7.145  15.557  1.00  0.00     0.158 C 
HETATM   43  C29 UNL     1      -7.843   8.611  15.201  1.00  0.00     0.094 C 
HETATM   44  O6  UNL     1      -8.875   6.651  16.063  1.00  0.00    -0.295 OA
ENDBRANCH  17  42
TORSDOF 10
ENDMDL
