MODEL 1
REMARK minimizedAffinity -7.5544157
REMARK CNNscore 0.845736444
REMARK CNNaffinity 6.4661355
REMARK  9 active torsions:
REMARK  status: ('A' for Active; 'I' for Inactive)
REMARK    1  A    between atoms: C2_2  and  C4_4 
REMARK    2  A    between atoms: C4_4  and  O1_6 
REMARK    3  A    between atoms: C4_4  and  C6_7 
REMARK    4  A    between atoms: C7_9  and  C8_10 
REMARK    5  A    between atoms: C8_10  and  O3_12 
REMARK    6  A    between atoms: C8_10  and  C10_13 
REMARK    7  A    between atoms: C13_16  and  O4_17 
REMARK    8  A    between atoms: C19_24  and  O6_25 
REMARK    9  A    between atoms: C22_28  and  C23_29 
ROOT
HETATM    1  C10 UNL     1     -12.800  45.514 -26.292  1.00  0.00     0.034 C 
HETATM    2  C11 UNL     1     -13.157  46.945 -25.786  1.00  0.00     0.012 C 
HETATM    3  C12 UNL     1     -14.673  46.975 -25.520  1.00  0.00     0.044 C 
HETATM    4  C13 UNL     1     -15.091  45.505 -25.580  1.00  0.00     0.089 C 
HETATM    5  C14 UNL     1     -16.544  45.102 -25.713  1.00  0.00    -0.037 C 
HETATM    6  C15 UNL     1     -17.538  45.995 -25.598  1.00  0.00     0.057 C 
HETATM    7  C16 UNL     1     -18.935  45.554 -25.441  1.00  0.00     0.154 C 
HETATM    8  O5  UNL     1     -19.828  46.398 -25.405  1.00  0.00    -0.293 OA
HETATM    9  C17 UNL     1     -19.212  44.081 -25.222  1.00  0.00     0.071 C 
HETATM   10  C18 UNL     1     -19.117  43.746 -23.727  1.00  0.00     0.045 C 
HETATM   11  C19 UNL     1     -19.551  42.304 -23.451  1.00  0.00     0.119 C 
HETATM   12  C20 UNL     1     -19.659  41.448 -24.712  1.00  0.00     0.032 C 
HETATM   13  C21 UNL     1     -18.475  41.672 -25.647  1.00  0.00     0.014 C 
HETATM   14  C22 UNL     1     -18.308  43.164 -26.121  1.00  0.00    -0.018 C 
HETATM   15  C29 UNL     1     -16.777  43.590 -25.849  1.00  0.00     0.027 C 
HETATM   16  C30 UNL     1     -15.764  42.943 -26.829  1.00  0.00     0.011 C 
HETATM   17  C31 UNL     1     -14.305  43.401 -26.664  1.00  0.00     0.014 C 
HETATM   18  C32 UNL     1     -14.192  44.940 -26.718  1.00  0.00    -0.002 C 
HETATM   19  C33 UNL     1     -14.622  45.458 -28.114  1.00  0.00     0.019 C 
ENDROOT
BRANCH   1  20
HETATM   20  C8  UNL     1     -11.592  45.513 -27.274  1.00  0.00     0.087 C 
HETATM   21  C9  UNL     1     -10.923  44.139 -27.391  1.00  0.00     0.049 C 
BRANCH  20  22
HETATM   22  C7  UNL     1     -10.546  46.502 -26.784  1.00  0.00     0.188 A 
HETATM   23  C6  UNL     1      -9.056  46.246 -26.889  1.00  0.00     0.188 A 
HETATM   24  O2  UNL     1      -9.767  46.046 -25.661  1.00  0.00    -0.369 OA
BRANCH  23  25
HETATM   25  C4  UNL     1      -8.035  47.368 -26.916  1.00  0.00     0.086 C 
HETATM   26  C5  UNL     1      -7.170  47.440 -25.648  1.00  0.00     0.049 C 
BRANCH  25  27
HETATM   27  C2  UNL     1      -7.182  47.270 -28.225  1.00  0.00     0.014 C 
HETATM   28  C1  UNL     1      -7.159  45.859 -28.827  1.00  0.00     0.012 C 
HETATM   29  C3  UNL     1      -5.741  47.774 -28.065  1.00  0.00     0.012 C 
ENDBRANCH  25  27
BRANCH  25  30
HETATM   30  O1  UNL     1      -8.809  48.577 -26.978  1.00  0.00    -0.387 OA
HETATM   31  H11 UNL     1      -8.218  49.326 -26.786  1.00  0.00     0.210 HD
ENDBRANCH  25  30
ENDBRANCH  23  25
ENDBRANCH  20  22
BRANCH  20  32
HETATM   32  O3  UNL     1     -12.018  45.883 -28.588  1.00  0.00    -0.387 OA
HETATM   33  H17 UNL     1     -11.202  46.067 -29.091  1.00  0.00     0.210 HD
ENDBRANCH  20  32
ENDBRANCH   1  20
BRANCH   4  34
HETATM   34  O4  UNL     1     -14.687  44.931 -24.318  1.00  0.00    -0.384 OA
HETATM   35  H23 UNL     1     -15.178  45.398 -23.620  1.00  0.00     0.211 HD
ENDBRANCH   4  34
BRANCH  14  36
HETATM   36  C23 UNL     1     -18.702  43.345 -27.672  1.00  0.00    -0.005 C 
HETATM   37  C24 UNL     1     -17.920  42.487 -28.696  1.00  0.00     0.005 C 
HETATM   38  C25 UNL     1     -18.069  43.049 -30.114  1.00  0.00     0.000 C 
HETATM   39  C26 UNL     1     -19.451  43.648 -30.375  1.00  0.00     0.000 C 
HETATM   40  C27 UNL     1     -20.513  42.992 -29.505  1.00  0.00     0.000 C 
HETATM   41  C28 UNL     1     -20.206  43.123 -28.004  1.00  0.00     0.005 C 
ENDBRANCH  14  36
BRANCH  11  42
HETATM   42  O6  UNL     1     -20.810  42.296 -22.782  1.00  0.00    -0.396 OA
HETATM   43  H29 UNL     1     -21.456  42.761 -23.343  1.00  0.00     0.210 HD
ENDBRANCH  11  42
TORSDOF 9
ENDMDL
MODEL 2
REMARK minimizedAffinity -9.54352093
REMARK CNNscore 0.754608512
REMARK CNNaffinity 7.56352949
REMARK  9 active torsions:
REMARK  status: ('A' for Active; 'I' for Inactive)
REMARK    1  A    between atoms: C2_2  and  C4_4 
REMARK    2  A    between atoms: C4_4  and  O1_6 
REMARK    3  A    between atoms: C4_4  and  C6_7 
REMARK    4  A    between atoms: C7_9  and  C8_10 
REMARK    5  A    between atoms: C8_10  and  O3_12 
REMARK    6  A    between atoms: C8_10  and  C10_13 
REMARK    7  A    between atoms: C13_16  and  O4_17 
REMARK    8  A    between atoms: C19_24  and  O6_25 
REMARK    9  A    between atoms: C22_28  and  C23_29 
ROOT
HETATM    1  C10 UNL     1      -3.280  50.569 -24.617  1.00  0.00     0.034 C 
HETATM    2  C11 UNL     1      -4.455  51.574 -24.421  1.00  0.00     0.012 C 
HETATM    3  C12 UNL     1      -5.229  51.141 -23.164  1.00  0.00     0.044 C 
HETATM    4  C13 UNL     1      -4.318  50.104 -22.504  1.00  0.00     0.089 C 
HETATM    5  C14 UNL     1      -4.832  49.172 -21.429  1.00  0.00    -0.037 C 
HETATM    6  C15 UNL     1      -6.043  49.330 -20.876  1.00  0.00     0.057 C 
HETATM    7  C16 UNL     1      -6.413  48.607 -19.647  1.00  0.00     0.154 C 
HETATM    8  O5  UNL     1      -7.555  48.724 -19.205  1.00  0.00    -0.293 OA
HETATM    9  C17 UNL     1      -5.343  47.829 -18.911  1.00  0.00     0.071 C 
HETATM   10  C18 UNL     1      -4.596  48.754 -17.940  1.00  0.00     0.045 C 
HETATM   11  C19 UNL     1      -3.619  47.967 -17.062  1.00  0.00     0.119 C 
HETATM   12  C20 UNL     1      -3.367  46.543 -17.556  1.00  0.00     0.032 C 
HETATM   13  C21 UNL     1      -3.167  46.498 -19.067  1.00  0.00     0.014 C 
HETATM   14  C22 UNL     1      -4.387  47.058 -19.890  1.00  0.00    -0.018 C 
HETATM   15  C29 UNL     1      -3.808  48.137 -20.940  1.00  0.00     0.027 C 
HETATM   16  C30 UNL     1      -3.029  47.504 -22.121  1.00  0.00     0.011 C 
HETATM   17  C31 UNL     1      -2.546  48.493 -23.195  1.00  0.00     0.014 C 
HETATM   18  C32 UNL     1      -3.710  49.356 -23.725  1.00  0.00    -0.002 C 
HETATM   19  C33 UNL     1      -4.755  48.463 -24.441  1.00  0.00     0.019 C 
ENDROOT
BRANCH   1  20
HETATM   20  C8  UNL     1      -2.903  50.376 -26.114  1.00  0.00     0.087 C 
HETATM   21  C9  UNL     1      -2.810  48.900 -26.518  1.00  0.00     0.049 C 
BRANCH  20  22
HETATM   22  C7  UNL     1      -1.551  51.019 -26.379  1.00  0.00     0.188 A 
HETATM   23  C6  UNL     1      -1.283  52.495 -26.163  1.00  0.00     0.188 A 
HETATM   24  O2  UNL     1      -1.537  51.961 -27.469  1.00  0.00    -0.369 OA
BRANCH  23  25
HETATM   25  C4  UNL     1       0.108  53.042 -25.905  1.00  0.00     0.086 C 
HETATM   26  C5  UNL     1       0.559  52.905 -24.442  1.00  0.00     0.049 C 
BRANCH  25  27
HETATM   27  C2  UNL     1       1.120  52.401 -26.912  1.00  0.00     0.014 C 
HETATM   28  C1  UNL     1       0.606  52.384 -28.357  1.00  0.00     0.012 C 
HETATM   29  C3  UNL     1       1.572  50.986 -26.521  1.00  0.00     0.012 C 
ENDBRANCH  25  27
BRANCH  25  30
HETATM   30  O1  UNL     1       0.019  54.446 -26.196  1.00  0.00    -0.387 OA
HETATM   31  H11 UNL     1       0.817  54.880 -25.849  1.00  0.00     0.210 HD
ENDBRANCH  25  30
ENDBRANCH  23  25
ENDBRANCH  20  22
BRANCH  20  32
HETATM   32  O3  UNL     1      -3.889  50.977 -26.957  1.00  0.00    -0.387 OA
HETATM   33  H17 UNL     1      -3.494  51.008 -27.850  1.00  0.00     0.210 HD
ENDBRANCH  20  32
ENDBRANCH   1  20
BRANCH   4  34
HETATM   34  O4  UNL     1      -3.282  50.861 -21.840  1.00  0.00    -0.384 OA
HETATM   35  H23 UNL     1      -3.717  51.413 -21.166  1.00  0.00     0.211 HD
ENDBRANCH   4  34
BRANCH  14  36
HETATM   36  C23 UNL     1      -5.191  45.881 -20.639  1.00  0.00    -0.005 C 
HETATM   37  C24 UNL     1      -6.044  44.943 -19.751  1.00  0.00     0.005 C 
HETATM   38  C25 UNL     1      -6.391  43.647 -20.492  1.00  0.00     0.000 C 
HETATM   39  C26 UNL     1      -6.627  43.861 -21.987  1.00  0.00     0.000 C 
HETATM   40  C27 UNL     1      -7.119  45.271 -22.275  1.00  0.00     0.000 C 
HETATM   41  C28 UNL     1      -6.138  46.348 -21.782  1.00  0.00     0.005 C 
ENDBRANCH  14  36
BRANCH  11  42
HETATM   42  O6  UNL     1      -4.107  47.910 -15.724  1.00  0.00    -0.396 OA
HETATM   43  H29 UNL     1      -4.987  47.493 -15.738  1.00  0.00     0.210 HD
ENDBRANCH  11  42
TORSDOF 9
ENDMDL
MODEL 3
REMARK minimizedAffinity -7.48193693
REMARK CNNscore 0.563223541
REMARK CNNaffinity 6.0473609
REMARK  9 active torsions:
REMARK  status: ('A' for Active; 'I' for Inactive)
REMARK    1  A    between atoms: C2_2  and  C4_4 
REMARK    2  A    between atoms: C4_4  and  O1_6 
REMARK    3  A    between atoms: C4_4  and  C6_7 
REMARK    4  A    between atoms: C7_9  and  C8_10 
REMARK    5  A    between atoms: C8_10  and  O3_12 
REMARK    6  A    between atoms: C8_10  and  C10_13 
REMARK    7  A    between atoms: C13_16  and  O4_17 
REMARK    8  A    between atoms: C19_24  and  O6_25 
REMARK    9  A    between atoms: C22_28  and  C23_29 
ROOT
HETATM    1  C10 UNL     1     -12.684  45.142 -26.395  1.00  0.00     0.034 C 
HETATM    2  C11 UNL     1     -12.780  46.697 -26.474  1.00  0.00     0.012 C 
HETATM    3  C12 UNL     1     -14.180  47.098 -25.975  1.00  0.00     0.044 C 
HETATM    4  C13 UNL     1     -14.731  45.819 -25.342  1.00  0.00     0.089 C 
HETATM    5  C14 UNL     1     -16.203  45.663 -25.030  1.00  0.00    -0.037 C 
HETATM    6  C15 UNL     1     -17.057  46.694 -25.118  1.00  0.00     0.057 C 
HETATM    7  C16 UNL     1     -18.410  46.606 -24.542  1.00  0.00     0.154 C 
HETATM    8  O5  UNL     1     -19.190  47.544 -24.700  1.00  0.00    -0.293 OA
HETATM    9  C17 UNL     1     -18.758  45.407 -23.685  1.00  0.00     0.071 C 
HETATM   10  C18 UNL     1     -18.340  45.663 -22.230  1.00  0.00     0.045 C 
HETATM   11  C19 UNL     1     -18.824  44.542 -21.307  1.00  0.00     0.119 C 
HETATM   12  C20 UNL     1     -19.305  43.300 -22.056  1.00  0.00     0.032 C 
HETATM   13  C21 UNL     1     -18.363  42.930 -23.197  1.00  0.00     0.014 C 
HETATM   14  C22 UNL     1     -18.181  44.068 -24.270  1.00  0.00    -0.018 C 
HETATM   15  C29 UNL     1     -16.597  44.284 -24.481  1.00  0.00     0.027 C 
HETATM   16  C30 UNL     1     -15.909  43.139 -25.269  1.00  0.00     0.011 C 
HETATM   17  C31 UNL     1     -14.418  43.356 -25.576  1.00  0.00     0.014 C 
HETATM   18  C32 UNL     1     -14.183  44.708 -26.284  1.00  0.00    -0.002 C 
HETATM   19  C33 UNL     1     -14.885  44.716 -27.666  1.00  0.00     0.019 C 
ENDROOT
BRANCH   1  20
HETATM   20  C8  UNL     1     -11.750  44.547 -27.488  1.00  0.00     0.087 C 
HETATM   21  C9  UNL     1     -10.597  43.724 -26.901  1.00  0.00     0.049 C 
BRANCH  20  22
HETATM   22  C7  UNL     1     -11.148  45.678 -28.306  1.00  0.00     0.188 A 
HETATM   23  C6  UNL     1     -10.856  45.561 -29.789  1.00  0.00     0.188 A 
HETATM   24  O2  UNL     1      -9.821  45.419 -28.807  1.00  0.00    -0.369 OA
BRANCH  23  25
HETATM   25  C4  UNL     1     -10.774  46.769 -30.702  1.00  0.00     0.086 C 
HETATM   26  C5  UNL     1     -10.530  48.089 -29.953  1.00  0.00     0.049 C 
BRANCH  25  27
HETATM   27  C2  UNL     1      -9.715  46.506 -31.825  1.00  0.00     0.014 C 
HETATM   28  C1  UNL     1      -8.658  47.613 -31.929  1.00  0.00     0.012 C 
HETATM   29  C3  UNL     1     -10.327  46.261 -33.211  1.00  0.00     0.012 C 
ENDBRANCH  25  27
BRANCH  25  30
HETATM   30  O1  UNL     1     -12.067  46.859 -31.322  1.00  0.00    -0.387 OA
HETATM   31  H11 UNL     1     -12.137  47.729 -31.752  1.00  0.00     0.210 HD
ENDBRANCH  25  30
ENDBRANCH  23  25
ENDBRANCH  20  22
BRANCH  20  32
HETATM   32  O3  UNL     1     -12.486  43.675 -28.351  1.00  0.00    -0.387 OA
HETATM   33  H17 UNL     1     -11.907  43.510 -29.120  1.00  0.00     0.210 HD
ENDBRANCH  20  32
ENDBRANCH   1  20
BRANCH   4  34
HETATM   34  O4  UNL     1     -14.090  45.714 -24.052  1.00  0.00    -0.384 OA
HETATM   35  H23 UNL     1     -14.357  46.494 -23.534  1.00  0.00     0.211 HD
ENDBRANCH   4  34
BRANCH  14  36
HETATM   36  C23 UNL     1     -18.915  43.704 -25.656  1.00  0.00    -0.005 C 
HETATM   37  C24 UNL     1     -18.074  43.840 -26.948  1.00  0.00     0.005 C 
HETATM   38  C25 UNL     1     -18.974  43.895 -28.188  1.00  0.00     0.000 C 
HETATM   39  C26 UNL     1     -20.216  43.012 -28.062  1.00  0.00     0.000 C 
HETATM   40  C27 UNL     1     -19.969  41.837 -27.128  1.00  0.00     0.000 C 
HETATM   41  C28 UNL     1     -19.550  42.285 -25.718  1.00  0.00     0.005 C 
ENDBRANCH  14  36
BRANCH  11  42
HETATM   42  O6  UNL     1     -19.883  45.018 -20.480  1.00  0.00    -0.396 OA
HETATM   43  H29 UNL     1     -20.599  45.338 -21.056  1.00  0.00     0.210 HD
ENDBRANCH  11  42
TORSDOF 9
ENDMDL
MODEL 4
REMARK minimizedAffinity -9.3845377
REMARK CNNscore 0.546900392
REMARK CNNaffinity 7.42701674
REMARK  9 active torsions:
REMARK  status: ('A' for Active; 'I' for Inactive)
REMARK    1  A    between atoms: C2_2  and  C4_4 
REMARK    2  A    between atoms: C4_4  and  O1_6 
REMARK    3  A    between atoms: C4_4  and  C6_7 
REMARK    4  A    between atoms: C7_9  and  C8_10 
REMARK    5  A    between atoms: C8_10  and  O3_12 
REMARK    6  A    between atoms: C8_10  and  C10_13 
REMARK    7  A    between atoms: C13_16  and  O4_17 
REMARK    8  A    between atoms: C19_24  and  O6_25 
REMARK    9  A    between atoms: C22_28  and  C23_29 
ROOT
HETATM    1  C10 UNL     1      -2.268  49.930 -23.928  1.00  0.00     0.034 C 
HETATM    2  C11 UNL     1      -1.656  51.306 -23.521  1.00  0.00     0.012 C 
HETATM    3  C12 UNL     1      -1.817  51.450 -21.998  1.00  0.00     0.044 C 
HETATM    4  C13 UNL     1      -2.228  50.052 -21.532  1.00  0.00     0.089 C 
HETATM    5  C14 UNL     1      -2.819  49.819 -20.159  1.00  0.00    -0.037 C 
HETATM    6  C15 UNL     1      -2.840  50.782 -19.226  1.00  0.00     0.057 C 
HETATM    7  C16 UNL     1      -3.148  50.466 -17.820  1.00  0.00     0.154 C 
HETATM    8  O5  UNL     1      -3.224  51.382 -17.004  1.00  0.00    -0.293 OA
HETATM    9  C17 UNL     1      -3.256  49.012 -17.409  1.00  0.00     0.071 C 
HETATM   10  C18 UNL     1      -1.867  48.464 -17.051  1.00  0.00     0.045 C 
HETATM   11  C19 UNL     1      -1.960  47.048 -16.475  1.00  0.00     0.119 C 
HETATM   12  C20 UNL     1      -3.323  46.391 -16.687  1.00  0.00     0.032 C 
HETATM   13  C21 UNL     1      -3.846  46.624 -18.100  1.00  0.00     0.014 C 
HETATM   14  C22 UNL     1      -4.007  48.143 -18.481  1.00  0.00    -0.018 C 
HETATM   15  C29 UNL     1      -3.257  48.372 -19.890  1.00  0.00     0.027 C 
HETATM   16  C30 UNL     1      -4.011  47.769 -21.104  1.00  0.00     0.011 C 
HETATM   17  C31 UNL     1      -3.378  48.052 -22.477  1.00  0.00     0.014 C 
HETATM   18  C32 UNL     1      -3.149  49.563 -22.687  1.00  0.00    -0.002 C 
HETATM   19  C33 UNL     1      -4.506  50.312 -22.708  1.00  0.00     0.019 C 
ENDROOT
BRANCH   1  20
HETATM   20  C8  UNL     1      -2.865  49.946 -25.365  1.00  0.00     0.087 C 
HETATM   21  C9  UNL     1      -3.418  48.581 -25.794  1.00  0.00     0.049 C 
BRANCH  20  22
HETATM   22  C7  UNL     1      -1.782  50.342 -26.355  1.00  0.00     0.188 A 
HETATM   23  C6  UNL     1      -1.603  51.761 -26.859  1.00  0.00     0.188 A 
HETATM   24  O2  UNL     1      -2.270  50.764 -27.644  1.00  0.00    -0.369 OA
BRANCH  23  25
HETATM   25  C4  UNL     1      -0.280  52.278 -27.388  1.00  0.00     0.086 C 
HETATM   26  C5  UNL     1      -0.259  53.800 -27.605  1.00  0.00     0.049 C 
BRANCH  25  27
HETATM   27  C2  UNL     1       0.884  51.783 -26.465  1.00  0.00     0.014 C 
HETATM   28  C1  UNL     1       1.041  52.620 -25.189  1.00  0.00     0.012 C 
HETATM   29  C3  UNL     1       2.241  51.688 -27.175  1.00  0.00     0.012 C 
ENDBRANCH  25  27
BRANCH  25  30
HETATM   30  O1  UNL     1      -0.122  51.659 -28.675  1.00  0.00    -0.387 OA
HETATM   31  H11 UNL     1       0.599  52.113 -29.144  1.00  0.00     0.210 HD
ENDBRANCH  25  30
ENDBRANCH  23  25
ENDBRANCH  20  22
BRANCH  20  32
HETATM   32  O3  UNL     1      -3.947  50.877 -25.445  1.00  0.00    -0.387 OA
HETATM   33  H17 UNL     1      -4.130  50.992 -26.397  1.00  0.00     0.210 HD
ENDBRANCH  20  32
ENDBRANCH   1  20
BRANCH   4  34
HETATM   34  O4  UNL     1      -1.013  49.270 -21.523  1.00  0.00    -0.384 OA
HETATM   35  H23 UNL     1      -0.411  49.682 -20.878  1.00  0.00     0.211 HD
ENDBRANCH   4  34
BRANCH  14  36
HETATM   36  C23 UNL     1      -5.556  48.577 -18.561  1.00  0.00    -0.005 C 
HETATM   37  C24 UNL     1      -6.180  48.679 -19.974  1.00  0.00     0.005 C 
HETATM   38  C25 UNL     1      -7.476  49.497 -19.945  1.00  0.00     0.000 C 
HETATM   39  C26 UNL     1      -8.283  49.291 -18.664  1.00  0.00     0.000 C 
HETATM   40  C27 UNL     1      -8.021  47.920 -18.058  1.00  0.00     0.000 C 
HETATM   41  C28 UNL     1      -6.535  47.695 -17.734  1.00  0.00     0.005 C 
ENDBRANCH  14  36
BRANCH  11  42
HETATM   42  O6  UNL     1      -1.675  47.073 -15.078  1.00  0.00    -0.396 OA
HETATM   43  H29 UNL     1      -2.309  47.674 -14.649  1.00  0.00     0.210 HD
ENDBRANCH  11  42
TORSDOF 9
ENDMDL
MODEL 5
REMARK minimizedAffinity -7.58140182
REMARK CNNscore 0.498549372
REMARK CNNaffinity 6.47776413
REMARK  9 active torsions:
REMARK  status: ('A' for Active; 'I' for Inactive)
REMARK    1  A    between atoms: C2_2  and  C4_4 
REMARK    2  A    between atoms: C4_4  and  O1_6 
REMARK    3  A    between atoms: C4_4  and  C6_7 
REMARK    4  A    between atoms: C7_9  and  C8_10 
REMARK    5  A    between atoms: C8_10  and  O3_12 
REMARK    6  A    between atoms: C8_10  and  C10_13 
REMARK    7  A    between atoms: C13_16  and  O4_17 
REMARK    8  A    between atoms: C19_24  and  O6_25 
REMARK    9  A    between atoms: C22_28  and  C23_29 
ROOT
HETATM    1  C10 UNL     1      -1.950  53.246  -8.844  1.00  0.00     0.034 C 
HETATM    2  C11 UNL     1      -1.879  52.015  -7.890  1.00  0.00     0.012 C 
HETATM    3  C12 UNL     1      -0.658  52.212  -6.973  1.00  0.00     0.044 C 
HETATM    4  C13 UNL     1      -0.247  53.667  -7.207  1.00  0.00     0.089 C 
HETATM    5  C14 UNL     1       1.105  54.186  -6.770  1.00  0.00    -0.037 C 
HETATM    6  C15 UNL     1       1.927  53.456  -6.000  1.00  0.00     0.057 C 
HETATM    7  C16 UNL     1       3.096  54.072  -5.349  1.00  0.00     0.154 C 
HETATM    8  O5  UNL     1       3.865  53.360  -4.704  1.00  0.00    -0.293 OA
HETATM    9  C17 UNL     1       3.253  55.576  -5.407  1.00  0.00     0.071 C 
HETATM   10  C18 UNL     1       2.480  56.230  -4.252  1.00  0.00     0.045 C 
HETATM   11  C19 UNL     1       2.749  57.735  -4.184  1.00  0.00     0.119 C 
HETATM   12  C20 UNL     1       3.434  58.290  -5.432  1.00  0.00     0.032 C 
HETATM   13  C21 UNL     1       2.815  57.731  -6.709  1.00  0.00     0.014 C 
HETATM   14  C22 UNL     1       2.874  56.162  -6.815  1.00  0.00    -0.018 C 
HETATM   15  C29 UNL     1       1.387  55.644  -7.162  1.00  0.00     0.027 C 
HETATM   16  C30 UNL     1       0.947  55.937  -8.619  1.00  0.00     0.011 C 
HETATM   17  C31 UNL     1      -0.426  55.371  -9.018  1.00  0.00     0.014 C 
HETATM   18  C32 UNL     1      -0.514  53.858  -8.728  1.00  0.00    -0.002 C 
HETATM   19  C33 UNL     1       0.508  53.086  -9.602  1.00  0.00     0.019 C 
ENDROOT
BRANCH   1  20
HETATM   20  C8  UNL     1      -2.568  52.892 -10.228  1.00  0.00     0.087 C 
HETATM   21  C9  UNL     1      -3.942  53.535 -10.447  1.00  0.00     0.049 C 
BRANCH  20  22
HETATM   22  C7  UNL     1      -2.734  51.385 -10.334  1.00  0.00     0.188 A 
HETATM   23  C6  UNL     1      -3.797  50.730 -11.193  1.00  0.00     0.188 A 
HETATM   24  O2  UNL     1      -3.961  50.875  -9.776  1.00  0.00    -0.369 OA
BRANCH  23  25
HETATM   25  C4  UNL     1      -3.659  49.317 -11.726  1.00  0.00     0.086 C 
HETATM   26  C5  UNL     1      -2.270  48.704 -11.486  1.00  0.00     0.049 C 
BRANCH  25  27
HETATM   27  C2  UNL     1      -4.818  48.428 -11.164  1.00  0.00     0.014 C 
HETATM   28  C1  UNL     1      -5.040  47.143 -11.971  1.00  0.00     0.012 C 
HETATM   29  C3  UNL     1      -6.154  49.170 -11.019  1.00  0.00     0.012 C 
ENDBRANCH  25  27
BRANCH  25  30
HETATM   30  O1  UNL     1      -3.837  49.434 -13.147  1.00  0.00    -0.387 OA
HETATM   31  H11 UNL     1      -3.552  48.600 -13.559  1.00  0.00     0.210 HD
ENDBRANCH  25  30
ENDBRANCH  23  25
ENDBRANCH  20  22
BRANCH  20  32
HETATM   32  O3  UNL     1      -1.720  53.353 -11.284  1.00  0.00    -0.387 OA
HETATM   33  H17 UNL     1      -2.047  52.922 -12.096  1.00  0.00     0.210 HD
ENDBRANCH  20  32
ENDBRANCH   1  20
BRANCH   4  34
HETATM   34  O4  UNL     1      -1.185  54.464  -6.451  1.00  0.00    -0.384 OA
HETATM   35  H23 UNL     1      -1.075  54.224  -5.513  1.00  0.00     0.211 HD
ENDBRANCH   4  34
BRANCH  14  36
HETATM   36  C23 UNL     1       3.939  55.678  -7.922  1.00  0.00    -0.005 C 
HETATM   37  C24 UNL     1       3.935  56.435  -9.272  1.00  0.00     0.005 C 
HETATM   38  C25 UNL     1       4.655  55.628 -10.358  1.00  0.00     0.000 C 
HETATM   39  C26 UNL     1       5.850  54.840  -9.821  1.00  0.00     0.000 C 
HETATM   40  C27 UNL     1       6.446  55.508  -8.591  1.00  0.00     0.000 C 
HETATM   41  C28 UNL     1       5.423  55.668  -7.454  1.00  0.00     0.005 C 
ENDBRANCH  14  36
BRANCH  11  42
HETATM   42  O6  UNL     1       3.557  58.032  -3.047  1.00  0.00    -0.396 OA
HETATM   43  H29 UNL     1       4.385  57.526  -3.121  1.00  0.00     0.210 HD
ENDBRANCH  11  42
TORSDOF 9
ENDMDL
MODEL 6
REMARK minimizedAffinity -8.51713371
REMARK CNNscore 0.475674778
REMARK CNNaffinity 6.28102255
REMARK  9 active torsions:
REMARK  status: ('A' for Active; 'I' for Inactive)
REMARK    1  A    between atoms: C2_2  and  C4_4 
REMARK    2  A    between atoms: C4_4  and  O1_6 
REMARK    3  A    between atoms: C4_4  and  C6_7 
REMARK    4  A    between atoms: C7_9  and  C8_10 
REMARK    5  A    between atoms: C8_10  and  O3_12 
REMARK    6  A    between atoms: C8_10  and  C10_13 
REMARK    7  A    between atoms: C13_16  and  O4_17 
REMARK    8  A    between atoms: C19_24  and  O6_25 
REMARK    9  A    between atoms: C22_28  and  C23_29 
ROOT
HETATM    1  C10 UNL     1       5.585  65.980 -35.689  1.00  0.00     0.034 C 
HETATM    2  C11 UNL     1       4.504  65.657 -34.612  1.00  0.00     0.012 C 
HETATM    3  C12 UNL     1       3.153  66.163 -35.148  1.00  0.00     0.044 C 
HETATM    4  C13 UNL     1       3.430  66.477 -36.620  1.00  0.00     0.089 C 
HETATM    5  C14 UNL     1       2.476  67.317 -37.440  1.00  0.00    -0.037 C 
HETATM    6  C15 UNL     1       1.266  67.666 -36.979  1.00  0.00     0.057 C 
HETATM    7  C16 UNL     1       0.246  68.228 -37.883  1.00  0.00     0.154 C 
HETATM    8  O5  UNL     1      -0.828  68.600 -37.414  1.00  0.00    -0.293 OA
HETATM    9  C17 UNL     1       0.517  68.230 -39.372  1.00  0.00     0.071 C 
HETATM   10  C18 UNL     1       0.080  66.892 -39.987  1.00  0.00     0.045 C 
HETATM   11  C19 UNL     1       0.187  66.920 -41.514  1.00  0.00     0.119 C 
HETATM   12  C20 UNL     1       0.990  68.106 -42.048  1.00  0.00     0.032 C 
HETATM   13  C21 UNL     1       2.261  68.336 -41.237  1.00  0.00     0.014 C 
HETATM   14  C22 UNL     1       2.004  68.609 -39.708  1.00  0.00    -0.018 C 
HETATM   15  C29 UNL     1       2.952  67.608 -38.871  1.00  0.00     0.027 C 
HETATM   16  C30 UNL     1       4.453  67.994 -38.905  1.00  0.00     0.011 C 
HETATM   17  C31 UNL     1       5.376  67.121 -38.039  1.00  0.00     0.014 C 
HETATM   18  C32 UNL     1       4.875  67.053 -36.580  1.00  0.00    -0.002 C 
HETATM   19  C33 UNL     1       4.926  68.460 -35.931  1.00  0.00     0.019 C 
ENDROOT
BRANCH   1  20
HETATM   20  C8  UNL     1       6.986  66.247 -35.066  1.00  0.00     0.087 C 
HETATM   21  C9  UNL     1       8.009  66.743 -36.094  1.00  0.00     0.049 C 
BRANCH  20  22
HETATM   22  C7  UNL     1       7.519  64.959 -34.459  1.00  0.00     0.188 A 
HETATM   23  C6  UNL     1       7.098  63.584 -34.938  1.00  0.00     0.188 A 
HETATM   24  O2  UNL     1       6.536  64.172 -33.758  1.00  0.00    -0.369 OA
BRANCH  23  25
HETATM   25  C4  UNL     1       7.963  62.353 -34.746  1.00  0.00     0.086 C 
HETATM   26  C5  UNL     1       9.079  62.543 -33.706  1.00  0.00     0.049 C 
BRANCH  25  27
HETATM   27  C2  UNL     1       7.054  61.116 -34.438  1.00  0.00     0.014 C 
HETATM   28  C1  UNL     1       7.612  59.802 -34.997  1.00  0.00     0.012 C 
HETATM   29  C3  UNL     1       5.600  61.284 -34.901  1.00  0.00     0.012 C 
ENDBRANCH  25  27
BRANCH  25  30
HETATM   30  O1  UNL     1       8.594  62.136 -36.018  1.00  0.00    -0.387 OA
HETATM   31  H11 UNL     1       9.313  61.493 -35.895  1.00  0.00     0.210 HD
ENDBRANCH  25  30
ENDBRANCH  23  25
ENDBRANCH  20  22
BRANCH  20  32
HETATM   32  O3  UNL     1       6.896  67.250 -34.050  1.00  0.00    -0.387 OA
HETATM   33  H17 UNL     1       7.743  67.216 -33.566  1.00  0.00     0.210 HD
ENDBRANCH  20  32
ENDBRANCH   1  20
BRANCH   4  34
HETATM   34  O4  UNL     1       3.438  65.201 -37.296  1.00  0.00    -0.384 OA
HETATM   35  H23 UNL     1       2.552  64.814 -37.190  1.00  0.00     0.211 HD
ENDBRANCH   4  34
BRANCH  14  36
HETATM   36  C23 UNL     1       2.286  70.147 -39.322  1.00  0.00    -0.005 C 
HETATM   37  C24 UNL     1       3.471  70.841 -40.037  1.00  0.00     0.005 C 
HETATM   38  C25 UNL     1       3.898  72.109 -39.290  1.00  0.00     0.000 C 
HETATM   39  C26 UNL     1       2.721  72.855 -38.661  1.00  0.00     0.000 C 
HETATM   40  C27 UNL     1       1.431  72.601 -39.425  1.00  0.00     0.000 C 
HETATM   41  C28 UNL     1       1.074  71.107 -39.496  1.00  0.00     0.005 C 
ENDBRANCH  14  36
BRANCH  11  42
HETATM   42  O6  UNL     1      -1.116  66.951 -42.091  1.00  0.00    -0.396 OA
HETATM   43  H29 UNL     1      -1.580  67.737 -41.753  1.00  0.00     0.210 HD
ENDBRANCH  11  42
TORSDOF 9
ENDMDL
MODEL 7
REMARK minimizedAffinity -8.97179317
REMARK CNNscore 0.473280519
REMARK CNNaffinity 6.84897423
REMARK  9 active torsions:
REMARK  status: ('A' for Active; 'I' for Inactive)
REMARK    1  A    between atoms: C2_2  and  C4_4 
REMARK    2  A    between atoms: C4_4  and  O1_6 
REMARK    3  A    between atoms: C4_4  and  C6_7 
REMARK    4  A    between atoms: C7_9  and  C8_10 
REMARK    5  A    between atoms: C8_10  and  O3_12 
REMARK    6  A    between atoms: C8_10  and  C10_13 
REMARK    7  A    between atoms: C13_16  and  O4_17 
REMARK    8  A    between atoms: C19_24  and  O6_25 
REMARK    9  A    between atoms: C22_28  and  C23_29 
ROOT
HETATM    1  C10 UNL     1      -4.109  50.440 -23.886  1.00  0.00     0.034 C 
HETATM    2  C11 UNL     1      -4.389  49.385 -25.000  1.00  0.00     0.012 C 
HETATM    3  C12 UNL     1      -5.322  48.318 -24.401  1.00  0.00     0.044 C 
HETATM    4  C13 UNL     1      -5.796  48.933 -23.084  1.00  0.00     0.089 C 
HETATM    5  C14 UNL     1      -6.455  48.094 -22.012  1.00  0.00    -0.037 C 
HETATM    6  C15 UNL     1      -6.822  46.823 -22.235  1.00  0.00     0.057 C 
HETATM    7  C16 UNL     1      -7.711  46.117 -21.297  1.00  0.00     0.154 C 
HETATM    8  O5  UNL     1      -7.973  44.932 -21.497  1.00  0.00    -0.293 OA
HETATM    9  C17 UNL     1      -8.358  46.904 -20.176  1.00  0.00     0.071 C 
HETATM   10  C18 UNL     1      -9.665  47.542 -20.669  1.00  0.00     0.045 C 
HETATM   11  C19 UNL     1     -10.426  48.208 -19.520  1.00  0.00     0.119 C 
HETATM   12  C20 UNL     1      -9.592  48.376 -18.251  1.00  0.00     0.032 C 
HETATM   13  C21 UNL     1      -8.187  48.879 -18.565  1.00  0.00     0.014 C 
HETATM   14  C22 UNL     1      -7.370  47.939 -19.527  1.00  0.00    -0.018 C 
HETATM   15  C29 UNL     1      -6.787  48.855 -20.720  1.00  0.00     0.027 C 
HETATM   16  C30 UNL     1      -5.619  49.778 -20.285  1.00  0.00     0.011 C 
HETATM   17  C31 UNL     1      -4.972  50.594 -21.416  1.00  0.00     0.014 C 
HETATM   18  C32 UNL     1      -4.528  49.684 -22.581  1.00  0.00    -0.002 C 
HETATM   19  C33 UNL     1      -3.422  48.707 -22.105  1.00  0.00     0.019 C 
ENDROOT
BRANCH   1  20
HETATM   20  C8  UNL     1      -2.703  51.093 -24.023  1.00  0.00     0.087 C 
HETATM   21  C9  UNL     1      -2.580  52.407 -23.243  1.00  0.00     0.049 C 
BRANCH  20  22
HETATM   22  C7  UNL     1      -2.429  51.392 -25.488  1.00  0.00     0.188 A 
HETATM   23  C6  UNL     1      -1.416  52.423 -25.945  1.00  0.00     0.188 A 
HETATM   24  O2  UNL     1      -2.819  52.712 -25.916  1.00  0.00    -0.369 OA
BRANCH  23  25
HETATM   25  C4  UNL     1      -0.754  52.368 -27.309  1.00  0.00     0.086 C 
HETATM   26  C5  UNL     1      -0.525  53.754 -27.935  1.00  0.00     0.049 C 
BRANCH  25  27
HETATM   27  C2  UNL     1       0.558  51.520 -27.222  1.00  0.00     0.014 C 
HETATM   28  C1  UNL     1       1.258  51.627 -25.862  1.00  0.00     0.012 C 
HETATM   29  C3  UNL     1       1.570  51.826 -28.335  1.00  0.00     0.012 C 
ENDBRANCH  25  27
BRANCH  25  30
HETATM   30  O1  UNL     1      -1.685  51.666 -28.149  1.00  0.00    -0.387 OA
HETATM   31  H11 UNL     1      -1.409  51.786 -29.074  1.00  0.00     0.210 HD
ENDBRANCH  25  30
ENDBRANCH  23  25
ENDBRANCH  20  22
BRANCH  20  32
HETATM   32  O3  UNL     1      -1.694  50.214 -23.520  1.00  0.00    -0.387 OA
HETATM   33  H17 UNL     1      -0.843  50.583 -23.825  1.00  0.00     0.210 HD
ENDBRANCH  20  32
ENDBRANCH   1  20
BRANCH   4  34
HETATM   34  O4  UNL     1      -6.812  49.895 -23.445  1.00  0.00    -0.384 OA
HETATM   35  H23 UNL     1      -7.535  49.402 -23.872  1.00  0.00     0.211 HD
ENDBRANCH   4  34
BRANCH  14  36
HETATM   36  C23 UNL     1      -6.191  47.167 -18.748  1.00  0.00    -0.005 C 
HETATM   37  C24 UNL     1      -4.773  47.782 -18.841  1.00  0.00     0.005 C 
HETATM   38  C25 UNL     1      -3.702  46.759 -18.447  1.00  0.00     0.000 C 
HETATM   39  C26 UNL     1      -4.158  45.820 -17.330  1.00  0.00     0.000 C 
HETATM   40  C27 UNL     1      -5.203  46.479 -16.443  1.00  0.00     0.000 C 
HETATM   41  C28 UNL     1      -6.443  46.929 -17.231  1.00  0.00     0.005 C 
ENDBRANCH  14  36
BRANCH  11  42
HETATM   42  O6  UNL     1     -11.591  47.448 -19.206  1.00  0.00    -0.396 OA
HETATM   43  H29 UNL     1     -11.312  46.546 -18.972  1.00  0.00     0.210 HD
ENDBRANCH  11  42
TORSDOF 9
ENDMDL
MODEL 8
REMARK minimizedAffinity -8.93531609
REMARK CNNscore 0.472822964
REMARK CNNaffinity 7.2779789
REMARK  9 active torsions:
REMARK  status: ('A' for Active; 'I' for Inactive)
REMARK    1  A    between atoms: C2_2  and  C4_4 
REMARK    2  A    between atoms: C4_4  and  O1_6 
REMARK    3  A    between atoms: C4_4  and  C6_7 
REMARK    4  A    between atoms: C7_9  and  C8_10 
REMARK    5  A    between atoms: C8_10  and  O3_12 
REMARK    6  A    between atoms: C8_10  and  C10_13 
REMARK    7  A    between atoms: C13_16  and  O4_17 
REMARK    8  A    between atoms: C19_24  and  O6_25 
REMARK    9  A    between atoms: C22_28  and  C23_29 
ROOT
HETATM    1  C10 UNL     1      -3.649  50.733 -24.568  1.00  0.00     0.034 C 
HETATM    2  C11 UNL     1      -3.900  49.661 -25.673  1.00  0.00     0.012 C 
HETATM    3  C12 UNL     1      -4.755  48.545 -25.047  1.00  0.00     0.044 C 
HETATM    4  C13 UNL     1      -5.227  49.138 -23.718  1.00  0.00     0.089 C 
HETATM    5  C14 UNL     1      -5.809  48.266 -22.627  1.00  0.00    -0.037 C 
HETATM    6  C15 UNL     1      -6.110  46.976 -22.839  1.00  0.00     0.057 C 
HETATM    7  C16 UNL     1      -6.933  46.224 -21.876  1.00  0.00     0.154 C 
HETATM    8  O5  UNL     1      -7.133  45.026 -22.067  1.00  0.00    -0.293 OA
HETATM    9  C17 UNL     1      -7.591  46.977 -20.739  1.00  0.00     0.071 C 
HETATM   10  C18 UNL     1      -8.945  47.540 -21.197  1.00  0.00     0.045 C 
HETATM   11  C19 UNL     1      -9.711  48.165 -20.028  1.00  0.00     0.119 C 
HETATM   12  C20 UNL     1      -8.853  48.384 -18.783  1.00  0.00     0.032 C 
HETATM   13  C21 UNL     1      -7.487  48.964 -19.135  1.00  0.00     0.014 C 
HETATM   14  C22 UNL     1      -6.645  48.067 -20.118  1.00  0.00    -0.018 C 
HETATM   15  C29 UNL     1      -6.148  49.011 -21.328  1.00  0.00     0.027 C 
HETATM   16  C30 UNL     1      -5.022  49.998 -20.927  1.00  0.00     0.011 C 
HETATM   17  C31 UNL     1      -4.452  50.846 -22.076  1.00  0.00     0.014 C 
HETATM   18  C32 UNL     1      -3.990  49.959 -23.252  1.00  0.00    -0.002 C 
HETATM   19  C33 UNL     1      -2.819  49.047 -22.805  1.00  0.00     0.019 C 
ENDROOT
BRANCH   1  20
HETATM   20  C8  UNL     1      -2.286  51.463 -24.745  1.00  0.00     0.087 C 
HETATM   21  C9  UNL     1      -1.528  51.011 -25.999  1.00  0.00     0.049 C 
BRANCH  20  22
HETATM   22  C7  UNL     1      -1.405  51.182 -23.539  1.00  0.00     0.188 A 
HETATM   23  C6  UNL     1      -0.992  52.255 -22.551  1.00  0.00     0.188 A 
HETATM   24  O2  UNL     1      -0.106  51.806 -23.585  1.00  0.00    -0.369 OA
BRANCH  23  25
HETATM   25  C4  UNL     1      -0.594  51.938 -21.122  1.00  0.00     0.086 C 
HETATM   26  C5  UNL     1       0.204  50.632 -20.982  1.00  0.00     0.049 C 
BRANCH  25  27
HETATM   27  C2  UNL     1       0.146  53.168 -20.498  1.00  0.00     0.014 C 
HETATM   28  C1  UNL     1       1.396  53.583 -21.285  1.00  0.00     0.012 C 
HETATM   29  C3  UNL     1       0.519  52.984 -19.020  1.00  0.00     0.012 C 
ENDBRANCH  25  27
BRANCH  25  30
HETATM   30  O1  UNL     1      -1.834  51.760 -20.418  1.00  0.00    -0.387 OA
HETATM   31  H11 UNL     1      -1.639  51.353 -19.557  1.00  0.00     0.210 HD
ENDBRANCH  25  30
ENDBRANCH  23  25
ENDBRANCH  20  22
BRANCH  20  32
HETATM   32  O3  UNL     1      -2.489  52.874 -24.868  1.00  0.00    -0.387 OA
HETATM   33  H17 UNL     1      -1.608  53.281 -24.762  1.00  0.00     0.210 HD
ENDBRANCH  20  32
ENDBRANCH   1  20
BRANCH   4  34
HETATM   34  O4  UNL     1      -6.304  50.040 -24.053  1.00  0.00    -0.384 OA
HETATM   35  H23 UNL     1      -7.010  49.506 -24.459  1.00  0.00     0.211 HD
ENDBRANCH   4  34
BRANCH  14  36
HETATM   36  C23 UNL     1      -5.405  47.365 -19.370  1.00  0.00    -0.005 C 
HETATM   37  C24 UNL     1      -4.035  48.079 -19.469  1.00  0.00     0.005 C 
HETATM   38  C25 UNL     1      -2.889  47.126 -19.111  1.00  0.00     0.000 C 
HETATM   39  C26 UNL     1      -3.262  46.135 -18.008  1.00  0.00     0.000 C 
HETATM   40  C27 UNL     1      -4.338  46.702 -17.093  1.00  0.00     0.000 C 
HETATM   41  C28 UNL     1      -5.618  47.080 -17.856  1.00  0.00     0.005 C 
ENDBRANCH  14  36
BRANCH  11  42
HETATM   42  O6  UNL     1     -10.822  47.343 -19.682  1.00  0.00    -0.396 OA
HETATM   43  H29 UNL     1     -10.487  46.458 -19.453  1.00  0.00     0.210 HD
ENDBRANCH  11  42
TORSDOF 9
ENDMDL
MODEL 9
REMARK minimizedAffinity -7.2392869
REMARK CNNscore 0.461885601
REMARK CNNaffinity 6.02985001
REMARK  9 active torsions:
REMARK  status: ('A' for Active; 'I' for Inactive)
REMARK    1  A    between atoms: C2_2  and  C4_4 
REMARK    2  A    between atoms: C4_4  and  O1_6 
REMARK    3  A    between atoms: C4_4  and  C6_7 
REMARK    4  A    between atoms: C7_9  and  C8_10 
REMARK    5  A    between atoms: C8_10  and  O3_12 
REMARK    6  A    between atoms: C8_10  and  C10_13 
REMARK    7  A    between atoms: C13_16  and  O4_17 
REMARK    8  A    between atoms: C19_24  and  O6_25 
REMARK    9  A    between atoms: C22_28  and  C23_29 
ROOT
HETATM    1  C10 UNL     1       5.990  67.094 -15.068  1.00  0.00     0.034 C 
HETATM    2  C11 UNL     1       5.636  65.702 -15.677  1.00  0.00     0.012 C 
HETATM    3  C12 UNL     1       6.960  64.955 -15.917  1.00  0.00     0.044 C 
HETATM    4  C13 UNL     1       8.001  65.790 -15.169  1.00  0.00     0.089 C 
HETATM    5  C14 UNL     1       9.483  65.612 -15.419  1.00  0.00    -0.037 C 
HETATM    6  C15 UNL     1       9.958  64.599 -16.158  1.00  0.00     0.057 C 
HETATM    7  C16 UNL     1      11.394  64.271 -16.155  1.00  0.00     0.154 C 
HETATM    8  O5  UNL     1      11.806  63.379 -16.896  1.00  0.00    -0.293 OA
HETATM    9  C17 UNL     1      12.298  64.970 -15.161  1.00  0.00     0.071 C 
HETATM   10  C18 UNL     1      12.295  64.213 -13.826  1.00  0.00     0.045 C 
HETATM   11  C19 UNL     1      13.322  64.798 -12.853  1.00  0.00     0.119 C 
HETATM   12  C20 UNL     1      13.864  66.160 -13.284  1.00  0.00     0.032 C 
HETATM   13  C21 UNL     1      12.752  67.075 -13.785  1.00  0.00     0.014 C 
HETATM   14  C22 UNL     1      11.950  66.495 -15.009  1.00  0.00    -0.018 C 
HETATM   15  C29 UNL     1      10.381  66.592 -14.650  1.00  0.00     0.027 C 
HETATM   16  C30 UNL     1       9.818  68.036 -14.694  1.00  0.00     0.011 C 
HETATM   17  C31 UNL     1       8.304  68.159 -14.453  1.00  0.00     0.014 C 
HETATM   18  C32 UNL     1       7.509  67.246 -15.411  1.00  0.00    -0.002 C 
HETATM   19  C33 UNL     1       7.722  67.698 -16.879  1.00  0.00     0.019 C 
ENDROOT
BRANCH   1  20
HETATM   20  C8  UNL     1       4.960  68.194 -15.459  1.00  0.00     0.087 C 
HETATM   21  C9  UNL     1       3.574  67.955 -14.847  1.00  0.00     0.049 C 
BRANCH  20  22
HETATM   22  C7  UNL     1       4.805  68.223 -16.971  1.00  0.00     0.188 A 
HETATM   23  C6  UNL     1       4.209  69.400 -17.717  1.00  0.00     0.188 A 
HETATM   24  O2  UNL     1       3.440  68.223 -17.435  1.00  0.00    -0.369 OA
BRANCH  23  25
HETATM   25  C4  UNL     1       4.519  69.685 -19.174  1.00  0.00     0.086 C 
HETATM   26  C5  UNL     1       3.317  69.474 -20.109  1.00  0.00     0.049 C 
BRANCH  25  27
HETATM   27  C2  UNL     1       5.145  71.113 -19.308  1.00  0.00     0.014 C 
HETATM   28  C1  UNL     1       5.571  71.455 -20.741  1.00  0.00     0.012 C 
HETATM   29  C3  UNL     1       6.324  71.365 -18.358  1.00  0.00     0.012 C 
ENDBRANCH  25  27
BRANCH  25  30
HETATM   30  O1  UNL     1       5.522  68.723 -19.539  1.00  0.00    -0.387 OA
HETATM   31  H11 UNL     1       5.604  68.722 -20.508  1.00  0.00     0.210 HD
ENDBRANCH  25  30
ENDBRANCH  23  25
ENDBRANCH  20  22
BRANCH  20  32
HETATM   32  O3  UNL     1       5.402  69.475 -15.001  1.00  0.00    -0.387 OA
HETATM   33  H17 UNL     1       4.836  70.129 -15.453  1.00  0.00     0.210 HD
ENDBRANCH  20  32
ENDBRANCH   1  20
BRANCH   4  34
HETATM   34  O4  UNL     1       7.842  65.454 -13.773  1.00  0.00    -0.384 OA
HETATM   35  H23 UNL     1       8.035  64.505 -13.682  1.00  0.00     0.211 HD
ENDBRANCH   4  34
BRANCH  14  36
HETATM   36  C23 UNL     1      12.291  67.281 -16.373  1.00  0.00    -0.005 C 
HETATM   37  C24 UNL     1      12.880  68.705 -16.229  1.00  0.00     0.005 C 
HETATM   38  C25 UNL     1      12.751  69.490 -17.539  1.00  0.00     0.000 C 
HETATM   39  C26 UNL     1      12.925  68.611 -18.779  1.00  0.00     0.000 C 
HETATM   40  C27 UNL     1      13.804  67.405 -18.485  1.00  0.00     0.000 C 
HETATM   41  C28 UNL     1      13.244  66.532 -17.349  1.00  0.00     0.005 C 
ENDBRANCH  14  36
BRANCH  11  42
HETATM   42  O6  UNL     1      14.416  63.896 -12.702  1.00  0.00    -0.396 OA
HETATM   43  H29 UNL     1      14.806  63.741 -13.579  1.00  0.00     0.210 HD
ENDBRANCH  11  42
TORSDOF 9
ENDMDL
