MODEL 1
REMARK minimizedAffinity -7.22531509
REMARK CNNscore 0.606013775
REMARK CNNaffinity 6.7460804
REMARK  7 active torsions:
REMARK  status: ('A' for Active; 'I' for Inactive)
REMARK    1  A    between atoms: C2_2  and  C3_3 
REMARK    2  A    between atoms: C2_2  and  C4_6 
REMARK    3  A    between atoms: C3_3  and  O2_5 
REMARK    4  A    between atoms: C4_6  and  C6_8 
REMARK    5  A    between atoms: C6_8  and  C7_10 
REMARK    6  A    between atoms: C7_10  and  C8_11 
REMARK    7  A    between atoms: C8_11  and  C10_13 
ROOT
HETATM    1  C10 UNL     1       5.354  56.056  -8.089  1.00  0.00    -0.001 C 
HETATM    2  C11 UNL     1       6.225  55.192  -9.047  1.00  0.00     0.007 C 
HETATM    3  C12 UNL     1       5.271  54.293  -9.856  1.00  0.00     0.015 C 
HETATM    4  C13 UNL     1       3.872  54.883  -9.613  1.00  0.00    -0.013 C 
HETATM    5  C14 UNL     1       3.695  56.067 -10.615  1.00  0.00     0.021 C 
HETATM    6  C15 UNL     1       2.650  53.997  -9.826  1.00  0.00    -0.068 C 
HETATM    7  C16 UNL     1       1.505  54.249  -9.134  1.00  0.00    -0.068 C 
HETATM    8  C17 UNL     1       1.439  55.351  -8.078  1.00  0.00     0.036 C 
HETATM    9  C18 UNL     1       2.740  56.117  -7.750  1.00  0.00     0.015 C 
HETATM   10  C19 UNL     1       3.990  55.298  -8.097  1.00  0.00    -0.029 C 
HETATM   11  C20 UNL     1       4.068  54.079  -7.125  1.00  0.00     0.016 C 
HETATM   12  C21 UNL     1       0.257  53.352  -9.333  1.00  0.00    -0.015 C 
HETATM   13  C22 UNL     1       0.460  52.181  -8.333  1.00  0.00     0.020 C 
HETATM   14  C23 UNL     1      -1.115  54.009  -8.985  1.00  0.00     0.021 C 
HETATM   15  C24 UNL     1      -1.848  54.564 -10.196  1.00  0.00     0.080 C 
HETATM   16  C25 UNL     1      -2.192  53.419 -11.126  1.00  0.00     0.135 C 
HETATM   17  O4  UNL     1      -3.310  53.346 -11.640  1.00  0.00    -0.297 OA
HETATM   18  C26 UNL     1      -1.096  52.373 -11.404  1.00  0.00     0.018 C 
HETATM   19  C27 UNL     1      -1.539  51.041 -10.790  1.00  0.00     0.023 C 
HETATM   20  C28 UNL     1      -1.019  52.198 -12.937  1.00  0.00     0.023 C 
HETATM   21  C29 UNL     1       0.256  52.927 -10.852  1.00  0.00     0.013 C 
HETATM   22  C30 UNL     1       1.505  52.094 -11.165  1.00  0.00     0.011 C 
HETATM   23  C31 UNL     1       2.778  52.898 -10.863  1.00  0.00     0.036 C 
ENDROOT
BRANCH   1  24
HETATM   24  C8  UNL     1       6.067  56.342  -6.737  1.00  0.00    -0.007 C 
HETATM   25  C9  UNL     1       5.934  57.799  -6.279  1.00  0.00     0.011 C 
BRANCH  24  26
HETATM   26  C7  UNL     1       7.556  55.917  -6.718  1.00  0.00     0.083 C 
BRANCH  26  27
HETATM   27  C6  UNL     1       8.218  55.777  -5.349  1.00  0.00     0.135 C 
HETATM   28  O3  UNL     1       7.570  55.643  -4.312  1.00  0.00    -0.297 OA
BRANCH  27  29
HETATM   29  C4  UNL     1       9.749  55.866  -5.319  1.00  0.00     0.090 C 
HETATM   30  C5  UNL     1      10.316  54.716  -4.478  1.00  0.00     0.023 C 
BRANCH  29  31
HETATM   31  C2  UNL     1      10.142  57.254  -4.852  1.00  0.00     0.017 C 
HETATM   32  C1  UNL     1       9.405  58.367  -5.036  1.00  0.00     0.026 C 
BRANCH  31  33
HETATM   33  C3  UNL     1      11.435  57.326  -4.123  1.00  0.00     0.172 C 
HETATM   34  O1  UNL     1      11.549  57.371  -2.911  1.00  0.00    -0.646 OA
BRANCH  33  35
HETATM   35  O2  UNL     1      12.517  57.344  -4.919  1.00  0.00    -0.773 OA
HETATM   36  H3  UNL     1      13.272  57.396  -4.297  1.00  0.00     0.167 HD
ENDBRANCH  33  35
ENDBRANCH  31  33
ENDBRANCH  29  31
ENDBRANCH  27  29
ENDBRANCH  26  27
ENDBRANCH  24  26
ENDBRANCH   1  24
TORSDOF 7
ENDMDL
MODEL 2
REMARK minimizedAffinity -7.51489019
REMARK CNNscore 0.600041986
REMARK CNNaffinity 6.36473227
REMARK  7 active torsions:
REMARK  status: ('A' for Active; 'I' for Inactive)
REMARK    1  A    between atoms: C2_2  and  C3_3 
REMARK    2  A    between atoms: C2_2  and  C4_6 
REMARK    3  A    between atoms: C3_3  and  O2_5 
REMARK    4  A    between atoms: C4_6  and  C6_8 
REMARK    5  A    between atoms: C6_8  and  C7_10 
REMARK    6  A    between atoms: C7_10  and  C8_11 
REMARK    7  A    between atoms: C8_11  and  C10_13 
ROOT
HETATM    1  C10 UNL     1     -13.451  46.102 -26.431  1.00  0.00    -0.001 C 
HETATM    2  C11 UNL     1     -14.514  45.930 -27.554  1.00  0.00     0.007 C 
HETATM    3  C12 UNL     1     -13.773  45.977 -28.904  1.00  0.00     0.015 C 
HETATM    4  C13 UNL     1     -12.286  45.826 -28.543  1.00  0.00    -0.013 C 
HETATM    5  C14 UNL     1     -12.007  44.298 -28.379  1.00  0.00     0.021 C 
HETATM    6  C15 UNL     1     -11.233  46.318 -29.529  1.00  0.00    -0.068 C 
HETATM    7  C16 UNL     1     -10.013  46.715 -29.073  1.00  0.00    -0.068 C 
HETATM    8  C17 UNL     1      -9.699  46.762 -27.578  1.00  0.00     0.036 C 
HETATM    9  C18 UNL     1     -10.840  46.432 -26.589  1.00  0.00     0.015 C 
HETATM   10  C19 UNL     1     -12.222  46.667 -27.211  1.00  0.00    -0.029 C 
HETATM   11  C20 UNL     1     -12.411  48.199 -27.436  1.00  0.00     0.016 C 
HETATM   12  C21 UNL     1      -8.935  47.226 -30.062  1.00  0.00    -0.015 C 
HETATM   13  C22 UNL     1      -9.237  48.741 -30.212  1.00  0.00     0.020 C 
HETATM   14  C23 UNL     1      -7.457  47.106 -29.577  1.00  0.00     0.021 C 
HETATM   15  C24 UNL     1      -6.743  45.871 -30.101  1.00  0.00     0.080 C 
HETATM   16  C25 UNL     1      -6.649  45.964 -31.610  1.00  0.00     0.135 C 
HETATM   17  O4  UNL     1      -5.597  45.684 -32.190  1.00  0.00    -0.297 OA
HETATM   18  C26 UNL     1      -7.909  46.408 -32.376  1.00  0.00     0.018 C 
HETATM   19  C27 UNL     1      -7.629  47.776 -33.008  1.00  0.00     0.023 C 
HETATM   20  C28 UNL     1      -8.129  45.385 -33.513  1.00  0.00     0.023 C 
HETATM   21  C29 UNL     1      -9.115  46.384 -31.384  1.00  0.00     0.013 C 
HETATM   22  C30 UNL     1     -10.497  46.652 -31.993  1.00  0.00     0.011 C 
HETATM   23  C31 UNL     1     -11.606  46.279 -30.999  1.00  0.00     0.036 C 
ENDROOT
BRANCH   1  24
HETATM   24  C8  UNL     1     -14.007  46.879 -25.203  1.00  0.00    -0.007 C 
HETATM   25  C9  UNL     1     -13.387  46.436 -23.874  1.00  0.00     0.011 C 
BRANCH  24  26
HETATM   26  C7  UNL     1     -15.552  46.854 -25.101  1.00  0.00     0.083 C 
BRANCH  26  27
HETATM   27  C6  UNL     1     -16.166  45.825 -24.155  1.00  0.00     0.135 C 
HETATM   28  O3  UNL     1     -16.052  44.612 -24.333  1.00  0.00    -0.297 OA
BRANCH  27  29
HETATM   29  C4  UNL     1     -16.986  46.378 -22.983  1.00  0.00     0.090 C 
HETATM   30  C5  UNL     1     -16.399  45.874 -21.659  1.00  0.00     0.023 C 
BRANCH  29  31
HETATM   31  C2  UNL     1     -18.445  46.030 -23.210  1.00  0.00     0.017 C 
HETATM   32  C1  UNL     1     -19.212  45.330 -22.352  1.00  0.00     0.026 C 
BRANCH  31  33
HETATM   33  C3  UNL     1     -19.021  46.546 -24.479  1.00  0.00     0.172 C 
HETATM   34  O1  UNL     1     -19.060  47.722 -24.797  1.00  0.00    -0.646 OA
BRANCH  33  35
HETATM   35  O2  UNL     1     -19.521  45.595 -25.284  1.00  0.00    -0.773 OA
HETATM   36  H3  UNL     1     -19.859  46.090 -26.059  1.00  0.00     0.167 HD
ENDBRANCH  33  35
ENDBRANCH  31  33
ENDBRANCH  29  31
ENDBRANCH  27  29
ENDBRANCH  26  27
ENDBRANCH  24  26
ENDBRANCH   1  24
TORSDOF 7
ENDMDL
MODEL 3
REMARK minimizedAffinity -7.31754923
REMARK CNNscore 0.551573038
REMARK CNNaffinity 7.22595215
REMARK  7 active torsions:
REMARK  status: ('A' for Active; 'I' for Inactive)
REMARK    1  A    between atoms: C2_2  and  C3_3 
REMARK    2  A    between atoms: C2_2  and  C4_6 
REMARK    3  A    between atoms: C3_3  and  O2_5 
REMARK    4  A    between atoms: C4_6  and  C6_8 
REMARK    5  A    between atoms: C6_8  and  C7_10 
REMARK    6  A    between atoms: C7_10  and  C8_11 
REMARK    7  A    between atoms: C8_11  and  C10_13 
ROOT
HETATM    1  C10 UNL     1      -1.742  52.719 -10.180  1.00  0.00    -0.001 C 
HETATM    2  C11 UNL     1      -1.247  51.243 -10.165  1.00  0.00     0.007 C 
HETATM    3  C12 UNL     1       0.253  51.262  -9.814  1.00  0.00     0.015 C 
HETATM    4  C13 UNL     1       0.520  52.686  -9.297  1.00  0.00    -0.013 C 
HETATM    5  C14 UNL     1       0.109  52.710  -7.791  1.00  0.00     0.021 C 
HETATM    6  C15 UNL     1       1.944  53.229  -9.329  1.00  0.00    -0.068 C 
HETATM    7  C16 UNL     1       2.153  54.571  -9.422  1.00  0.00    -0.068 C 
HETATM    8  C17 UNL     1       0.990  55.548  -9.583  1.00  0.00     0.036 C 
HETATM    9  C18 UNL     1      -0.433  54.962  -9.729  1.00  0.00     0.015 C 
HETATM   10  C19 UNL     1      -0.407  53.523 -10.259  1.00  0.00    -0.029 C 
HETATM   11  C20 UNL     1       0.096  53.549 -11.736  1.00  0.00     0.016 C 
HETATM   12  C21 UNL     1       3.595  55.137  -9.464  1.00  0.00    -0.015 C 
HETATM   13  C22 UNL     1       3.981  55.096 -10.968  1.00  0.00     0.020 C 
HETATM   14  C23 UNL     1       3.757  56.617  -8.997  1.00  0.00     0.021 C 
HETATM   15  C24 UNL     1       4.203  56.752  -7.550  1.00  0.00     0.080 C 
HETATM   16  C25 UNL     1       5.584  56.146  -7.405  1.00  0.00     0.135 C 
HETATM   17  O4  UNL     1       6.458  56.730  -6.761  1.00  0.00    -0.297 OA
HETATM   18  C26 UNL     1       5.839  54.786  -8.079  1.00  0.00     0.018 C 
HETATM   19  C27 UNL     1       6.851  54.995  -9.211  1.00  0.00     0.023 C 
HETATM   20  C28 UNL     1       6.484  53.870  -7.016  1.00  0.00     0.023 C 
HETATM   21  C29 UNL     1       4.463  54.204  -8.535  1.00  0.00     0.013 C 
HETATM   22  C30 UNL     1       4.487  52.778  -9.099  1.00  0.00     0.011 C 
HETATM   23  C31 UNL     1       3.062  52.213  -9.197  1.00  0.00     0.036 C 
ENDROOT
BRANCH   1  24
HETATM   24  C8  UNL     1      -2.851  52.961 -11.244  1.00  0.00    -0.007 C 
HETATM   25  C9  UNL     1      -4.065  53.714 -10.692  1.00  0.00     0.011 C 
BRANCH  24  26
HETATM   26  C7  UNL     1      -3.312  51.670 -11.964  1.00  0.00     0.083 C 
BRANCH  26  27
HETATM   27  C6  UNL     1      -3.263  51.674 -13.490  1.00  0.00     0.135 C 
HETATM   28  O3  UNL     1      -3.662  52.626 -14.162  1.00  0.00    -0.297 OA
BRANCH  27  29
HETATM   29  C4  UNL     1      -2.735  50.400 -14.160  1.00  0.00     0.090 C 
HETATM   30  C5  UNL     1      -2.552  49.302 -13.107  1.00  0.00     0.023 C 
BRANCH  29  31
HETATM   31  C2  UNL     1      -1.484  50.750 -14.943  1.00  0.00     0.017 C 
HETATM   32  C1  UNL     1      -0.279  51.002 -14.397  1.00  0.00     0.026 C 
BRANCH  31  33
HETATM   33  C3  UNL     1      -1.657  50.780 -16.418  1.00  0.00     0.172 C 
HETATM   34  O1  UNL     1      -0.793  50.491 -17.227  1.00  0.00    -0.646 OA
BRANCH  33  35
HETATM   35  O2  UNL     1      -2.878  51.169 -16.822  1.00  0.00    -0.773 OA
HETATM   36  H3  UNL     1      -2.828  51.140 -17.800  1.00  0.00     0.167 HD
ENDBRANCH  33  35
ENDBRANCH  31  33
ENDBRANCH  29  31
ENDBRANCH  27  29
ENDBRANCH  26  27
ENDBRANCH  24  26
ENDBRANCH   1  24
TORSDOF 7
ENDMDL
MODEL 4
REMARK minimizedAffinity -7.28761721
REMARK CNNscore 0.455269128
REMARK CNNaffinity 5.91066408
REMARK  7 active torsions:
REMARK  status: ('A' for Active; 'I' for Inactive)
REMARK    1  A    between atoms: C2_2  and  C3_3 
REMARK    2  A    between atoms: C2_2  and  C4_6 
REMARK    3  A    between atoms: C3_3  and  O2_5 
REMARK    4  A    between atoms: C4_6  and  C6_8 
REMARK    5  A    between atoms: C6_8  and  C7_10 
REMARK    6  A    between atoms: C7_10  and  C8_11 
REMARK    7  A    between atoms: C8_11  and  C10_13 
ROOT
HETATM    1  C10 UNL     1     -13.716  45.814 -25.681  1.00  0.00    -0.001 C 
HETATM    2  C11 UNL     1     -13.481  44.276 -25.712  1.00  0.00     0.007 C 
HETATM    3  C12 UNL     1     -12.382  43.997 -26.755  1.00  0.00     0.015 C 
HETATM    4  C13 UNL     1     -11.764  45.373 -27.055  1.00  0.00    -0.013 C 
HETATM    5  C14 UNL     1     -10.709  45.653 -25.937  1.00  0.00     0.021 C 
HETATM    6  C15 UNL     1     -11.015  45.576 -28.367  1.00  0.00    -0.068 C 
HETATM    7  C16 UNL     1     -10.944  46.819 -28.918  1.00  0.00    -0.068 C 
HETATM    8  C17 UNL     1     -11.673  48.008 -28.296  1.00  0.00     0.036 C 
HETATM    9  C18 UNL     1     -12.573  47.743 -27.068  1.00  0.00     0.015 C 
HETATM   10  C19 UNL     1     -13.048  46.286 -27.010  1.00  0.00    -0.029 C 
HETATM   11  C20 UNL     1     -14.027  46.036 -28.200  1.00  0.00     0.016 C 
HETATM   12  C21 UNL     1     -10.194  47.039 -30.256  1.00  0.00    -0.015 C 
HETATM   13  C22 UNL     1     -11.259  46.749 -31.348  1.00  0.00     0.020 C 
HETATM   14  C23 UNL     1      -9.671  48.487 -30.510  1.00  0.00     0.021 C 
HETATM   15  C24 UNL     1      -8.207  48.677 -30.150  1.00  0.00     0.080 C 
HETATM   16  C25 UNL     1      -7.363  47.797 -31.049  1.00  0.00     0.135 C 
HETATM   17  O4  UNL     1      -6.336  48.237 -31.569  1.00  0.00    -0.297 OA
HETATM   18  C26 UNL     1      -7.835  46.348 -31.273  1.00  0.00     0.018 C 
HETATM   19  C27 UNL     1      -8.245  46.200 -32.743  1.00  0.00     0.023 C 
HETATM   20  C28 UNL     1      -6.617  45.433 -31.016  1.00  0.00     0.023 C 
HETATM   21  C29 UNL     1      -8.971  46.043 -30.246  1.00  0.00     0.013 C 
HETATM   22  C30 UNL     1      -9.475  44.595 -30.208  1.00  0.00     0.011 C 
HETATM   23  C31 UNL     1     -10.334  44.356 -28.958  1.00  0.00     0.036 C 
ENDROOT
BRANCH   1  24
HETATM   24  C8  UNL     1     -15.201  46.180 -25.394  1.00  0.00    -0.007 C 
HETATM   25  C9  UNL     1     -15.358  47.375 -24.447  1.00  0.00     0.011 C 
BRANCH  24  26
HETATM   26  C7  UNL     1     -16.047  44.987 -24.884  1.00  0.00     0.083 C 
BRANCH  26  27
HETATM   27  C6  UNL     1     -17.324  44.665 -25.656  1.00  0.00     0.135 C 
HETATM   28  O3  UNL     1     -17.425  44.842 -26.870  1.00  0.00    -0.297 OA
BRANCH  27  29
HETATM   29  C4  UNL     1     -18.509  44.150 -24.831  1.00  0.00     0.090 C 
HETATM   30  C5  UNL     1     -19.546  43.509 -25.761  1.00  0.00     0.023 C 
BRANCH  29  31
HETATM   31  C2  UNL     1     -19.033  45.290 -23.978  1.00  0.00     0.017 C 
HETATM   32  C1  UNL     1     -18.984  45.332 -22.633  1.00  0.00     0.026 C 
BRANCH  31  33
HETATM   33  C3  UNL     1     -19.612  46.426 -24.741  1.00  0.00     0.172 C 
HETATM   34  O1  UNL     1     -20.705  46.417 -25.281  1.00  0.00    -0.646 OA
BRANCH  33  35
HETATM   35  O2  UNL     1     -18.819  47.508 -24.805  1.00  0.00    -0.773 OA
HETATM   36  H3  UNL     1     -19.334  48.152 -25.335  1.00  0.00     0.167 HD
ENDBRANCH  33  35
ENDBRANCH  31  33
ENDBRANCH  29  31
ENDBRANCH  27  29
ENDBRANCH  26  27
ENDBRANCH  24  26
ENDBRANCH   1  24
TORSDOF 7
ENDMDL
MODEL 5
REMARK minimizedAffinity -7.88057518
REMARK CNNscore 0.396475762
REMARK CNNaffinity 6.6971612
REMARK  7 active torsions:
REMARK  status: ('A' for Active; 'I' for Inactive)
REMARK    1  A    between atoms: C2_2  and  C3_3 
REMARK    2  A    between atoms: C2_2  and  C4_6 
REMARK    3  A    between atoms: C3_3  and  O2_5 
REMARK    4  A    between atoms: C4_6  and  C6_8 
REMARK    5  A    between atoms: C6_8  and  C7_10 
REMARK    6  A    between atoms: C7_10  and  C8_11 
REMARK    7  A    between atoms: C8_11  and  C10_13 
ROOT
HETATM    1  C10 UNL     1      -5.682  49.253 -24.065  1.00  0.00    -0.001 C 
HETATM    2  C11 UNL     1      -6.591  49.471 -22.820  1.00  0.00     0.007 C 
HETATM    3  C12 UNL     1      -5.742  50.178 -21.746  1.00  0.00     0.015 C 
HETATM    4  C13 UNL     1      -4.487  50.664 -22.491  1.00  0.00    -0.013 C 
HETATM    5  C14 UNL     1      -4.856  52.020 -23.172  1.00  0.00     0.021 C 
HETATM    6  C15 UNL     1      -3.220  50.952 -21.694  1.00  0.00    -0.068 C 
HETATM    7  C16 UNL     1      -2.004  50.839 -22.295  1.00  0.00    -0.068 C 
HETATM    8  C17 UNL     1      -1.870  50.343 -23.734  1.00  0.00     0.036 C 
HETATM    9  C18 UNL     1      -3.154  49.885 -24.464  1.00  0.00     0.015 C 
HETATM   10  C19 UNL     1      -4.250  49.459 -23.479  1.00  0.00    -0.029 C 
HETATM   11  C20 UNL     1      -3.790  48.151 -22.762  1.00  0.00     0.016 C 
HETATM   12  C21 UNL     1      -0.707  51.120 -21.496  1.00  0.00    -0.015 C 
HETATM   13  C22 UNL     1      -0.366  49.761 -20.824  1.00  0.00     0.020 C 
HETATM   14  C23 UNL     1       0.538  51.529 -22.343  1.00  0.00     0.021 C 
HETATM   15  C24 UNL     1       0.761  53.031 -22.409  1.00  0.00     0.080 C 
HETATM   16  C25 UNL     1       1.055  53.544 -21.015  1.00  0.00     0.135 C 
HETATM   17  O4  UNL     1       1.970  54.350 -20.825  1.00  0.00    -0.297 OA
HETATM   18  C26 UNL     1       0.170  53.030 -19.865  1.00  0.00     0.018 C 
HETATM   19  C27 UNL     1       1.039  52.171 -18.939  1.00  0.00     0.023 C 
HETATM   20  C28 UNL     1      -0.304  54.268 -19.073  1.00  0.00     0.023 C 
HETATM   21  C29 UNL     1      -1.052  52.284 -20.489  1.00  0.00     0.013 C 
HETATM   22  C30 UNL     1      -2.135  51.823 -19.506  1.00  0.00     0.011 C 
HETATM   23  C31 UNL     1      -3.408  51.411 -20.260  1.00  0.00     0.036 C 
ENDROOT
BRANCH   1  24
HETATM   24  C8  UNL     1      -6.022  47.938 -24.823  1.00  0.00    -0.007 C 
HETATM   25  C9  UNL     1      -5.727  48.011 -26.325  1.00  0.00     0.011 C 
BRANCH  24  26
HETATM   26  C7  UNL     1      -7.472  47.446 -24.593  1.00  0.00     0.083 C 
BRANCH  26  27
HETATM   27  C6  UNL     1      -8.539  47.965 -25.554  1.00  0.00     0.135 C 
HETATM   28  O3  UNL     1      -9.257  48.929 -25.287  1.00  0.00    -0.297 OA
BRANCH  27  29
HETATM   29  C4  UNL     1      -8.714  47.187 -26.864  1.00  0.00     0.090 C 
HETATM   30  C5  UNL     1      -9.695  47.931 -27.778  1.00  0.00     0.023 C 
BRANCH  29  31
HETATM   31  C2  UNL     1      -9.108  45.761 -26.529  1.00  0.00     0.017 C 
HETATM   32  C1  UNL     1      -8.301  44.690 -26.651  1.00  0.00     0.026 C 
BRANCH  31  33
HETATM   33  C3  UNL     1     -10.491  45.600 -26.010  1.00  0.00     0.172 C 
HETATM   34  O1  UNL     1     -10.837  45.833 -24.865  1.00  0.00    -0.646 OA
BRANCH  33  35
HETATM   35  O2  UNL     1     -11.373  45.157 -26.921  1.00  0.00    -0.773 OA
HETATM   36  H3  UNL     1     -12.219  45.101 -26.430  1.00  0.00     0.167 HD
ENDBRANCH  33  35
ENDBRANCH  31  33
ENDBRANCH  29  31
ENDBRANCH  27  29
ENDBRANCH  26  27
ENDBRANCH  24  26
ENDBRANCH   1  24
TORSDOF 7
ENDMDL
MODEL 6
REMARK minimizedAffinity -7.17272997
REMARK CNNscore 0.355341375
REMARK CNNaffinity 6.37512398
REMARK  7 active torsions:
REMARK  status: ('A' for Active; 'I' for Inactive)
REMARK    1  A    between atoms: C2_2  and  C3_3 
REMARK    2  A    between atoms: C2_2  and  C4_6 
REMARK    3  A    between atoms: C3_3  and  O2_5 
REMARK    4  A    between atoms: C4_6  and  C6_8 
REMARK    5  A    between atoms: C6_8  and  C7_10 
REMARK    6  A    between atoms: C7_10  and  C8_11 
REMARK    7  A    between atoms: C8_11  and  C10_13 
ROOT
HETATM    1  C10 UNL     1      -8.759  46.129 -33.961  1.00  0.00    -0.001 C 
HETATM    2  C11 UNL     1      -8.359  47.633 -33.995  1.00  0.00     0.007 C 
HETATM    3  C12 UNL     1      -8.239  48.112 -32.536  1.00  0.00     0.015 C 
HETATM    4  C13 UNL     1      -8.226  46.823 -31.697  1.00  0.00    -0.013 C 
HETATM    5  C14 UNL     1      -6.759  46.289 -31.701  1.00  0.00     0.021 C 
HETATM    6  C15 UNL     1      -8.618  46.896 -30.225  1.00  0.00    -0.068 C 
HETATM    7  C16 UNL     1      -9.146  45.801 -29.612  1.00  0.00    -0.068 C 
HETATM    8  C17 UNL     1      -9.439  44.518 -30.388  1.00  0.00     0.036 C 
HETATM    9  C18 UNL     1      -9.202  44.527 -31.916  1.00  0.00     0.015 C 
HETATM   10  C19 UNL     1      -9.263  45.945 -32.496  1.00  0.00    -0.029 C 
HETATM   11  C20 UNL     1     -10.731  46.464 -32.384  1.00  0.00     0.016 C 
HETATM   12  C21 UNL     1      -9.557  45.862 -28.119  1.00  0.00    -0.015 C 
HETATM   13  C22 UNL     1     -11.013  46.401 -28.142  1.00  0.00     0.020 C 
HETATM   14  C23 UNL     1      -9.594  44.494 -27.369  1.00  0.00     0.021 C 
HETATM   15  C24 UNL     1      -8.334  44.205 -26.570  1.00  0.00     0.080 C 
HETATM   16  C25 UNL     1      -8.199  45.244 -25.475  1.00  0.00     0.135 C 
HETATM   17  O4  UNL     1      -7.891  44.909 -24.329  1.00  0.00    -0.297 OA
HETATM   18  C26 UNL     1      -8.451  46.715 -25.855  1.00  0.00     0.018 C 
HETATM   19  C27 UNL     1      -9.719  47.185 -25.134  1.00  0.00     0.023 C 
HETATM   20  C28 UNL     1      -7.256  47.530 -25.314  1.00  0.00     0.023 C 
HETATM   21  C29 UNL     1      -8.514  46.811 -27.413  1.00  0.00     0.013 C 
HETATM   22  C30 UNL     1      -8.610  48.225 -27.999  1.00  0.00     0.011 C 
HETATM   23  C31 UNL     1      -8.333  48.202 -29.509  1.00  0.00     0.036 C 
ENDROOT
BRANCH   1  24
HETATM   24  C8  UNL     1      -9.683  45.736 -35.149  1.00  0.00    -0.007 C 
HETATM   25  C9  UNL     1      -9.532  44.273 -35.576  1.00  0.00     0.011 C 
BRANCH  24  26
HETATM   26  C7  UNL     1      -9.540  46.664 -36.381  1.00  0.00     0.083 C 
BRANCH  26  27
HETATM   27  C6  UNL     1     -10.824  47.044 -37.114  1.00  0.00     0.135 C 
HETATM   28  O3  UNL     1     -11.918  46.557 -36.828  1.00  0.00    -0.297 OA
BRANCH  27  29
HETATM   29  C4  UNL     1     -10.680  48.038 -38.273  1.00  0.00     0.090 C 
HETATM   30  C5  UNL     1     -10.090  49.354 -37.754  1.00  0.00     0.023 C 
BRANCH  29  31
HETATM   31  C2  UNL     1     -12.023  48.168 -38.966  1.00  0.00     0.017 C 
HETATM   32  C1  UNL     1     -12.457  47.370 -39.960  1.00  0.00     0.026 C 
BRANCH  31  33
HETATM   33  C3  UNL     1     -12.889  49.260 -38.450  1.00  0.00     0.172 C 
HETATM   34  O1  UNL     1     -13.083  50.321 -39.018  1.00  0.00    -0.646 OA
BRANCH  33  35
HETATM   35  O2  UNL     1     -13.464  48.995 -37.266  1.00  0.00    -0.773 OA
HETATM   36  H3  UNL     1     -13.987  49.800 -37.067  1.00  0.00     0.167 HD
ENDBRANCH  33  35
ENDBRANCH  31  33
ENDBRANCH  29  31
ENDBRANCH  27  29
ENDBRANCH  26  27
ENDBRANCH  24  26
ENDBRANCH   1  24
TORSDOF 7
ENDMDL
MODEL 7
REMARK minimizedAffinity -8.73814774
REMARK CNNscore 0.282455355
REMARK CNNaffinity 6.46007919
REMARK  7 active torsions:
REMARK  status: ('A' for Active; 'I' for Inactive)
REMARK    1  A    between atoms: C2_2  and  C3_3 
REMARK    2  A    between atoms: C2_2  and  C4_6 
REMARK    3  A    between atoms: C3_3  and  O2_5 
REMARK    4  A    between atoms: C4_6  and  C6_8 
REMARK    5  A    between atoms: C6_8  and  C7_10 
REMARK    6  A    between atoms: C7_10  and  C8_11 
REMARK    7  A    between atoms: C8_11  and  C10_13 
ROOT
HETATM    1  C10 UNL     1      -0.927  50.762 -22.045  1.00  0.00    -0.001 C 
HETATM    2  C11 UNL     1      -0.178  50.855 -20.683  1.00  0.00     0.007 C 
HETATM    3  C12 UNL     1      -0.825  49.834 -19.728  1.00  0.00     0.015 C 
HETATM    4  C13 UNL     1      -1.688  48.939 -20.633  1.00  0.00    -0.013 C 
HETATM    5  C14 UNL     1      -0.741  47.854 -21.239  1.00  0.00     0.021 C 
HETATM    6  C15 UNL     1      -2.842  48.158 -20.015  1.00  0.00    -0.068 C 
HETATM    7  C16 UNL     1      -3.917  47.824 -20.780  1.00  0.00    -0.068 C 
HETATM    8  C17 UNL     1      -4.038  48.290 -22.230  1.00  0.00     0.036 C 
HETATM    9  C18 UNL     1      -2.943  49.232 -22.781  1.00  0.00     0.015 C 
HETATM   10  C19 UNL     1      -2.235  50.002 -21.660  1.00  0.00    -0.029 C 
HETATM   11  C20 UNL     1      -3.251  51.006 -21.030  1.00  0.00     0.016 C 
HETATM   12  C21 UNL     1      -5.102  47.037 -20.164  1.00  0.00    -0.015 C 
HETATM   13  C22 UNL     1      -6.022  48.135 -19.564  1.00  0.00     0.020 C 
HETATM   14  C23 UNL     1      -5.971  46.221 -21.170  1.00  0.00     0.021 C 
HETATM   15  C24 UNL     1      -5.591  44.751 -21.247  1.00  0.00     0.080 C 
HETATM   16  C25 UNL     1      -5.849  44.107 -19.901  1.00  0.00     0.135 C 
HETATM   17  O4  UNL     1      -6.402  43.007 -19.829  1.00  0.00    -0.297 OA
HETATM   18  C26 UNL     1      -5.389  44.872 -18.646  1.00  0.00     0.018 C 
HETATM   19  C27 UNL     1      -6.635  45.297 -17.860  1.00  0.00     0.023 C 
HETATM   20  C28 UNL     1      -4.587  43.875 -17.780  1.00  0.00     0.023 C 
HETATM   21  C29 UNL     1      -4.474  46.052 -19.104  1.00  0.00     0.013 C 
HETATM   22  C30 UNL     1      -3.790  46.850 -17.987  1.00  0.00     0.011 C 
HETATM   23  C31 UNL     1      -2.685  47.746 -18.564  1.00  0.00     0.036 C 
ENDROOT
BRANCH   1  24
HETATM   24  C8  UNL     1      -1.018  52.137 -22.765  1.00  0.00    -0.007 C 
HETATM   25  C9  UNL     1      -2.211  52.242 -23.721  1.00  0.00     0.011 C 
BRANCH  24  26
HETATM   26  C7  UNL     1       0.284  52.542 -23.499  1.00  0.00     0.083 C 
BRANCH  26  27
HETATM   27  C6  UNL     1       0.148  52.993 -24.951  1.00  0.00     0.135 C 
HETATM   28  O3  UNL     1      -0.098  54.158 -25.262  1.00  0.00    -0.297 OA
BRANCH  27  29
HETATM   29  C4  UNL     1       0.282  51.901 -26.020  1.00  0.00     0.090 C 
HETATM   30  C5  UNL     1       1.749  51.473 -26.138  1.00  0.00     0.023 C 
BRANCH  29  31
HETATM   31  C2  UNL     1      -0.341  52.408 -27.307  1.00  0.00     0.017 C 
HETATM   32  C1  UNL     1       0.339  52.981 -28.319  1.00  0.00     0.026 C 
BRANCH  31  33
HETATM   33  C3  UNL     1      -1.810  52.211 -27.410  1.00  0.00     0.172 C 
HETATM   34  O1  UNL     1      -2.649  53.010 -27.033  1.00  0.00    -0.646 OA
BRANCH  33  35
HETATM   35  O2  UNL     1      -2.171  51.042 -27.965  1.00  0.00    -0.773 OA
HETATM   36  H3  UNL     1      -3.151  51.064 -27.956  1.00  0.00     0.167 HD
ENDBRANCH  33  35
ENDBRANCH  31  33
ENDBRANCH  29  31
ENDBRANCH  27  29
ENDBRANCH  26  27
ENDBRANCH  24  26
ENDBRANCH   1  24
TORSDOF 7
ENDMDL
MODEL 8
REMARK minimizedAffinity -7.29290581
REMARK CNNscore 0.253135622
REMARK CNNaffinity 5.45800161
REMARK  7 active torsions:
REMARK  status: ('A' for Active; 'I' for Inactive)
REMARK    1  A    between atoms: C2_2  and  C3_3 
REMARK    2  A    between atoms: C2_2  and  C4_6 
REMARK    3  A    between atoms: C3_3  and  O2_5 
REMARK    4  A    between atoms: C4_6  and  C6_8 
REMARK    5  A    between atoms: C6_8  and  C7_10 
REMARK    6  A    between atoms: C7_10  and  C8_11 
REMARK    7  A    between atoms: C8_11  and  C10_13 
ROOT
HETATM    1  C10 UNL     1     -11.731  46.900 -25.521  1.00  0.00    -0.001 C 
HETATM    2  C11 UNL     1     -10.543  46.447 -24.622  1.00  0.00     0.007 C 
HETATM    3  C12 UNL     1      -9.324  46.237 -25.539  1.00  0.00     0.015 C 
HETATM    4  C13 UNL     1      -9.715  46.892 -26.874  1.00  0.00    -0.013 C 
HETATM    5  C14 UNL     1      -9.419  48.420 -26.738  1.00  0.00     0.021 C 
HETATM    6  C15 UNL     1      -8.997  46.461 -28.147  1.00  0.00    -0.068 C 
HETATM    7  C16 UNL     1      -9.630  46.565 -29.348  1.00  0.00    -0.068 C 
HETATM    8  C17 UNL     1     -11.084  47.024 -29.444  1.00  0.00     0.036 C 
HETATM    9  C18 UNL     1     -11.849  47.284 -28.126  1.00  0.00     0.015 C 
HETATM   10  C19 UNL     1     -11.242  46.508 -26.950  1.00  0.00    -0.029 C 
HETATM   11  C20 UNL     1     -11.486  44.985 -27.183  1.00  0.00     0.016 C 
HETATM   12  C21 UNL     1      -8.916  46.123 -30.650  1.00  0.00    -0.015 C 
HETATM   13  C22 UNL     1      -9.219  44.603 -30.759  1.00  0.00     0.020 C 
HETATM   14  C23 UNL     1      -9.435  46.781 -31.966  1.00  0.00     0.021 C 
HETATM   15  C24 UNL     1      -8.603  47.970 -32.420  1.00  0.00     0.080 C 
HETATM   16  C25 UNL     1      -7.205  47.492 -32.751  1.00  0.00     0.135 C 
HETATM   17  O4  UNL     1      -6.636  47.882 -33.773  1.00  0.00    -0.297 OA
HETATM   18  C26 UNL     1      -6.533  46.518 -31.764  1.00  0.00     0.018 C 
HETATM   19  C27 UNL     1      -6.371  45.164 -32.464  1.00  0.00     0.023 C 
HETATM   20  C28 UNL     1      -5.126  47.080 -31.465  1.00  0.00     0.023 C 
HETATM   21  C29 UNL     1      -7.391  46.479 -30.460  1.00  0.00     0.013 C 
HETATM   22  C30 UNL     1      -6.807  45.676 -29.291  1.00  0.00     0.011 C 
HETATM   23  C31 UNL     1      -7.565  45.984 -27.993  1.00  0.00     0.036 C 
ENDROOT
BRANCH   1  24
HETATM   24  C8  UNL     1     -13.099  46.371 -25.003  1.00  0.00    -0.007 C 
HETATM   25  C9  UNL     1     -13.120  44.854 -24.788  1.00  0.00     0.011 C 
BRANCH  24  26
HETATM   26  C7  UNL     1     -14.302  46.796 -25.882  1.00  0.00     0.083 C 
BRANCH  26  27
HETATM   27  C6  UNL     1     -15.677  46.277 -25.469  1.00  0.00     0.135 C 
HETATM   28  O3  UNL     1     -16.229  45.339 -26.044  1.00  0.00    -0.297 OA
BRANCH  27  29
HETATM   29  C4  UNL     1     -16.372  47.022 -24.323  1.00  0.00     0.090 C 
HETATM   30  C5  UNL     1     -15.335  47.435 -23.272  1.00  0.00     0.023 C 
BRANCH  29  31
HETATM   31  C2  UNL     1     -17.503  46.156 -23.801  1.00  0.00     0.017 C 
HETATM   32  C1  UNL     1     -17.345  45.089 -22.995  1.00  0.00     0.026 C 
BRANCH  31  33
HETATM   33  C3  UNL     1     -18.862  46.578 -24.226  1.00  0.00     0.172 C 
HETATM   34  O1  UNL     1     -19.111  47.591 -24.856  1.00  0.00    -0.646 OA
BRANCH  33  35
HETATM   35  O2  UNL     1     -19.843  45.741 -23.849  1.00  0.00    -0.773 OA
HETATM   36  H3  UNL     1     -20.660  46.156 -24.196  1.00  0.00     0.167 HD
ENDBRANCH  33  35
ENDBRANCH  31  33
ENDBRANCH  29  31
ENDBRANCH  27  29
ENDBRANCH  26  27
ENDBRANCH  24  26
ENDBRANCH   1  24
TORSDOF 7
ENDMDL
MODEL 9
REMARK minimizedAffinity -7.88383245
REMARK CNNscore 0.234586656
REMARK CNNaffinity 6.12212515
REMARK  7 active torsions:
REMARK  status: ('A' for Active; 'I' for Inactive)
REMARK    1  A    between atoms: C2_2  and  C3_3 
REMARK    2  A    between atoms: C2_2  and  C4_6 
REMARK    3  A    between atoms: C3_3  and  O2_5 
REMARK    4  A    between atoms: C4_6  and  C6_8 
REMARK    5  A    between atoms: C6_8  and  C7_10 
REMARK    6  A    between atoms: C7_10  and  C8_11 
REMARK    7  A    between atoms: C8_11  and  C10_13 
ROOT
HETATM    1  C10 UNL     1      -3.500  48.774 -23.972  1.00  0.00    -0.001 C 
HETATM    2  C11 UNL     1      -2.616  49.606 -22.998  1.00  0.00     0.007 C 
HETATM    3  C12 UNL     1      -3.214  49.454 -21.587  1.00  0.00     0.015 C 
HETATM    4  C13 UNL     1      -4.204  48.283 -21.701  1.00  0.00    -0.013 C 
HETATM    5  C14 UNL     1      -3.375  46.968 -21.552  1.00  0.00     0.021 C 
HETATM    6  C15 UNL     1      -5.327  48.163 -20.678  1.00  0.00    -0.068 C 
HETATM    7  C16 UNL     1      -6.488  47.539 -21.019  1.00  0.00    -0.068 C 
HETATM    8  C17 UNL     1      -6.729  47.029 -22.439  1.00  0.00     0.036 C 
HETATM    9  C18 UNL     1      -5.650  47.323 -23.506  1.00  0.00     0.015 C 
HETATM   10  C19 UNL     1      -4.798  48.543 -23.138  1.00  0.00    -0.029 C 
HETATM   11  C20 UNL     1      -5.697  49.816 -23.215  1.00  0.00     0.016 C 
HETATM   12  C21 UNL     1      -7.642  47.417 -19.992  1.00  0.00    -0.015 C 
HETATM   13  C22 UNL     1      -8.444  48.736 -20.155  1.00  0.00     0.020 C 
HETATM   14  C23 UNL     1      -8.645  46.246 -20.234  1.00  0.00     0.021 C 
HETATM   15  C24 UNL     1      -8.345  45.008 -19.405  1.00  0.00     0.080 C 
HETATM   16  C25 UNL     1      -8.499  45.353 -17.938  1.00  0.00     0.135 C 
HETATM   17  O4  UNL     1      -9.094  44.588 -17.175  1.00  0.00    -0.297 OA
HETATM   18  C26 UNL     1      -7.880  46.676 -17.449  1.00  0.00     0.018 C 
HETATM   19  C27 UNL     1      -9.020  47.613 -17.034  1.00  0.00     0.023 C 
HETATM   20  C28 UNL     1      -7.045  46.344 -16.192  1.00  0.00     0.023 C 
HETATM   21  C29 UNL     1      -6.960  47.230 -18.582  1.00  0.00     0.013 C 
HETATM   22  C30 UNL     1      -6.131  48.472 -18.232  1.00  0.00     0.011 C 
HETATM   23  C31 UNL     1      -5.047  48.713 -19.292  1.00  0.00     0.036 C 
ENDROOT
BRANCH   1  24
HETATM   24  C8  UNL     1      -3.596  49.421 -25.383  1.00  0.00    -0.007 C 
HETATM   25  C9  UNL     1      -3.132  48.492 -26.509  1.00  0.00     0.011 C 
BRANCH  24  26
HETATM   26  C7  UNL     1      -2.871  50.785 -25.491  1.00  0.00     0.083 C 
BRANCH  26  27
HETATM   27  C6  UNL     1      -1.938  50.980 -26.684  1.00  0.00     0.135 C 
HETATM   28  O3  UNL     1      -2.340  50.967 -27.848  1.00  0.00    -0.297 OA
BRANCH  27  29
HETATM   29  C4  UNL     1      -0.447  51.143 -26.364  1.00  0.00     0.090 C 
HETATM   30  C5  UNL     1      -0.274  51.508 -24.885  1.00  0.00     0.023 C 
BRANCH  29  31
HETATM   31  C2  UNL     1       0.149  52.138 -27.342  1.00  0.00     0.017 C 
HETATM   32  C1  UNL     1       1.014  51.826 -28.326  1.00  0.00     0.026 C 
BRANCH  31  33
HETATM   33  C3  UNL     1      -0.310  53.540 -27.166  1.00  0.00     0.172 C 
HETATM   34  O1  UNL     1       0.229  54.364 -26.448  1.00  0.00    -0.646 OA
BRANCH  33  35
HETATM   35  O2  UNL     1      -1.408  53.853 -27.874  1.00  0.00    -0.773 OA
HETATM   36  H3  UNL     1      -1.579  54.791 -27.648  1.00  0.00     0.167 HD
ENDBRANCH  33  35
ENDBRANCH  31  33
ENDBRANCH  29  31
ENDBRANCH  27  29
ENDBRANCH  26  27
ENDBRANCH  24  26
ENDBRANCH   1  24
TORSDOF 7
ENDMDL
