MODEL 1
REMARK minimizedAffinity -9.66879272
REMARK  5 active torsions:
REMARK  status: ('A' for Active; 'I' for Inactive)
REMARK    1  A    between atoms: C2_2  and  C4_4 
REMARK    2  A    between atoms: C10_10  and  C11_11 
REMARK    3  A    between atoms: C11_11  and  O2_13 
REMARK    4  A    between atoms: C20_22  and  C22_24 
REMARK    5  A    between atoms: C22_24  and  O3_25 
ROOT
HETATM    1  C4  UNL     1      -6.942   5.012  14.585  1.00  0.00     0.025 C 
HETATM    2  C5  UNL     1      -8.010   5.522  15.577  1.00  0.00     0.037 C 
HETATM    3  C6  UNL     1      -7.396   6.762  16.135  1.00  0.00    -0.023 C 
HETATM    4  C7  UNL     1      -6.344   7.166  15.414  1.00  0.00    -0.078 C 
HETATM    5  C8  UNL     1      -5.497   8.368  15.647  1.00  0.00     0.036 C 
HETATM    6  C9  UNL     1      -4.009   8.022  15.505  1.00  0.00     0.026 C 
HETATM    7  C10 UNL     1      -3.663   7.264  14.173  1.00  0.00     0.057 C 
HETATM    8  C12 UNL     1      -4.535   5.946  14.163  1.00  0.00     0.014 C 
HETATM    9  C13 UNL     1      -4.207   4.971  13.017  1.00  0.00     0.007 C 
HETATM   10  C14 UNL     1      -2.714   4.702  12.843  1.00  0.00     0.007 C 
HETATM   11  C15 UNL     1      -1.890   5.996  12.770  1.00  0.00     0.007 C 
HETATM   12  C16 UNL     1      -0.396   5.783  12.358  1.00  0.00    -0.018 C 
HETATM   13  C17 UNL     1       0.385   4.818  13.281  1.00  0.00     0.020 C 
HETATM   14  C18 UNL     1      -0.127   5.301  10.944  1.00  0.00    -0.020 C 
HETATM   15  C19 UNL     1       0.905   5.961  10.384  1.00  0.00    -0.018 C 
HETATM   16  C20 UNL     1       1.425   7.093  11.258  1.00  0.00    -0.001 C 
HETATM   17  C21 UNL     1       1.582   8.373  10.418  1.00  0.00     0.022 C 
HETATM   18  C23 UNL     1       0.198   7.209  12.192  1.00  0.00     0.012 C 
HETATM   19  C24 UNL     1       0.257   7.971  13.505  1.00  0.00     0.007 C 
HETATM   20  C25 UNL     1      -1.192   8.190  13.994  1.00  0.00     0.011 C 
HETATM   21  C26 UNL     1      -2.092   6.900  14.065  1.00  0.00    -0.021 C 
HETATM   22  C27 UNL     1      -1.640   6.156  15.359  1.00  0.00     0.017 C 
HETATM   23  C28 UNL     1      -6.056   6.251  14.254  1.00  0.00     0.028 C 
ENDROOT
BRANCH   7  24
HETATM   24  C11 UNL     1      -4.053   8.247  13.041  1.00  0.00     0.149 C 
HETATM   25  O1  UNL     1      -5.185   8.462  12.634  1.00  0.00    -0.649 OA
BRANCH  24  26
HETATM   26  O2  UNL     1      -3.038   8.931  12.490  1.00  0.00    -0.776 OA
HETATM   27  H14 UNL     1      -3.474   9.500  11.821  1.00  0.00     0.167 HD
ENDBRANCH  24  26
ENDBRANCH   7  24
BRANCH   1  28
HETATM   28  C2  UNL     1      -7.556   4.283  13.397  1.00  0.00    -0.088 C 
HETATM   29  C1  UNL     1      -7.421   2.952  13.257  1.00  0.00     0.014 C 
HETATM   30  C3  UNL     1      -8.335   5.080  12.385  1.00  0.00     0.043 C 
ENDBRANCH   1  28
BRANCH  16  31
HETATM   31  C22 UNL     1       2.749   6.754  11.972  1.00  0.00     0.177 C 
BRANCH  31  32
HETATM   32  O3  UNL     1       3.553   5.844  11.223  1.00  0.00    -0.400 OA
HETATM   33  H31 UNL     1       3.927   6.328  10.469  1.00  0.00     0.209 HD
ENDBRANCH  31  32
ENDBRANCH  16  31
TORSDOF 5
ENDMDL
MODEL 2
REMARK minimizedAffinity -8.92594719
REMARK  5 active torsions:
REMARK  status: ('A' for Active; 'I' for Inactive)
REMARK    1  A    between atoms: C2_2  and  C4_4 
REMARK    2  A    between atoms: C10_10  and  C11_11 
REMARK    3  A    between atoms: C11_11  and  O2_13 
REMARK    4  A    between atoms: C20_22  and  C22_24 
REMARK    5  A    between atoms: C22_24  and  O3_25 
ROOT
HETATM    1  C4  UNL     1      -5.771   4.446  12.500  1.00  0.00     0.025 C 
HETATM    2  C5  UNL     1      -5.530   3.383  11.405  1.00  0.00     0.037 C 
HETATM    3  C6  UNL     1      -4.083   3.547  11.080  1.00  0.00    -0.023 C 
HETATM    4  C7  UNL     1      -3.446   4.282  11.997  1.00  0.00    -0.078 C 
HETATM    5  C8  UNL     1      -2.000   4.636  12.024  1.00  0.00     0.036 C 
HETATM    6  C9  UNL     1      -1.809   6.120  12.368  1.00  0.00     0.026 C 
HETATM    7  C10 UNL     1      -2.587   6.574  13.656  1.00  0.00     0.057 C 
HETATM    8  C12 UNL     1      -4.115   6.264  13.394  1.00  0.00     0.014 C 
HETATM    9  C13 UNL     1      -5.070   6.803  14.474  1.00  0.00     0.007 C 
HETATM   10  C14 UNL     1      -4.812   8.258  14.858  1.00  0.00     0.007 C 
HETATM   11  C15 UNL     1      -3.336   8.523  15.191  1.00  0.00     0.007 C 
HETATM   12  C16 UNL     1      -3.062   9.931  15.814  1.00  0.00    -0.018 C 
HETATM   13  C17 UNL     1      -3.532  11.115  14.937  1.00  0.00     0.020 C 
HETATM   14  C18 UNL     1      -3.625  10.201  17.197  1.00  0.00    -0.020 C 
HETATM   15  C19 UNL     1      -2.734  10.841  17.978  1.00  0.00    -0.018 C 
HETATM   16  C20 UNL     1      -1.372  10.993  17.318  1.00  0.00    -0.001 C 
HETATM   17  C21 UNL     1      -0.264  10.563  18.295  1.00  0.00     0.022 C 
HETATM   18  C23 UNL     1      -1.561   9.925  16.215  1.00  0.00     0.012 C 
HETATM   19  C24 UNL     1      -0.638   9.840  15.011  1.00  0.00     0.007 C 
HETATM   20  C25 UNL     1      -0.879   8.480  14.321  1.00  0.00     0.011 C 
HETATM   21  C26 UNL     1      -2.379   8.143  13.977  1.00  0.00    -0.021 C 
HETATM   22  C27 UNL     1      -2.706   8.983  12.705  1.00  0.00     0.017 C 
HETATM   23  C28 UNL     1      -4.363   4.760  13.091  1.00  0.00     0.028 C 
ENDROOT
BRANCH   7  24
HETATM   24  C11 UNL     1      -1.993   5.719  14.803  1.00  0.00     0.149 C 
HETATM   25  O1  UNL     1      -0.849   5.291  14.862  1.00  0.00    -0.649 OA
BRANCH  24  26
HETATM   26  O2  UNL     1      -2.822   5.460  15.825  1.00  0.00    -0.776 OA
HETATM   27  H14 UNL     1      -2.274   4.935  16.446  1.00  0.00     0.167 HD
ENDBRANCH  24  26
ENDBRANCH   7  24
BRANCH   1  28
HETATM   28  C2  UNL     1      -6.843   4.021  13.495  1.00  0.00    -0.088 C 
HETATM   29  C1  UNL     1      -7.438   2.819  13.399  1.00  0.00     0.014 C 
HETATM   30  C3  UNL     1      -7.213   4.969  14.605  1.00  0.00     0.043 C 
ENDBRANCH   1  28
BRANCH  16  31
HETATM   31  C22 UNL     1      -1.103  12.419  16.794  1.00  0.00     0.177 C 
BRANCH  31  32
HETATM   32  O3  UNL     1       0.252  12.821  16.990  1.00  0.00    -0.400 OA
HETATM   33  H31 UNL     1       0.801  12.337  16.351  1.00  0.00     0.209 HD
ENDBRANCH  31  32
ENDBRANCH  16  31
TORSDOF 5
ENDMDL
MODEL 3
REMARK minimizedAffinity -8.67409992
REMARK  5 active torsions:
REMARK  status: ('A' for Active; 'I' for Inactive)
REMARK    1  A    between atoms: C2_2  and  C4_4 
REMARK    2  A    between atoms: C10_10  and  C11_11 
REMARK    3  A    between atoms: C11_11  and  O2_13 
REMARK    4  A    between atoms: C20_22  and  C22_24 
REMARK    5  A    between atoms: C22_24  and  O3_25 
ROOT
HETATM    1  C4  UNL     1      -7.141   5.921  13.547  1.00  0.00     0.025 C 
HETATM    2  C5  UNL     1      -7.499   4.691  12.685  1.00  0.00     0.037 C 
HETATM    3  C6  UNL     1      -6.170   4.201  12.217  1.00  0.00    -0.023 C 
HETATM    4  C7  UNL     1      -5.165   4.753  12.904  1.00  0.00    -0.078 C 
HETATM    5  C8  UNL     1      -3.708   4.492  12.740  1.00  0.00     0.036 C 
HETATM    6  C9  UNL     1      -2.915   5.807  12.748  1.00  0.00     0.026 C 
HETATM    7  C10 UNL     1      -3.249   6.736  13.970  1.00  0.00     0.057 C 
HETATM    8  C12 UNL     1      -4.800   7.032  13.904  1.00  0.00     0.014 C 
HETATM    9  C13 UNL     1      -5.295   8.077  14.920  1.00  0.00     0.007 C 
HETATM   10  C14 UNL     1      -4.445   9.345  14.968  1.00  0.00     0.007 C 
HETATM   11  C15 UNL     1      -2.947   9.041  15.117  1.00  0.00     0.007 C 
HETATM   12  C16 UNL     1      -2.064  10.298  15.406  1.00  0.00    -0.018 C 
HETATM   13  C17 UNL     1      -2.179  11.414  14.341  1.00  0.00     0.020 C 
HETATM   14  C18 UNL     1      -2.256  10.991  16.743  1.00  0.00    -0.020 C 
HETATM   15  C19 UNL     1      -1.078  11.333  17.298  1.00  0.00    -0.018 C 
HETATM   16  C20 UNL     1       0.117  10.814  16.512  1.00  0.00    -0.001 C 
HETATM   17  C21 UNL     1       1.117  10.135  17.466  1.00  0.00     0.022 C 
HETATM   18  C23 UNL     1      -0.635   9.751  15.677  1.00  0.00     0.012 C 
HETATM   19  C24 UNL     1      -0.015   9.108  14.448  1.00  0.00     0.007 C 
HETATM   20  C25 UNL     1      -0.862   7.870  14.080  1.00  0.00     0.011 C 
HETATM   21  C26 UNL     1      -2.411   8.117  13.937  1.00  0.00    -0.021 C 
HETATM   22  C27 UNL     1      -2.590   8.801  12.548  1.00  0.00     0.017 C 
HETATM   23  C28 UNL     1      -5.646   5.730  13.944  1.00  0.00     0.028 C 
ENDROOT
BRANCH   7  24
HETATM   24  C11 UNL     1      -2.852   5.911  15.219  1.00  0.00     0.149 C 
HETATM   25  O1  UNL     1      -1.960   5.076  15.276  1.00  0.00    -0.649 OA
BRANCH  24  26
HETATM   26  O2  UNL     1      -3.549   6.173  16.335  1.00  0.00    -0.776 OA
HETATM   27  H14 UNL     1      -3.151   5.578  17.006  1.00  0.00     0.167 HD
ENDBRANCH  24  26
ENDBRANCH   7  24
BRANCH   1  28
HETATM   28  C2  UNL     1      -8.123   6.131  14.693  1.00  0.00    -0.088 C 
HETATM   29  C1  UNL     1      -7.888   5.608  15.910  1.00  0.00     0.014 C 
HETATM   30  C3  UNL     1      -9.359   6.954  14.443  1.00  0.00     0.043 C 
ENDBRANCH   1  28
BRANCH  16  31
HETATM   31  C22 UNL     1       0.823  11.905  15.681  1.00  0.00     0.177 C 
BRANCH  31  32
HETATM   32  O3  UNL     1       0.139  12.184  14.461  1.00  0.00    -0.400 OA
HETATM   33  H31 UNL     1      -0.667  12.681  14.679  1.00  0.00     0.209 HD
ENDBRANCH  31  32
ENDBRANCH  16  31
TORSDOF 5
ENDMDL
MODEL 4
REMARK minimizedAffinity -8.29258347
REMARK  5 active torsions:
REMARK  status: ('A' for Active; 'I' for Inactive)
REMARK    1  A    between atoms: C2_2  and  C4_4 
REMARK    2  A    between atoms: C10_10  and  C11_11 
REMARK    3  A    between atoms: C11_11  and  O2_13 
REMARK    4  A    between atoms: C20_22  and  C22_24 
REMARK    5  A    between atoms: C22_24  and  O3_25 
ROOT
HETATM    1  C4  UNL     1      -5.270   3.583  12.347  1.00  0.00     0.025 C 
HETATM    2  C5  UNL     1      -6.636   2.896  12.565  1.00  0.00     0.037 C 
HETATM    3  C6  UNL     1      -7.273   3.727  13.627  1.00  0.00    -0.023 C 
HETATM    4  C7  UNL     1      -6.636   4.890  13.800  1.00  0.00    -0.078 C 
HETATM    5  C8  UNL     1      -6.991   5.983  14.748  1.00  0.00     0.036 C 
HETATM    6  C9  UNL     1      -5.741   6.504  15.470  1.00  0.00     0.026 C 
HETATM    7  C10 UNL     1      -4.562   6.877  14.501  1.00  0.00     0.057 C 
HETATM    8  C12 UNL     1      -4.216   5.569  13.684  1.00  0.00     0.014 C 
HETATM    9  C13 UNL     1      -2.960   5.681  12.801  1.00  0.00     0.007 C 
HETATM   10  C14 UNL     1      -1.751   6.276  13.519  1.00  0.00     0.007 C 
HETATM   11  C15 UNL     1      -2.084   7.591  14.238  1.00  0.00     0.007 C 
HETATM   12  C16 UNL     1      -0.836   8.357  14.785  1.00  0.00    -0.018 C 
HETATM   13  C17 UNL     1       0.036   7.534  15.762  1.00  0.00     0.020 C 
HETATM   14  C18 UNL     1       0.130   8.932  13.765  1.00  0.00    -0.020 C 
HETATM   15  C19 UNL     1       0.526  10.174  14.103  1.00  0.00    -0.018 C 
HETATM   16  C20 UNL     1      -0.200  10.712  15.327  1.00  0.00    -0.001 C 
HETATM   17  C21 UNL     1      -0.708  12.139  15.050  1.00  0.00     0.022 C 
HETATM   18  C23 UNL     1      -1.379   9.711  15.321  1.00  0.00     0.012 C 
HETATM   19  C24 UNL     1      -2.292   9.537  16.522  1.00  0.00     0.007 C 
HETATM   20  C25 UNL     1      -3.540   8.752  16.062  1.00  0.00     0.011 C 
HETATM   21  C26 UNL     1      -3.258   7.405  15.297  1.00  0.00    -0.021 C 
HETATM   22  C27 UNL     1      -2.873   6.378  16.404  1.00  0.00     0.017 C 
HETATM   23  C28 UNL     1      -5.441   5.033  12.894  1.00  0.00     0.028 C 
ENDROOT
BRANCH   7  24
HETATM   24  C11 UNL     1      -5.124   8.009  13.605  1.00  0.00     0.149 C 
HETATM   25  O1  UNL     1      -4.678   8.358  12.522  1.00  0.00    -0.649 OA
BRANCH  24  26
HETATM   26  O2  UNL     1      -6.216   8.633  14.073  1.00  0.00    -0.776 OA
HETATM   27  H14 UNL     1      -6.428   9.290  13.378  1.00  0.00     0.167 HD
ENDBRANCH  24  26
ENDBRANCH   7  24
BRANCH   1  28
HETATM   28  C2  UNL     1      -4.780   3.456  10.910  1.00  0.00    -0.088 C 
HETATM   29  C1  UNL     1      -5.645   3.263   9.899  1.00  0.00     0.014 C 
HETATM   30  C3  UNL     1      -3.303   3.569  10.639  1.00  0.00     0.043 C 
ENDBRANCH   1  28
BRANCH  16  31
HETATM   31  C22 UNL     1       0.660  10.687  16.607  1.00  0.00     0.177 C 
BRANCH  31  32
HETATM   32  O3  UNL     1       0.681   9.399  17.221  1.00  0.00    -0.400 OA
HETATM   33  H31 UNL     1       1.237   8.819  16.675  1.00  0.00     0.209 HD
ENDBRANCH  31  32
ENDBRANCH  16  31
TORSDOF 5
ENDMDL
MODEL 5
REMARK minimizedAffinity -7.7752099
REMARK  5 active torsions:
REMARK  status: ('A' for Active; 'I' for Inactive)
REMARK    1  A    between atoms: C2_2  and  C4_4 
REMARK    2  A    between atoms: C10_10  and  C11_11 
REMARK    3  A    between atoms: C11_11  and  O2_13 
REMARK    4  A    between atoms: C20_22  and  C22_24 
REMARK    5  A    between atoms: C22_24  and  O3_25 
ROOT
HETATM    1  C4  UNL     1      -3.339   4.211  12.714  1.00  0.00     0.025 C 
HETATM    2  C5  UNL     1      -4.880   4.195  12.821  1.00  0.00     0.037 C 
HETATM    3  C6  UNL     1      -5.204   5.569  13.305  1.00  0.00    -0.023 C 
HETATM    4  C7  UNL     1      -4.162   6.398  13.189  1.00  0.00    -0.078 C 
HETATM    5  C8  UNL     1      -4.113   7.843  13.544  1.00  0.00     0.036 C 
HETATM    6  C9  UNL     1      -2.825   8.173  14.311  1.00  0.00     0.026 C 
HETATM    7  C10 UNL     1      -1.520   7.660  13.601  1.00  0.00     0.057 C 
HETATM    8  C12 UNL     1      -1.677   6.096  13.441  1.00  0.00     0.014 C 
HETATM    9  C13 UNL     1      -0.417   5.378  12.924  1.00  0.00     0.007 C 
HETATM   10  C14 UNL     1       0.865   5.779  13.649  1.00  0.00     0.007 C 
HETATM   11  C15 UNL     1       1.044   7.303  13.722  1.00  0.00     0.007 C 
HETATM   12  C16 UNL     1       2.446   7.760  14.242  1.00  0.00    -0.018 C 
HETATM   13  C17 UNL     1       2.816   7.208  15.639  1.00  0.00     0.020 C 
HETATM   14  C18 UNL     1       3.645   7.465  13.358  1.00  0.00    -0.020 C 
HETATM   15  C19 UNL     1       4.488   8.514  13.301  1.00  0.00    -0.018 C 
HETATM   16  C20 UNL     1       3.948   9.744  14.015  1.00  0.00    -0.001 C 
HETATM   17  C21 UNL     1       4.098  10.982  13.113  1.00  0.00     0.022 C 
HETATM   18  C23 UNL     1       2.467   9.306  14.085  1.00  0.00     0.012 C 
HETATM   19  C24 UNL     1       1.465   9.996  14.995  1.00  0.00     0.007 C 
HETATM   20  C25 UNL     1       0.048   9.562  14.560  1.00  0.00     0.011 C 
HETATM   21  C26 UNL     1      -0.187   8.009  14.445  1.00  0.00    -0.021 C 
HETATM   22  C27 UNL     1      -0.353   7.509  15.912  1.00  0.00     0.017 C 
HETATM   23  C28 UNL     1      -2.943   5.716  12.625  1.00  0.00     0.028 C 
ENDROOT
BRANCH   7  24
HETATM   24  C11 UNL     1      -1.489   8.400  12.241  1.00  0.00     0.149 C 
HETATM   25  O1  UNL     1      -2.085   9.433  11.970  1.00  0.00    -0.649 OA
BRANCH  24  26
HETATM   26  O2  UNL     1      -0.711   7.850  11.297  1.00  0.00    -0.776 OA
HETATM   27  H14 UNL     1      -0.806   8.454  10.531  1.00  0.00     0.167 HD
ENDBRANCH  24  26
ENDBRANCH   7  24
BRANCH   1  28
HETATM   28  C2  UNL     1      -2.826   3.310  11.598  1.00  0.00    -0.088 C 
HETATM   29  C1  UNL     1      -2.794   1.973  11.748  1.00  0.00     0.014 C 
HETATM   30  C3  UNL     1      -2.368   3.943  10.312  1.00  0.00     0.043 C 
ENDBRANCH   1  28
BRANCH  16  31
HETATM   31  C22 UNL     1       4.610   9.995  15.386  1.00  0.00     0.177 C 
BRANCH  31  32
HETATM   32  O3  UNL     1       3.657  10.318  16.398  1.00  0.00    -0.400 OA
HETATM   33  H31 UNL     1       3.179   9.505  16.626  1.00  0.00     0.209 HD
ENDBRANCH  31  32
ENDBRANCH  16  31
TORSDOF 5
ENDMDL
MODEL 6
REMARK minimizedAffinity -7.72259235
REMARK  5 active torsions:
REMARK  status: ('A' for Active; 'I' for Inactive)
REMARK    1  A    between atoms: C2_2  and  C4_4 
REMARK    2  A    between atoms: C10_10  and  C11_11 
REMARK    3  A    between atoms: C11_11  and  O2_13 
REMARK    4  A    between atoms: C20_22  and  C22_24 
REMARK    5  A    between atoms: C22_24  and  O3_25 
ROOT
HETATM    1  C4  UNL     1       5.188   7.782  12.267  1.00  0.00     0.025 C 
HETATM    2  C5  UNL     1       6.233   7.034  11.409  1.00  0.00     0.037 C 
HETATM    3  C6  UNL     1       5.411   6.043  10.655  1.00  0.00    -0.023 C 
HETATM    4  C7  UNL     1       4.105   6.321  10.725  1.00  0.00    -0.078 C 
HETATM    5  C8  UNL     1       2.988   5.575  10.082  1.00  0.00     0.036 C 
HETATM    6  C9  UNL     1       1.828   5.376  11.069  1.00  0.00     0.026 C 
HETATM    7  C10 UNL     1       1.369   6.701  11.777  1.00  0.00     0.057 C 
HETATM    8  C12 UNL     1       2.635   7.275  12.529  1.00  0.00     0.014 C 
HETATM    9  C13 UNL     1       2.345   8.485  13.436  1.00  0.00     0.007 C 
HETATM   10  C14 UNL     1       1.139   8.295  14.353  1.00  0.00     0.007 C 
HETATM   11  C15 UNL     1      -0.107   7.817  13.592  1.00  0.00     0.007 C 
HETATM   12  C16 UNL     1      -1.422   7.835  14.439  1.00  0.00    -0.018 C 
HETATM   13  C17 UNL     1      -1.353   6.995  15.735  1.00  0.00     0.020 C 
HETATM   14  C18 UNL     1      -1.959   9.190  14.860  1.00  0.00    -0.020 C 
HETATM   15  C19 UNL     1      -3.295   9.262  14.710  1.00  0.00    -0.018 C 
HETATM   16  C20 UNL     1      -3.880   8.030  14.036  1.00  0.00    -0.001 C 
HETATM   17  C21 UNL     1      -4.835   8.454  12.906  1.00  0.00     0.022 C 
HETATM   18  C23 UNL     1      -2.562   7.476  13.446  1.00  0.00     0.012 C 
HETATM   19  C24 UNL     1      -2.450   6.055  12.921  1.00  0.00     0.007 C 
HETATM   20  C25 UNL     1      -1.148   5.952  12.097  1.00  0.00     0.011 C 
HETATM   21  C26 UNL     1       0.160   6.451  12.820  1.00  0.00    -0.021 C 
HETATM   22  C27 UNL     1       0.548   5.305  13.801  1.00  0.00     0.017 C 
HETATM   23  C28 UNL     1       3.819   7.541  11.560  1.00  0.00     0.028 C 
ENDROOT
BRANCH   7  24
HETATM   24  C11 UNL     1       0.888   7.622  10.628  1.00  0.00     0.149 C 
HETATM   25  O1  UNL     1       0.802   8.841  10.671  1.00  0.00    -0.649 OA
BRANCH  24  26
HETATM   26  O2  UNL     1       0.567   7.003   9.482  1.00  0.00    -0.776 OA
HETATM   27  H14 UNL     1       0.308   7.735   8.883  1.00  0.00     0.167 HD
ENDBRANCH  24  26
ENDBRANCH   7  24
BRANCH   1  28
HETATM   28  C2  UNL     1       5.574   9.235  12.515  1.00  0.00    -0.088 C 
HETATM   29  C1  UNL     1       5.850   9.674  13.756  1.00  0.00     0.014 C 
HETATM   30  C3  UNL     1       5.657  10.170  11.339  1.00  0.00     0.043 C 
ENDBRANCH   1  28
BRANCH  16  31
HETATM   31  C22 UNL     1      -4.597   7.079  15.016  1.00  0.00     0.177 C 
BRANCH  31  32
HETATM   32  O3  UNL     1      -5.453   7.776  15.920  1.00  0.00    -0.400 OA
HETATM   33  H31 UNL     1      -6.233   8.071  15.423  1.00  0.00     0.209 HD
ENDBRANCH  31  32
ENDBRANCH  16  31
TORSDOF 5
ENDMDL
MODEL 7
REMARK minimizedAffinity -7.48851204
REMARK  5 active torsions:
REMARK  status: ('A' for Active; 'I' for Inactive)
REMARK    1  A    between atoms: C2_2  and  C4_4 
REMARK    2  A    between atoms: C10_10  and  C11_11 
REMARK    3  A    between atoms: C11_11  and  O2_13 
REMARK    4  A    between atoms: C20_22  and  C22_24 
REMARK    5  A    between atoms: C22_24  and  O3_25 
ROOT
HETATM    1  C4  UNL     1      -2.165  10.990  16.837  1.00  0.00     0.025 C 
HETATM    2  C5  UNL     1      -1.988  11.255  18.348  1.00  0.00     0.037 C 
HETATM    3  C6  UNL     1      -0.614  10.743  18.627  1.00  0.00    -0.023 C 
HETATM    4  C7  UNL     1       0.078  10.534  17.503  1.00  0.00    -0.078 C 
HETATM    5  C8  UNL     1       1.482  10.052  17.384  1.00  0.00     0.036 C 
HETATM    6  C9  UNL     1       1.597   8.974  16.296  1.00  0.00     0.026 C 
HETATM    7  C10 UNL     1       0.963   9.395  14.922  1.00  0.00     0.057 C 
HETATM    8  C12 UNL     1      -0.556   9.725  15.207  1.00  0.00     0.014 C 
HETATM    9  C13 UNL     1      -1.400   9.988  13.946  1.00  0.00     0.007 C 
HETATM   10  C14 UNL     1      -1.210   8.946  12.847  1.00  0.00     0.007 C 
HETATM   11  C15 UNL     1       0.271   8.698  12.523  1.00  0.00     0.007 C 
HETATM   12  C16 UNL     1       0.512   7.821  11.251  1.00  0.00    -0.018 C 
HETATM   13  C17 UNL     1      -0.163   6.431  11.302  1.00  0.00     0.020 C 
HETATM   14  C18 UNL     1       0.117   8.417   9.912  1.00  0.00    -0.020 C 
HETATM   15  C19 UNL     1       1.050   8.179   8.970  1.00  0.00    -0.018 C 
HETATM   16  C20 UNL     1       2.295   7.508   9.529  1.00  0.00    -0.001 C 
HETATM   17  C21 UNL     1       3.554   8.236   9.024  1.00  0.00     0.022 C 
HETATM   18  C23 UNL     1       2.049   7.833  11.021  1.00  0.00     0.012 C 
HETATM   19  C24 UNL     1       2.808   7.130  12.133  1.00  0.00     0.007 C 
HETATM   20  C25 UNL     1       2.587   7.926  13.438  1.00  0.00     0.011 C 
HETATM   21  C26 UNL     1       1.086   8.231  13.808  1.00  0.00    -0.021 C 
HETATM   22  C27 UNL     1       0.528   6.896  14.386  1.00  0.00     0.017 C 
HETATM   23  C28 UNL     1      -0.721  10.849  16.266  1.00  0.00     0.028 C 
ENDROOT
BRANCH   7  24
HETATM   24  C11 UNL     1       1.771  10.638  14.473  1.00  0.00     0.149 C 
HETATM   25  O1  UNL     1       2.973  10.675  14.256  1.00  0.00    -0.649 OA
BRANCH  24  26
HETATM   26  O2  UNL     1       1.057  11.760  14.290  1.00  0.00    -0.776 OA
HETATM   27  H14 UNL     1       1.724  12.418  13.999  1.00  0.00     0.167 HD
ENDBRANCH  24  26
ENDBRANCH   7  24
BRANCH   1  28
HETATM   28  C2  UNL     1      -3.059  12.026  16.167  1.00  0.00    -0.088 C 
HETATM   29  C1  UNL     1      -4.398  11.906  16.194  1.00  0.00     0.014 C 
HETATM   30  C3  UNL     1      -2.413  13.202  15.485  1.00  0.00     0.043 C 
ENDBRANCH   1  28
BRANCH  16  31
HETATM   31  C22 UNL     1       2.378   6.003   9.202  1.00  0.00     0.177 C 
BRANCH  31  32
HETATM   32  O3  UNL     1       3.721   5.566   8.996  1.00  0.00    -0.400 OA
HETATM   33  H31 UNL     1       4.162   5.541   9.861  1.00  0.00     0.209 HD
ENDBRANCH  31  32
ENDBRANCH  16  31
TORSDOF 5
ENDMDL
MODEL 8
REMARK minimizedAffinity -7.31889248
REMARK  5 active torsions:
REMARK  status: ('A' for Active; 'I' for Inactive)
REMARK    1  A    between atoms: C2_2  and  C4_4 
REMARK    2  A    between atoms: C10_10  and  C11_11 
REMARK    3  A    between atoms: C11_11  and  O2_13 
REMARK    4  A    between atoms: C20_22  and  C22_24 
REMARK    5  A    between atoms: C22_24  and  O3_25 
ROOT
HETATM    1  C4  UNL     1       3.389   6.877  10.485  1.00  0.00     0.025 C 
HETATM    2  C5  UNL     1       3.679   5.532   9.786  1.00  0.00     0.037 C 
HETATM    3  C6  UNL     1       2.665   4.611  10.378  1.00  0.00    -0.023 C 
HETATM    4  C7  UNL     1       1.706   5.278  11.029  1.00  0.00    -0.078 C 
HETATM    5  C8  UNL     1       0.520   4.705  11.723  1.00  0.00     0.036 C 
HETATM    6  C9  UNL     1       0.318   5.367  13.094  1.00  0.00     0.026 C 
HETATM    7  C10 UNL     1       0.312   6.938  13.040  1.00  0.00     0.057 C 
HETATM    8  C12 UNL     1       1.699   7.375  12.419  1.00  0.00     0.014 C 
HETATM    9  C13 UNL     1       1.961   8.891  12.447  1.00  0.00     0.007 C 
HETATM   10  C14 UNL     1       1.679   9.543  13.799  1.00  0.00     0.007 C 
HETATM   11  C15 UNL     1       0.293   9.175  14.349  1.00  0.00     0.007 C 
HETATM   12  C16 UNL     1      -0.137   9.997  15.607  1.00  0.00    -0.018 C 
HETATM   13  C17 UNL     1       0.846   9.897  16.797  1.00  0.00     0.020 C 
HETATM   14  C18 UNL     1      -0.392  11.481  15.414  1.00  0.00    -0.020 C 
HETATM   15  C19 UNL     1      -1.498  11.883  16.070  1.00  0.00    -0.018 C 
HETATM   16  C20 UNL     1      -2.260  10.729  16.704  1.00  0.00    -0.001 C 
HETATM   17  C21 UNL     1      -3.757  10.840  16.364  1.00  0.00     0.022 C 
HETATM   18  C23 UNL     1      -1.608   9.585  15.893  1.00  0.00     0.012 C 
HETATM   19  C24 UNL     1      -1.733   8.130  16.312  1.00  0.00     0.007 C 
HETATM   20  C25 UNL     1      -1.289   7.252  15.122  1.00  0.00     0.011 C 
HETATM   21  C26 UNL     1       0.116   7.600  14.501  1.00  0.00    -0.021 C 
HETATM   22  C27 UNL     1       1.161   6.999  15.489  1.00  0.00     0.017 C 
HETATM   23  C28 UNL     1       1.924   6.768  11.007  1.00  0.00     0.028 C 
ENDROOT
BRANCH   7  24
HETATM   24  C11 UNL     1      -0.890   7.302  12.133  1.00  0.00     0.149 C 
HETATM   25  O1  UNL     1      -1.985   6.758  12.138  1.00  0.00    -0.649 OA
BRANCH  24  26
HETATM   26  O2  UNL     1      -0.693   8.327  11.291  1.00  0.00    -0.776 OA
HETATM   27  H14 UNL     1      -1.550   8.416  10.823  1.00  0.00     0.167 HD
ENDBRANCH  24  26
ENDBRANCH   7  24
BRANCH   1  28
HETATM   28  C2  UNL     1       3.701   8.073   9.595  1.00  0.00    -0.088 C 
HETATM   29  C1  UNL     1       4.681   8.937   9.916  1.00  0.00     0.014 C 
HETATM   30  C3  UNL     1       2.902   8.262   8.333  1.00  0.00     0.043 C 
ENDBRANCH   1  28
BRANCH  16  31
HETATM   31  C22 UNL     1      -2.063  10.631  18.230  1.00  0.00     0.177 C 
BRANCH  31  32
HETATM   32  O3  UNL     1      -3.146   9.964  18.876  1.00  0.00    -0.400 OA
HETATM   33  H31 UNL     1      -3.078   9.017  18.670  1.00  0.00     0.209 HD
ENDBRANCH  31  32
ENDBRANCH  16  31
TORSDOF 5
ENDMDL
MODEL 9
REMARK minimizedAffinity -7.20857239
REMARK  5 active torsions:
REMARK  status: ('A' for Active; 'I' for Inactive)
REMARK    1  A    between atoms: C2_2  and  C4_4 
REMARK    2  A    between atoms: C10_10  and  C11_11 
REMARK    3  A    between atoms: C11_11  and  O2_13 
REMARK    4  A    between atoms: C20_22  and  C22_24 
REMARK    5  A    between atoms: C22_24  and  O3_25 
ROOT
HETATM    1  C4  UNL     1       3.968   8.812  11.464  1.00  0.00     0.025 C 
HETATM    2  C5  UNL     1       5.261   9.580  11.817  1.00  0.00     0.037 C 
HETATM    3  C6  UNL     1       4.988  10.100  13.188  1.00  0.00    -0.023 C 
HETATM    4  C7  UNL     1       3.926   9.508  13.744  1.00  0.00    -0.078 C 
HETATM    5  C8  UNL     1       3.367   9.747  15.104  1.00  0.00     0.036 C 
HETATM    6  C9  UNL     1       1.837   9.862  15.052  1.00  0.00     0.026 C 
HETATM    7  C10 UNL     1       1.142   8.676  14.291  1.00  0.00     0.057 C 
HETATM    8  C12 UNL     1       1.740   8.664  12.828  1.00  0.00     0.014 C 
HETATM    9  C13 UNL     1       1.052   7.679  11.865  1.00  0.00     0.007 C 
HETATM   10  C14 UNL     1      -0.473   7.756  11.887  1.00  0.00     0.007 C 
HETATM   11  C15 UNL     1      -1.042   7.682  13.312  1.00  0.00     0.007 C 
HETATM   12  C16 UNL     1      -2.597   7.519  13.373  1.00  0.00    -0.018 C 
HETATM   13  C17 UNL     1      -3.381   8.637  12.646  1.00  0.00     0.020 C 
HETATM   14  C18 UNL     1      -3.180   6.214  12.862  1.00  0.00    -0.020 C 
HETATM   15  C19 UNL     1      -4.149   5.753  13.675  1.00  0.00    -0.018 C 
HETATM   16  C20 UNL     1      -4.299   6.580  14.943  1.00  0.00    -0.001 C 
HETATM   17  C21 UNL     1      -4.351   5.653  16.170  1.00  0.00     0.022 C 
HETATM   18  C23 UNL     1      -2.935   7.306  14.875  1.00  0.00     0.012 C 
HETATM   19  C24 UNL     1      -2.634   8.533  15.718  1.00  0.00     0.007 C 
HETATM   20  C25 UNL     1      -1.109   8.777  15.676  1.00  0.00     0.011 C 
HETATM   21  C26 UNL     1      -0.465   8.839  14.240  1.00  0.00    -0.021 C 
HETATM   22  C27 UNL     1      -0.828  10.251  13.689  1.00  0.00     0.017 C 
HETATM   23  C28 UNL     1       3.285   8.497  12.830  1.00  0.00     0.028 C 
ENDROOT
BRANCH   7  24
HETATM   24  C11 UNL     1       1.516   7.409  15.100  1.00  0.00     0.149 C 
HETATM   25  O1  UNL     1       1.587   7.328  16.318  1.00  0.00    -0.649 OA
BRANCH  24  26
HETATM   26  O2  UNL     1       1.754   6.305  14.375  1.00  0.00    -0.776 OA
HETATM   27  H14 UNL     1       1.954   5.620  15.047  1.00  0.00     0.167 HD
ENDBRANCH  24  26
ENDBRANCH   7  24
BRANCH   1  28
HETATM   28  C2  UNL     1       4.231   7.621  10.551  1.00  0.00    -0.088 C 
HETATM   29  C1  UNL     1       4.964   6.575  10.972  1.00  0.00     0.014 C 
HETATM   30  C3  UNL     1       3.640   7.630   9.166  1.00  0.00     0.043 C 
ENDBRANCH   1  28
BRANCH  16  31
HETATM   31  C22 UNL     1      -5.527   7.513  14.922  1.00  0.00     0.177 C 
BRANCH  31  32
HETATM   32  O3  UNL     1      -5.923   7.917  16.232  1.00  0.00    -0.400 OA
HETATM   33  H31 UNL     1      -5.271   8.560  16.556  1.00  0.00     0.209 HD
ENDBRANCH  31  32
ENDBRANCH  16  31
TORSDOF 5
ENDMDL
