MODEL 1
REMARK minimizedAffinity -8.51226044
REMARK CNNscore 0.689826488
REMARK CNNaffinity 7.22592592
REMARK  10 active torsions:
REMARK  status: ('A' for Active; 'I' for Inactive)
REMARK    1  A    between atoms: C2_2  and  C3_3 
REMARK    2  A    between atoms: C4_4  and  O1_5 
REMARK    3  A    between atoms: C12_13  and  C13_14 
REMARK    4  A    between atoms: C13_14  and  C15_16 
REMARK    5  A    between atoms: C15_16  and  C16_17 
REMARK    6  A    between atoms: C16_17  and  C17_18 
REMARK    7  A    between atoms: C26_27  and  C27_28 
REMARK    8  A    between atoms: C27_28  and  C28_29 
REMARK    9  A    between atoms: C28_29  and  C29_30 
REMARK   10  A    between atoms: C29_30  and  O3_32 
ROOT
HETATM    1  C3  UNL     1       0.410   7.228  11.986  1.00  0.00     0.045 C 
HETATM    2  C4  UNL     1      -0.510   6.164  11.342  1.00  0.00     0.127 C 
HETATM    3  C5  UNL     1      -1.457   5.560  12.371  1.00  0.00     0.038 C 
HETATM    4  C6  UNL     1      -2.473   6.611  12.827  1.00  0.00     0.006 C 
HETATM    5  C7  UNL     1      -1.769   7.844  13.439  1.00  0.00    -0.027 A 
HETATM    6  C8  UNL     1      -2.198   8.242  14.856  1.00  0.00     0.011 C 
HETATM    7  C9  UNL     1      -3.684   8.071  15.226  1.00  0.00     0.011 C 
HETATM    8  C10 UNL     1      -4.504   7.222  14.246  1.00  0.00    -0.032 C 
HETATM    9  C11 UNL     1      -5.012   8.159  13.107  1.00  0.00     0.016 C 
HETATM   10  C12 UNL     1      -5.725   6.444  14.844  1.00  0.00    -0.002 C 
HETATM   11  C21 UNL     1      -5.923   5.304  13.809  1.00  0.00     0.006 C 
HETATM   12  C22 UNL     1      -4.619   5.160  13.008  1.00  0.00     0.011 C 
HETATM   13  C23 UNL     1      -3.593   6.043  13.742  1.00  0.00    -0.032 C 
HETATM   14  C24 UNL     1      -2.985   5.156  14.873  1.00  0.00     0.016 C 
HETATM   15  C25 UNL     1      -1.488   8.986  12.482  1.00  0.00     0.022 A 
HETATM   16  C26 UNL     1      -0.310   8.175  12.977  1.00  0.00    -0.022 A 
ENDROOT
BRANCH  10  17
HETATM   17  C13 UNL     1      -7.049   7.198  15.182  1.00  0.00    -0.014 C 
HETATM   18  C14 UNL     1      -7.407   7.069  16.671  1.00  0.00     0.010 C 
BRANCH  17  19
HETATM   19  C15 UNL     1      -8.261   6.662  14.366  1.00  0.00     0.008 C 
BRANCH  19  20
HETATM   20  C16 UNL     1      -9.629   6.928  15.005  1.00  0.00     0.028 C 
BRANCH  20  21
HETATM   21  C17 UNL     1     -10.500   7.761  14.102  1.00  0.00    -0.025 C 
HETATM   22  C18 UNL     1     -11.782   7.528  13.758  1.00  0.00    -0.091 C 
HETATM   23  C19 UNL     1     -12.501   8.446  12.805  1.00  0.00     0.042 C 
HETATM   24  C20 UNL     1     -12.616   6.386  14.269  1.00  0.00     0.042 C 
ENDBRANCH  20  21
ENDBRANCH  19  20
ENDBRANCH  17  19
ENDBRANCH  10  17
BRANCH  16  25
HETATM   25  C27 UNL     1       0.666   8.841  13.965  1.00  0.00     0.021 C 
BRANCH  25  26
HETATM   26  C28 UNL     1       1.722   7.887  14.527  1.00  0.00     0.111 C 
BRANCH  26  27
HETATM   27  C29 UNL     1       1.602   7.762  16.022  1.00  0.00     0.139 C 
HETATM   28  O2  UNL     1       2.240   8.356  16.873  1.00  0.00    -0.650 OA
BRANCH  27  29
HETATM   29  O3  UNL     1       0.656   6.869  16.377  1.00  0.00    -0.776 OA
HETATM   30  H46 UNL     1       0.672   6.883  17.355  1.00  0.00     0.167 HD
ENDBRANCH  27  29
ENDBRANCH  26  27
ENDBRANCH  25  26
ENDBRANCH  16  25
BRANCH   2  31
HETATM   31  O1  UNL     1       0.270   5.086  10.808  1.00  0.00    -0.395 OA
HETATM   32  H6  UNL     1       0.909   5.477  10.186  1.00  0.00     0.210 HD
ENDBRANCH   2  31
BRANCH   1  33
HETATM   33  C2  UNL     1       1.149   7.974  10.885  1.00  0.00    -0.029 C 
HETATM   34  C1  UNL     1       0.635   8.258   9.681  1.00  0.00     0.007 C 
ENDBRANCH   1  33
TORSDOF 10
ENDMDL
MODEL 2
REMARK minimizedAffinity -7.99000168
REMARK CNNscore 0.53349334
REMARK CNNaffinity 6.87936354
REMARK  10 active torsions:
REMARK  status: ('A' for Active; 'I' for Inactive)
REMARK    1  A    between atoms: C2_2  and  C3_3 
REMARK    2  A    between atoms: C4_4  and  O1_5 
REMARK    3  A    between atoms: C12_13  and  C13_14 
REMARK    4  A    between atoms: C13_14  and  C15_16 
REMARK    5  A    between atoms: C15_16  and  C16_17 
REMARK    6  A    between atoms: C16_17  and  C17_18 
REMARK    7  A    between atoms: C26_27  and  C27_28 
REMARK    8  A    between atoms: C27_28  and  C28_29 
REMARK    9  A    between atoms: C28_29  and  C29_30 
REMARK   10  A    between atoms: C29_30  and  O3_32 
ROOT
HETATM    1  C3  UNL     1      -5.696   2.816  12.156  1.00  0.00     0.045 C 
HETATM    2  C4  UNL     1      -6.894   3.763  12.403  1.00  0.00     0.127 C 
HETATM    3  C5  UNL     1      -6.687   4.595  13.661  1.00  0.00     0.038 C 
HETATM    4  C6  UNL     1      -5.545   5.593  13.448  1.00  0.00     0.006 C 
HETATM    5  C7  UNL     1      -4.227   4.868  13.089  1.00  0.00    -0.027 A 
HETATM    6  C8  UNL     1      -3.016   5.176  13.977  1.00  0.00     0.011 C 
HETATM    7  C9  UNL     1      -2.863   6.616  14.501  1.00  0.00     0.011 C 
HETATM    8  C10 UNL     1      -4.107   7.500  14.344  1.00  0.00    -0.032 C 
HETATM    9  C11 UNL     1      -4.069   8.135  12.920  1.00  0.00     0.016 C 
HETATM   10  C12 UNL     1      -4.295   8.640  15.402  1.00  0.00    -0.002 C 
HETATM   11  C21 UNL     1      -5.823   8.902  15.329  1.00  0.00     0.006 C 
HETATM   12  C22 UNL     1      -6.484   7.674  14.684  1.00  0.00     0.011 C 
HETATM   13  C23 UNL     1      -5.375   6.609  14.610  1.00  0.00    -0.032 C 
HETATM   14  C24 UNL     1      -5.383   5.876  15.989  1.00  0.00     0.016 C 
HETATM   15  C25 UNL     1      -3.945   4.706  11.608  1.00  0.00     0.022 A 
HETATM   16  C26 UNL     1      -4.311   3.467  12.395  1.00  0.00    -0.022 A 
ENDROOT
BRANCH  10  17
HETATM   17  C13 UNL     1      -3.447   9.947  15.309  1.00  0.00    -0.014 C 
HETATM   18  C14 UNL     1      -1.941   9.649  15.387  1.00  0.00     0.010 C 
BRANCH  17  19
HETATM   19  C15 UNL     1      -3.780  10.952  16.450  1.00  0.00     0.008 C 
BRANCH  19  20
HETATM   20  C16 UNL     1      -3.268  10.539  17.834  1.00  0.00     0.028 C 
BRANCH  20  21
HETATM   21  C17 UNL     1      -3.777  11.469  18.904  1.00  0.00    -0.025 C 
HETATM   22  C18 UNL     1      -4.393  12.654  18.733  1.00  0.00    -0.091 C 
HETATM   23  C19 UNL     1      -4.806  13.484  19.920  1.00  0.00     0.042 C 
HETATM   24  C20 UNL     1      -4.741  13.259  17.401  1.00  0.00     0.042 C 
ENDBRANCH  20  21
ENDBRANCH  19  20
ENDBRANCH  17  19
ENDBRANCH  10  17
BRANCH  16  25
HETATM   25  C27 UNL     1      -3.211   2.422  12.660  1.00  0.00     0.021 C 
BRANCH  25  26
HETATM   26  C28 UNL     1      -2.871   1.562  11.442  1.00  0.00     0.111 C 
BRANCH  26  27
HETATM   27  C29 UNL     1      -1.446   1.771  11.008  1.00  0.00     0.139 C 
HETATM   28  O2  UNL     1      -0.553   2.327  11.623  1.00  0.00    -0.650 OA
BRANCH  27  29
HETATM   29  O3  UNL     1      -1.212   1.254   9.784  1.00  0.00    -0.776 OA
HETATM   30  H46 UNL     1      -0.267   1.447   9.622  1.00  0.00     0.167 HD
ENDBRANCH  27  29
ENDBRANCH  26  27
ENDBRANCH  25  26
ENDBRANCH  16  25
BRANCH   2  31
HETATM   31  O1  UNL     1      -8.098   3.007  12.594  1.00  0.00    -0.395 OA
HETATM   32  H6  UNL     1      -8.204   2.439  11.811  1.00  0.00     0.210 HD
ENDBRANCH   2  31
BRANCH   1  33
HETATM   33  C2  UNL     1      -5.829   2.201  10.771  1.00  0.00    -0.029 C 
HETATM   34  C1  UNL     1      -5.840   2.898   9.627  1.00  0.00     0.007 C 
ENDBRANCH   1  33
TORSDOF 10
ENDMDL
MODEL 3
REMARK minimizedAffinity -8.32327366
REMARK CNNscore 0.420671344
REMARK CNNaffinity 6.89776993
REMARK  10 active torsions:
REMARK  status: ('A' for Active; 'I' for Inactive)
REMARK    1  A    between atoms: C2_2  and  C3_3 
REMARK    2  A    between atoms: C4_4  and  O1_5 
REMARK    3  A    between atoms: C12_13  and  C13_14 
REMARK    4  A    between atoms: C13_14  and  C15_16 
REMARK    5  A    between atoms: C15_16  and  C16_17 
REMARK    6  A    between atoms: C16_17  and  C17_18 
REMARK    7  A    between atoms: C26_27  and  C27_28 
REMARK    8  A    between atoms: C27_28  and  C28_29 
REMARK    9  A    between atoms: C28_29  and  C29_30 
REMARK   10  A    between atoms: C29_30  and  O3_32 
ROOT
HETATM    1  C3  UNL     1      -0.093   6.778  12.055  1.00  0.00     0.045 C 
HETATM    2  C4  UNL     1      -0.320   8.086  12.850  1.00  0.00     0.127 C 
HETATM    3  C5  UNL     1      -1.794   8.465  12.877  1.00  0.00     0.038 C 
HETATM    4  C6  UNL     1      -2.579   7.455  13.717  1.00  0.00     0.006 C 
HETATM    5  C7  UNL     1      -2.428   6.021  13.156  1.00  0.00    -0.027 A 
HETATM    6  C8  UNL     1      -3.727   5.275  12.831  1.00  0.00     0.011 C 
HETATM    7  C9  UNL     1      -4.933   5.503  13.761  1.00  0.00     0.011 C 
HETATM    8  C10 UNL     1      -4.800   6.694  14.718  1.00  0.00    -0.032 C 
HETATM    9  C11 UNL     1      -4.051   6.203  15.995  1.00  0.00     0.016 C 
HETATM   10  C12 UNL     1      -6.130   7.399  15.151  1.00  0.00    -0.002 C 
HETATM   11  C21 UNL     1      -5.632   8.808  15.566  1.00  0.00     0.006 C 
HETATM   12  C22 UNL     1      -4.250   9.029  14.930  1.00  0.00     0.011 C 
HETATM   13  C23 UNL     1      -4.062   7.854  13.953  1.00  0.00    -0.032 C 
HETATM   14  C24 UNL     1      -4.737   8.288  12.614  1.00  0.00     0.016 C 
HETATM   15  C25 UNL     1      -1.315   5.190  13.763  1.00  0.00     0.022 A 
HETATM   16  C26 UNL     1      -1.138   5.672  12.340  1.00  0.00    -0.022 A 
ENDROOT
BRANCH  10  17
HETATM   17  C13 UNL     1      -7.058   6.740  16.220  1.00  0.00    -0.014 C 
HETATM   18  C14 UNL     1      -7.379   5.279  15.865  1.00  0.00     0.010 C 
BRANCH  17  19
HETATM   19  C15 UNL     1      -8.413   7.490  16.371  1.00  0.00     0.008 C 
BRANCH  19  20
HETATM   20  C16 UNL     1      -9.096   7.848  15.046  1.00  0.00     0.028 C 
BRANCH  20  21
HETATM   21  C17 UNL     1     -10.382   7.082  14.871  1.00  0.00    -0.025 C 
HETATM   22  C18 UNL     1     -11.438   7.421  14.108  1.00  0.00    -0.091 C 
HETATM   23  C19 UNL     1     -12.672   6.557  14.076  1.00  0.00     0.042 C 
HETATM   24  C20 UNL     1     -11.509   8.637  13.225  1.00  0.00     0.042 C 
ENDBRANCH  20  21
ENDBRANCH  19  20
ENDBRANCH  17  19
ENDBRANCH  10  17
BRANCH  16  25
HETATM   25  C27 UNL     1      -1.216   4.634  11.206  1.00  0.00     0.021 C 
BRANCH  25  26
HETATM   26  C28 UNL     1      -0.693   3.251  11.597  1.00  0.00     0.111 C 
BRANCH  26  27
HETATM   27  C29 UNL     1      -1.401   2.165  10.834  1.00  0.00     0.139 C 
HETATM   28  O2  UNL     1      -0.902   1.278  10.163  1.00  0.00    -0.650 OA
BRANCH  27  29
HETATM   29  O3  UNL     1      -2.741   2.254  10.961  1.00  0.00    -0.776 OA
HETATM   30  H46 UNL     1      -3.079   1.502  10.432  1.00  0.00     0.167 HD
ENDBRANCH  27  29
ENDBRANCH  26  27
ENDBRANCH  25  26
ENDBRANCH  16  25
BRANCH   2  31
HETATM   31  O1  UNL     1       0.381   9.175  12.232  1.00  0.00    -0.395 OA
HETATM   32  H6  UNL     1       1.316   8.913  12.170  1.00  0.00     0.210 HD
ENDBRANCH   2  31
BRANCH   1  33
HETATM   33  C2  UNL     1       1.338   6.310  12.270  1.00  0.00    -0.029 C 
HETATM   34  C1  UNL     1       2.232   6.124  11.290  1.00  0.00     0.007 C 
ENDBRANCH   1  33
TORSDOF 10
ENDMDL
MODEL 4
REMARK minimizedAffinity -6.70086622
REMARK CNNscore 0.358940184
REMARK CNNaffinity 6.93196487
REMARK  10 active torsions:
REMARK  status: ('A' for Active; 'I' for Inactive)
REMARK    1  A    between atoms: C2_2  and  C3_3 
REMARK    2  A    between atoms: C4_4  and  O1_5 
REMARK    3  A    between atoms: C12_13  and  C13_14 
REMARK    4  A    between atoms: C13_14  and  C15_16 
REMARK    5  A    between atoms: C15_16  and  C16_17 
REMARK    6  A    between atoms: C16_17  and  C17_18 
REMARK    7  A    between atoms: C26_27  and  C27_28 
REMARK    8  A    between atoms: C27_28  and  C28_29 
REMARK    9  A    between atoms: C28_29  and  C29_30 
REMARK   10  A    between atoms: C29_30  and  O3_32 
ROOT
HETATM    1  C3  UNL     1     -11.234   8.181  15.536  1.00  0.00     0.045 C 
HETATM    2  C4  UNL     1     -10.052   8.563  16.459  1.00  0.00     0.127 C 
HETATM    3  C5  UNL     1      -9.015   7.450  16.514  1.00  0.00     0.038 C 
HETATM    4  C6  UNL     1      -8.316   7.318  15.159  1.00  0.00     0.006 C 
HETATM    5  C7  UNL     1      -9.331   7.018  14.031  1.00  0.00    -0.027 A 
HETATM    6  C8  UNL     1      -9.061   5.769  13.184  1.00  0.00     0.011 C 
HETATM    7  C9  UNL     1      -7.593   5.424  12.869  1.00  0.00     0.011 C 
HETATM    8  C10 UNL     1      -6.554   6.182  13.704  1.00  0.00    -0.032 C 
HETATM    9  C11 UNL     1      -6.268   7.542  12.996  1.00  0.00     0.016 C 
HETATM   10  C12 UNL     1      -5.193   5.450  13.963  1.00  0.00    -0.002 C 
HETATM   11  C21 UNL     1      -4.678   6.163  15.242  1.00  0.00     0.006 C 
HETATM   12  C22 UNL     1      -5.877   6.850  15.916  1.00  0.00     0.011 C 
HETATM   13  C23 UNL     1      -7.116   6.331  15.165  1.00  0.00    -0.032 C 
HETATM   14  C24 UNL     1      -7.512   4.987  15.854  1.00  0.00     0.016 C 
HETATM   15  C25 UNL     1      -9.865   8.226  13.286  1.00  0.00     0.022 A 
HETATM   16  C26 UNL     1     -10.811   7.495  14.214  1.00  0.00    -0.022 A 
ENDROOT
BRANCH  10  17
HETATM   17  C13 UNL     1      -4.117   5.368  12.835  1.00  0.00    -0.014 C 
HETATM   18  C14 UNL     1      -4.153   4.008  12.120  1.00  0.00     0.010 C 
BRANCH  17  19
HETATM   19  C15 UNL     1      -2.672   5.568  13.379  1.00  0.00     0.008 C 
BRANCH  19  20
HETATM   20  C16 UNL     1      -1.921   6.759  12.773  1.00  0.00     0.028 C 
BRANCH  20  21
HETATM   21  C17 UNL     1      -0.752   6.301  11.941  1.00  0.00    -0.025 C 
HETATM   22  C18 UNL     1      -0.033   7.031  11.067  1.00  0.00    -0.091 C 
HETATM   23  C19 UNL     1       1.088   6.403  10.281  1.00  0.00     0.042 C 
HETATM   24  C20 UNL     1      -0.241   8.495  10.792  1.00  0.00     0.042 C 
ENDBRANCH  20  21
ENDBRANCH  19  20
ENDBRANCH  17  19
ENDBRANCH  10  17
BRANCH  16  25
HETATM   25  C27 UNL     1     -11.954   6.676  13.587  1.00  0.00     0.021 C 
BRANCH  25  26
HETATM   26  C28 UNL     1     -13.051   6.286  14.580  1.00  0.00     0.111 C 
BRANCH  26  27
HETATM   27  C29 UNL     1     -14.393   6.203  13.905  1.00  0.00     0.139 C 
HETATM   28  O2  UNL     1     -14.815   6.897  12.997  1.00  0.00    -0.650 OA
BRANCH  27  29
HETATM   29  O3  UNL     1     -15.156   5.219  14.423  1.00  0.00    -0.776 OA
HETATM   30  H46 UNL     1     -15.985   5.265  13.904  1.00  0.00     0.167 HD
ENDBRANCH  27  29
ENDBRANCH  26  27
ENDBRANCH  25  26
ENDBRANCH  16  25
BRANCH   2  31
HETATM   31  O1  UNL     1     -10.514   8.771  17.801  1.00  0.00    -0.395 OA
HETATM   32  H6  UNL     1     -11.212   9.448  17.760  1.00  0.00     0.210 HD
ENDBRANCH   2  31
BRANCH   1  33
HETATM   33  C2  UNL     1     -12.105   9.408  15.314  1.00  0.00    -0.029 C 
HETATM   34  C1  UNL     1     -11.636  10.639  15.070  1.00  0.00     0.007 C 
ENDBRANCH   1  33
TORSDOF 10
ENDMDL
MODEL 5
REMARK minimizedAffinity -8.37558079
REMARK CNNscore 0.357195109
REMARK CNNaffinity 6.61368799
REMARK  10 active torsions:
REMARK  status: ('A' for Active; 'I' for Inactive)
REMARK    1  A    between atoms: C2_2  and  C3_3 
REMARK    2  A    between atoms: C4_4  and  O1_5 
REMARK    3  A    between atoms: C12_13  and  C13_14 
REMARK    4  A    between atoms: C13_14  and  C15_16 
REMARK    5  A    between atoms: C15_16  and  C16_17 
REMARK    6  A    between atoms: C16_17  and  C17_18 
REMARK    7  A    between atoms: C26_27  and  C27_28 
REMARK    8  A    between atoms: C27_28  and  C28_29 
REMARK    9  A    between atoms: C28_29  and  C29_30 
REMARK   10  A    between atoms: C29_30  and  O3_32 
ROOT
HETATM    1  C3  UNL     1      -3.377   6.094  15.090  1.00  0.00     0.045 C 
HETATM    2  C4  UNL     1      -2.512   7.301  15.524  1.00  0.00     0.127 C 
HETATM    3  C5  UNL     1      -1.078   7.156  15.033  1.00  0.00     0.038 C 
HETATM    4  C6  UNL     1      -1.031   7.278  13.508  1.00  0.00     0.006 C 
HETATM    5  C7  UNL     1      -1.916   6.204  12.833  1.00  0.00    -0.027 A 
HETATM    6  C8  UNL     1      -1.230   5.306  11.798  1.00  0.00     0.011 C 
HETATM    7  C9  UNL     1      -0.155   5.945  10.899  1.00  0.00     0.011 C 
HETATM    8  C10 UNL     1       0.337   7.324  11.355  1.00  0.00    -0.032 C 
HETATM    9  C11 UNL     1      -0.630   8.398  10.768  1.00  0.00     0.016 C 
HETATM   10  C12 UNL     1       1.808   7.706  10.973  1.00  0.00    -0.002 C 
HETATM   11  C21 UNL     1       2.148   8.789  12.032  1.00  0.00     0.006 C 
HETATM   12  C22 UNL     1       1.157   8.639  13.198  1.00  0.00     0.011 C 
HETATM   13  C23 UNL     1       0.408   7.322  12.926  1.00  0.00    -0.032 C 
HETATM   14  C24 UNL     1       1.287   6.186  13.540  1.00  0.00     0.016 C 
HETATM   15  C25 UNL     1      -3.337   6.627  12.511  1.00  0.00     0.022 A 
HETATM   16  C26 UNL     1      -3.135   5.632  13.632  1.00  0.00    -0.022 A 
ENDROOT
BRANCH  10  17
HETATM   17  C13 UNL     1       2.153   8.148   9.517  1.00  0.00    -0.014 C 
HETATM   18  C14 UNL     1       0.884   8.426   8.696  1.00  0.00     0.010 C 
BRANCH  17  19
HETATM   19  C15 UNL     1       2.975   7.070   8.750  1.00  0.00     0.008 C 
BRANCH  19  20
HETATM   20  C16 UNL     1       2.205   6.357   7.632  1.00  0.00     0.028 C 
BRANCH  20  21
HETATM   21  C17 UNL     1       3.029   5.254   7.021  1.00  0.00    -0.025 C 
HETATM   22  C18 UNL     1       3.675   4.263   7.665  1.00  0.00    -0.091 C 
HETATM   23  C19 UNL     1       4.494   3.256   6.899  1.00  0.00     0.042 C 
HETATM   24  C20 UNL     1       3.650   4.041   9.152  1.00  0.00     0.042 C 
ENDBRANCH  20  21
ENDBRANCH  19  20
ENDBRANCH  17  19
ENDBRANCH  10  17
BRANCH  16  25
HETATM   25  C27 UNL     1      -3.578   4.175  13.399  1.00  0.00     0.021 C 
BRANCH  25  26
HETATM   26  C28 UNL     1      -4.767   4.036  12.447  1.00  0.00     0.111 C 
BRANCH  26  27
HETATM   27  C29 UNL     1      -4.382   3.286  11.201  1.00  0.00     0.139 C 
HETATM   28  O2  UNL     1      -3.844   3.727  10.201  1.00  0.00    -0.650 OA
BRANCH  27  29
HETATM   29  O3  UNL     1      -4.706   1.979  11.282  1.00  0.00    -0.776 OA
HETATM   30  H46 UNL     1      -4.405   1.608  10.428  1.00  0.00     0.167 HD
ENDBRANCH  27  29
ENDBRANCH  26  27
ENDBRANCH  25  26
ENDBRANCH  16  25
BRANCH   2  31
HETATM   31  O1  UNL     1      -2.457   7.388  16.955  1.00  0.00    -0.395 OA
HETATM   32  H6  UNL     1      -3.377   7.432  17.273  1.00  0.00     0.210 HD
ENDBRANCH   2  31
BRANCH   1  33
HETATM   33  C2  UNL     1      -4.838   6.403  15.378  1.00  0.00    -0.029 C 
HETATM   34  C1  UNL     1      -5.400   7.611  15.242  1.00  0.00     0.007 C 
ENDBRANCH   1  33
TORSDOF 10
ENDMDL
MODEL 6
REMARK minimizedAffinity -8.04756165
REMARK CNNscore 0.347771317
REMARK CNNaffinity 6.80781889
REMARK  10 active torsions:
REMARK  status: ('A' for Active; 'I' for Inactive)
REMARK    1  A    between atoms: C2_2  and  C3_3 
REMARK    2  A    between atoms: C4_4  and  O1_5 
REMARK    3  A    between atoms: C12_13  and  C13_14 
REMARK    4  A    between atoms: C13_14  and  C15_16 
REMARK    5  A    between atoms: C15_16  and  C16_17 
REMARK    6  A    between atoms: C16_17  and  C17_18 
REMARK    7  A    between atoms: C26_27  and  C27_28 
REMARK    8  A    between atoms: C27_28  and  C28_29 
REMARK    9  A    between atoms: C28_29  and  C29_30 
REMARK   10  A    between atoms: C29_30  and  O3_32 
ROOT
HETATM    1  C3  UNL     1       2.630   6.841  11.501  1.00  0.00     0.045 C 
HETATM    2  C4  UNL     1       1.613   5.781  11.015  1.00  0.00     0.127 C 
HETATM    3  C5  UNL     1       0.615   5.432  12.110  1.00  0.00     0.038 C 
HETATM    4  C6  UNL     1      -0.298   6.630  12.386  1.00  0.00     0.006 C 
HETATM    5  C7  UNL     1       0.519   7.871  12.813  1.00  0.00    -0.027 A 
HETATM    6  C8  UNL     1       0.129   8.520  14.146  1.00  0.00     0.011 C 
HETATM    7  C9  UNL     1      -1.366   8.546  14.516  1.00  0.00     0.011 C 
HETATM    8  C10 UNL     1      -2.262   7.637  13.666  1.00  0.00    -0.032 C 
HETATM    9  C11 UNL     1      -2.680   8.431  12.391  1.00  0.00     0.016 C 
HETATM   10  C12 UNL     1      -3.551   7.076  14.358  1.00  0.00    -0.002 C 
HETATM   11  C21 UNL     1      -3.855   5.815  13.507  1.00  0.00     0.006 C 
HETATM   12  C22 UNL     1      -2.571   5.429  12.756  1.00  0.00     0.011 C 
HETATM   13  C23 UNL     1      -1.467   6.315  13.360  1.00  0.00    -0.032 C 
HETATM   14  C24 UNL     1      -0.944   5.559  14.623  1.00  0.00     0.016 C 
HETATM   15  C25 UNL     1       0.906   8.822  11.696  1.00  0.00     0.022 A 
HETATM   16  C26 UNL     1       2.002   7.991  12.326  1.00  0.00    -0.022 A 
ENDROOT
BRANCH  10  17
HETATM   17  C13 UNL     1      -4.798   7.993  14.559  1.00  0.00    -0.014 C 
HETATM   18  C14 UNL     1      -4.447   9.258  15.358  1.00  0.00     0.010 C 
BRANCH  17  19
HETATM   19  C15 UNL     1      -5.949   7.270  15.317  1.00  0.00     0.008 C 
BRANCH  19  20
HETATM   20  C16 UNL     1      -7.183   6.960  14.461  1.00  0.00     0.028 C 
BRANCH  20  21
HETATM   21  C17 UNL     1      -7.277   5.489  14.153  1.00  0.00    -0.025 C 
HETATM   22  C18 UNL     1      -7.900   4.910  13.108  1.00  0.00    -0.091 C 
HETATM   23  C19 UNL     1      -7.934   3.410  12.969  1.00  0.00     0.042 C 
HETATM   24  C20 UNL     1      -8.592   5.652  11.998  1.00  0.00     0.042 C 
ENDBRANCH  20  21
ENDBRANCH  19  20
ENDBRANCH  17  19
ENDBRANCH  10  17
BRANCH  16  25
HETATM   25  C27 UNL     1       3.036   8.706  13.215  1.00  0.00     0.021 C 
BRANCH  25  26
HETATM   26  C28 UNL     1       4.210   7.819  13.633  1.00  0.00     0.111 C 
BRANCH  26  27
HETATM   27  C29 UNL     1       4.567   8.033  15.079  1.00  0.00     0.139 C 
HETATM   28  O2  UNL     1       4.355   9.021  15.761  1.00  0.00    -0.650 OA
BRANCH  27  29
HETATM   29  O3  UNL     1       5.190   6.960  15.607  1.00  0.00    -0.776 OA
HETATM   30  H46 UNL     1       5.361   7.219  16.536  1.00  0.00     0.167 HD
ENDBRANCH  27  29
ENDBRANCH  26  27
ENDBRANCH  25  26
ENDBRANCH  16  25
BRANCH   2  31
HETATM   31  O1  UNL     1       2.289   4.565  10.662  1.00  0.00    -0.395 OA
HETATM   32  H6  UNL     1       2.962   4.796   9.997  1.00  0.00     0.210 HD
ENDBRANCH   2  31
BRANCH   1  33
HETATM   33  C2  UNL     1       3.436   7.337  10.311  1.00  0.00    -0.029 C 
HETATM   34  C1  UNL     1       2.945   7.496   9.074  1.00  0.00     0.007 C 
ENDBRANCH   1  33
TORSDOF 10
ENDMDL
MODEL 7
REMARK minimizedAffinity -8.18158817
REMARK CNNscore 0.346819073
REMARK CNNaffinity 6.72354126
REMARK  10 active torsions:
REMARK  status: ('A' for Active; 'I' for Inactive)
REMARK    1  A    between atoms: C2_2  and  C3_3 
REMARK    2  A    between atoms: C4_4  and  O1_5 
REMARK    3  A    between atoms: C12_13  and  C13_14 
REMARK    4  A    between atoms: C13_14  and  C15_16 
REMARK    5  A    between atoms: C15_16  and  C16_17 
REMARK    6  A    between atoms: C16_17  and  C17_18 
REMARK    7  A    between atoms: C26_27  and  C27_28 
REMARK    8  A    between atoms: C27_28  and  C28_29 
REMARK    9  A    between atoms: C28_29  and  C29_30 
REMARK   10  A    between atoms: C29_30  and  O3_32 
ROOT
HETATM    1  C3  UNL     1      -0.116   6.614  12.028  1.00  0.00     0.045 C 
HETATM    2  C4  UNL     1      -0.314   7.917  12.838  1.00  0.00     0.127 C 
HETATM    3  C5  UNL     1      -1.780   8.325  12.877  1.00  0.00     0.038 C 
HETATM    4  C6  UNL     1      -2.580   7.321  13.712  1.00  0.00     0.006 C 
HETATM    5  C7  UNL     1      -2.460   5.891  13.136  1.00  0.00    -0.027 A 
HETATM    6  C8  UNL     1      -3.774   5.173  12.811  1.00  0.00     0.011 C 
HETATM    7  C9  UNL     1      -4.971   5.415  13.751  1.00  0.00     0.011 C 
HETATM    8  C10 UNL     1      -4.809   6.594  14.718  1.00  0.00    -0.032 C 
HETATM    9  C11 UNL     1      -4.063   6.076  15.986  1.00  0.00     0.016 C 
HETATM   10  C12 UNL     1      -6.123   7.319  15.166  1.00  0.00    -0.002 C 
HETATM   11  C21 UNL     1      -5.595   8.715  15.592  1.00  0.00     0.006 C 
HETATM   12  C22 UNL     1      -4.213   8.915  14.950  1.00  0.00     0.011 C 
HETATM   13  C23 UNL     1      -4.053   7.746  13.961  1.00  0.00    -0.032 C 
HETATM   14  C24 UNL     1      -4.727   8.206  12.630  1.00  0.00     0.016 C 
HETATM   15  C25 UNL     1      -1.359   5.032  13.729  1.00  0.00     0.022 A 
HETATM   16  C26 UNL     1      -1.181   5.525  12.309  1.00  0.00    -0.022 A 
ENDROOT
BRANCH  10  17
HETATM   17  C13 UNL     1      -7.057   6.668  16.234  1.00  0.00    -0.014 C 
HETATM   18  C14 UNL     1      -7.497   5.257  15.813  1.00  0.00     0.010 C 
BRANCH  17  19
HETATM   19  C15 UNL     1      -8.348   7.502  16.481  1.00  0.00     0.008 C 
BRANCH  19  20
HETATM   20  C16 UNL     1      -9.008   8.047  15.209  1.00  0.00     0.028 C 
BRANCH  20  21
HETATM   21  C17 UNL     1      -9.142   9.546  15.263  1.00  0.00    -0.025 C 
HETATM   22  C18 UNL     1     -10.146  10.297  14.772  1.00  0.00    -0.091 C 
HETATM   23  C19 UNL     1     -10.105  11.799  14.876  1.00  0.00     0.042 C 
HETATM   24  C20 UNL     1     -11.380   9.754  14.104  1.00  0.00     0.042 C 
ENDBRANCH  20  21
ENDBRANCH  19  20
ENDBRANCH  17  19
ENDBRANCH  10  17
BRANCH  16  25
HETATM   25  C27 UNL     1      -1.286   4.500  11.165  1.00  0.00     0.021 C 
BRANCH  25  26
HETATM   26  C28 UNL     1      -0.788   3.103  11.540  1.00  0.00     0.111 C 
BRANCH  26  27
HETATM   27  C29 UNL     1      -1.524   2.038  10.774  1.00  0.00     0.139 C 
HETATM   28  O2  UNL     1      -1.057   1.207  10.015  1.00  0.00    -0.650 OA
BRANCH  27  29
HETATM   29  O3  UNL     1      -2.851   2.076  11.011  1.00  0.00    -0.776 OA
HETATM   30  H46 UNL     1      -3.209   1.344  10.468  1.00  0.00     0.167 HD
ENDBRANCH  27  29
ENDBRANCH  26  27
ENDBRANCH  25  26
ENDBRANCH  16  25
BRANCH   2  31
HETATM   31  O1  UNL     1       0.405   8.999  12.226  1.00  0.00    -0.395 OA
HETATM   32  H6  UNL     1       1.334   8.719  12.156  1.00  0.00     0.210 HD
ENDBRANCH   2  31
BRANCH   1  33
HETATM   33  C2  UNL     1       1.306   6.116  12.230  1.00  0.00    -0.029 C 
HETATM   34  C1  UNL     1       2.390   6.904  12.263  1.00  0.00     0.007 C 
ENDBRANCH   1  33
TORSDOF 10
ENDMDL
MODEL 8
REMARK minimizedAffinity -6.63808489
REMARK CNNscore 0.314638436
REMARK CNNaffinity 6.27220583
REMARK  10 active torsions:
REMARK  status: ('A' for Active; 'I' for Inactive)
REMARK    1  A    between atoms: C2_2  and  C3_3 
REMARK    2  A    between atoms: C4_4  and  O1_5 
REMARK    3  A    between atoms: C12_13  and  C13_14 
REMARK    4  A    between atoms: C13_14  and  C15_16 
REMARK    5  A    between atoms: C15_16  and  C16_17 
REMARK    6  A    between atoms: C16_17  and  C17_18 
REMARK    7  A    between atoms: C26_27  and  C27_28 
REMARK    8  A    between atoms: C27_28  and  C28_29 
REMARK    9  A    between atoms: C28_29  and  C29_30 
REMARK   10  A    between atoms: C29_30  and  O3_32 
ROOT
HETATM    1  C3  UNL     1       3.039   6.175  10.645  1.00  0.00     0.045 C 
HETATM    2  C4  UNL     1       1.775   5.301  10.820  1.00  0.00     0.127 C 
HETATM    3  C5  UNL     1       1.162   5.487  12.201  1.00  0.00     0.038 C 
HETATM    4  C6  UNL     1       0.579   6.898  12.328  1.00  0.00     0.006 C 
HETATM    5  C7  UNL     1       1.665   7.975  12.098  1.00  0.00    -0.027 A 
HETATM    6  C8  UNL     1       1.843   9.012  13.213  1.00  0.00     0.011 C 
HETATM    7  C9  UNL     1       0.580   9.486  13.956  1.00  0.00     0.011 C 
HETATM    8  C10 UNL     1      -0.672   8.632  13.719  1.00  0.00    -0.032 C 
HETATM    9  C11 UNL     1      -1.373   9.156  12.428  1.00  0.00     0.016 C 
HETATM   10  C12 UNL     1      -1.721   8.588  14.882  1.00  0.00    -0.002 C 
HETATM   11  C21 UNL     1      -2.474   7.263  14.590  1.00  0.00     0.006 C 
HETATM   12  C22 UNL     1      -1.586   6.406  13.673  1.00  0.00     0.011 C 
HETATM   13  C23 UNL     1      -0.227   7.126  13.636  1.00  0.00    -0.032 C 
HETATM   14  C24 UNL     1       0.573   6.611  14.875  1.00  0.00     0.016 C 
HETATM   15  C25 UNL     1       1.789   8.493  10.679  1.00  0.00     0.022 A 
HETATM   16  C26 UNL     1       2.899   7.612  11.207  1.00  0.00    -0.022 A 
ENDROOT
BRANCH  10  17
HETATM   17  C13 UNL     1      -2.681   9.795  15.122  1.00  0.00    -0.014 C 
HETATM   18  C14 UNL     1      -4.088   9.516  14.570  1.00  0.00     0.010 C 
BRANCH  17  19
HETATM   19  C15 UNL     1      -2.169  11.102  14.450  1.00  0.00     0.008 C 
BRANCH  19  20
HETATM   20  C16 UNL     1      -2.383  12.373  15.280  1.00  0.00     0.028 C 
BRANCH  20  21
HETATM   21  C17 UNL     1      -2.657  12.042  16.723  1.00  0.00    -0.025 C 
HETATM   22  C18 UNL     1      -3.746  12.367  17.445  1.00  0.00    -0.091 C 
HETATM   23  C19 UNL     1      -3.844  11.989  18.900  1.00  0.00     0.042 C 
HETATM   24  C20 UNL     1      -4.947  13.098  16.911  1.00  0.00     0.042 C 
ENDBRANCH  20  21
ENDBRANCH  19  20
ENDBRANCH  17  19
ENDBRANCH  10  17
BRANCH  16  25
HETATM   25  C27 UNL     1       4.264   8.261  11.501  1.00  0.00     0.021 C 
BRANCH  25  26
HETATM   26  C28 UNL     1       4.974   8.797  10.257  1.00  0.00     0.111 C 
BRANCH  26  27
HETATM   27  C29 UNL     1       6.007   9.829  10.621  1.00  0.00     0.139 C 
HETATM   28  O2  UNL     1       7.196   9.821  10.353  1.00  0.00    -0.650 OA
BRANCH  27  29
HETATM   29  O3  UNL     1       5.472  10.847  11.325  1.00  0.00    -0.776 OA
HETATM   30  H46 UNL     1       6.231  11.443  11.493  1.00  0.00     0.167 HD
ENDBRANCH  27  29
ENDBRANCH  26  27
ENDBRANCH  25  26
ENDBRANCH  16  25
BRANCH   2  31
HETATM   31  O1  UNL     1       2.108   3.911  10.694  1.00  0.00    -0.395 OA
HETATM   32  H6  UNL     1       2.544   3.799   9.831  1.00  0.00     0.210 HD
ENDBRANCH   2  31
BRANCH   1  33
HETATM   33  C2  UNL     1       3.462   6.149   9.185  1.00  0.00    -0.029 C 
HETATM   34  C1  UNL     1       2.613   6.140   8.148  1.00  0.00     0.007 C 
ENDBRANCH   1  33
TORSDOF 10
ENDMDL
MODEL 9
REMARK minimizedAffinity -8.23898697
REMARK CNNscore 0.313158482
REMARK CNNaffinity 6.9962616
REMARK  10 active torsions:
REMARK  status: ('A' for Active; 'I' for Inactive)
REMARK    1  A    between atoms: C2_2  and  C3_3 
REMARK    2  A    between atoms: C4_4  and  O1_5 
REMARK    3  A    between atoms: C12_13  and  C13_14 
REMARK    4  A    between atoms: C13_14  and  C15_16 
REMARK    5  A    between atoms: C15_16  and  C16_17 
REMARK    6  A    between atoms: C16_17  and  C17_18 
REMARK    7  A    between atoms: C26_27  and  C27_28 
REMARK    8  A    between atoms: C27_28  and  C28_29 
REMARK    9  A    between atoms: C28_29  and  C29_30 
REMARK   10  A    between atoms: C29_30  and  O3_32 
ROOT
HETATM    1  C3  UNL     1       1.384   7.142  11.751  1.00  0.00     0.045 C 
HETATM    2  C4  UNL     1       0.439   6.092  11.120  1.00  0.00     0.127 C 
HETATM    3  C5  UNL     1      -0.531   5.534  12.153  1.00  0.00     0.038 C 
HETATM    4  C6  UNL     1      -1.521   6.620  12.582  1.00  0.00     0.006 C 
HETATM    5  C7  UNL     1      -0.787   7.844  13.177  1.00  0.00    -0.027 A 
HETATM    6  C8  UNL     1      -1.216   8.280  14.582  1.00  0.00     0.011 C 
HETATM    7  C9  UNL     1      -2.708   8.157  14.944  1.00  0.00     0.011 C 
HETATM    8  C10 UNL     1      -3.544   7.313  13.974  1.00  0.00    -0.032 C 
HETATM    9  C11 UNL     1      -4.018   8.242  12.815  1.00  0.00     0.016 C 
HETATM   10  C12 UNL     1      -4.790   6.579  14.577  1.00  0.00    -0.002 C 
HETATM   11  C21 UNL     1      -5.012   5.427  13.562  1.00  0.00     0.006 C 
HETATM   12  C22 UNL     1      -3.707   5.232  12.774  1.00  0.00     0.011 C 
HETATM   13  C23 UNL     1      -2.663   6.100  13.498  1.00  0.00    -0.032 C 
HETATM   14  C24 UNL     1      -2.087   5.217  14.651  1.00  0.00     0.016 C 
HETATM   15  C25 UNL     1      -0.469   8.960  12.201  1.00  0.00     0.022 A 
HETATM   16  C26 UNL     1       0.683   8.127  12.719  1.00  0.00    -0.022 A 
ENDROOT
BRANCH  10  17
HETATM   17  C13 UNL     1      -6.096   7.375  14.892  1.00  0.00    -0.014 C 
HETATM   18  C14 UNL     1      -5.784   8.793  15.396  1.00  0.00     0.010 C 
BRANCH  17  19
HETATM   19  C15 UNL     1      -6.968   6.679  15.977  1.00  0.00     0.008 C 
BRANCH  19  20
HETATM   20  C16 UNL     1      -8.002   5.690  15.427  1.00  0.00     0.028 C 
BRANCH  20  21
HETATM   21  C17 UNL     1      -8.478   6.104  14.059  1.00  0.00    -0.025 C 
HETATM   22  C18 UNL     1      -8.537   5.345  12.948  1.00  0.00    -0.091 C 
HETATM   23  C19 UNL     1      -9.005   5.930  11.641  1.00  0.00     0.042 C 
HETATM   24  C20 UNL     1      -8.175   3.887  12.881  1.00  0.00     0.042 C 
ENDBRANCH  20  21
ENDBRANCH  19  20
ENDBRANCH  17  19
ENDBRANCH  10  17
BRANCH  16  25
HETATM   25  C27 UNL     1       1.670   8.783  13.702  1.00  0.00     0.021 C 
BRANCH  25  26
HETATM   26  C28 UNL     1       2.779   7.846  14.183  1.00  0.00     0.111 C 
BRANCH  26  27
HETATM   27  C29 UNL     1       2.622   7.521  15.644  1.00  0.00     0.139 C 
HETATM   28  O2  UNL     1       1.836   8.010  16.436  1.00  0.00    -0.650 OA
BRANCH  27  29
HETATM   29  O3  UNL     1       3.490   6.569  16.042  1.00  0.00    -0.776 OA
HETATM   30  H46 UNL     1       3.287   6.446  16.992  1.00  0.00     0.167 HD
ENDBRANCH  27  29
ENDBRANCH  26  27
ENDBRANCH  25  26
ENDBRANCH  16  25
BRANCH   2  31
HETATM   31  O1  UNL     1       1.193   4.983  10.611  1.00  0.00    -0.395 OA
HETATM   32  H6  UNL     1       1.846   5.345   9.988  1.00  0.00     0.210 HD
ENDBRANCH   2  31
BRANCH   1  33
HETATM   33  C2  UNL     1       2.151   7.847  10.643  1.00  0.00    -0.029 C 
HETATM   34  C1  UNL     1       3.390   7.523  10.251  1.00  0.00     0.007 C 
ENDBRANCH   1  33
TORSDOF 10
ENDMDL
