MODEL 1
REMARK minimizedAffinity -7.77695084
REMARK CNNscore 0.632009685
REMARK CNNaffinity 7.16984367
REMARK  11 active torsions:
REMARK  status: ('A' for Active; 'I' for Inactive)
REMARK    1  A    between atoms: C3_3  and  O1_4 
REMARK    2  A    between atoms: N1_14  and  O2_16 
REMARK    3  A    between atoms: O2_16  and  C13_17 
REMARK    4  A    between atoms: C13_17  and  C14_18 
REMARK       I    between atoms: C14_18  and  N2_20 
REMARK    5  A    between atoms: N2_20  and  C15_21 
REMARK    6  A    between atoms: C15_21  and  C16_22 
REMARK    7  A    between atoms: C15_21  and  C19_27 
REMARK    8  A    between atoms: C16_22  and  O5_24 
REMARK    9  A    between atoms: O5_24  and  C17_25 
REMARK   10  A    between atoms: C19_27  and  O6_28 
REMARK   11  A    between atoms: C19_27  and  C20_29 
ROOT
HETATM    1  C1  UNL     1      -5.039   4.056  12.296  1.00  0.00     0.015 C 
HETATM    2  C2  UNL     1      -6.158   4.040  12.733  1.00  0.00    -0.078 C 
HETATM    3  C3  UNL     1      -7.533   4.005  13.279  1.00  0.00     0.128 C 
HETATM    4  C4  UNL     1      -7.481   3.933  14.813  1.00  0.00     0.052 C 
HETATM    5  C5  UNL     1      -7.576   5.380  15.312  1.00  0.00     0.010 C 
HETATM    6  C6  UNL     1      -7.793   6.269  14.071  1.00  0.00     0.002 C 
HETATM    7  C7  UNL     1      -8.642   7.539  14.298  1.00  0.00    -0.004 C 
HETATM    8  C8  UNL     1      -8.071   8.390  15.443  1.00  0.00     0.010 C 
HETATM    9  C9  UNL     1      -8.853   9.685  15.622  1.00  0.00     0.035 C 
HETATM   10  C10 UNL     1     -10.323   9.412  15.834  1.00  0.00    -0.069 C 
HETATM   11  C11 UNL     1     -10.948   9.927  16.909  1.00  0.00     0.030 C 
HETATM   12  C12 UNL     1     -12.411   9.743  17.117  1.00  0.00     0.032 C 
HETATM   13  N1  UNL     1     -13.074  10.018  18.198  1.00  0.00    -0.271 N 
ATOM     14  H1  UNL     1     -14.080   9.883  18.299  1.00  0.00     0.194 HD
HETATM   15  C26 UNL     1     -13.200   9.217  15.939  1.00  0.00     0.060 C 
HETATM   16  C27 UNL     1     -12.421   8.099  15.265  1.00  0.00     0.020 C 
HETATM   17  C28 UNL     1     -11.009   8.537  14.776  1.00  0.00    -0.016 C 
HETATM   18  C29 UNL     1     -11.173   9.379  13.489  1.00  0.00     0.020 C 
HETATM   19  C30 UNL     1     -10.145   7.237  14.531  1.00  0.00     0.002 C 
HETATM   20  C31 UNL     1     -10.686   6.348  13.394  1.00  0.00     0.007 C 
HETATM   21  C32 UNL     1      -9.876   5.061  13.235  1.00  0.00     0.014 C 
HETATM   22  C33 UNL     1      -8.359   5.303  13.004  1.00  0.00     0.003 C 
HETATM   23  C34 UNL     1      -8.160   5.848  11.575  1.00  0.00     0.020 C 
ENDROOT
BRANCH   3  24
HETATM   24  O1  UNL     1      -8.184   2.851  12.768  1.00  0.00    -0.377 OA
HETATM   25  H2  UNL     1      -8.090   2.881  11.801  1.00  0.00     0.211 HD
ENDBRANCH   3  24
BRANCH  13  26
HETATM   26  O2  UNL     1     -12.246  10.522  19.211  1.00  0.00    -0.271 OA
BRANCH  26  27
HETATM   27  C13 UNL     1     -11.880   9.457  20.084  1.00  0.00     0.303 C 
BRANCH  27  28
HETATM   28  C14 UNL     1     -12.010   9.869  21.544  1.00  0.00     0.244 C 
HETATM   29  O3  UNL     1     -12.931  10.572  21.951  1.00  0.00    -0.271 OA
HETATM   30  N2  UNL     1     -10.980   9.446  22.357  1.00  0.00    -0.343 N 
HETATM   31  H16 UNL     1     -10.138   9.122  21.888  1.00  0.00     0.163 HD
BRANCH  30  32
HETATM   32  C15 UNL     1     -10.790  10.019  23.704  1.00  0.00     0.217 C 
BRANCH  32  33
HETATM   33  C16 UNL     1     -11.840   9.468  24.683  1.00  0.00     0.284 C 
HETATM   34  O4  UNL     1     -12.308  10.100  25.624  1.00  0.00    -0.263 OA
BRANCH  33  35
HETATM   35  O5  UNL     1     -12.225   8.196  24.353  1.00  0.00    -0.320 OA
BRANCH  35  36
HETATM   36  C17 UNL     1     -13.637   7.941  24.381  1.00  0.00     0.174 C 
HETATM   37  C18 UNL     1     -13.896   6.452  24.514  1.00  0.00     0.034 C 
ENDBRANCH  35  36
ENDBRANCH  33  35
ENDBRANCH  32  33
BRANCH  32  38
HETATM   38  C19 UNL     1     -10.866  11.559  23.615  1.00  0.00     0.183 C 
BRANCH  38  39
HETATM   39  O6  UNL     1     -11.150  12.134  24.900  1.00  0.00    -0.388 OA
HETATM   40  H24 UNL     1     -10.948  13.085  24.830  1.00  0.00     0.210 HD
ENDBRANCH  38  39
BRANCH  38  41
HETATM   41  C20 UNL     1      -9.684  12.237  22.953  1.00  0.00    -0.027 A 
HETATM   42  C21 UNL     1      -8.528  12.576  23.676  1.00  0.00     0.010 A 
HETATM   43  C22 UNL     1      -7.446  13.188  23.043  1.00  0.00     0.001 A 
HETATM   44  C23 UNL     1      -7.502  13.474  21.681  1.00  0.00     0.000 A 
HETATM   45  C24 UNL     1      -8.641  13.146  20.949  1.00  0.00     0.001 A 
HETATM   46  C25 UNL     1      -9.725  12.530  21.581  1.00  0.00     0.010 A 
ENDBRANCH  38  41
ENDBRANCH  32  38
ENDBRANCH  30  32
ENDBRANCH  27  28
ENDBRANCH  26  27
ENDBRANCH  13  26
TORSDOF 11
ENDMDL
MODEL 2
REMARK minimizedAffinity -9.22339725
REMARK CNNscore 0.511160553
REMARK CNNaffinity 7.63601923
REMARK  11 active torsions:
REMARK  status: ('A' for Active; 'I' for Inactive)
REMARK    1  A    between atoms: C3_3  and  O1_4 
REMARK    2  A    between atoms: N1_14  and  O2_16 
REMARK    3  A    between atoms: O2_16  and  C13_17 
REMARK    4  A    between atoms: C13_17  and  C14_18 
REMARK       I    between atoms: C14_18  and  N2_20 
REMARK    5  A    between atoms: N2_20  and  C15_21 
REMARK    6  A    between atoms: C15_21  and  C16_22 
REMARK    7  A    between atoms: C15_21  and  C19_27 
REMARK    8  A    between atoms: C16_22  and  O5_24 
REMARK    9  A    between atoms: O5_24  and  C17_25 
REMARK   10  A    between atoms: C19_27  and  O6_28 
REMARK   11  A    between atoms: C19_27  and  C20_29 
ROOT
HETATM    1  C1  UNL     1       2.630   5.766   6.647  1.00  0.00     0.015 C 
HETATM    2  C2  UNL     1       2.507   6.512   7.580  1.00  0.00    -0.078 C 
HETATM    3  C3  UNL     1       2.358   7.444   8.720  1.00  0.00     0.128 C 
HETATM    4  C4  UNL     1       1.112   8.320   8.514  1.00  0.00     0.052 C 
HETATM    5  C5  UNL     1      -0.033   7.614   9.251  1.00  0.00     0.010 C 
HETATM    6  C6  UNL     1       0.581   6.394   9.968  1.00  0.00     0.002 C 
HETATM    7  C7  UNL     1      -0.091   5.995  11.301  1.00  0.00    -0.004 C 
HETATM    8  C8  UNL     1      -1.600   5.774  11.117  1.00  0.00     0.010 C 
HETATM    9  C9  UNL     1      -2.258   5.301  12.407  1.00  0.00     0.035 C 
HETATM   10  C10 UNL     1      -1.988   6.259  13.543  1.00  0.00    -0.069 C 
HETATM   11  C11 UNL     1      -3.017   6.764  14.248  1.00  0.00     0.030 C 
HETATM   12  C12 UNL     1      -2.791   7.654  15.420  1.00  0.00     0.032 C 
HETATM   13  N1  UNL     1      -3.693   8.349  16.043  1.00  0.00    -0.271 N 
ATOM     14  H1  UNL     1      -3.498   8.943  16.848  1.00  0.00     0.194 HD
HETATM   15  C26 UNL     1      -1.378   7.723  15.953  1.00  0.00     0.060 C 
HETATM   16  C27 UNL     1      -0.400   7.798  14.792  1.00  0.00     0.020 C 
HETATM   17  C28 UNL     1      -0.514   6.596  13.808  1.00  0.00    -0.016 C 
HETATM   18  C29 UNL     1       0.150   5.361  14.461  1.00  0.00     0.020 C 
HETATM   19  C30 UNL     1       0.184   7.000  12.450  1.00  0.00     0.002 C 
HETATM   20  C31 UNL     1       1.700   7.240  12.589  1.00  0.00     0.007 C 
HETATM   21  C32 UNL     1       2.332   7.705  11.277  1.00  0.00     0.014 C 
HETATM   22  C33 UNL     1       2.084   6.738  10.086  1.00  0.00     0.003 C 
HETATM   23  C34 UNL     1       2.945   5.475  10.291  1.00  0.00     0.020 C 
ENDROOT
BRANCH   3  24
HETATM   24  O1  UNL     1       3.515   8.266   8.777  1.00  0.00    -0.377 OA
HETATM   25  H2  UNL     1       4.282   7.668   8.787  1.00  0.00     0.211 HD
ENDBRANCH   3  24
BRANCH  13  26
HETATM   26  O2  UNL     1      -4.966   8.187  15.478  1.00  0.00    -0.271 OA
BRANCH  26  27
HETATM   27  C13 UNL     1      -5.394   6.843  15.676  1.00  0.00     0.303 C 
BRANCH  27  28
HETATM   28  C14 UNL     1      -6.291   6.376  14.537  1.00  0.00     0.244 C 
HETATM   29  O3  UNL     1      -6.330   6.948  13.451  1.00  0.00    -0.271 OA
HETATM   30  N2  UNL     1      -7.101   5.303  14.843  1.00  0.00    -0.343 N 
HETATM   31  H16 UNL     1      -7.205   5.082  15.830  1.00  0.00     0.163 HD
BRANCH  30  32
HETATM   32  C15 UNL     1      -8.237   4.936  13.975  1.00  0.00     0.217 C 
BRANCH  32  33
HETATM   33  C16 UNL     1      -7.838   3.818  12.998  1.00  0.00     0.284 C 
HETATM   34  O4  UNL     1      -8.441   2.757  12.877  1.00  0.00    -0.263 OA
BRANCH  33  35
HETATM   35  O5  UNL     1      -6.750   4.167  12.243  1.00  0.00    -0.320 OA
BRANCH  35  36
HETATM   36  C17 UNL     1      -5.584   3.346  12.407  1.00  0.00     0.174 C 
HETATM   37  C18 UNL     1      -5.472   2.363  11.257  1.00  0.00     0.034 C 
ENDBRANCH  35  36
ENDBRANCH  33  35
ENDBRANCH  32  33
BRANCH  32  38
HETATM   38  C19 UNL     1      -8.722   6.192  13.217  1.00  0.00     0.183 C 
BRANCH  38  39
HETATM   39  O6  UNL     1      -8.990   5.888  11.839  1.00  0.00    -0.388 OA
HETATM   40  H24 UNL     1      -9.509   6.633  11.486  1.00  0.00     0.210 HD
ENDBRANCH  38  39
BRANCH  38  41
HETATM   41  C20 UNL     1      -9.875   6.939  13.855  1.00  0.00    -0.027 A 
HETATM   42  C21 UNL     1      -9.716   7.660  15.049  1.00  0.00     0.010 A 
HETATM   43  C22 UNL     1     -10.789   8.352  15.612  1.00  0.00     0.001 A 
HETATM   44  C23 UNL     1     -12.036   8.331  14.993  1.00  0.00     0.000 A 
HETATM   45  C24 UNL     1     -12.212   7.619  13.809  1.00  0.00     0.001 A 
HETATM   46  C25 UNL     1     -11.138   6.929  13.242  1.00  0.00     0.010 A 
ENDBRANCH  38  41
ENDBRANCH  32  38
ENDBRANCH  30  32
ENDBRANCH  27  28
ENDBRANCH  26  27
ENDBRANCH  13  26
TORSDOF 11
ENDMDL
MODEL 3
REMARK minimizedAffinity -7.13174868
REMARK CNNscore 0.478491545
REMARK CNNaffinity 6.70124102
REMARK  11 active torsions:
REMARK  status: ('A' for Active; 'I' for Inactive)
REMARK    1  A    between atoms: C3_3  and  O1_4 
REMARK    2  A    between atoms: N1_14  and  O2_16 
REMARK    3  A    between atoms: O2_16  and  C13_17 
REMARK    4  A    between atoms: C13_17  and  C14_18 
REMARK       I    between atoms: C14_18  and  N2_20 
REMARK    5  A    between atoms: N2_20  and  C15_21 
REMARK    6  A    between atoms: C15_21  and  C16_22 
REMARK    7  A    between atoms: C15_21  and  C19_27 
REMARK    8  A    between atoms: C16_22  and  O5_24 
REMARK    9  A    between atoms: O5_24  and  C17_25 
REMARK   10  A    between atoms: C19_27  and  O6_28 
REMARK   11  A    between atoms: C19_27  and  C20_29 
ROOT
HETATM    1  C1  UNL     1       2.704   6.196   8.292  1.00  0.00     0.015 C 
HETATM    2  C2  UNL     1       2.707   6.434   9.469  1.00  0.00    -0.078 C 
HETATM    3  C3  UNL     1       2.726   6.733  10.918  1.00  0.00     0.128 C 
HETATM    4  C4  UNL     1       2.806   8.252  11.133  1.00  0.00     0.052 C 
HETATM    5  C5  UNL     1       1.360   8.738  11.295  1.00  0.00     0.010 C 
HETATM    6  C6  UNL     1       0.463   7.483  11.283  1.00  0.00     0.002 C 
HETATM    7  C7  UNL     1      -0.818   7.569  12.143  1.00  0.00    -0.004 C 
HETATM    8  C8  UNL     1      -1.656   8.801  11.768  1.00  0.00     0.010 C 
HETATM    9  C9  UNL     1      -2.960   8.850  12.553  1.00  0.00     0.035 C 
HETATM   10  C10 UNL     1      -2.706   8.804  14.041  1.00  0.00    -0.069 C 
HETATM   11  C11 UNL     1      -3.224   9.758  14.836  1.00  0.00     0.030 C 
HETATM   12  C12 UNL     1      -3.059   9.709  16.315  1.00  0.00     0.032 C 
HETATM   13  N1  UNL     1      -3.338  10.661  17.151  1.00  0.00    -0.271 N 
ATOM     14  H1  UNL     1      -3.215  10.586  18.161  1.00  0.00     0.194 HD
HETATM   15  C26 UNL     1      -2.548   8.409  16.895  1.00  0.00     0.060 C 
HETATM   16  C27 UNL     1      -1.423   7.872  16.026  1.00  0.00     0.020 C 
HETATM   17  C28 UNL     1      -1.844   7.637  14.545  1.00  0.00    -0.016 C 
HETATM   18  C29 UNL     1      -2.695   6.347  14.473  1.00  0.00     0.020 C 
HETATM   19  C30 UNL     1      -0.534   7.537  13.667  1.00  0.00     0.002 C 
HETATM   20  C31 UNL     1       0.343   6.318  14.015  1.00  0.00     0.007 C 
HETATM   21  C32 UNL     1       1.640   6.292  13.205  1.00  0.00     0.014 C 
HETATM   22  C33 UNL     1       1.417   6.329  11.668  1.00  0.00     0.003 C 
HETATM   23  C34 UNL     1       0.868   4.959  11.218  1.00  0.00     0.020 C 
ENDROOT
BRANCH   3  24
HETATM   24  O1  UNL     1       3.870   6.110  11.486  1.00  0.00    -0.377 OA
HETATM   25  H2  UNL     1       3.837   5.174  11.225  1.00  0.00     0.211 HD
ENDBRANCH   3  24
BRANCH  13  26
HETATM   26  O2  UNL     1      -3.826  11.805  16.505  1.00  0.00    -0.271 OA
BRANCH  26  27
HETATM   27  C13 UNL     1      -3.554  12.946  17.312  1.00  0.00     0.303 C 
BRANCH  27  28
HETATM   28  C14 UNL     1      -4.374  12.924  18.595  1.00  0.00     0.244 C 
HETATM   29  O3  UNL     1      -4.212  12.075  19.467  1.00  0.00    -0.271 OA
HETATM   30  N2  UNL     1      -5.355  13.891  18.669  1.00  0.00    -0.343 N 
HETATM   31  H16 UNL     1      -5.598  14.356  17.798  1.00  0.00     0.163 HD
BRANCH  30  32
HETATM   32  C15 UNL     1      -6.427  13.809  19.680  1.00  0.00     0.217 C 
BRANCH  32  33
HETATM   33  C16 UNL     1      -7.737  14.402  19.134  1.00  0.00     0.284 C 
HETATM   34  O4  UNL     1      -8.006  15.598  19.128  1.00  0.00    -0.263 OA
BRANCH  33  35
HETATM   35  O5  UNL     1      -8.554  13.435  18.612  1.00  0.00    -0.320 OA
BRANCH  35  36
HETATM   36  C17 UNL     1      -9.964  13.664  18.747  1.00  0.00     0.174 C 
HETATM   37  C18 UNL     1     -10.715  12.348  18.693  1.00  0.00     0.034 C 
ENDBRANCH  35  36
ENDBRANCH  33  35
ENDBRANCH  32  33
BRANCH  32  38
HETATM   38  C19 UNL     1      -5.975  14.544  20.961  1.00  0.00     0.183 C 
BRANCH  38  39
HETATM   39  O6  UNL     1      -5.762  15.941  20.704  1.00  0.00    -0.388 OA
HETATM   40  H24 UNL     1      -5.720  16.380  21.572  1.00  0.00     0.210 HD
ENDBRANCH  38  39
BRANCH  38  41
HETATM   41  C20 UNL     1      -6.847  14.331  22.182  1.00  0.00    -0.027 A 
HETATM   42  C21 UNL     1      -7.488  13.106  22.425  1.00  0.00     0.010 A 
HETATM   43  C22 UNL     1      -8.277  12.929  23.563  1.00  0.00     0.001 A 
HETATM   44  C23 UNL     1      -8.438  13.971  24.472  1.00  0.00     0.000 A 
HETATM   45  C24 UNL     1      -7.810  15.193  24.245  1.00  0.00     0.001 A 
HETATM   46  C25 UNL     1      -7.018  15.373  23.107  1.00  0.00     0.010 A 
ENDBRANCH  38  41
ENDBRANCH  32  38
ENDBRANCH  30  32
ENDBRANCH  27  28
ENDBRANCH  26  27
ENDBRANCH  13  26
TORSDOF 11
ENDMDL
MODEL 4
REMARK minimizedAffinity -7.0930891
REMARK CNNscore 0.315753102
REMARK CNNaffinity 6.87549782
REMARK  11 active torsions:
REMARK  status: ('A' for Active; 'I' for Inactive)
REMARK    1  A    between atoms: C3_3  and  O1_4 
REMARK    2  A    between atoms: N1_14  and  O2_16 
REMARK    3  A    between atoms: O2_16  and  C13_17 
REMARK    4  A    between atoms: C13_17  and  C14_18 
REMARK       I    between atoms: C14_18  and  N2_20 
REMARK    5  A    between atoms: N2_20  and  C15_21 
REMARK    6  A    between atoms: C15_21  and  C16_22 
REMARK    7  A    between atoms: C15_21  and  C19_27 
REMARK    8  A    between atoms: C16_22  and  O5_24 
REMARK    9  A    between atoms: O5_24  and  C17_25 
REMARK   10  A    between atoms: C19_27  and  O6_28 
REMARK   11  A    between atoms: C19_27  and  C20_29 
ROOT
HETATM    1  C1  UNL     1      -7.549   2.413  13.306  1.00  0.00     0.015 C 
HETATM    2  C2  UNL     1      -7.329   3.593  13.274  1.00  0.00    -0.078 C 
HETATM    3  C3  UNL     1      -7.049   5.045  13.220  1.00  0.00     0.128 C 
HETATM    4  C4  UNL     1      -7.645   5.642  11.936  1.00  0.00     0.052 C 
HETATM    5  C5  UNL     1      -9.036   6.167  12.314  1.00  0.00     0.010 C 
HETATM    6  C6  UNL     1      -9.189   5.970  13.836  1.00  0.00     0.002 C 
HETATM    7  C7  UNL     1     -10.056   7.024  14.561  1.00  0.00    -0.004 C 
HETATM    8  C8  UNL     1     -11.446   7.137  13.917  1.00  0.00     0.010 C 
HETATM    9  C9  UNL     1     -12.337   8.113  14.675  1.00  0.00     0.035 C 
HETATM   10  C10 UNL     1     -11.685   9.471  14.793  1.00  0.00    -0.069 C 
HETATM   11  C11 UNL     1     -12.348  10.566  14.380  1.00  0.00     0.030 C 
HETATM   12  C12 UNL     1     -11.771  11.929  14.546  1.00  0.00     0.032 C 
HETATM   13  N1  UNL     1     -12.222  13.024  14.014  1.00  0.00    -0.271 N 
ATOM     14  H1  UNL     1     -11.801  13.942  14.157  1.00  0.00     0.194 HD
HETATM   15  C26 UNL     1     -10.564  12.047  15.449  1.00  0.00     0.060 C 
HETATM   16  C27 UNL     1      -9.615  10.890  15.182  1.00  0.00     0.020 C 
HETATM   17  C28 UNL     1     -10.270   9.493  15.388  1.00  0.00    -0.016 C 
HETATM   18  C29 UNL     1     -10.385   9.222  16.907  1.00  0.00     0.020 C 
HETATM   19  C30 UNL     1      -9.377   8.414  14.657  1.00  0.00     0.002 C 
HETATM   20  C31 UNL     1      -7.968   8.272  15.266  1.00  0.00     0.007 C 
HETATM   21  C32 UNL     1      -7.102   7.280  14.489  1.00  0.00     0.014 C 
HETATM   22  C33 UNL     1      -7.737   5.868  14.356  1.00  0.00     0.003 C 
HETATM   23  C34 UNL     1      -7.669   5.167  15.729  1.00  0.00     0.020 C 
ENDROOT
BRANCH   3  24
HETATM   24  O1  UNL     1      -5.640   5.226  13.221  1.00  0.00    -0.377 OA
HETATM   25  H2  UNL     1      -5.295   4.734  13.986  1.00  0.00     0.211 HD
ENDBRANCH   3  24
BRANCH  13  26
HETATM   26  O2  UNL     1     -13.355  12.798  13.220  1.00  0.00    -0.271 OA
BRANCH  26  27
HETATM   27  C13 UNL     1     -13.870  14.050  12.778  1.00  0.00     0.303 C 
BRANCH  27  28
HETATM   28  C14 UNL     1     -12.805  14.859  12.049  1.00  0.00     0.244 C 
HETATM   29  O3  UNL     1     -12.412  14.567  10.922  1.00  0.00    -0.271 OA
HETATM   30  N2  UNL     1     -12.273  15.902  12.777  1.00  0.00    -0.343 N 
HETATM   31  H16 UNL     1     -12.450  15.890  13.778  1.00  0.00     0.163 HD
BRANCH  30  32
HETATM   32  C15 UNL     1     -11.030  16.571  12.348  1.00  0.00     0.217 C 
BRANCH  32  33
HETATM   33  C16 UNL     1     -10.197  17.006  13.565  1.00  0.00     0.284 C 
HETATM   34  O4  UNL     1     -10.668  17.297  14.659  1.00  0.00    -0.263 OA
BRANCH  33  35
HETATM   35  O5  UNL     1      -8.855  16.988  13.295  1.00  0.00    -0.320 OA
BRANCH  35  36
HETATM   36  C17 UNL     1      -8.136  18.192  13.600  1.00  0.00     0.174 C 
HETATM   37  C18 UNL     1      -6.990  17.891  14.547  1.00  0.00     0.034 C 
ENDBRANCH  35  36
ENDBRANCH  33  35
ENDBRANCH  32  33
BRANCH  32  38
HETATM   38  C19 UNL     1     -11.387  17.782  11.457  1.00  0.00     0.183 C 
BRANCH  38  39
HETATM   39  O6  UNL     1     -11.226  19.014  12.177  1.00  0.00    -0.388 OA
HETATM   40  H24 UNL     1     -11.228  19.726  11.512  1.00  0.00     0.210 HD
ENDBRANCH  38  39
BRANCH  38  41
HETATM   41  C20 UNL     1     -10.695  17.832  10.110  1.00  0.00    -0.027 A 
HETATM   42  C21 UNL     1      -9.329  18.133   9.994  1.00  0.00     0.010 A 
HETATM   43  C22 UNL     1      -8.710  18.161   8.743  1.00  0.00     0.001 A 
HETATM   44  C23 UNL     1      -9.446  17.891   7.592  1.00  0.00     0.000 A 
HETATM   45  C24 UNL     1     -10.803  17.592   7.689  1.00  0.00     0.001 A 
HETATM   46  C25 UNL     1     -11.424  17.561   8.941  1.00  0.00     0.010 A 
ENDBRANCH  38  41
ENDBRANCH  32  38
ENDBRANCH  30  32
ENDBRANCH  27  28
ENDBRANCH  26  27
ENDBRANCH  13  26
TORSDOF 11
ENDMDL
MODEL 5
REMARK minimizedAffinity -10.0106945
REMARK CNNscore 0.307034373
REMARK CNNaffinity 7.21551943
REMARK  11 active torsions:
REMARK  status: ('A' for Active; 'I' for Inactive)
REMARK    1  A    between atoms: C3_3  and  O1_4 
REMARK    2  A    between atoms: N1_14  and  O2_16 
REMARK    3  A    between atoms: O2_16  and  C13_17 
REMARK    4  A    between atoms: C13_17  and  C14_18 
REMARK       I    between atoms: C14_18  and  N2_20 
REMARK    5  A    between atoms: N2_20  and  C15_21 
REMARK    6  A    between atoms: C15_21  and  C16_22 
REMARK    7  A    between atoms: C15_21  and  C19_27 
REMARK    8  A    between atoms: C16_22  and  O5_24 
REMARK    9  A    between atoms: O5_24  and  C17_25 
REMARK   10  A    between atoms: C19_27  and  O6_28 
REMARK   11  A    between atoms: C19_27  and  C20_29 
ROOT
HETATM    1  C1  UNL     1       2.800   5.545   7.071  1.00  0.00     0.015 C 
HETATM    2  C2  UNL     1       2.650   6.467   7.828  1.00  0.00    -0.078 C 
HETATM    3  C3  UNL     1       2.468   7.612   8.746  1.00  0.00     0.128 C 
HETATM    4  C4  UNL     1       1.191   8.380   8.371  1.00  0.00     0.052 C 
HETATM    5  C5  UNL     1       0.073   7.805   9.250  1.00  0.00     0.010 C 
HETATM    6  C6  UNL     1       0.731   6.787  10.203  1.00  0.00     0.002 C 
HETATM    7  C7  UNL     1       0.075   6.655  11.595  1.00  0.00    -0.004 C 
HETATM    8  C8  UNL     1      -1.425   6.347  11.474  1.00  0.00     0.010 C 
HETATM    9  C9  UNL     1      -2.065   6.134  12.840  1.00  0.00     0.035 C 
HETATM   10  C10 UNL     1      -1.829   7.319  13.746  1.00  0.00    -0.069 C 
HETATM   11  C11 UNL     1      -2.875   7.924  14.337  1.00  0.00     0.030 C 
HETATM   12  C12 UNL     1      -2.681   9.049  15.294  1.00  0.00     0.032 C 
HETATM   13  N1  UNL     1      -3.607   9.827  15.763  1.00  0.00    -0.271 N 
ATOM     14  H1  UNL     1      -3.434  10.585  16.424  1.00  0.00     0.194 HD
HETATM   15  C26 UNL     1      -1.271   9.279  15.789  1.00  0.00     0.060 C 
HETATM   16  C27 UNL     1      -0.297   9.142  14.630  1.00  0.00     0.020 C 
HETATM   17  C28 UNL     1      -0.368   7.756  13.923  1.00  0.00    -0.016 C 
HETATM   18  C29 UNL     1       0.341   6.711  14.816  1.00  0.00     0.020 C 
HETATM   19  C30 UNL     1       0.314   7.888  12.504  1.00  0.00     0.002 C 
HETATM   20  C31 UNL     1       1.821   8.205  12.577  1.00  0.00     0.007 C 
HETATM   21  C32 UNL     1       2.435   8.405  11.191  1.00  0.00     0.014 C 
HETATM   22  C33 UNL     1       2.221   7.201  10.233  1.00  0.00     0.003 C 
HETATM   23  C34 UNL     1       3.128   6.041  10.693  1.00  0.00     0.020 C 
ENDROOT
BRANCH   3  24
HETATM   24  O1  UNL     1       3.595   8.467   8.619  1.00  0.00    -0.377 OA
HETATM   25  H2  UNL     1       4.383   7.913   8.749  1.00  0.00     0.211 HD
ENDBRANCH   3  24
BRANCH  13  26
HETATM   26  O2  UNL     1      -4.874   9.505  15.256  1.00  0.00    -0.271 OA
BRANCH  26  27
HETATM   27  C13 UNL     1      -5.119   8.118  15.466  1.00  0.00     0.303 C 
BRANCH  27  28
HETATM   28  C14 UNL     1      -5.750   7.476  14.238  1.00  0.00     0.244 C 
HETATM   29  O3  UNL     1      -5.610   7.937  13.108  1.00  0.00    -0.271 OA
HETATM   30  N2  UNL     1      -6.543   6.379  14.502  1.00  0.00    -0.343 N 
HETATM   31  H16 UNL     1      -6.824   6.248  15.471  1.00  0.00     0.163 HD
BRANCH  30  32
HETATM   32  C15 UNL     1      -7.467   5.846  13.483  1.00  0.00     0.217 C 
BRANCH  32  33
HETATM   33  C16 UNL     1      -8.864   6.471  13.633  1.00  0.00     0.284 C 
HETATM   34  O4  UNL     1      -9.770   6.346  12.816  1.00  0.00    -0.263 OA
BRANCH  33  35
HETATM   35  O5  UNL     1      -8.992   7.151  14.814  1.00  0.00    -0.320 OA
BRANCH  35  36
HETATM   36  C17 UNL     1     -10.328   7.523  15.182  1.00  0.00     0.174 C 
HETATM   37  C18 UNL     1     -11.328   6.881  14.239  1.00  0.00     0.034 C 
ENDBRANCH  35  36
ENDBRANCH  33  35
ENDBRANCH  32  33
BRANCH  32  38
HETATM   38  C19 UNL     1      -7.529   4.308  13.610  1.00  0.00     0.183 C 
BRANCH  38  39
HETATM   39  O6  UNL     1      -8.849   3.821  13.321  1.00  0.00    -0.388 OA
HETATM   40  H24 UNL     1      -8.767   2.861  13.182  1.00  0.00     0.210 HD
ENDBRANCH  38  39
BRANCH  38  41
HETATM   41  C20 UNL     1      -6.474   3.543  12.835  1.00  0.00    -0.027 A 
HETATM   42  C21 UNL     1      -6.769   2.331  12.188  1.00  0.00     0.010 A 
HETATM   43  C22 UNL     1      -5.785   1.650  11.470  1.00  0.00     0.001 A 
HETATM   44  C23 UNL     1      -4.494   2.167  11.389  1.00  0.00     0.000 A 
HETATM   45  C24 UNL     1      -4.185   3.366  12.026  1.00  0.00     0.001 A 
HETATM   46  C25 UNL     1      -5.169   4.051  12.744  1.00  0.00     0.010 A 
ENDBRANCH  38  41
ENDBRANCH  32  38
ENDBRANCH  30  32
ENDBRANCH  27  28
ENDBRANCH  26  27
ENDBRANCH  13  26
TORSDOF 11
ENDMDL
MODEL 6
REMARK minimizedAffinity -7.09961605
REMARK CNNscore 0.20897986
REMARK CNNaffinity 5.95459604
REMARK  11 active torsions:
REMARK  status: ('A' for Active; 'I' for Inactive)
REMARK    1  A    between atoms: C3_3  and  O1_4 
REMARK    2  A    between atoms: N1_14  and  O2_16 
REMARK    3  A    between atoms: O2_16  and  C13_17 
REMARK    4  A    between atoms: C13_17  and  C14_18 
REMARK       I    between atoms: C14_18  and  N2_20 
REMARK    5  A    between atoms: N2_20  and  C15_21 
REMARK    6  A    between atoms: C15_21  and  C16_22 
REMARK    7  A    between atoms: C15_21  and  C19_27 
REMARK    8  A    between atoms: C16_22  and  O5_24 
REMARK    9  A    between atoms: O5_24  and  C17_25 
REMARK   10  A    between atoms: C19_27  and  O6_28 
REMARK   11  A    between atoms: C19_27  and  C20_29 
ROOT
HETATM    1  C1  UNL     1     -11.816  11.494  14.538  1.00  0.00     0.015 C 
HETATM    2  C2  UNL     1     -12.278  10.682  13.783  1.00  0.00    -0.078 C 
HETATM    3  C3  UNL     1     -12.831   9.681  12.845  1.00  0.00     0.128 C 
HETATM    4  C4  UNL     1     -12.031   8.373  12.949  1.00  0.00     0.052 C 
HETATM    5  C5  UNL     1     -12.782   7.492  13.955  1.00  0.00     0.010 C 
HETATM    6  C6  UNL     1     -14.067   8.250  14.343  1.00  0.00     0.002 C 
HETATM    7  C7  UNL     1     -15.289   7.366  14.677  1.00  0.00    -0.004 C 
HETATM    8  C8  UNL     1     -14.950   6.342  15.771  1.00  0.00     0.010 C 
HETATM    9  C9  UNL     1     -16.170   5.520  16.167  1.00  0.00     0.035 C 
HETATM   10  C10 UNL     1     -16.785   4.842  14.966  1.00  0.00    -0.069 C 
HETATM   11  C11 UNL     1     -16.988   3.512  14.983  1.00  0.00     0.030 C 
HETATM   12  C12 UNL     1     -17.658   2.815  13.851  1.00  0.00     0.032 C 
HETATM   13  N1  UNL     1     -17.727   1.532  13.670  1.00  0.00    -0.271 N 
ATOM     14  H1  UNL     1     -18.202   1.092  12.882  1.00  0.00     0.194 HD
HETATM   15  C26 UNL     1     -18.353   3.693  12.834  1.00  0.00     0.060 C 
HETATM   16  C27 UNL     1     -17.483   4.899  12.524  1.00  0.00     0.020 C 
HETATM   17  C28 UNL     1     -17.138   5.752  13.781  1.00  0.00    -0.016 C 
HETATM   18  C29 UNL     1     -18.384   6.583  14.169  1.00  0.00     0.020 C 
HETATM   19  C30 UNL     1     -15.896   6.665  13.435  1.00  0.00     0.002 C 
HETATM   20  C31 UNL     1     -16.189   7.704  12.334  1.00  0.00     0.007 C 
HETATM   21  C32 UNL     1     -14.948   8.518  11.966  1.00  0.00     0.014 C 
HETATM   22  C33 UNL     1     -14.293   9.239  13.176  1.00  0.00     0.003 C 
HETATM   23  C34 UNL     1     -15.195  10.419  13.592  1.00  0.00     0.020 C 
ENDROOT
BRANCH   3  24
HETATM   24  O1  UNL     1     -12.726  10.201  11.527  1.00  0.00    -0.377 OA
HETATM   25  H2  UNL     1     -13.143  11.079  11.539  1.00  0.00     0.211 HD
ENDBRANCH   3  24
BRANCH  13  26
HETATM   26  O2  UNL     1     -17.071   0.820  14.685  1.00  0.00    -0.271 OA
BRANCH  26  27
HETATM   27  C13 UNL     1     -15.729   0.568  14.282  1.00  0.00     0.303 C 
BRANCH  27  28
HETATM   28  C14 UNL     1     -15.631  -0.703  13.450  1.00  0.00     0.244 C 
HETATM   29  O3  UNL     1     -16.257  -0.856  12.404  1.00  0.00    -0.271 OA
HETATM   30  N2  UNL     1     -14.839  -1.691  13.995  1.00  0.00    -0.343 N 
HETATM   31  H16 UNL     1     -14.598  -1.586  14.977  1.00  0.00     0.163 HD
BRANCH  30  32
HETATM   32  C15 UNL     1     -14.893  -3.075  13.487  1.00  0.00     0.217 C 
BRANCH  32  33
HETATM   33  C16 UNL     1     -15.055  -4.074  14.645  1.00  0.00     0.284 C 
HETATM   34  O4  UNL     1     -15.120  -5.291  14.506  1.00  0.00    -0.263 OA
BRANCH  33  35
HETATM   35  O5  UNL     1     -15.074  -3.445  15.860  1.00  0.00    -0.320 OA
BRANCH  35  36
HETATM   36  C17 UNL     1     -16.364  -3.298  16.471  1.00  0.00     0.174 C 
HETATM   37  C18 UNL     1     -16.642  -4.470  17.394  1.00  0.00     0.034 C 
ENDBRANCH  35  36
ENDBRANCH  33  35
ENDBRANCH  32  33
BRANCH  32  38
HETATM   38  C19 UNL     1     -13.612  -3.368  12.674  1.00  0.00     0.183 C 
BRANCH  38  39
HETATM   39  O6  UNL     1     -12.730  -4.238  13.401  1.00  0.00    -0.388 OA
HETATM   40  H24 UNL     1     -12.078  -4.572  12.759  1.00  0.00     0.210 HD
ENDBRANCH  38  39
BRANCH  38  41
HETATM   41  C20 UNL     1     -13.833  -3.858  11.258  1.00  0.00    -0.027 A 
HETATM   42  C21 UNL     1     -13.799  -2.982  10.161  1.00  0.00     0.010 A 
HETATM   43  C22 UNL     1     -13.992  -3.459   8.863  1.00  0.00     0.001 A 
HETATM   44  C23 UNL     1     -14.223  -4.814   8.642  1.00  0.00     0.000 A 
HETATM   45  C24 UNL     1     -14.261  -5.696   9.719  1.00  0.00     0.001 A 
HETATM   46  C25 UNL     1     -14.065  -5.222  11.019  1.00  0.00     0.010 A 
ENDBRANCH  38  41
ENDBRANCH  32  38
ENDBRANCH  30  32
ENDBRANCH  27  28
ENDBRANCH  26  27
ENDBRANCH  13  26
TORSDOF 11
ENDMDL
MODEL 7
REMARK minimizedAffinity -7.13353395
REMARK CNNscore 0.203551352
REMARK CNNaffinity 5.19347477
REMARK  11 active torsions:
REMARK  status: ('A' for Active; 'I' for Inactive)
REMARK    1  A    between atoms: C3_3  and  O1_4 
REMARK    2  A    between atoms: N1_14  and  O2_16 
REMARK    3  A    between atoms: O2_16  and  C13_17 
REMARK    4  A    between atoms: C13_17  and  C14_18 
REMARK       I    between atoms: C14_18  and  N2_20 
REMARK    5  A    between atoms: N2_20  and  C15_21 
REMARK    6  A    between atoms: C15_21  and  C16_22 
REMARK    7  A    between atoms: C15_21  and  C19_27 
REMARK    8  A    between atoms: C16_22  and  O5_24 
REMARK    9  A    between atoms: O5_24  and  C17_25 
REMARK   10  A    between atoms: C19_27  and  O6_28 
REMARK   11  A    between atoms: C19_27  and  C20_29 
ROOT
HETATM    1  C1  UNL     1      10.018  18.380  21.636  1.00  0.00     0.015 C 
HETATM    2  C2  UNL     1       8.877  18.063  21.838  1.00  0.00    -0.078 C 
HETATM    3  C3  UNL     1       7.467  17.688  22.082  1.00  0.00     0.128 C 
HETATM    4  C4  UNL     1       6.682  17.732  20.762  1.00  0.00     0.052 C 
HETATM    5  C5  UNL     1       6.713  16.306  20.197  1.00  0.00     0.010 C 
HETATM    6  C6  UNL     1       7.420  15.425  21.247  1.00  0.00     0.002 C 
HETATM    7  C7  UNL     1       6.939  13.959  21.323  1.00  0.00    -0.004 C 
HETATM    8  C8  UNL     1       7.017  13.279  19.947  1.00  0.00     0.010 C 
HETATM    9  C9  UNL     1       6.622  11.810  20.026  1.00  0.00     0.035 C 
HETATM   10  C10 UNL     1       5.249  11.644  20.633  1.00  0.00    -0.069 C 
HETATM   11  C11 UNL     1       4.309  10.944  19.973  1.00  0.00     0.030 C 
HETATM   12  C12 UNL     1       2.967  10.695  20.568  1.00  0.00     0.032 C 
HETATM   13  N1  UNL     1       1.931  10.214  19.953  1.00  0.00    -0.271 N 
ATOM     14  H1  UNL     1       1.028  10.052  20.398  1.00  0.00     0.194 HD
HETATM   15  C26 UNL     1       2.813  11.003  22.040  1.00  0.00     0.060 C 
HETATM   16  C27 UNL     1       3.512  12.314  22.361  1.00  0.00     0.020 C 
HETATM   17  C28 UNL     1       5.026  12.313  21.997  1.00  0.00    -0.016 C 
HETATM   18  C29 UNL     1       5.788  11.492  23.064  1.00  0.00     0.020 C 
HETATM   19  C30 UNL     1       5.521  13.812  21.932  1.00  0.00     0.002 C 
HETATM   20  C31 UNL     1       5.453  14.537  23.291  1.00  0.00     0.007 C 
HETATM   21  C32 UNL     1       5.863  16.006  23.180  1.00  0.00     0.014 C 
HETATM   22  C33 UNL     1       7.276  16.216  22.568  1.00  0.00     0.003 C 
HETATM   23  C34 UNL     1       8.330  15.788  23.610  1.00  0.00     0.020 C 
ENDROOT
BRANCH   3  24
HETATM   24  O1  UNL     1       6.911  18.620  22.999  1.00  0.00    -0.377 OA
HETATM   25  H2  UNL     1       7.505  18.643  23.768  1.00  0.00     0.211 HD
ENDBRANCH   3  24
BRANCH  13  26
HETATM   26  O2  UNL     1       2.197   9.942  18.603  1.00  0.00    -0.271 OA
BRANCH  26  27
HETATM   27  C13 UNL     1       1.295  10.690  17.793  1.00  0.00     0.303 C 
BRANCH  27  28
HETATM   28  C14 UNL     1       0.741   9.843  16.655  1.00  0.00     0.244 C 
HETATM   29  O3  UNL     1       1.441   9.451  15.724  1.00  0.00    -0.271 OA
HETATM   30  N2  UNL     1      -0.615   9.606  16.719  1.00  0.00    -0.343 N 
HETATM   31  H16 UNL     1      -1.147  10.195  17.355  1.00  0.00     0.163 HD
BRANCH  30  32
HETATM   32  C15 UNL     1      -1.352   9.085  15.551  1.00  0.00     0.217 C 
BRANCH  32  33
HETATM   33  C16 UNL     1      -1.811  10.235  14.639  1.00  0.00     0.284 C 
HETATM   34  O4  UNL     1      -2.054  11.373  15.028  1.00  0.00    -0.263 OA
BRANCH  33  35
HETATM   35  O5  UNL     1      -1.876   9.849  13.327  1.00  0.00    -0.320 OA
BRANCH  35  36
HETATM   36  C17 UNL     1      -0.749   9.108  12.835  1.00  0.00     0.174 C 
HETATM   37  C18 UNL     1      -0.925   8.811  11.358  1.00  0.00     0.034 C 
ENDBRANCH  35  36
ENDBRANCH  33  35
ENDBRANCH  32  33
BRANCH  32  38
HETATM   38  C19 UNL     1      -2.555   8.249  16.041  1.00  0.00     0.183 C 
BRANCH  38  39
HETATM   39  O6  UNL     1      -3.587   9.095  16.571  1.00  0.00    -0.388 OA
HETATM   40  H24 UNL     1      -4.390   8.548  16.634  1.00  0.00     0.210 HD
ENDBRANCH  38  39
BRANCH  38  41
HETATM   41  C20 UNL     1      -3.112   7.254  15.043  1.00  0.00    -0.027 A 
HETATM   42  C21 UNL     1      -4.298   7.507  14.334  1.00  0.00     0.010 A 
HETATM   43  C22 UNL     1      -4.786   6.581  13.410  1.00  0.00     0.001 A 
HETATM   44  C23 UNL     1      -4.099   5.392  13.182  1.00  0.00     0.000 A 
HETATM   45  C24 UNL     1      -2.922   5.125  13.878  1.00  0.00     0.001 A 
HETATM   46  C25 UNL     1      -2.430   6.051  14.801  1.00  0.00     0.010 A 
ENDBRANCH  38  41
ENDBRANCH  32  38
ENDBRANCH  30  32
ENDBRANCH  27  28
ENDBRANCH  26  27
ENDBRANCH  13  26
TORSDOF 11
ENDMDL
MODEL 8
REMARK minimizedAffinity -7.5378828
REMARK CNNscore 0.202827096
REMARK CNNaffinity 6.26572037
REMARK  11 active torsions:
REMARK  status: ('A' for Active; 'I' for Inactive)
REMARK    1  A    between atoms: C3_3  and  O1_4 
REMARK    2  A    between atoms: N1_14  and  O2_16 
REMARK    3  A    between atoms: O2_16  and  C13_17 
REMARK    4  A    between atoms: C13_17  and  C14_18 
REMARK       I    between atoms: C14_18  and  N2_20 
REMARK    5  A    between atoms: N2_20  and  C15_21 
REMARK    6  A    between atoms: C15_21  and  C16_22 
REMARK    7  A    between atoms: C15_21  and  C19_27 
REMARK    8  A    between atoms: C16_22  and  O5_24 
REMARK    9  A    between atoms: O5_24  and  C17_25 
REMARK   10  A    between atoms: C19_27  and  O6_28 
REMARK   11  A    between atoms: C19_27  and  C20_29 
ROOT
HETATM    1  C1  UNL     1       2.678   6.221   8.145  1.00  0.00     0.015 C 
HETATM    2  C2  UNL     1       2.696   6.397   9.333  1.00  0.00    -0.078 C 
HETATM    3  C3  UNL     1       2.734   6.620  10.795  1.00  0.00     0.128 C 
HETATM    4  C4  UNL     1       2.890   8.120  11.088  1.00  0.00     0.052 C 
HETATM    5  C5  UNL     1       1.470   8.668  11.283  1.00  0.00     0.010 C 
HETATM    6  C6  UNL     1       0.512   7.461  11.211  1.00  0.00     0.002 C 
HETATM    7  C7  UNL     1      -0.760   7.566  12.081  1.00  0.00    -0.004 C 
HETATM    8  C8  UNL     1      -1.537   8.855  11.775  1.00  0.00     0.010 C 
HETATM    9  C9  UNL     1      -2.835   8.929  12.568  1.00  0.00     0.035 C 
HETATM   10  C10 UNL     1      -2.579   8.793  14.050  1.00  0.00    -0.069 C 
HETATM   11  C11 UNL     1      -3.047   9.729  14.896  1.00  0.00     0.030 C 
HETATM   12  C12 UNL     1      -2.880   9.596  16.370  1.00  0.00     0.032 C 
HETATM   13  N1  UNL     1      -3.109  10.516  17.256  1.00  0.00    -0.271 N 
ATOM     14  H1  UNL     1      -2.987  10.383  18.259  1.00  0.00     0.194 HD
HETATM   15  C26 UNL     1      -2.433   8.244  16.879  1.00  0.00     0.060 C 
HETATM   16  C27 UNL     1      -1.338   7.697  15.977  1.00  0.00     0.020 C 
HETATM   17  C28 UNL     1      -1.775   7.561  14.489  1.00  0.00    -0.016 C 
HETATM   18  C29 UNL     1      -2.689   6.320  14.356  1.00  0.00     0.020 C 
HETATM   19  C30 UNL     1      -0.474   7.441  13.600  1.00  0.00     0.002 C 
HETATM   20  C31 UNL     1       0.342   6.164  13.879  1.00  0.00     0.007 C 
HETATM   21  C32 UNL     1       1.634   6.116  13.062  1.00  0.00     0.014 C 
HETATM   22  C33 UNL     1       1.409   6.243  11.531  1.00  0.00     0.003 C 
HETATM   23  C34 UNL     1       0.791   4.927  11.014  1.00  0.00     0.020 C 
ENDROOT
BRANCH   3  24
HETATM   24  O1  UNL     1       3.847   5.912  11.324  1.00  0.00    -0.377 OA
HETATM   25  H2  UNL     1       3.767   4.994  11.015  1.00  0.00     0.211 HD
ENDBRANCH   3  24
BRANCH  13  26
HETATM   26  O2  UNL     1      -3.541  11.715  16.671  1.00  0.00    -0.271 OA
BRANCH  26  27
HETATM   27  C13 UNL     1      -2.546  12.714  16.872  1.00  0.00     0.303 C 
BRANCH  27  28
HETATM   28  C14 UNL     1      -1.955  12.632  18.273  1.00  0.00     0.244 C 
HETATM   29  O3  UNL     1      -2.639  12.762  19.286  1.00  0.00    -0.271 OA
HETATM   30  N2  UNL     1      -0.588  12.466  18.314  1.00  0.00    -0.343 N 
HETATM   31  H16 UNL     1      -0.084  12.652  17.450  1.00  0.00     0.163 HD
BRANCH  30  32
HETATM   32  C15 UNL     1       0.168  12.686  19.563  1.00  0.00     0.217 C 
BRANCH  32  33
HETATM   33  C16 UNL     1       0.415  14.186  19.794  1.00  0.00     0.284 C 
HETATM   34  O4  UNL     1       0.310  14.746  20.880  1.00  0.00    -0.263 OA
BRANCH  33  35
HETATM   35  O5  UNL     1       0.810  14.819  18.646  1.00  0.00    -0.320 OA
BRANCH  35  36
HETATM   36  C17 UNL     1       1.674  15.951  18.820  1.00  0.00     0.174 C 
HETATM   37  C18 UNL     1       0.893  17.238  18.630  1.00  0.00     0.034 C 
ENDBRANCH  35  36
ENDBRANCH  33  35
ENDBRANCH  32  33
BRANCH  32  38
HETATM   38  C19 UNL     1       1.500  11.907  19.494  1.00  0.00     0.183 C 
BRANCH  38  39
HETATM   39  O6  UNL     1       2.460  12.602  18.683  1.00  0.00    -0.388 OA
HETATM   40  H24 UNL     1       3.327  12.200  18.873  1.00  0.00     0.210 HD
ENDBRANCH  38  39
BRANCH  38  41
HETATM   41  C20 UNL     1       2.091  11.499  20.828  1.00  0.00    -0.027 A 
HETATM   42  C21 UNL     1       2.583  12.449  21.737  1.00  0.00     0.010 A 
HETATM   43  C22 UNL     1       3.112  12.051  22.966  1.00  0.00     0.001 A 
HETATM   44  C23 UNL     1       3.159  10.701  23.303  1.00  0.00     0.000 A 
HETATM   45  C24 UNL     1       2.677   9.745  22.412  1.00  0.00     0.001 A 
HETATM   46  C25 UNL     1       2.144  10.141  21.182  1.00  0.00     0.010 A 
ENDBRANCH  38  41
ENDBRANCH  32  38
ENDBRANCH  30  32
ENDBRANCH  27  28
ENDBRANCH  26  27
ENDBRANCH  13  26
TORSDOF 11
ENDMDL
MODEL 9
REMARK minimizedAffinity -9.55856133
REMARK CNNscore 0.180276483
REMARK CNNaffinity 6.98781395
REMARK  11 active torsions:
REMARK  status: ('A' for Active; 'I' for Inactive)
REMARK    1  A    between atoms: C3_3  and  O1_4 
REMARK    2  A    between atoms: N1_14  and  O2_16 
REMARK    3  A    between atoms: O2_16  and  C13_17 
REMARK    4  A    between atoms: C13_17  and  C14_18 
REMARK       I    between atoms: C14_18  and  N2_20 
REMARK    5  A    between atoms: N2_20  and  C15_21 
REMARK    6  A    between atoms: C15_21  and  C16_22 
REMARK    7  A    between atoms: C15_21  and  C19_27 
REMARK    8  A    between atoms: C16_22  and  O5_24 
REMARK    9  A    between atoms: O5_24  and  C17_25 
REMARK   10  A    between atoms: C19_27  and  O6_28 
REMARK   11  A    between atoms: C19_27  and  C20_29 
ROOT
HETATM    1  C1  UNL     1     -14.068   9.165  15.676  1.00  0.00     0.015 C 
HETATM    2  C2  UNL     1     -13.226   8.970  14.842  1.00  0.00    -0.078 C 
HETATM    3  C3  UNL     1     -12.192   8.744  13.808  1.00  0.00     0.128 C 
HETATM    4  C4  UNL     1     -11.133   9.854  13.881  1.00  0.00     0.052 C 
HETATM    5  C5  UNL     1     -10.011   9.318  14.778  1.00  0.00     0.010 C 
HETATM    6  C6  UNL     1     -10.377   7.861  15.128  1.00  0.00     0.002 C 
HETATM    7  C7  UNL     1      -9.183   6.901  15.326  1.00  0.00    -0.004 C 
HETATM    8  C8  UNL     1      -8.200   7.448  16.372  1.00  0.00     0.010 C 
HETATM    9  C9  UNL     1      -7.060   6.471  16.635  1.00  0.00     0.035 C 
HETATM   10  C10 UNL     1      -6.342   6.112  15.356  1.00  0.00    -0.069 C 
HETATM   11  C11 UNL     1      -5.008   6.267  15.275  1.00  0.00     0.030 C 
HETATM   12  C12 UNL     1      -4.252   5.857  14.060  1.00  0.00     0.032 C 
HETATM   13  N1  UNL     1      -3.013   6.137  13.794  1.00  0.00    -0.271 N 
ATOM     14  H1  UNL     1      -2.528   5.832  12.950  1.00  0.00     0.194 HD
HETATM   15  C26 UNL     1      -4.996   5.003  13.058  1.00  0.00     0.060 C 
HETATM   16  C27 UNL     1      -6.407   5.538  12.883  1.00  0.00     0.020 C 
HETATM   17  C28 UNL     1      -7.219   5.587  14.211  1.00  0.00    -0.016 C 
HETATM   18  C29 UNL     1      -7.665   4.150  14.569  1.00  0.00     0.020 C 
HETATM   19  C30 UNL     1      -8.448   6.558  14.004  1.00  0.00     0.002 C 
HETATM   20  C31 UNL     1      -9.458   6.053  12.956  1.00  0.00     0.007 C 
HETATM   21  C32 UNL     1     -10.593   7.051  12.721  1.00  0.00     0.014 C 
HETATM   22  C33 UNL     1     -11.362   7.436  14.014  1.00  0.00     0.003 C 
HETATM   23  C34 UNL     1     -12.231   6.237  14.445  1.00  0.00     0.020 C 
ENDROOT
BRANCH   3  24
HETATM   24  O1  UNL     1     -12.824   8.768  12.536  1.00  0.00    -0.377 OA
HETATM   25  H2  UNL     1     -13.560   8.134  12.576  1.00  0.00     0.211 HD
ENDBRANCH   3  24
BRANCH  13  26
HETATM   26  O2  UNL     1      -2.419   6.910  14.802  1.00  0.00    -0.271 OA
BRANCH  26  27
HETATM   27  C13 UNL     1      -1.047   6.544  14.919  1.00  0.00     0.303 C 
BRANCH  27  28
HETATM   28  C14 UNL     1      -0.159   7.458  14.086  1.00  0.00     0.244 C 
HETATM   29  O3  UNL     1      -0.443   8.633  13.867  1.00  0.00    -0.271 OA
HETATM   30  N2  UNL     1       0.952   6.847  13.545  1.00  0.00    -0.343 N 
HETATM   31  H16 UNL     1       0.952   5.830  13.543  1.00  0.00     0.163 HD
BRANCH  30  32
HETATM   32  C15 UNL     1       1.729   7.495  12.471  1.00  0.00     0.217 C 
BRANCH  32  33
HETATM   33  C16 UNL     1       2.432   8.758  12.994  1.00  0.00     0.284 C 
HETATM   34  O4  UNL     1       1.859   9.696  13.537  1.00  0.00    -0.263 OA
BRANCH  33  35
HETATM   35  O5  UNL     1       3.789   8.694  12.820  1.00  0.00    -0.320 OA
BRANCH  35  36
HETATM   36  C17 UNL     1       4.529   8.071  13.880  1.00  0.00     0.174 C 
HETATM   37  C18 UNL     1       3.795   8.238  15.197  1.00  0.00     0.034 C 
ENDBRANCH  35  36
ENDBRANCH  33  35
ENDBRANCH  32  33
BRANCH  32  38
HETATM   38  C19 UNL     1       0.786   7.830  11.294  1.00  0.00     0.183 C 
BRANCH  38  39
HETATM   39  O6  UNL     1       0.377   9.206  11.339  1.00  0.00    -0.388 OA
HETATM   40  H24 UNL     1      -0.003   9.411  10.466  1.00  0.00     0.210 HD
ENDBRANCH  38  39
BRANCH  38  41
HETATM   41  C20 UNL     1       1.293   7.447   9.918  1.00  0.00    -0.027 A 
HETATM   42  C21 UNL     1       2.176   6.371   9.731  1.00  0.00     0.010 A 
HETATM   43  C22 UNL     1       2.620   6.028   8.453  1.00  0.00     0.001 A 
HETATM   44  C23 UNL     1       2.192   6.755   7.345  1.00  0.00     0.000 A 
HETATM   45  C24 UNL     1       1.318   7.826   7.513  1.00  0.00     0.001 A 
HETATM   46  C25 UNL     1       0.869   8.169   8.792  1.00  0.00     0.010 A 
ENDBRANCH  38  41
ENDBRANCH  32  38
ENDBRANCH  30  32
ENDBRANCH  27  28
ENDBRANCH  26  27
ENDBRANCH  13  26
TORSDOF 11
ENDMDL
