MODEL 1
REMARK minimizedAffinity -12.281394
REMARK  5 active torsions:
REMARK  status: ('A' for Active; 'I' for Inactive)
REMARK    1  A    between atoms: N1_2  and  C2_3 
REMARK    2  A    between atoms: C4_5  and  N3_29 
REMARK    3  A    between atoms: C5_7  and  N2_12 
REMARK    4  A    between atoms: C7_9  and  O2_10 
REMARK    5  A    between atoms: C28_35  and  O4_36 
ROOT
HETATM    1  C2  UNL     1      -2.713  49.151 -19.238  1.00  0.00     0.257 C 
HETATM    2  C3  UNL     1      -1.322  49.399 -19.832  1.00  0.00     0.092 C 
HETATM    3  C4  UNL     1      -1.343  49.492 -21.363  1.00  0.00     0.234 C 
HETATM    4  O1  UNL     1      -2.570  49.083 -21.958  1.00  0.00    -0.333 OA
HETATM    5  C5  UNL     1      -3.792  49.680 -21.454  1.00  0.00     0.168 C 
HETATM    6  C6  UNL     1      -4.759  48.483 -21.612  1.00  0.00     0.074 C 
HETATM    7  C7  UNL     1      -3.722  50.086 -19.942  1.00  0.00     0.209 C 
ENDROOT
BRANCH   1   8
HETATM    8  N1  UNL     1      -2.753  49.395 -17.779  1.00  0.00     0.086 N 
HETATM    9  C1  UNL     1      -2.657  50.802 -17.417  1.00  0.00     0.307 C 
HETATM   10  H4  UNL     1      -3.624  48.999 -17.413  1.00  0.00     0.316 HD
ENDBRANCH   1   8
BRANCH   7  11
HETATM   11  O2  UNL     1      -3.223  51.428 -19.738  1.00  0.00    -0.384 OA
HETATM   12  C8  UNL     1      -2.370  51.542 -18.607  1.00  0.00     0.202 C 
ENDBRANCH   7  11
BRANCH   3  13
HETATM   13  N3  UNL     1      -0.882  50.759 -21.923  1.00  0.00    -0.316 N 
HETATM   14  C24 UNL     1      -0.124  51.694 -21.231  1.00  0.00     0.048 A 
HETATM   15  C19 UNL     1       0.234  52.700 -22.144  1.00  0.00     0.004 A 
HETATM   16  C23 UNL     1       0.282  51.733 -19.885  1.00  0.00     0.030 A 
HETATM   17  C18 UNL     1      -0.323  52.350 -23.411  1.00  0.00     0.022 A 
HETATM   18  C20 UNL     1       1.014  53.778 -21.673  1.00  0.00     0.014 A 
HETATM   19  C17 UNL     1      -0.364  52.841 -24.724  1.00  0.00     0.057 A 
HETATM   20  C25 UNL     1      -1.015  51.167 -23.213  1.00  0.00     0.077 A 
HETATM   21  C16 UNL     1      -1.069  52.231 -25.807  1.00  0.00     0.020 A 
HETATM   22  C27 UNL     1       0.302  54.032 -25.269  1.00  0.00     0.255 A 
HETATM   23  C15 UNL     1      -1.809  51.050 -25.636  1.00  0.00     0.017 A 
HETATM   24  C28 UNL     1      -0.851  53.053 -27.040  1.00  0.00     0.257 A 
HETATM   25  C14 UNL     1      -2.643  50.222 -26.434  1.00  0.00     0.004 A 
HETATM   26  C26 UNL     1      -1.799  50.489 -24.378  1.00  0.00     0.077 A 
HETATM   27  C9  UNL     1      -3.143  49.190 -25.614  1.00  0.00     0.049 A 
HETATM   28  C13 UNL     1      -3.052  50.291 -27.785  1.00  0.00     0.014 A 
HETATM   29  N2  UNL     1      -2.575  49.356 -24.351  1.00  0.00    -0.308 N 
HETATM   30  C10 UNL     1      -4.062  48.259 -26.137  1.00  0.00     0.030 A 
HETATM   31  C11 UNL     1      -4.445  48.350 -27.480  1.00  0.00     0.002 A 
HETATM   32  C12 UNL     1      -3.944  49.350 -28.298  1.00  0.00     0.001 A 
HETATM   33  N4  UNL     1      -0.075  54.157 -26.590  1.00  0.00    -0.326 N 
HETATM   34  H24 UNL     1       0.458  54.765 -27.196  1.00  0.00     0.165 HD
HETATM   35  O3  UNL     1       1.077  54.779 -24.708  1.00  0.00    -0.268 OA
HETATM   36  C21 UNL     1       1.413  53.825 -20.333  1.00  0.00     0.001 A 
HETATM   37  C22 UNL     1       1.052  52.814 -19.453  1.00  0.00     0.002 A 
BRANCH  24  38
HETATM   38  O4  UNL     1      -2.049  53.589 -27.531  1.00  0.00    -0.372 OA
HETATM   39  H26 UNL     1      -1.946  54.546 -27.419  1.00  0.00     0.212 HD
ENDBRANCH  24  38
ENDBRANCH   3  13
TORSDOF 5
ENDMDL
MODEL 2
REMARK minimizedAffinity -11.327877
REMARK  5 active torsions:
REMARK  status: ('A' for Active; 'I' for Inactive)
REMARK    1  A    between atoms: N1_2  and  C2_3 
REMARK    2  A    between atoms: C4_5  and  N3_29 
REMARK    3  A    between atoms: C5_7  and  N2_12 
REMARK    4  A    between atoms: C7_9  and  O2_10 
REMARK    5  A    between atoms: C28_35  and  O4_36 
ROOT
HETATM    1  C2  UNL     1      -4.776  49.371 -21.494  1.00  0.00     0.257 C 
HETATM    2  C3  UNL     1      -3.244  49.428 -21.490  1.00  0.00     0.092 C 
HETATM    3  C4  UNL     1      -2.637  49.061 -22.850  1.00  0.00     0.234 C 
HETATM    4  O1  UNL     1      -3.563  48.494 -23.771  1.00  0.00    -0.333 OA
HETATM    5  C5  UNL     1      -4.798  49.216 -24.010  1.00  0.00     0.168 C 
HETATM    6  C6  UNL     1      -5.763  48.028 -24.230  1.00  0.00     0.074 C 
HETATM    7  C7  UNL     1      -5.290  50.055 -22.781  1.00  0.00     0.209 C 
ENDROOT
BRANCH   1   8
HETATM    8  N1  UNL     1      -5.367  50.039 -20.313  1.00  0.00     0.086 N 
HETATM    9  C1  UNL     1      -6.818  49.951 -20.255  1.00  0.00     0.307 C 
HETATM   10  H4  UNL     1      -4.957  49.622 -19.472  1.00  0.00     0.316 HD
ENDBRANCH   1   8
BRANCH   7  11
HETATM   11  O2  UNL     1      -4.749  51.395 -22.757  1.00  0.00    -0.384 OA
HETATM   12  C8  UNL     1      -4.892  52.078 -23.995  1.00  0.00     0.202 C 
ENDBRANCH   7  11
BRANCH   3  13
HETATM   13  N3  UNL     1      -1.833  50.102 -23.483  1.00  0.00    -0.316 N 
HETATM   14  C24 UNL     1      -1.833  50.376 -24.843  1.00  0.00     0.048 A 
HETATM   15  C19 UNL     1      -1.047  51.524 -25.039  1.00  0.00     0.004 A 
HETATM   16  C23 UNL     1      -2.465  49.718 -25.913  1.00  0.00     0.030 A 
HETATM   17  C18 UNL     1      -0.572  51.943 -23.759  1.00  0.00     0.022 A 
HETATM   18  C20 UNL     1      -0.890  52.006 -26.355  1.00  0.00     0.014 A 
HETATM   19  C17 UNL     1       0.209  52.965 -23.200  1.00  0.00     0.057 A 
HETATM   20  C25 UNL     1      -1.062  51.024 -22.847  1.00  0.00     0.077 A 
HETATM   21  C16 UNL     1       0.531  53.087 -21.814  1.00  0.00     0.020 A 
HETATM   22  C27 UNL     1       0.828  54.111 -23.881  1.00  0.00     0.255 A 
HETATM   23  C15 UNL     1       0.080  52.155 -20.864  1.00  0.00     0.017 A 
HETATM   24  C28 UNL     1       1.368  54.315 -21.625  1.00  0.00     0.257 A 
HETATM   25  C14 UNL     1       0.237  51.933 -19.470  1.00  0.00     0.004 A 
HETATM   26  C26 UNL     1      -0.716  51.132 -21.330  1.00  0.00     0.077 A 
HETATM   27  C9  UNL     1      -0.452  50.750 -19.138  1.00  0.00     0.049 A 
HETATM   28  C13 UNL     1       0.951  52.623 -18.463  1.00  0.00     0.014 A 
HETATM   29  N2  UNL     1      -1.066  50.291 -20.303  1.00  0.00    -0.308 N 
HETATM   30  C10 UNL     1      -0.400  50.251 -17.821  1.00  0.00     0.030 A 
HETATM   31  C11 UNL     1       0.310  50.958 -16.845  1.00  0.00     0.002 A 
HETATM   32  C12 UNL     1       0.975  52.133 -17.159  1.00  0.00     0.001 A 
HETATM   33  N4  UNL     1       1.553  54.816 -22.944  1.00  0.00    -0.326 N 
HETATM   34  H24 UNL     1       1.849  55.758 -23.160  1.00  0.00     0.165 HD
HETATM   35  O3  UNL     1       0.720  54.436 -25.045  1.00  0.00    -0.268 OA
HETATM   36  C21 UNL     1      -1.510  51.350 -27.424  1.00  0.00     0.001 A 
HETATM   37  C22 UNL     1      -2.288  50.221 -27.203  1.00  0.00     0.002 A 
BRANCH  24  38
HETATM   38  O4  UNL     1       2.646  54.009 -21.138  1.00  0.00    -0.372 OA
HETATM   39  H26 UNL     1       3.242  54.259 -21.860  1.00  0.00     0.212 HD
ENDBRANCH  24  38
ENDBRANCH   3  13
TORSDOF 5
ENDMDL
MODEL 3
REMARK minimizedAffinity -11.0970154
REMARK  5 active torsions:
REMARK  status: ('A' for Active; 'I' for Inactive)
REMARK    1  A    between atoms: N1_2  and  C2_3 
REMARK    2  A    between atoms: C4_5  and  N3_29 
REMARK    3  A    between atoms: C5_7  and  N2_12 
REMARK    4  A    between atoms: C7_9  and  O2_10 
REMARK    5  A    between atoms: C28_35  and  O4_36 
ROOT
HETATM    1  C2  UNL     1      -2.649  48.001 -18.602  1.00  0.00     0.257 C 
HETATM    2  C3  UNL     1      -1.288  48.295 -19.244  1.00  0.00     0.092 C 
HETATM    3  C4  UNL     1      -1.415  49.051 -20.572  1.00  0.00     0.234 C 
HETATM    4  O1  UNL     1      -2.741  49.113 -21.088  1.00  0.00    -0.333 OA
HETATM    5  C5  UNL     1      -3.784  49.587 -20.200  1.00  0.00     0.168 C 
HETATM    6  C6  UNL     1      -4.968  48.722 -20.692  1.00  0.00     0.074 C 
HETATM    7  C7  UNL     1      -3.518  49.277 -18.686  1.00  0.00     0.209 C 
ENDROOT
BRANCH   1   8
HETATM    8  N1  UNL     1      -2.525  47.585 -17.188  1.00  0.00     0.086 N 
HETATM    9  C1  UNL     1      -3.444  46.523 -16.806  1.00  0.00     0.307 C 
HETATM   10  H4  UNL     1      -1.558  47.285 -17.027  1.00  0.00     0.316 HD
ENDBRANCH   1   8
BRANCH   7  11
HETATM   11  O2  UNL     1      -2.761  50.313 -18.020  1.00  0.00    -0.384 OA
HETATM   12  C8  UNL     1      -3.296  50.668 -16.752  1.00  0.00     0.202 C 
ENDBRANCH   7  11
BRANCH   3  13
HETATM   13  N3  UNL     1      -0.770  50.361 -20.615  1.00  0.00    -0.316 N 
HETATM   14  C24 UNL     1      -0.172  50.978 -19.525  1.00  0.00     0.048 A 
HETATM   15  C19 UNL     1       0.451  52.146 -19.996  1.00  0.00     0.004 A 
HETATM   16  C23 UNL     1      -0.119  50.601 -18.172  1.00  0.00     0.030 A 
HETATM   17  C18 UNL     1       0.218  52.221 -21.403  1.00  0.00     0.022 A 
HETATM   18  C20 UNL     1       1.133  52.957 -19.064  1.00  0.00     0.014 A 
HETATM   19  C17 UNL     1       0.533  53.053 -22.487  1.00  0.00     0.057 A 
HETATM   20  C25 UNL     1      -0.554  51.117 -21.724  1.00  0.00     0.077 A 
HETATM   21  C16 UNL     1       0.099  52.847 -23.832  1.00  0.00     0.020 A 
HETATM   22  C27 UNL     1       1.367  54.262 -22.491  1.00  0.00     0.255 A 
HETATM   23  C15 UNL     1      -0.712  51.757 -24.190  1.00  0.00     0.017 A 
HETATM   24  C28 UNL     1       0.659  53.943 -24.686  1.00  0.00     0.257 A 
HETATM   25  C14 UNL     1      -1.353  51.281 -25.365  1.00  0.00     0.004 A 
HETATM   26  C26 UNL     1      -1.047  50.877 -23.184  1.00  0.00     0.077 A 
HETATM   27  C9  UNL     1      -2.090  50.129 -25.021  1.00  0.00     0.049 A 
HETATM   28  C13 UNL     1      -1.403  51.762 -26.693  1.00  0.00     0.014 A 
HETATM   29  N2  UNL     1      -1.854  49.878 -23.669  1.00  0.00    -0.308 N 
HETATM   30  C10 UNL     1      -2.887  49.489 -25.990  1.00  0.00     0.030 A 
HETATM   31  C11 UNL     1      -2.913  49.986 -27.297  1.00  0.00     0.002 A 
HETATM   32  C12 UNL     1      -2.177  51.106 -27.649  1.00  0.00     0.001 A 
HETATM   33  N4  UNL     1       1.344  54.786 -23.767  1.00  0.00    -0.326 N 
HETATM   34  H24 UNL     1       2.039  55.470 -24.030  1.00  0.00     0.165 HD
HETATM   35  O3  UNL     1       2.007  54.733 -21.573  1.00  0.00    -0.268 OA
HETATM   36  C21 UNL     1       1.181  52.591 -17.715  1.00  0.00     0.001 A 
HETATM   37  C22 UNL     1       0.564  51.427 -17.277  1.00  0.00     0.002 A 
BRANCH  24  38
HETATM   38  O4  UNL     1      -0.351  54.727 -25.261  1.00  0.00    -0.372 OA
HETATM   39  H26 UNL     1      -0.237  55.599 -24.853  1.00  0.00     0.212 HD
ENDBRANCH  24  38
ENDBRANCH   3  13
TORSDOF 5
ENDMDL
MODEL 4
REMARK minimizedAffinity -11.0878801
REMARK  5 active torsions:
REMARK  status: ('A' for Active; 'I' for Inactive)
REMARK    1  A    between atoms: N1_2  and  C2_3 
REMARK    2  A    between atoms: C4_5  and  N3_29 
REMARK    3  A    between atoms: C5_7  and  N2_12 
REMARK    4  A    between atoms: C7_9  and  O2_10 
REMARK    5  A    between atoms: C28_35  and  O4_36 
ROOT
HETATM    1  C2  UNL     1      -4.480  49.370 -20.945  1.00  0.00     0.257 C 
HETATM    2  C3  UNL     1      -3.134  49.201 -21.660  1.00  0.00     0.092 C 
HETATM    3  C4  UNL     1      -3.284  48.603 -23.064  1.00  0.00     0.234 C 
HETATM    4  O1  UNL     1      -4.579  48.083 -23.345  1.00  0.00    -0.333 OA
HETATM    5  C5  UNL     1      -5.716  48.948 -23.101  1.00  0.00     0.168 C 
HETATM    6  C6  UNL     1      -6.759  47.898 -22.650  1.00  0.00     0.074 C 
HETATM    7  C7  UNL     1      -5.492  49.979 -21.941  1.00  0.00     0.209 C 
ENDROOT
BRANCH   1   8
HETATM    8  N1  UNL     1      -4.379  50.242 -19.754  1.00  0.00     0.086 N 
HETATM    9  C1  UNL     1      -4.146  49.516 -18.514  1.00  0.00     0.307 C 
HETATM   10  H4  UNL     1      -3.621  50.913 -19.913  1.00  0.00     0.316 HD
ENDBRANCH   1   8
BRANCH   7  11
HETATM   11  O2  UNL     1      -4.903  51.220 -22.392  1.00  0.00    -0.384 OA
HETATM   12  C8  UNL     1      -5.446  51.683 -23.621  1.00  0.00     0.202 C 
ENDBRANCH   7  11
BRANCH   3  13
HETATM   13  N3  UNL     1      -2.802  49.440 -24.159  1.00  0.00    -0.316 N 
HETATM   14  C24 UNL     1      -3.177  49.288 -25.487  1.00  0.00     0.048 A 
HETATM   15  C19 UNL     1      -2.617  50.358 -26.205  1.00  0.00     0.004 A 
HETATM   16  C23 UNL     1      -3.967  48.306 -26.112  1.00  0.00     0.030 A 
HETATM   17  C18 UNL     1      -1.895  51.168 -25.277  1.00  0.00     0.022 A 
HETATM   18  C20 UNL     1      -2.857  50.424 -27.594  1.00  0.00     0.014 A 
HETATM   19  C17 UNL     1      -1.136  52.347 -25.265  1.00  0.00     0.057 A 
HETATM   20  C25 UNL     1      -2.021  50.547 -24.045  1.00  0.00     0.077 A 
HETATM   21  C16 UNL     1      -0.496  52.899 -24.113  1.00  0.00     0.020 A 
HETATM   22  C27 UNL     1      -0.858  53.259 -26.382  1.00  0.00     0.255 A 
HETATM   23  C15 UNL     1      -0.574  52.279 -22.855  1.00  0.00     0.017 A 
HETATM   24  C28 UNL     1       0.198  54.164 -24.515  1.00  0.00     0.257 A 
HETATM   25  C14 UNL     1      -0.046  52.499 -21.554  1.00  0.00     0.004 A 
HETATM   26  C26 UNL     1      -1.324  51.126 -22.777  1.00  0.00     0.077 A 
HETATM   27  C9  UNL     1      -0.474  51.441 -20.728  1.00  0.00     0.049 A 
HETATM   28  C13 UNL     1       0.802  53.495 -21.019  1.00  0.00     0.014 A 
HETATM   29  N2  UNL     1      -1.297  50.621 -21.501  1.00  0.00    -0.308 N 
HETATM   30  C10 UNL     1      -0.032  51.369 -19.392  1.00  0.00     0.030 A 
HETATM   31  C11 UNL     1       0.803  52.372 -18.888  1.00  0.00     0.002 A 
HETATM   32  C12 UNL     1       1.214  53.426 -19.689  1.00  0.00     0.001 A 
HETATM   33  N4  UNL     1      -0.017  54.250 -25.918  1.00  0.00    -0.326 N 
HETATM   34  H24 UNL     1       0.093  55.094 -26.462  1.00  0.00     0.165 HD
HETATM   35  O3  UNL     1      -1.293  53.210 -27.514  1.00  0.00    -0.268 OA
HETATM   36  C21 UNL     1      -3.635  49.445 -28.221  1.00  0.00     0.001 A 
HETATM   37  C22 UNL     1      -4.183  48.402 -27.488  1.00  0.00     0.002 A 
BRANCH  24  38
HETATM   38  O4  UNL     1       1.585  54.081 -24.334  1.00  0.00    -0.372 OA
HETATM   39  H26 UNL     1       1.945  54.128 -25.233  1.00  0.00     0.212 HD
ENDBRANCH  24  38
ENDBRANCH   3  13
TORSDOF 5
ENDMDL
MODEL 5
REMARK minimizedAffinity -10.9036255
REMARK  5 active torsions:
REMARK  status: ('A' for Active; 'I' for Inactive)
REMARK    1  A    between atoms: N1_2  and  C2_3 
REMARK    2  A    between atoms: C4_5  and  N3_29 
REMARK    3  A    between atoms: C5_7  and  N2_12 
REMARK    4  A    between atoms: C7_9  and  O2_10 
REMARK    5  A    between atoms: C28_35  and  O4_36 
ROOT
HETATM    1  C2  UNL     1      -3.249  48.673 -19.960  1.00  0.00     0.257 C 
HETATM    2  C3  UNL     1      -3.497  49.934 -20.795  1.00  0.00     0.092 C 
HETATM    3  C4  UNL     1      -2.591  51.101 -20.383  1.00  0.00     0.234 C 
HETATM    4  O1  UNL     1      -1.887  50.895 -19.163  1.00  0.00    -0.333 OA
HETATM    5  C5  UNL     1      -1.128  49.667 -19.027  1.00  0.00     0.168 C 
HETATM    6  C6  UNL     1      -1.313  49.405 -17.514  1.00  0.00     0.074 C 
HETATM    7  C7  UNL     1      -1.724  48.461 -19.832  1.00  0.00     0.209 C 
ENDROOT
BRANCH   1   8
HETATM    8  N1  UNL     1      -3.864  47.470 -20.562  1.00  0.00     0.086 N 
HETATM    9  C1  UNL     1      -5.319  47.475 -20.529  1.00  0.00     0.307 C 
HETATM   10  H4  UNL     1      -3.537  47.395 -21.530  1.00  0.00     0.316 HD
ENDBRANCH   1   8
BRANCH   7  11
HETATM   11  O2  UNL     1      -1.223  48.381 -21.186  1.00  0.00    -0.384 OA
HETATM   12  C8  UNL     1      -1.485  47.129 -21.806  1.00  0.00     0.202 C 
ENDBRANCH   7  11
BRANCH   3  13
HETATM   13  N3  UNL     1      -1.704  51.608 -21.426  1.00  0.00    -0.316 N 
HETATM   14  C24 UNL     1      -0.621  52.445 -21.197  1.00  0.00     0.048 A 
HETATM   15  C19 UNL     1       0.058  52.594 -22.417  1.00  0.00     0.004 A 
HETATM   16  C23 UNL     1      -0.179  53.074 -20.019  1.00  0.00     0.030 A 
HETATM   17  C18 UNL     1      -0.639  51.821 -23.395  1.00  0.00     0.022 A 
HETATM   18  C20 UNL     1       1.208  53.412 -22.443  1.00  0.00     0.014 A 
HETATM   19  C17 UNL     1      -0.540  51.492 -24.755  1.00  0.00     0.057 A 
HETATM   20  C25 UNL     1      -1.722  51.259 -22.740  1.00  0.00     0.077 A 
HETATM   21  C16 UNL     1      -1.466  50.671 -25.469  1.00  0.00     0.020 A 
HETATM   22  C27 UNL     1       0.507  51.879 -25.709  1.00  0.00     0.255 A 
HETATM   23  C15 UNL     1      -2.593  50.111 -24.846  1.00  0.00     0.017 A 
HETATM   24  C28 UNL     1      -0.999  50.551 -26.888  1.00  0.00     0.257 A 
HETATM   25  C14 UNL     1      -3.710  49.323 -25.233  1.00  0.00     0.004 A 
HETATM   26  C26 UNL     1      -2.749  50.368 -23.502  1.00  0.00     0.077 A 
HETATM   27  C9  UNL     1      -4.533  49.152 -24.102  1.00  0.00     0.049 A 
HETATM   28  C13 UNL     1      -4.114  48.775 -26.472  1.00  0.00     0.014 A 
HETATM   29  N2  UNL     1      -3.897  49.778 -23.031  1.00  0.00    -0.308 N 
HETATM   30  C10 UNL     1      -5.758  48.465 -24.221  1.00  0.00     0.030 A 
HETATM   31  C11 UNL     1      -6.129  47.929 -25.459  1.00  0.00     0.002 A 
HETATM   32  C12 UNL     1      -5.316  48.077 -26.572  1.00  0.00     0.001 A 
HETATM   33  N4  UNL     1       0.156  51.379 -26.946  1.00  0.00    -0.326 N 
HETATM   34  H24 UNL     1       0.857  51.332 -27.672  1.00  0.00     0.165 HD
HETATM   35  O3  UNL     1       1.530  52.495 -25.488  1.00  0.00    -0.268 OA
HETATM   36  C21 UNL     1       1.646  54.047 -21.277  1.00  0.00     0.001 A 
HETATM   37  C22 UNL     1       0.961  53.877 -20.081  1.00  0.00     0.002 A 
BRANCH  24  38
HETATM   38  O4  UNL     1      -1.920  51.098 -27.791  1.00  0.00    -0.372 OA
HETATM   39  H26 UNL     1      -1.455  51.857 -28.175  1.00  0.00     0.212 HD
ENDBRANCH  24  38
ENDBRANCH   3  13
TORSDOF 5
ENDMDL
MODEL 6
REMARK minimizedAffinity -10.6673832
REMARK  5 active torsions:
REMARK  status: ('A' for Active; 'I' for Inactive)
REMARK    1  A    between atoms: N1_2  and  C2_3 
REMARK    2  A    between atoms: C4_5  and  N3_29 
REMARK    3  A    between atoms: C5_7  and  N2_12 
REMARK    4  A    between atoms: C7_9  and  O2_10 
REMARK    5  A    between atoms: C28_35  and  O4_36 
ROOT
HETATM    1  C2  UNL     1      -4.029  47.671 -21.574  1.00  0.00     0.257 C 
HETATM    2  C3  UNL     1      -2.531  47.855 -21.309  1.00  0.00     0.092 C 
HETATM    3  C4  UNL     1      -1.880  48.854 -22.275  1.00  0.00     0.234 C 
HETATM    4  O1  UNL     1      -2.701  49.222 -23.379  1.00  0.00    -0.333 OA
HETATM    5  C5  UNL     1      -4.043  49.686 -23.090  1.00  0.00     0.168 C 
HETATM    6  C6  UNL     1      -4.790  49.128 -24.325  1.00  0.00     0.074 C 
HETATM    7  C7  UNL     1      -4.664  49.063 -21.792  1.00  0.00     0.209 C 
ENDROOT
BRANCH   1   8
HETATM    8  N1  UNL     1      -4.717  46.987 -20.457  1.00  0.00     0.086 N 
HETATM    9  C1  UNL     1      -4.136  45.698 -20.112  1.00  0.00     0.307 C 
HETATM   10  H4  UNL     1      -4.700  47.608 -19.643  1.00  0.00     0.316 HD
ENDBRANCH   1   8
BRANCH   7  11
HETATM   11  O2  UNL     1      -4.364  49.824 -20.600  1.00  0.00    -0.384 OA
HETATM   12  C8  UNL     1      -4.580  51.219 -20.757  1.00  0.00     0.202 C 
ENDBRANCH   7  11
BRANCH   3  13
HETATM   13  N3  UNL     1      -1.274  50.028 -21.653  1.00  0.00    -0.316 N 
HETATM   14  C24 UNL     1      -1.135  50.208 -20.284  1.00  0.00     0.048 A 
HETATM   15  C19 UNL     1      -0.387  51.381 -20.090  1.00  0.00     0.004 A 
HETATM   16  C23 UNL     1      -1.594  49.432 -19.204  1.00  0.00     0.030 A 
HETATM   17  C18 UNL     1      -0.072  51.908 -21.379  1.00  0.00     0.022 A 
HETATM   18  C20 UNL     1      -0.111  51.782 -18.766  1.00  0.00     0.014 A 
HETATM   19  C17 UNL     1       0.625  52.988 -21.943  1.00  0.00     0.057 A 
HETATM   20  C25 UNL     1      -0.659  51.055 -22.298  1.00  0.00     0.077 A 
HETATM   21  C16 UNL     1       0.731  53.254 -23.342  1.00  0.00     0.020 A 
HETATM   22  C27 UNL     1       1.392  54.032 -21.252  1.00  0.00     0.255 A 
HETATM   23  C15 UNL     1       0.121  52.430 -24.302  1.00  0.00     0.017 A 
HETATM   24  C28 UNL     1       1.566  54.484 -23.529  1.00  0.00     0.257 A 
HETATM   25  C14 UNL     1      -0.026  52.414 -25.715  1.00  0.00     0.004 A 
HETATM   26  C26 UNL     1      -0.563  51.332 -23.829  1.00  0.00     0.077 A 
HETATM   27  C9  UNL     1      -0.832  51.309 -26.054  1.00  0.00     0.049 A 
HETATM   28  C13 UNL     1       0.426  53.279 -26.736  1.00  0.00     0.014 A 
HETATM   29  N2  UNL     1      -1.122  50.631 -24.870  1.00  0.00    -0.308 N 
HETATM   30  C10 UNL     1      -1.201  51.093 -27.396  1.00  0.00     0.030 A 
HETATM   31  C11 UNL     1      -0.734  51.964 -28.387  1.00  0.00     0.002 A 
HETATM   32  C12 UNL     1       0.074  53.043 -28.064  1.00  0.00     0.001 A 
HETATM   33  N4  UNL     1       1.849  54.919 -22.205  1.00  0.00    -0.326 N 
HETATM   34  H24 UNL     1       2.589  55.563 -21.961  1.00  0.00     0.165 HD
HETATM   35  O3  UNL     1       1.636  54.122 -20.066  1.00  0.00    -0.268 OA
HETATM   36  C21 UNL     1      -0.573  51.019 -17.689  1.00  0.00     0.001 A 
HETATM   37  C22 UNL     1      -1.304  49.859 -17.907  1.00  0.00     0.002 A 
BRANCH  24  38
HETATM   38  O4  UNL     1       0.844  55.520 -24.137  1.00  0.00    -0.372 OA
HETATM   39  H26 UNL     1       0.791  56.206 -23.454  1.00  0.00     0.212 HD
ENDBRANCH  24  38
ENDBRANCH   3  13
TORSDOF 5
ENDMDL
MODEL 7
REMARK minimizedAffinity -10.2734413
REMARK  5 active torsions:
REMARK  status: ('A' for Active; 'I' for Inactive)
REMARK    1  A    between atoms: N1_2  and  C2_3 
REMARK    2  A    between atoms: C4_5  and  N3_29 
REMARK    3  A    between atoms: C5_7  and  N2_12 
REMARK    4  A    between atoms: C7_9  and  O2_10 
REMARK    5  A    between atoms: C28_35  and  O4_36 
ROOT
HETATM    1  C2  UNL     1      -3.998  48.935 -19.529  1.00  0.00     0.257 C 
HETATM    2  C3  UNL     1      -2.636  48.740 -20.203  1.00  0.00     0.092 C 
HETATM    3  C4  UNL     1      -2.718  48.823 -21.733  1.00  0.00     0.234 C 
HETATM    4  O1  UNL     1      -4.044  48.805 -22.250  1.00  0.00    -0.333 OA
HETATM    5  C5  UNL     1      -4.993  49.751 -21.697  1.00  0.00     0.168 C 
HETATM    6  C6  UNL     1      -6.287  48.907 -21.771  1.00  0.00     0.074 C 
HETATM    7  C7  UNL     1      -4.713  50.129 -20.202  1.00  0.00     0.209 C 
ENDROOT
BRANCH   1   8
HETATM    8  N1  UNL     1      -3.875  49.191 -18.077  1.00  0.00     0.086 N 
HETATM    9  C1  UNL     1      -3.963  47.990 -17.260  1.00  0.00     0.307 C 
HETATM   10  H4  UNL     1      -2.981  49.663 -17.911  1.00  0.00     0.316 HD
ENDBRANCH   1   8
BRANCH   7  11
HETATM   11  O2  UNL     1      -3.817  51.255 -20.060  1.00  0.00    -0.384 OA
HETATM   12  C8  UNL     1      -3.379  51.456 -18.723  1.00  0.00     0.202 C 
ENDBRANCH   7  11
BRANCH   3  13
HETATM   13  N3  UNL     1      -1.925  49.883 -22.349  1.00  0.00    -0.316 N 
HETATM   14  C24 UNL     1      -1.002  50.668 -21.673  1.00  0.00     0.048 A 
HETATM   15  C19 UNL     1      -0.353  51.468 -22.628  1.00  0.00     0.004 A 
HETATM   16  C23 UNL     1      -0.678  50.733 -20.306  1.00  0.00     0.030 A 
HETATM   17  C18 UNL     1      -0.904  51.145 -23.905  1.00  0.00     0.022 A 
HETATM   18  C20 UNL     1       0.640  52.364 -22.180  1.00  0.00     0.014 A 
HETATM   19  C17 UNL     1      -0.746  51.507 -25.251  1.00  0.00     0.057 A 
HETATM   20  C25 UNL     1      -1.878  50.188 -23.673  1.00  0.00     0.077 A 
HETATM   21  C16 UNL     1      -1.515  50.987 -26.336  1.00  0.00     0.020 A 
HETATM   22  C27 UNL     1       0.224  52.445 -25.831  1.00  0.00     0.255 A 
HETATM   23  C15 UNL     1      -2.533  50.040 -26.136  1.00  0.00     0.017 A 
HETATM   24  C28 UNL     1      -1.028  51.613 -27.608  1.00  0.00     0.257 A 
HETATM   25  C14 UNL     1      -3.498  49.367 -26.932  1.00  0.00     0.004 A 
HETATM   26  C26 UNL     1      -2.736  49.613 -24.842  1.00  0.00     0.077 A 
HETATM   27  C9  UNL     1      -4.284  48.568 -26.079  1.00  0.00     0.049 A 
HETATM   28  C13 UNL     1      -3.797  49.406 -28.313  1.00  0.00     0.014 A 
HETATM   29  N2  UNL     1      -3.768  48.709 -24.790  1.00  0.00    -0.308 N 
HETATM   30  C10 UNL     1      -5.373  47.842 -26.600  1.00  0.00     0.030 A 
HETATM   31  C11 UNL     1      -5.642  47.896 -27.972  1.00  0.00     0.002 A 
HETATM   32  C12 UNL     1      -4.862  48.665 -28.822  1.00  0.00     0.001 A 
HETATM   33  N4  UNL     1      -0.031  52.534 -27.183  1.00  0.00    -0.326 N 
HETATM   34  H24 UNL     1       0.670  52.936 -27.789  1.00  0.00     0.165 HD
HETATM   35  O3  UNL     1       1.126  53.032 -25.268  1.00  0.00    -0.268 OA
HETATM   36  C21 UNL     1       0.960  52.439 -20.821  1.00  0.00     0.001 A 
HETATM   37  C22 UNL     1       0.308  51.632 -19.897  1.00  0.00     0.002 A 
BRANCH  24  38
HETATM   38  O4  UNL     1      -2.026  52.373 -28.232  1.00  0.00    -0.372 OA
HETATM   39  H26 UNL     1      -1.696  53.284 -28.185  1.00  0.00     0.212 HD
ENDBRANCH  24  38
ENDBRANCH   3  13
TORSDOF 5
ENDMDL
MODEL 8
REMARK minimizedAffinity -10.2067814
REMARK  5 active torsions:
REMARK  status: ('A' for Active; 'I' for Inactive)
REMARK    1  A    between atoms: N1_2  and  C2_3 
REMARK    2  A    between atoms: C4_5  and  N3_29 
REMARK    3  A    between atoms: C5_7  and  N2_12 
REMARK    4  A    between atoms: C7_9  and  O2_10 
REMARK    5  A    between atoms: C28_35  and  O4_36 
ROOT
HETATM    1  C2  UNL     1      -4.661  46.654 -19.650  1.00  0.00     0.257 C 
HETATM    2  C3  UNL     1      -3.145  46.821 -19.802  1.00  0.00     0.092 C 
HETATM    3  C4  UNL     1      -2.753  47.453 -21.143  1.00  0.00     0.234 C 
HETATM    4  O1  UNL     1      -3.815  47.527 -22.089  1.00  0.00    -0.333 OA
HETATM    5  C5  UNL     1      -5.059  48.132 -21.653  1.00  0.00     0.168 C 
HETATM    6  C6  UNL     1      -6.067  47.280 -22.460  1.00  0.00     0.074 C 
HETATM    7  C7  UNL     1      -5.349  47.954 -20.123  1.00  0.00     0.209 C 
ENDROOT
BRANCH   1   8
HETATM    8  N1  UNL     1      -5.058  46.368 -18.254  1.00  0.00     0.086 N 
HETATM    9  C1  UNL     1      -3.933  46.234 -17.340  1.00  0.00     0.307 C 
HETATM   10  H4  UNL     1      -5.677  47.121 -17.937  1.00  0.00     0.316 HD
ENDBRANCH   1   8
BRANCH   7  11
HETATM   11  O2  UNL     1      -4.787  49.013 -19.313  1.00  0.00    -0.384 OA
HETATM   12  C8  UNL     1      -4.905  50.296 -19.911  1.00  0.00     0.202 C 
ENDBRANCH   7  11
BRANCH   3  13
HETATM   13  N3  UNL     1      -2.034  48.721 -21.056  1.00  0.00    -0.316 N 
HETATM   14  C24 UNL     1      -1.433  49.205 -19.903  1.00  0.00     0.048 A 
HETATM   15  C19 UNL     1      -0.732  50.371 -20.254  1.00  0.00     0.004 A 
HETATM   16  C23 UNL     1      -1.440  48.711 -18.586  1.00  0.00     0.030 A 
HETATM   17  C18 UNL     1      -0.920  50.580 -21.654  1.00  0.00     0.022 A 
HETATM   18  C20 UNL     1      -0.032  51.057 -19.240  1.00  0.00     0.014 A 
HETATM   19  C17 UNL     1      -0.528  51.482 -22.654  1.00  0.00     0.057 A 
HETATM   20  C25 UNL     1      -1.744  49.556 -22.089  1.00  0.00     0.077 A 
HETATM   21  C16 UNL     1      -0.934  51.419 -24.022  1.00  0.00     0.020 A 
HETATM   22  C27 UNL     1       0.374  52.636 -22.533  1.00  0.00     0.255 A 
HETATM   23  C15 UNL     1      -1.795  50.414 -24.492  1.00  0.00     0.017 A 
HETATM   24  C28 UNL     1      -0.289  52.550 -24.763  1.00  0.00     0.257 A 
HETATM   25  C14 UNL     1      -2.429  50.079 -25.719  1.00  0.00     0.004 A 
HETATM   26  C26 UNL     1      -2.208  49.472 -23.575  1.00  0.00     0.077 A 
HETATM   27  C9  UNL     1      -3.239  48.948 -25.495  1.00  0.00     0.049 A 
HETATM   28  C13 UNL     1      -2.413  50.675 -27.001  1.00  0.00     0.014 A 
HETATM   29  N2  UNL     1      -3.056  48.567 -24.165  1.00  0.00    -0.308 N 
HETATM   30  C10 UNL     1      -4.044  48.441 -26.534  1.00  0.00     0.030 A 
HETATM   31  C11 UNL     1      -4.003  49.050 -27.794  1.00  0.00     0.002 A 
HETATM   32  C12 UNL     1      -3.195  50.151 -28.029  1.00  0.00     0.001 A 
HETATM   33  N4  UNL     1       0.416  53.268 -23.758  1.00  0.00    -0.326 N 
HETATM   34  H24 UNL     1       1.157  53.930 -23.943  1.00  0.00     0.165 HD
HETATM   35  O3  UNL     1       1.013  52.987 -21.562  1.00  0.00    -0.268 OA
HETATM   36  C21 UNL     1      -0.043  50.574 -17.927  1.00  0.00     0.001 A 
HETATM   37  C22 UNL     1      -0.737  49.415 -17.607  1.00  0.00     0.002 A 
BRANCH  24  38
HETATM   38  O4  UNL     1      -1.236  53.438 -25.291  1.00  0.00    -0.372 OA
HETATM   39  H26 UNL     1      -1.084  54.263 -24.805  1.00  0.00     0.212 HD
ENDBRANCH  24  38
ENDBRANCH   3  13
TORSDOF 5
ENDMDL
MODEL 9
REMARK minimizedAffinity -9.9167881
REMARK  5 active torsions:
REMARK  status: ('A' for Active; 'I' for Inactive)
REMARK    1  A    between atoms: N1_2  and  C2_3 
REMARK    2  A    between atoms: C4_5  and  N3_29 
REMARK    3  A    between atoms: C5_7  and  N2_12 
REMARK    4  A    between atoms: C7_9  and  O2_10 
REMARK    5  A    between atoms: C28_35  and  O4_36 
ROOT
HETATM    1  C2  UNL     1      -2.392  51.685 -27.161  1.00  0.00     0.257 C 
HETATM    2  C3  UNL     1      -2.692  52.570 -25.947  1.00  0.00     0.092 C 
HETATM    3  C4  UNL     1      -3.390  51.802 -24.816  1.00  0.00     0.234 C 
HETATM    4  O1  UNL     1      -3.857  50.509 -25.187  1.00  0.00    -0.333 OA
HETATM    5  C5  UNL     1      -2.912  49.612 -25.823  1.00  0.00     0.168 C 
HETATM    6  C6  UNL     1      -3.862  48.863 -26.786  1.00  0.00     0.074 C 
HETATM    7  C7  UNL     1      -1.807  50.345 -26.661  1.00  0.00     0.209 C 
ENDROOT
BRANCH   1   8
HETATM    8  N1  UNL     1      -1.436  52.318 -28.096  1.00  0.00     0.086 N 
HETATM    9  C1  UNL     1      -1.126  53.702 -27.769  1.00  0.00     0.307 C 
HETATM   10  H4  UNL     1      -0.577  51.760 -28.101  1.00  0.00     0.316 HD
ENDBRANCH   1   8
BRANCH   7  11
HETATM   11  O2  UNL     1      -0.641  50.691 -25.880  1.00  0.00    -0.384 OA
HETATM   12  C8  UNL     1       0.575  50.564 -26.604  1.00  0.00     0.202 C 
ENDBRANCH   7  11
BRANCH   3  13
HETATM   13  N3  UNL     1      -2.670  51.760 -23.547  1.00  0.00    -0.316 N 
HETATM   14  C24 UNL     1      -1.417  52.318 -23.335  1.00  0.00     0.048 A 
HETATM   15  C19 UNL     1      -1.130  52.192 -21.965  1.00  0.00     0.004 A 
HETATM   16  C23 UNL     1      -0.521  52.930 -24.229  1.00  0.00     0.030 A 
HETATM   17  C18 UNL     1      -2.244  51.545 -21.349  1.00  0.00     0.022 A 
HETATM   18  C20 UNL     1       0.105  52.689 -21.497  1.00  0.00     0.014 A 
HETATM   19  C17 UNL     1      -2.655  51.125 -20.076  1.00  0.00     0.057 A 
HETATM   20  C25 UNL     1      -3.146  51.281 -22.366  1.00  0.00     0.077 A 
HETATM   21  C16 UNL     1      -3.881  50.449 -19.791  1.00  0.00     0.020 A 
HETATM   22  C27 UNL     1      -1.960  51.299 -18.794  1.00  0.00     0.255 A 
HETATM   23  C15 UNL     1      -4.805  50.135 -20.801  1.00  0.00     0.017 A 
HETATM   24  C28 UNL     1      -3.950  50.188 -18.318  1.00  0.00     0.257 A 
HETATM   25  C14 UNL     1      -6.048  49.454 -20.897  1.00  0.00     0.004 A 
HETATM   26  C26 UNL     1      -4.486  50.537 -22.080  1.00  0.00     0.077 A 
HETATM   27  C9  UNL     1      -6.431  49.438 -22.253  1.00  0.00     0.049 A 
HETATM   28  C13 UNL     1      -6.863  48.807 -19.941  1.00  0.00     0.014 A 
HETATM   29  N2  UNL     1      -5.463  50.149 -22.963  1.00  0.00    -0.308 N 
HETATM   30  C10 UNL     1      -7.600  48.757 -22.647  1.00  0.00     0.030 A 
HETATM   31  C11 UNL     1      -8.389  48.130 -21.677  1.00  0.00     0.002 A 
HETATM   32  C12 UNL     1      -8.030  48.156 -20.338  1.00  0.00     0.001 A 
HETATM   33  N4  UNL     1      -2.708  50.670 -17.820  1.00  0.00    -0.326 N 
HETATM   34  H24 UNL     1      -2.525  50.881 -16.849  1.00  0.00     0.165 HD
HETATM   35  O3  UNL     1      -0.931  51.906 -18.577  1.00  0.00    -0.268 OA
HETATM   36  C21 UNL     1       1.004  53.291 -22.384  1.00  0.00     0.001 A 
HETATM   37  C22 UNL     1       0.692  53.410 -23.732  1.00  0.00     0.002 A 
BRANCH  24  38
HETATM   38  O4  UNL     1      -3.984  48.817 -18.029  1.00  0.00    -0.372 OA
HETATM   39  H26 UNL     1      -3.149  48.651 -17.564  1.00  0.00     0.212 HD
ENDBRANCH  24  38
ENDBRANCH   3  13
TORSDOF 5
ENDMDL
