MODEL 1
REMARK minimizedAffinity -7.02998304
REMARK CNNscore 0.544915855
REMARK CNNaffinity 5.96765327
REMARK  5 active torsions:
REMARK  status: ('A' for Active; 'I' for Inactive)
REMARK    1  A    between atoms: C2_2  and  C3_3 
REMARK    2  A    between atoms: C6_6  and  C7_7 
REMARK    3  A    between atoms: C7_7  and  O1_8 
REMARK    4  A    between atoms: C7_7  and  C8_9 
REMARK    5  A    between atoms: C26_32  and  O6_33 
ROOT
HETATM    1  C3  UNL     1     -19.074  14.531   1.689  1.00  0.00     0.008 C 
HETATM    2  C4  UNL     1     -18.882  13.113   1.176  1.00  0.00    -0.023 C 
HETATM    3  C5  UNL     1     -19.062  12.669  -0.080  1.00  0.00     0.005 C 
HETATM    4  C6  UNL     1     -18.875  11.235  -0.522  1.00  0.00     0.187 C 
HETATM    5  O2  UNL     1     -17.962  11.279  -1.649  1.00  0.00    -0.308 OA
HETATM    6  C12 UNL     1     -16.650  11.037  -1.387  1.00  0.00     0.276 C 
HETATM    7  O3  UNL     1     -16.218  10.553  -0.346  1.00  0.00    -0.264 OA
HETATM    8  C13 UNL     1     -15.739  11.403  -2.599  1.00  0.00     0.095 C 
HETATM    9  C14 UNL     1     -16.469  12.225  -3.680  1.00  0.00     0.036 C 
HETATM   10  C15 UNL     1     -15.412  10.053  -3.207  1.00  0.00     0.003 C 
HETATM   11  C16 UNL     1     -14.307   9.624  -3.824  1.00  0.00     0.072 C 
HETATM   12  C17 UNL     1     -13.059  10.344  -4.111  1.00  0.00     0.245 C 
HETATM   13  O4  UNL     1     -12.306   9.890  -4.971  1.00  0.00    -0.268 OA
HETATM   14  N1  UNL     1     -12.689  11.431  -3.399  1.00  0.00    -0.320 N 
HETATM   15  C18 UNL     1     -13.270  12.183  -2.410  1.00  0.00     0.098 C 
HETATM   16  C19 UNL     1     -14.563  12.201  -2.042  1.00  0.00     0.045 C 
HETATM   17  C20 UNL     1     -14.951  13.215  -1.005  1.00  0.00     0.194 C 
HETATM   18  O5  UNL     1     -16.069  13.711  -0.990  1.00  0.00    -0.287 OA
HETATM   19  C21 UNL     1     -13.949  13.657  -0.033  1.00  0.00     0.046 A 
HETATM   20  C22 UNL     1     -12.626  13.677  -0.447  1.00  0.00     0.032 A 
HETATM   21  C23 UNL     1     -11.625  14.195   0.385  1.00  0.00     0.026 A 
HETATM   22  C24 UNL     1     -11.940  14.656   1.671  1.00  0.00    -0.027 A 
HETATM   23  C25 UNL     1     -10.852  15.149   2.579  1.00  0.00     0.051 C 
HETATM   24  C26 UNL     1     -13.266  14.556   2.111  1.00  0.00     0.086 A 
HETATM   25  C27 UNL     1     -14.276  14.099   1.252  1.00  0.00     0.059 A 
HETATM   26  C28 UNL     1     -15.636  13.970   1.798  1.00  0.00     0.163 C 
HETATM   27  O7  UNL     1     -15.897  12.922   2.379  1.00  0.00    -0.292 OA
HETATM   28  C29 UNL     1     -16.540  15.188   1.730  1.00  0.00     0.084 C 
HETATM   29  C30 UNL     1     -17.851  15.012   2.508  1.00  0.00     0.016 C 
HETATM   30  C31 UNL     1     -12.277  13.108  -1.755  1.00  0.00     0.210 C 
HETATM   31  O8  UNL     1     -11.180  13.314  -2.261  1.00  0.00    -0.285 OA
HETATM   32  H24 UNL     1     -11.729  11.705  -3.622  1.00  0.00     0.169 HD
ENDROOT
BRANCH   4  33
HETATM   33  C7  UNL     1     -20.200  10.614  -1.050  1.00  0.00     0.174 C 
BRANCH  33  34
HETATM   34  O1  UNL     1     -20.005  10.037  -2.344  1.00  0.00    -0.389 OA
HETATM   35  H11 UNL     1     -19.495  10.689  -2.855  1.00  0.00     0.210 HD
ENDBRANCH  33  34
BRANCH  33  36
HETATM   36  C8  UNL     1     -20.819   9.608  -0.109  1.00  0.00     0.009 C 
HETATM   37  C9  UNL     1     -21.489   8.466  -0.370  1.00  0.00    -0.089 C 
HETATM   38  C10 UNL     1     -22.086   7.654   0.750  1.00  0.00     0.042 C 
HETATM   39  C11 UNL     1     -21.698   7.886  -1.740  1.00  0.00     0.042 C 
ENDBRANCH  33  36
ENDBRANCH   4  33
BRANCH   1  40
HETATM   40  C2  UNL     1     -19.533  15.543   0.610  1.00  0.00     0.004 C 
HETATM   41  C1  UNL     1     -18.487  15.840  -0.456  1.00  0.00     0.006 C 
ENDBRANCH   1  40
BRANCH  24  42
HETATM   42  O6  UNL     1     -13.539  14.883   3.412  1.00  0.00    -0.359 OA
HETATM   43  H29 UNL     1     -14.133  14.196   3.774  1.00  0.00     0.217 HD
ENDBRANCH  24  42
TORSDOF 5
ENDMDL
MODEL 2
REMARK minimizedAffinity -10.5371542
REMARK CNNscore 0.473271251
REMARK CNNaffinity 7.65327787
REMARK  5 active torsions:
REMARK  status: ('A' for Active; 'I' for Inactive)
REMARK    1  A    between atoms: C2_2  and  C3_3 
REMARK    2  A    between atoms: C6_6  and  C7_7 
REMARK    3  A    between atoms: C7_7  and  O1_8 
REMARK    4  A    between atoms: C7_7  and  C8_9 
REMARK    5  A    between atoms: C26_32  and  O6_33 
ROOT
HETATM    1  C3  UNL     1       1.733   7.844  12.333  1.00  0.00     0.008 C 
HETATM    2  C4  UNL     1       0.891   7.854  13.598  1.00  0.00    -0.023 C 
HETATM    3  C5  UNL     1      -0.188   8.613  13.854  1.00  0.00     0.005 C 
HETATM    4  C6  UNL     1      -0.971   8.592  15.147  1.00  0.00     0.187 C 
HETATM    5  O2  UNL     1      -2.356   8.371  14.773  1.00  0.00    -0.308 OA
HETATM    6  C12 UNL     1      -2.815   7.094  14.842  1.00  0.00     0.276 C 
HETATM    7  O3  UNL     1      -2.244   6.171  15.415  1.00  0.00    -0.264 OA
HETATM    8  C13 UNL     1      -4.199   6.936  14.142  1.00  0.00     0.095 C 
HETATM    9  C14 UNL     1      -4.586   8.156  13.281  1.00  0.00     0.036 C 
HETATM   10  C15 UNL     1      -5.172   6.881  15.304  1.00  0.00     0.003 C 
HETATM   11  C16 UNL     1      -6.320   6.212  15.443  1.00  0.00     0.072 C 
HETATM   12  C17 UNL     1      -7.002   5.320  14.496  1.00  0.00     0.245 C 
HETATM   13  O4  UNL     1      -8.194   5.075  14.677  1.00  0.00    -0.268 OA
HETATM   14  N1  UNL     1      -6.333   4.706  13.496  1.00  0.00    -0.320 N 
HETATM   15  C18 UNL     1      -5.048   4.755  13.019  1.00  0.00     0.098 C 
HETATM   16  C19 UNL     1      -4.113   5.687  13.268  1.00  0.00     0.045 C 
HETATM   17  C20 UNL     1      -2.821   5.560  12.513  1.00  0.00     0.194 C 
HETATM   18  O5  UNL     1      -2.163   6.546  12.211  1.00  0.00    -0.287 OA
HETATM   19  C21 UNL     1      -2.378   4.233  12.082  1.00  0.00     0.046 A 
HETATM   20  C22 UNL     1      -3.358   3.300  11.783  1.00  0.00     0.032 A 
HETATM   21  C23 UNL     1      -3.016   2.049  11.255  1.00  0.00     0.026 A 
HETATM   22  C24 UNL     1      -1.670   1.702  11.067  1.00  0.00    -0.027 A 
HETATM   23  C25 UNL     1      -1.310   0.335  10.562  1.00  0.00     0.051 C 
HETATM   24  C26 UNL     1      -0.684   2.620  11.449  1.00  0.00     0.086 A 
HETATM   25  C27 UNL     1      -1.031   3.896  11.914  1.00  0.00     0.059 A 
HETATM   26  C28 UNL     1       0.055   4.789  12.347  1.00  0.00     0.163 C 
HETATM   27  O7  UNL     1       0.442   4.663  13.504  1.00  0.00    -0.292 OA
HETATM   28  C29 UNL     1       0.700   5.674  11.295  1.00  0.00     0.084 C 
HETATM   29  C30 UNL     1       1.950   6.405  11.803  1.00  0.00     0.016 C 
HETATM   30  C31 UNL     1      -4.762   3.622  12.067  1.00  0.00     0.210 C 
HETATM   31  O8  UNL     1      -5.672   2.941  11.608  1.00  0.00    -0.285 OA
HETATM   32  H24 UNL     1      -6.922   4.005  13.039  1.00  0.00     0.169 HD
ENDROOT
BRANCH   4  33
HETATM   33  C7  UNL     1      -0.922   9.965  15.876  1.00  0.00     0.174 C 
BRANCH  33  34
HETATM   34  O1  UNL     1      -0.805  11.033  14.932  1.00  0.00    -0.389 OA
HETATM   35  H11 UNL     1      -0.123  10.756  14.296  1.00  0.00     0.210 HD
ENDBRANCH  33  34
BRANCH  33  36
HETATM   36  C8  UNL     1      -2.090  10.204  16.803  1.00  0.00     0.009 C 
HETATM   37  C9  UNL     1      -2.116  10.629  18.084  1.00  0.00    -0.089 C 
HETATM   38  C10 UNL     1      -3.417  10.721  18.836  1.00  0.00     0.042 C 
HETATM   39  C11 UNL     1      -0.909  11.056  18.872  1.00  0.00     0.042 C 
ENDBRANCH  33  36
ENDBRANCH   4  33
BRANCH   1  40
HETATM   40  C2  UNL     1       1.261   8.839  11.244  1.00  0.00     0.004 C 
HETATM   41  C1  UNL     1       0.140   8.313  10.358  1.00  0.00     0.006 C 
ENDBRANCH   1  40
BRANCH  24  42
HETATM   42  O6  UNL     1       0.625   2.222  11.387  1.00  0.00    -0.359 OA
HETATM   43  H29 UNL     1       1.065   2.513  12.210  1.00  0.00     0.217 HD
ENDBRANCH  24  42
TORSDOF 5
ENDMDL
MODEL 3
REMARK minimizedAffinity -6.9799428
REMARK CNNscore 0.362119257
REMARK CNNaffinity 5.95228243
REMARK  5 active torsions:
REMARK  status: ('A' for Active; 'I' for Inactive)
REMARK    1  A    between atoms: C2_2  and  C3_3 
REMARK    2  A    between atoms: C6_6  and  C7_7 
REMARK    3  A    between atoms: C7_7  and  O1_8 
REMARK    4  A    between atoms: C7_7  and  C8_9 
REMARK    5  A    between atoms: C26_32  and  O6_33 
ROOT
HETATM    1  C3  UNL     1      13.260  -6.547   8.094  1.00  0.00     0.008 C 
HETATM    2  C4  UNL     1      13.665  -7.068   6.725  1.00  0.00    -0.023 C 
HETATM    3  C5  UNL     1      12.986  -6.946   5.572  1.00  0.00     0.005 C 
HETATM    4  C6  UNL     1      13.434  -7.510   4.243  1.00  0.00     0.187 C 
HETATM    5  O2  UNL     1      13.408  -6.400   3.308  1.00  0.00    -0.308 OA
HETATM    6  C12 UNL     1      14.587  -5.763   3.077  1.00  0.00     0.276 C 
HETATM    7  O3  UNL     1      15.691  -6.190   3.395  1.00  0.00    -0.264 OA
HETATM    8  C13 UNL     1      14.380  -4.425   2.303  1.00  0.00     0.095 C 
HETATM    9  C14 UNL     1      12.905  -3.979   2.245  1.00  0.00     0.036 C 
HETATM   10  C15 UNL     1      14.798  -4.774   0.889  1.00  0.00     0.003 C 
HETATM   11  C16 UNL     1      15.394  -4.030  -0.049  1.00  0.00     0.072 C 
HETATM   12  C17 UNL     1      15.822  -2.626   0.006  1.00  0.00     0.245 C 
HETATM   13  O4  UNL     1      16.037  -2.038  -1.053  1.00  0.00    -0.268 OA
HETATM   14  N1  UNL     1      16.063  -2.005   1.182  1.00  0.00    -0.320 N 
HETATM   15  C18 UNL     1      15.926  -2.348   2.502  1.00  0.00     0.098 C 
HETATM   16  C19 UNL     1      15.217  -3.367   3.018  1.00  0.00     0.045 C 
HETATM   17  C20 UNL     1      15.139  -3.439   4.517  1.00  0.00     0.194 C 
HETATM   18  O5  UNL     1      14.158  -3.904   5.079  1.00  0.00    -0.287 OA
HETATM   19  C21 UNL     1      16.237  -2.887   5.312  1.00  0.00     0.046 A 
HETATM   20  C22 UNL     1      16.925  -1.805   4.784  1.00  0.00     0.032 A 
HETATM   21  C23 UNL     1      17.910  -1.150   5.534  1.00  0.00     0.026 A 
HETATM   22  C24 UNL     1      18.250  -1.611   6.814  1.00  0.00    -0.027 A 
HETATM   23  C25 UNL     1      19.352  -0.943   7.584  1.00  0.00     0.051 C 
HETATM   24  C26 UNL     1      17.608  -2.754   7.306  1.00  0.00     0.086 A 
HETATM   25  C27 UNL     1      16.576  -3.366   6.581  1.00  0.00     0.059 A 
HETATM   26  C28 UNL     1      15.982  -4.594   7.134  1.00  0.00     0.163 C 
HETATM   27  O7  UNL     1      16.555  -5.647   6.874  1.00  0.00    -0.292 OA
HETATM   28  C29 UNL     1      14.815  -4.440   8.092  1.00  0.00     0.084 C 
HETATM   29  C30 UNL     1      14.409  -5.757   8.767  1.00  0.00     0.016 C 
HETATM   30  C31 UNL     1      16.639  -1.379   3.408  1.00  0.00     0.210 C 
HETATM   31  O8  UNL     1      17.040  -0.300   2.986  1.00  0.00    -0.285 OA
HETATM   32  H24 UNL     1      16.503  -1.094   1.031  1.00  0.00     0.169 HD
ENDROOT
BRANCH   4  33
HETATM   33  C7  UNL     1      12.438  -8.572   3.698  1.00  0.00     0.174 C 
BRANCH  33  34
HETATM   34  O1  UNL     1      12.657  -8.800   2.303  1.00  0.00    -0.389 OA
HETATM   35  H11 UNL     1      12.754  -7.920   1.899  1.00  0.00     0.210 HD
ENDBRANCH  33  34
BRANCH  33  36
HETATM   36  C8  UNL     1      12.462  -9.878   4.457  1.00  0.00     0.009 C 
HETATM   37  C9  UNL     1      11.515 -10.830   4.588  1.00  0.00    -0.089 C 
HETATM   38  C10 UNL     1      11.748 -12.027   5.471  1.00  0.00     0.042 C 
HETATM   39  C11 UNL     1      10.185 -10.820   3.889  1.00  0.00     0.042 C 
ENDBRANCH  33  36
ENDBRANCH   4  33
BRANCH   1  40
HETATM   40  C2  UNL     1      11.902  -5.802   8.117  1.00  0.00     0.004 C 
HETATM   41  C1  UNL     1      11.420  -5.419   9.510  1.00  0.00     0.006 C 
ENDBRANCH   1  40
BRANCH  24  42
HETATM   42  O6  UNL     1      18.040  -3.273   8.497  1.00  0.00    -0.359 OA
HETATM   43  H29 UNL     1      18.106  -4.243   8.393  1.00  0.00     0.217 HD
ENDBRANCH  24  42
TORSDOF 5
ENDMDL
MODEL 4
REMARK minimizedAffinity -9.94863033
REMARK CNNscore 0.286551446
REMARK CNNaffinity 6.84433603
REMARK  5 active torsions:
REMARK  status: ('A' for Active; 'I' for Inactive)
REMARK    1  A    between atoms: C2_2  and  C3_3 
REMARK    2  A    between atoms: C6_6  and  C7_7 
REMARK    3  A    between atoms: C7_7  and  O1_8 
REMARK    4  A    between atoms: C7_7  and  C8_9 
REMARK    5  A    between atoms: C26_32  and  O6_33 
ROOT
HETATM    1  C3  UNL     1      -4.481  10.018  16.342  1.00  0.00     0.008 C 
HETATM    2  C4  UNL     1      -3.602  10.461  15.184  1.00  0.00    -0.023 C 
HETATM    3  C5  UNL     1      -2.260  10.524  15.156  1.00  0.00     0.005 C 
HETATM    4  C6  UNL     1      -1.443  10.998  13.975  1.00  0.00     0.187 C 
HETATM    5  O2  UNL     1      -0.483   9.944  13.704  1.00  0.00    -0.308 OA
HETATM    6  C12 UNL     1      -0.802   9.058  12.724  1.00  0.00     0.276 C 
HETATM    7  O3  UNL     1      -1.698   9.214  11.900  1.00  0.00    -0.264 OA
HETATM    8  C13 UNL     1       0.146   7.821  12.729  1.00  0.00     0.095 C 
HETATM    9  C14 UNL     1       1.014   7.727  14.000  1.00  0.00     0.036 C 
HETATM   10  C15 UNL     1       1.081   8.095  11.567  1.00  0.00     0.003 C 
HETATM   11  C16 UNL     1       1.674   7.254  10.713  1.00  0.00     0.072 C 
HETATM   12  C17 UNL     1       1.604   5.789  10.646  1.00  0.00     0.245 C 
HETATM   13  O4  UNL     1       2.473   5.190  10.014  1.00  0.00    -0.268 OA
HETATM   14  N1  UNL     1       0.571   5.104  11.185  1.00  0.00    -0.320 N 
HETATM   15  C18 UNL     1      -0.524   5.441  11.937  1.00  0.00     0.098 C 
HETATM   16  C19 UNL     1      -0.741   6.583  12.610  1.00  0.00     0.045 C 
HETATM   17  C20 UNL     1      -1.980   6.640  13.458  1.00  0.00     0.194 C 
HETATM   18  O5  UNL     1      -2.018   7.305  14.483  1.00  0.00    -0.287 OA
HETATM   19  C21 UNL     1      -3.139   5.832  13.074  1.00  0.00     0.046 A 
HETATM   20  C22 UNL     1      -2.894   4.634  12.422  1.00  0.00     0.032 A 
HETATM   21  C23 UNL     1      -3.943   3.754  12.127  1.00  0.00     0.026 A 
HETATM   22  C24 UNL     1      -5.265   4.096  12.440  1.00  0.00    -0.027 A 
HETATM   23  C25 UNL     1      -6.390   3.176  12.061  1.00  0.00     0.051 C 
HETATM   24  C26 UNL     1      -5.513   5.345  13.023  1.00  0.00     0.086 A 
HETATM   25  C27 UNL     1      -4.455   6.194  13.379  1.00  0.00     0.059 A 
HETATM   26  C28 UNL     1      -4.790   7.513  13.939  1.00  0.00     0.163 C 
HETATM   27  O7  UNL     1      -5.011   8.411  13.134  1.00  0.00    -0.292 OA
HETATM   28  C29 UNL     1      -4.982   7.611  15.442  1.00  0.00     0.084 C 
HETATM   29  C30 UNL     1      -5.530   8.971  15.894  1.00  0.00     0.016 C 
HETATM   30  C31 UNL     1      -1.522   4.314  12.006  1.00  0.00     0.210 C 
HETATM   31  O8  UNL     1      -1.219   3.182  11.649  1.00  0.00    -0.285 OA
HETATM   32  H24 UNL     1       0.601   4.120  10.908  1.00  0.00     0.169 HD
ENDROOT
BRANCH   4  33
HETATM   33  C7  UNL     1      -0.619  12.272  14.315  1.00  0.00     0.174 C 
BRANCH  33  34
HETATM   34  O1  UNL     1      -1.118  13.402  13.593  1.00  0.00    -0.389 OA
HETATM   35  H11 UNL     1      -1.254  13.098  12.679  1.00  0.00     0.210 HD
ENDBRANCH  33  34
BRANCH  33  36
HETATM   36  C8  UNL     1      -0.549  12.578  15.793  1.00  0.00     0.009 C 
HETATM   37  C9  UNL     1       0.259  12.078  16.751  1.00  0.00    -0.089 C 
HETATM   38  C10 UNL     1       0.087  12.488  18.189  1.00  0.00     0.042 C 
HETATM   39  C11 UNL     1       1.383  11.110  16.508  1.00  0.00     0.042 C 
ENDBRANCH  33  36
ENDBRANCH   4  33
BRANCH   1  40
HETATM   40  C2  UNL     1      -3.699   9.604  17.614  1.00  0.00     0.004 C 
HETATM   41  C1  UNL     1      -3.460  10.741  18.600  1.00  0.00     0.006 C 
ENDBRANCH   1  40
BRANCH  24  42
HETATM   42  O6  UNL     1      -6.816   5.725  13.203  1.00  0.00    -0.359 OA
HETATM   43  H29 UNL     1      -6.897   6.656  12.916  1.00  0.00     0.217 HD
ENDBRANCH  24  42
TORSDOF 5
ENDMDL
MODEL 5
REMARK minimizedAffinity -7.44382238
REMARK CNNscore 0.222063109
REMARK CNNaffinity 5.74287796
REMARK  5 active torsions:
REMARK  status: ('A' for Active; 'I' for Inactive)
REMARK    1  A    between atoms: C2_2  and  C3_3 
REMARK    2  A    between atoms: C6_6  and  C7_7 
REMARK    3  A    between atoms: C7_7  and  O1_8 
REMARK    4  A    between atoms: C7_7  and  C8_9 
REMARK    5  A    between atoms: C26_32  and  O6_33 
ROOT
HETATM    1  C3  UNL     1      13.184  -6.523   6.762  1.00  0.00     0.008 C 
HETATM    2  C4  UNL     1      14.247  -6.334   5.694  1.00  0.00    -0.023 C 
HETATM    3  C5  UNL     1      14.331  -5.339   4.793  1.00  0.00     0.005 C 
HETATM    4  C6  UNL     1      15.406  -5.220   3.737  1.00  0.00     0.187 C 
HETATM    5  O2  UNL     1      15.972  -3.892   3.889  1.00  0.00    -0.308 OA
HETATM    6  C12 UNL     1      17.117  -3.791   4.615  1.00  0.00     0.276 C 
HETATM    7  O3  UNL     1      17.831  -4.735   4.938  1.00  0.00    -0.264 OA
HETATM    8  C13 UNL     1      17.457  -2.308   4.956  1.00  0.00     0.095 C 
HETATM    9  C14 UNL     1      16.294  -1.337   4.672  1.00  0.00     0.036 C 
HETATM   10  C15 UNL     1      18.568  -1.973   3.980  1.00  0.00     0.003 C 
HETATM   11  C16 UNL     1      19.628  -1.170   4.114  1.00  0.00     0.072 C 
HETATM   12  C17 UNL     1      20.039  -0.351   5.262  1.00  0.00     0.245 C 
HETATM   13  O4  UNL     1      20.841   0.562   5.071  1.00  0.00    -0.268 OA
HETATM   14  N1  UNL     1      19.625  -0.631   6.516  1.00  0.00    -0.320 N 
HETATM   15  C18 UNL     1      18.757  -1.538   7.068  1.00  0.00     0.098 C 
HETATM   16  C19 UNL     1      17.820  -2.268   6.439  1.00  0.00     0.045 C 
HETATM   17  C20 UNL     1      16.919  -3.098   7.309  1.00  0.00     0.194 C 
HETATM   18  O5  UNL     1      15.764  -3.334   6.983  1.00  0.00    -0.287 OA
HETATM   19  C21 UNL     1      17.423  -3.579   8.596  1.00  0.00     0.046 A 
HETATM   20  C22 UNL     1      18.353  -2.789   9.253  1.00  0.00     0.032 A 
HETATM   21  C23 UNL     1      18.795  -3.124  10.539  1.00  0.00     0.026 A 
HETATM   22  C24 UNL     1      18.338  -4.294  11.163  1.00  0.00    -0.027 A 
HETATM   23  C25 UNL     1      18.866  -4.679  12.515  1.00  0.00     0.051 C 
HETATM   24  C26 UNL     1      17.462  -5.129  10.459  1.00  0.00     0.086 A 
HETATM   25  C27 UNL     1      16.971  -4.757   9.200  1.00  0.00     0.059 A 
HETATM   26  C28 UNL     1      16.095  -5.707   8.495  1.00  0.00     0.163 C 
HETATM   27  O7  UNL     1      16.650  -6.575   7.830  1.00  0.00    -0.292 OA
HETATM   28  C29 UNL     1      14.605  -5.627   8.771  1.00  0.00     0.084 C 
HETATM   29  C30 UNL     1      13.812  -6.787   8.153  1.00  0.00     0.016 C 
HETATM   30  C31 UNL     1      18.906  -1.615   8.565  1.00  0.00     0.210 C 
HETATM   31  O8  UNL     1      19.539  -0.764   9.179  1.00  0.00    -0.285 OA
HETATM   32  H24 UNL     1      20.130  -0.066   7.203  1.00  0.00     0.169 HD
ENDROOT
BRANCH   4  33
HETATM   33  C7  UNL     1      14.816  -5.289   2.300  1.00  0.00     0.174 C 
BRANCH  33  34
HETATM   34  O1  UNL     1      13.411  -5.022   2.318  1.00  0.00    -0.389 OA
HETATM   35  H11 UNL     1      13.049  -5.542   3.056  1.00  0.00     0.210 HD
ENDBRANCH  33  34
BRANCH  33  36
HETATM   36  C8  UNL     1      15.514  -4.385   1.310  1.00  0.00     0.009 C 
HETATM   37  C9  UNL     1      15.301  -3.086   1.014  1.00  0.00    -0.089 C 
HETATM   38  C10 UNL     1      16.086  -2.410  -0.079  1.00  0.00     0.042 C 
HETATM   39  C11 UNL     1      14.314  -2.195   1.715  1.00  0.00     0.042 C 
ENDBRANCH  33  36
ENDBRANCH   4  33
BRANCH   1  40
HETATM   40  C2  UNL     1      12.091  -5.426   6.776  1.00  0.00     0.004 C 
HETATM   41  C1  UNL     1      10.840  -5.777   5.981  1.00  0.00     0.006 C 
ENDBRANCH   1  40
BRANCH  24  42
HETATM   42  O6  UNL     1      17.128  -6.332  11.021  1.00  0.00    -0.359 OA
HETATM   43  H29 UNL     1      17.180  -7.013  10.322  1.00  0.00     0.217 HD
ENDBRANCH  24  42
TORSDOF 5
ENDMDL
MODEL 6
REMARK minimizedAffinity -6.82728052
REMARK CNNscore 0.192313895
REMARK CNNaffinity 4.95318794
REMARK  5 active torsions:
REMARK  status: ('A' for Active; 'I' for Inactive)
REMARK    1  A    between atoms: C2_2  and  C3_3 
REMARK    2  A    between atoms: C6_6  and  C7_7 
REMARK    3  A    between atoms: C7_7  and  O1_8 
REMARK    4  A    between atoms: C7_7  and  C8_9 
REMARK    5  A    between atoms: C26_32  and  O6_33 
ROOT
HETATM    1  C3  UNL     1     -15.943   7.585  18.251  1.00  0.00     0.008 C 
HETATM    2  C4  UNL     1     -14.502   8.059  18.163  1.00  0.00    -0.023 C 
HETATM    3  C5  UNL     1     -14.063   9.329  18.108  1.00  0.00     0.005 C 
HETATM    4  C6  UNL     1     -12.611   9.735  17.997  1.00  0.00     0.187 C 
HETATM    5  O2  UNL     1     -12.373  10.669  19.081  1.00  0.00    -0.308 OA
HETATM    6  C12 UNL     1     -11.817  10.166  20.216  1.00  0.00     0.276 C 
HETATM    7  O3  UNL     1     -11.286   9.065  20.310  1.00  0.00    -0.264 OA
HETATM    8  C13 UNL     1     -11.886  11.184  21.395  1.00  0.00     0.095 C 
HETATM    9  C14 UNL     1     -12.818  12.379  21.112  1.00  0.00     0.036 C 
HETATM   10  C15 UNL     1     -10.473  11.725  21.470  1.00  0.00     0.003 C 
HETATM   11  C16 UNL     1      -9.751  12.126  22.522  1.00  0.00     0.072 C 
HETATM   12  C17 UNL     1     -10.118  12.170  23.943  1.00  0.00     0.245 C 
HETATM   13  O4  UNL     1      -9.450  12.875  24.698  1.00  0.00    -0.268 OA
HETATM   14  N1  UNL     1     -11.106  11.396  24.443  1.00  0.00    -0.320 N 
HETATM   15  C18 UNL     1     -12.023  10.531  23.904  1.00  0.00     0.098 C 
HETATM   16  C19 UNL     1     -12.384  10.412  22.616  1.00  0.00     0.045 C 
HETATM   17  C20 UNL     1     -13.508   9.462  22.318  1.00  0.00     0.194 C 
HETATM   18  O5  UNL     1     -14.272   9.655  21.382  1.00  0.00    -0.287 OA
HETATM   19  C21 UNL     1     -13.724   8.317  23.205  1.00  0.00     0.046 A 
HETATM   20  C22 UNL     1     -13.390   8.474  24.541  1.00  0.00     0.032 A 
HETATM   21  C23 UNL     1     -13.674   7.467  25.472  1.00  0.00     0.026 A 
HETATM   22  C24 UNL     1     -14.256   6.261  25.056  1.00  0.00    -0.027 A 
HETATM   23  C25 UNL     1     -14.496   5.162  26.050  1.00  0.00     0.051 C 
HETATM   24  C26 UNL     1     -14.514   6.079  23.692  1.00  0.00     0.086 A 
HETATM   25  C27 UNL     1     -14.291   7.114  22.774  1.00  0.00     0.059 A 
HETATM   26  C28 UNL     1     -14.534   6.834  21.349  1.00  0.00     0.163 C 
HETATM   27  O7  UNL     1     -13.614   6.317  20.726  1.00  0.00    -0.292 OA
HETATM   28  C29 UNL     1     -15.937   7.066  20.818  1.00  0.00     0.084 C 
HETATM   29  C30 UNL     1     -16.134   6.549  19.386  1.00  0.00     0.016 C 
HETATM   30  C31 UNL     1     -12.694   9.696  24.965  1.00  0.00     0.210 C 
HETATM   31  O8  UNL     1     -12.592   9.986  26.151  1.00  0.00    -0.285 OA
HETATM   32  H24 UNL     1     -11.118  11.433  25.466  1.00  0.00     0.169 HD
ENDROOT
BRANCH   4  33
HETATM   33  C7  UNL     1     -12.324  10.505  16.677  1.00  0.00     0.174 C 
BRANCH  33  34
HETATM   34  O1  UNL     1     -12.763  11.862  16.780  1.00  0.00    -0.389 OA
HETATM   35  H11 UNL     1     -13.648  11.828  17.181  1.00  0.00     0.210 HD
ENDBRANCH  33  34
BRANCH  33  36
HETATM   36  C8  UNL     1     -10.879  10.448  16.240  1.00  0.00     0.009 C 
HETATM   37  C9  UNL     1     -10.180   9.449  15.662  1.00  0.00    -0.089 C 
HETATM   38  C10 UNL     1      -8.708   9.605  15.382  1.00  0.00     0.042 C 
HETATM   39  C11 UNL     1     -10.760   8.130  15.234  1.00  0.00     0.042 C 
ENDBRANCH  33  36
ENDBRANCH   4  33
BRANCH   1  40
HETATM   40  C2  UNL     1     -16.990   8.726  18.274  1.00  0.00     0.004 C 
HETATM   41  C1  UNL     1     -17.003   9.540  19.561  1.00  0.00     0.006 C 
ENDBRANCH   1  40
BRANCH  24  42
HETATM   42  O6  UNL     1     -14.957   4.851  23.279  1.00  0.00    -0.359 OA
HETATM   43  H29 UNL     1     -14.459   4.609  22.473  1.00  0.00     0.217 HD
ENDBRANCH  24  42
TORSDOF 5
ENDMDL
MODEL 7
REMARK minimizedAffinity -6.9560051
REMARK CNNscore 0.161800653
REMARK CNNaffinity 4.90538216
REMARK  5 active torsions:
REMARK  status: ('A' for Active; 'I' for Inactive)
REMARK    1  A    between atoms: C2_2  and  C3_3 
REMARK    2  A    between atoms: C6_6  and  C7_7 
REMARK    3  A    between atoms: C7_7  and  O1_8 
REMARK    4  A    between atoms: C7_7  and  C8_9 
REMARK    5  A    between atoms: C26_32  and  O6_33 
ROOT
HETATM    1  C3  UNL     1     -17.885  -0.496  11.701  1.00  0.00     0.008 C 
HETATM    2  C4  UNL     1     -17.259  -1.779  11.179  1.00  0.00    -0.023 C 
HETATM    3  C5  UNL     1     -15.950  -2.066  11.080  1.00  0.00     0.005 C 
HETATM    4  C6  UNL     1     -15.390  -3.357  10.529  1.00  0.00     0.187 C 
HETATM    5  O2  UNL     1     -14.485  -3.867  11.542  1.00  0.00    -0.308 OA
HETATM    6  C12 UNL     1     -14.978  -4.811  12.388  1.00  0.00     0.276 C 
HETATM    7  O3  UNL     1     -16.021  -5.433  12.216  1.00  0.00    -0.264 OA
HETATM    8  C13 UNL     1     -14.027  -5.057  13.599  1.00  0.00     0.095 C 
HETATM    9  C14 UNL     1     -12.924  -3.988  13.732  1.00  0.00     0.036 C 
HETATM   10  C15 UNL     1     -13.344  -6.363  13.245  1.00  0.00     0.003 C 
HETATM   11  C16 UNL     1     -12.918  -7.360  14.027  1.00  0.00     0.072 C 
HETATM   12  C17 UNL     1     -12.977  -7.489  15.490  1.00  0.00     0.245 C 
HETATM   13  O4  UNL     1     -12.240  -8.310  16.034  1.00  0.00    -0.268 OA
HETATM   14  N1  UNL     1     -13.872  -6.795  16.226  1.00  0.00    -0.320 N 
HETATM   15  C18 UNL     1     -14.803  -5.826  15.955  1.00  0.00     0.098 C 
HETATM   16  C19 UNL     1     -14.900  -5.064  14.852  1.00  0.00     0.045 C 
HETATM   17  C20 UNL     1     -15.949  -3.989  14.869  1.00  0.00     0.194 C 
HETATM   18  O5  UNL     1     -15.795  -2.942  14.255  1.00  0.00    -0.287 OA
HETATM   19  C21 UNL     1     -17.149  -4.180  15.686  1.00  0.00     0.046 A 
HETATM   20  C22 UNL     1     -17.017  -4.929  16.845  1.00  0.00     0.032 A 
HETATM   21  C23 UNL     1     -18.090  -5.059  17.737  1.00  0.00     0.026 A 
HETATM   22  C24 UNL     1     -19.330  -4.474  17.445  1.00  0.00    -0.027 A 
HETATM   23  C25 UNL     1     -20.492  -4.674  18.374  1.00  0.00     0.051 C 
HETATM   24  C26 UNL     1     -19.477  -3.790  16.232  1.00  0.00     0.086 A 
HETATM   25  C27 UNL     1     -18.384  -3.604  15.374  1.00  0.00     0.059 A 
HETATM   26  C28 UNL     1     -18.623  -2.920  14.093  1.00  0.00     0.163 C 
HETATM   27  O7  UNL     1     -19.012  -3.618  13.163  1.00  0.00    -0.292 OA
HETATM   28  C29 UNL     1     -18.516  -1.406  14.073  1.00  0.00     0.084 C 
HETATM   29  C30 UNL     1     -18.986  -0.784  12.751  1.00  0.00     0.016 C 
HETATM   30  C31 UNL     1     -15.750  -5.622  17.109  1.00  0.00     0.210 C 
HETATM   31  O8  UNL     1     -15.505  -6.091  18.214  1.00  0.00    -0.285 OA
HETATM   32  H24 UNL     1     -13.882  -7.124  17.195  1.00  0.00     0.169 HD
ENDROOT
BRANCH   4  33
HETATM   33  C7  UNL     1     -14.535  -3.119   9.251  1.00  0.00     0.174 C 
BRANCH  33  34
HETATM   34  O1  UNL     1     -13.498  -2.168   9.509  1.00  0.00    -0.389 OA
HETATM   35  H11 UNL     1     -13.917  -1.440   9.999  1.00  0.00     0.210 HD
ENDBRANCH  33  34
BRANCH  33  36
HETATM   36  C8  UNL     1     -13.958  -4.383   8.659  1.00  0.00     0.009 C 
HETATM   37  C9  UNL     1     -14.178  -4.966   7.462  1.00  0.00    -0.089 C 
HETATM   38  C10 UNL     1     -13.534  -6.284   7.121  1.00  0.00     0.042 C 
HETATM   39  C11 UNL     1     -15.038  -4.391   6.371  1.00  0.00     0.042 C 
ENDBRANCH  33  36
ENDBRANCH   4  33
BRANCH   1  40
HETATM   40  C2  UNL     1     -16.862   0.574  12.155  1.00  0.00     0.004 C 
HETATM   41  C1  UNL     1     -15.720   0.030  13.004  1.00  0.00     0.006 C 
ENDBRANCH   1  40
BRANCH  24  42
HETATM   42  O6  UNL     1     -20.725  -3.338  15.895  1.00  0.00    -0.359 OA
HETATM   43  H29 UNL     1     -20.876  -3.554  14.953  1.00  0.00     0.217 HD
ENDBRANCH  24  42
TORSDOF 5
ENDMDL
MODEL 8
REMARK minimizedAffinity -7.58785439
REMARK CNNscore 0.147778004
REMARK CNNaffinity 4.74430513
REMARK  5 active torsions:
REMARK  status: ('A' for Active; 'I' for Inactive)
REMARK    1  A    between atoms: C2_2  and  C3_3 
REMARK    2  A    between atoms: C6_6  and  C7_7 
REMARK    3  A    between atoms: C7_7  and  O1_8 
REMARK    4  A    between atoms: C7_7  and  C8_9 
REMARK    5  A    between atoms: C26_32  and  O6_33 
ROOT
HETATM    1  C3  UNL     1       3.236  11.310  21.283  1.00  0.00     0.008 C 
HETATM    2  C4  UNL     1       4.089  12.150  20.347  1.00  0.00    -0.023 C 
HETATM    3  C5  UNL     1       5.249  11.800  19.765  1.00  0.00     0.005 C 
HETATM    4  C6  UNL     1       6.064  12.694  18.859  1.00  0.00     0.187 C 
HETATM    5  O2  UNL     1       6.286  11.935  17.643  1.00  0.00    -0.308 OA
HETATM    6  C12 UNL     1       5.446  12.180  16.602  1.00  0.00     0.276 C 
HETATM    7  O3  UNL     1       4.687  13.140  16.522  1.00  0.00    -0.264 OA
HETATM    8  C13 UNL     1       5.590  11.111  15.477  1.00  0.00     0.095 C 
HETATM    9  C14 UNL     1       6.404   9.876  15.913  1.00  0.00     0.036 C 
HETATM   10  C15 UNL     1       6.400  11.830  14.416  1.00  0.00     0.003 C 
HETATM   11  C16 UNL     1       6.364  11.734  13.084  1.00  0.00     0.072 C 
HETATM   12  C17 UNL     1       5.523  10.884  12.231  1.00  0.00     0.245 C 
HETATM   13  O4  UNL     1       5.871  10.697  11.066  1.00  0.00    -0.268 OA
HETATM   14  N1  UNL     1       4.348  10.383  12.671  1.00  0.00    -0.320 N 
HETATM   15  C18 UNL     1       3.682  10.390  13.869  1.00  0.00     0.098 C 
HETATM   16  C19 UNL     1       4.176  10.690  15.083  1.00  0.00     0.045 C 
HETATM   17  C20 UNL     1       3.251  10.496  16.251  1.00  0.00     0.194 C 
HETATM   18  O5  UNL     1       3.679  10.190  17.355  1.00  0.00    -0.287 OA
HETATM   19  C21 UNL     1       1.807  10.618  16.041  1.00  0.00     0.046 A 
HETATM   20  C22 UNL     1       1.311  10.258  14.797  1.00  0.00     0.032 A 
HETATM   21  C23 UNL     1      -0.069  10.239  14.557  1.00  0.00     0.026 A 
HETATM   22  C24 UNL     1      -0.968  10.631  15.558  1.00  0.00    -0.027 A 
HETATM   23  C25 UNL     1      -2.442  10.669  15.271  1.00  0.00     0.051 C 
HETATM   24  C26 UNL     1      -0.454  11.072  16.783  1.00  0.00     0.086 A 
HETATM   25  C27 UNL     1       0.923  11.027  17.043  1.00  0.00     0.059 A 
HETATM   26  C28 UNL     1       1.397  11.556  18.332  1.00  0.00     0.163 C 
HETATM   27  O7  UNL     1       1.602  12.763  18.389  1.00  0.00    -0.292 OA
HETATM   28  C29 UNL     1       1.445  10.598  19.509  1.00  0.00     0.084 C 
HETATM   29  C30 UNL     1       1.751  11.295  20.843  1.00  0.00     0.016 C 
HETATM   30  C31 UNL     1       2.253   9.938  13.717  1.00  0.00     0.210 C 
HETATM   31  O8  UNL     1       1.872   9.391  12.688  1.00  0.00    -0.285 OA
HETATM   32  H24 UNL     1       3.823   9.955  11.904  1.00  0.00     0.169 HD
ENDROOT
BRANCH   4  33
HETATM   33  C7  UNL     1       7.468  12.999  19.455  1.00  0.00     0.174 C 
BRANCH  33  34
HETATM   34  O1  UNL     1       7.821  14.368  19.236  1.00  0.00    -0.389 OA
HETATM   35  H11 UNL     1       7.596  14.559  18.310  1.00  0.00     0.210 HD
ENDBRANCH  33  34
BRANCH  33  36
HETATM   36  C8  UNL     1       7.599  12.645  20.917  1.00  0.00     0.009 C 
HETATM   37  C9  UNL     1       8.697  12.381  21.657  1.00  0.00    -0.089 C 
HETATM   38  C10 UNL     1       8.569  11.974  23.101  1.00  0.00     0.042 C 
HETATM   39  C11 UNL     1      10.112  12.471  21.157  1.00  0.00     0.042 C 
ENDBRANCH  33  36
ENDBRANCH   4  33
BRANCH   1  40
HETATM   40  C2  UNL     1       3.808   9.901  21.575  1.00  0.00     0.004 C 
HETATM   41  C1  UNL     1       3.353   9.302  22.900  1.00  0.00     0.006 C 
ENDBRANCH   1  40
BRANCH  24  42
HETATM   42  O6  UNL     1      -1.331  11.580  17.705  1.00  0.00    -0.359 OA
HETATM   43  H29 UNL     1      -0.937  12.394  18.075  1.00  0.00     0.217 HD
ENDBRANCH  24  42
TORSDOF 5
ENDMDL
MODEL 9
REMARK minimizedAffinity -8.1520319
REMARK CNNscore 0.136080429
REMARK CNNaffinity 5.89862776
REMARK  5 active torsions:
REMARK  status: ('A' for Active; 'I' for Inactive)
REMARK    1  A    between atoms: C2_2  and  C3_3 
REMARK    2  A    between atoms: C6_6  and  C7_7 
REMARK    3  A    between atoms: C7_7  and  O1_8 
REMARK    4  A    between atoms: C7_7  and  C8_9 
REMARK    5  A    between atoms: C26_32  and  O6_33 
ROOT
HETATM    1  C3  UNL     1     -10.348 -10.713   9.992  1.00  0.00     0.008 C 
HETATM    2  C4  UNL     1      -9.006 -10.002  10.039  1.00  0.00    -0.023 C 
HETATM    3  C5  UNL     1      -7.785 -10.564  10.062  1.00  0.00     0.005 C 
HETATM    4  C6  UNL     1      -6.484  -9.798  10.133  1.00  0.00     0.187 C 
HETATM    5  O2  UNL     1      -5.676 -10.278   9.027  1.00  0.00    -0.308 OA
HETATM    6  C12 UNL     1      -5.686  -9.534   7.889  1.00  0.00     0.276 C 
HETATM    7  O3  UNL     1      -6.115  -8.388   7.802  1.00  0.00    -0.264 OA
HETATM    8  C13 UNL     1      -5.034 -10.294   6.694  1.00  0.00     0.095 C 
HETATM    9  C14 UNL     1      -4.809 -11.793   6.978  1.00  0.00     0.036 C 
HETATM   10  C15 UNL     1      -3.667  -9.651   6.578  1.00  0.00     0.003 C 
HETATM   11  C16 UNL     1      -2.908  -9.412   5.503  1.00  0.00     0.072 C 
HETATM   12  C17 UNL     1      -3.171  -9.714   4.090  1.00  0.00     0.245 C 
HETATM   13  O4  UNL     1      -2.221  -9.724   3.308  1.00  0.00    -0.268 OA
HETATM   14  N1  UNL     1      -4.427  -9.892   3.626  1.00  0.00    -0.320 N 
HETATM   15  C18 UNL     1      -5.671  -9.952   4.201  1.00  0.00     0.098 C 
HETATM   16  C19 UNL     1      -5.969 -10.124   5.499  1.00  0.00     0.045 C 
HETATM   17  C20 UNL     1      -7.425 -10.275   5.839  1.00  0.00     0.194 C 
HETATM   18  O5  UNL     1      -7.787 -10.956   6.789  1.00  0.00    -0.287 OA
HETATM   19  C21 UNL     1      -8.425  -9.642   4.977  1.00  0.00     0.046 A 
HETATM   20  C22 UNL     1      -8.118  -9.516   3.631  1.00  0.00     0.032 A 
HETATM   21  C23 UNL     1      -9.067  -9.027   2.725  1.00  0.00     0.026 A 
HETATM   22  C24 UNL     1     -10.327  -8.610   3.174  1.00  0.00    -0.027 A 
HETATM   23  C25 UNL     1     -11.315  -8.026   2.205  1.00  0.00     0.051 C 
HETATM   24  C26 UNL     1     -10.599  -8.663   4.547  1.00  0.00     0.086 A 
HETATM   25  C27 UNL     1      -9.672  -9.216   5.442  1.00  0.00     0.059 A 
HETATM   26  C28 UNL     1     -10.002  -9.191   6.876  1.00  0.00     0.163 C 
HETATM   27  O7  UNL     1      -9.720  -8.166   7.487  1.00  0.00    -0.292 OA
HETATM   28  C29 UNL     1     -10.791 -10.361   7.436  1.00  0.00     0.084 C 
HETATM   29  C30 UNL     1     -11.260 -10.138   8.880  1.00  0.00     0.016 C 
HETATM   30  C31 UNL     1      -6.766  -9.863   3.171  1.00  0.00     0.210 C 
HETATM   31  O8  UNL     1      -6.521  -9.995   1.977  1.00  0.00    -0.285 OA
HETATM   32  H24 UNL     1      -4.437  -9.931   2.604  1.00  0.00     0.169 HD
ENDROOT
BRANCH   4  33
HETATM   33  C7  UNL     1      -5.693 -10.118  11.433  1.00  0.00     0.174 C 
BRANCH  33  34
HETATM   34  O1  UNL     1      -5.908  -9.102  12.417  1.00  0.00    -0.389 OA
HETATM   35  H11 UNL     1      -5.822  -8.254  11.950  1.00  0.00     0.210 HD
ENDBRANCH  33  34
BRANCH  33  36
HETATM   36  C8  UNL     1      -5.990 -11.483  12.007  1.00  0.00     0.009 C 
HETATM   37  C9  UNL     1      -6.921 -11.869  12.905  1.00  0.00    -0.089 C 
HETATM   38  C10 UNL     1      -6.977 -13.294  13.387  1.00  0.00     0.042 C 
HETATM   39  C11 UNL     1      -7.973 -10.971  13.492  1.00  0.00     0.042 C 
ENDBRANCH  33  36
ENDBRANCH   4  33
BRANCH   1  40
HETATM   40  C2  UNL     1     -10.251 -12.259   9.974  1.00  0.00     0.004 C 
HETATM   41  C1  UNL     1     -10.394 -12.912  11.343  1.00  0.00     0.006 C 
ENDBRANCH   1  40
BRANCH  24  42
HETATM   42  O6  UNL     1     -11.779  -8.130   4.991  1.00  0.00    -0.359 OA
HETATM   43  H29 UNL     1     -11.586  -7.601   5.790  1.00  0.00     0.217 HD
ENDBRANCH  24  42
TORSDOF 5
ENDMDL
