MODEL 1
REMARK minimizedAffinity -6.93625736
REMARK CNNscore 0.621698022
REMARK CNNaffinity 6.68408442
REMARK  10 active torsions:
REMARK  status: ('A' for Active; 'I' for Inactive)
REMARK    1  A    between atoms: C2_2  and  C3_3 
REMARK    2  A    between atoms: C2_2  and  C9_11 
REMARK    3  A    between atoms: C3_3  and  C4_4 
REMARK    4  A    between atoms: C4_4  and  C5_5 
REMARK    5  A    between atoms: C5_5  and  O1_6 
REMARK    6  A    between atoms: C5_5  and  C6_7 
REMARK    7  A    between atoms: C6_7  and  O2_10 
REMARK    8  A    between atoms: C10_12  and  O3_13 
REMARK    9  A    between atoms: C12_15  and  C13_16 
REMARK   10  A    between atoms: C13_16  and  O5_18 
ROOT
HETATM    1  C9  UNL     1       0.271  49.552 -13.783  1.00  0.00     0.028 C 
HETATM    2  C10 UNL     1       0.691  48.623 -12.616  1.00  0.00     0.124 C 
HETATM    3  C11 UNL     1       1.539  49.461 -11.664  1.00  0.00     0.053 C 
HETATM    4  C12 UNL     1       2.272  50.464 -12.582  1.00  0.00     0.060 C 
HETATM    5  C14 UNL     1       2.923  51.659 -11.789  1.00  0.00     0.014 C 
HETATM    6  C15 UNL     1       3.894  51.143 -10.701  1.00  0.00     0.007 C 
HETATM    7  C16 UNL     1       4.459  52.193  -9.741  1.00  0.00     0.007 C 
HETATM    8  C17 UNL     1       3.997  53.636  -9.992  1.00  0.00     0.010 C 
HETATM    9  C18 UNL     1       4.444  54.633  -8.870  1.00  0.00     0.018 C 
HETATM   10  C19 UNL     1       5.977  54.631  -8.720  1.00  0.00     0.023 C 
HETATM   11  C20 UNL     1       3.807  54.331  -7.502  1.00  0.00     0.023 C 
HETATM   12  C21 UNL     1       4.026  56.055  -9.267  1.00  0.00     0.135 C 
HETATM   13  O6  UNL     1       4.462  57.053  -8.684  1.00  0.00    -0.297 OA
HETATM   14  C22 UNL     1       3.071  56.208 -10.424  1.00  0.00     0.080 C 
HETATM   15  C23 UNL     1       1.964  55.175 -10.317  1.00  0.00     0.018 C 
HETATM   16  C24 UNL     1       2.491  53.741 -10.290  1.00  0.00    -0.026 A 
HETATM   17  C25 UNL     1       1.521  52.687  -9.779  1.00  0.00     0.021 A 
HETATM   18  C26 UNL     1       1.911  52.670 -11.239  1.00  0.00    -0.027 A 
HETATM   19  C27 UNL     1       0.863  53.085 -12.249  1.00  0.00     0.011 C 
HETATM   20  C28 UNL     1       0.156  51.878 -12.845  1.00  0.00     0.012 C 
HETATM   21  C29 UNL     1       1.116  50.874 -13.574  1.00  0.00    -0.020 C 
HETATM   22  C30 UNL     1       1.607  51.590 -14.843  1.00  0.00     0.017 C 
ENDROOT
BRANCH   1  23
HETATM   23  C2  UNL     1       0.209  48.749 -15.120  1.00  0.00    -0.011 C 
HETATM   24  C1  UNL     1       1.090  47.502 -15.228  1.00  0.00     0.010 C 
BRANCH  23  25
HETATM   25  C3  UNL     1       0.382  49.644 -16.373  1.00  0.00     0.007 C 
BRANCH  25  26
HETATM   26  C4  UNL     1      -0.907  49.812 -17.207  1.00  0.00     0.035 C 
BRANCH  26  27
HETATM   27  C5  UNL     1      -0.626  50.101 -18.698  1.00  0.00     0.151 C 
BRANCH  27  28
HETATM   28  O1  UNL     1      -1.186  49.074 -19.518  1.00  0.00    -0.393 OA
HETATM   29  H10 UNL     1      -2.123  48.972 -19.274  1.00  0.00     0.210 HD
ENDBRANCH  27  28
BRANCH  27  30
HETATM   30  C6  UNL     1      -1.106  51.507 -19.171  1.00  0.00     0.076 C 
HETATM   31  C7  UNL     1      -0.061  52.571 -18.806  1.00  0.00     0.048 C 
HETATM   32  C8  UNL     1      -1.375  51.566 -20.679  1.00  0.00     0.048 C 
BRANCH  30  33
HETATM   33  O2  UNL     1      -2.323  51.838 -18.492  1.00  0.00    -0.388 OA
HETATM   34  H17 UNL     1      -2.572  52.744 -18.743  1.00  0.00     0.210 HD
ENDBRANCH  30  33
ENDBRANCH  27  30
ENDBRANCH  26  27
ENDBRANCH  25  26
ENDBRANCH  23  25
ENDBRANCH   1  23
BRANCH   2  35
HETATM   35  O3  UNL     1      -0.464  48.132 -11.952  1.00  0.00    -0.395 OA
HETATM   36  H20 UNL     1      -0.157  47.571 -11.219  1.00  0.00     0.210 HD
ENDBRANCH   2  35
BRANCH   4  37
HETATM   37  C13 UNL     1       3.445  49.800 -13.327  1.00  0.00     0.150 C 
HETATM   38  O4  UNL     1       3.739  48.614 -13.294  1.00  0.00    -0.649 OA
BRANCH  37  39
HETATM   39  O5  UNL     1       4.130  50.613 -14.150  1.00  0.00    -0.776 OA
HETATM   40  H23 UNL     1       4.784  50.016 -14.577  1.00  0.00     0.167 HD
ENDBRANCH  37  39
ENDBRANCH   4  37
TORSDOF 10
ENDMDL
MODEL 2
REMARK minimizedAffinity -6.95338202
REMARK CNNscore 0.612438738
REMARK CNNaffinity 5.66884851
REMARK  10 active torsions:
REMARK  status: ('A' for Active; 'I' for Inactive)
REMARK    1  A    between atoms: C2_2  and  C3_3 
REMARK    2  A    between atoms: C2_2  and  C9_11 
REMARK    3  A    between atoms: C3_3  and  C4_4 
REMARK    4  A    between atoms: C4_4  and  C5_5 
REMARK    5  A    between atoms: C5_5  and  O1_6 
REMARK    6  A    between atoms: C5_5  and  C6_7 
REMARK    7  A    between atoms: C6_7  and  O2_10 
REMARK    8  A    between atoms: C10_12  and  O3_13 
REMARK    9  A    between atoms: C12_15  and  C13_16 
REMARK   10  A    between atoms: C13_16  and  O5_18 
ROOT
HETATM    1  C9  UNL     1       1.982  54.859  -8.644  1.00  0.00     0.028 C 
HETATM    2  C10 UNL     1       2.371  53.543  -7.926  1.00  0.00     0.124 C 
HETATM    3  C11 UNL     1       3.685  53.807  -7.195  1.00  0.00     0.053 C 
HETATM    4  C12 UNL     1       4.425  54.826  -8.089  1.00  0.00     0.060 C 
HETATM    5  C14 UNL     1       5.638  55.516  -7.359  1.00  0.00     0.014 C 
HETATM    6  C15 UNL     1       6.640  54.464  -6.827  1.00  0.00     0.007 C 
HETATM    7  C16 UNL     1       7.774  54.992  -5.943  1.00  0.00     0.007 C 
HETATM    8  C17 UNL     1       7.778  56.509  -5.708  1.00  0.00     0.010 C 
HETATM    9  C18 UNL     1       8.832  56.968  -4.645  1.00  0.00     0.018 C 
HETATM   10  C19 UNL     1      10.251  56.536  -5.065  1.00  0.00     0.023 C 
HETATM   11  C20 UNL     1       8.543  56.430  -3.232  1.00  0.00     0.023 C 
HETATM   12  C21 UNL     1       8.828  58.500  -4.562  1.00  0.00     0.135 C 
HETATM   13  O6  UNL     1       9.722  59.127  -3.985  1.00  0.00    -0.297 OA
HETATM   14  C22 UNL     1       7.698  59.235  -5.237  1.00  0.00     0.080 C 
HETATM   15  C23 UNL     1       6.383  58.532  -4.951  1.00  0.00     0.018 C 
HETATM   16  C24 UNL     1       6.378  57.074  -5.412  1.00  0.00    -0.026 A 
HETATM   17  C25 UNL     1       5.293  56.194  -4.812  1.00  0.00     0.021 A 
HETATM   18  C26 UNL     1       5.227  56.529  -6.285  1.00  0.00    -0.027 A 
HETATM   19  C27 UNL     1       4.143  57.482  -6.738  1.00  0.00     0.011 C 
HETATM   20  C28 UNL     1       2.932  56.735  -7.271  1.00  0.00     0.012 C 
HETATM   21  C29 UNL     1       3.248  55.797  -8.489  1.00  0.00    -0.020 C 
HETATM   22  C30 UNL     1       3.574  56.721  -9.673  1.00  0.00     0.017 C 
ENDROOT
BRANCH   1  23
HETATM   23  C2  UNL     1       1.278  54.549 -10.002  1.00  0.00    -0.011 C 
HETATM   24  C1  UNL     1      -0.125  55.124 -10.210  1.00  0.00     0.010 C 
BRANCH  23  25
HETATM   25  C3  UNL     1       1.306  53.043 -10.369  1.00  0.00     0.007 C 
BRANCH  25  26
HETATM   26  C4  UNL     1       1.881  52.750 -11.772  1.00  0.00     0.035 C 
BRANCH  26  27
HETATM   27  C5  UNL     1       0.853  52.096 -12.721  1.00  0.00     0.151 C 
BRANCH  27  28
HETATM   28  O1  UNL     1      -0.313  52.914 -12.830  1.00  0.00    -0.393 OA
HETATM   29  H10 UNL     1      -0.028  53.814 -13.068  1.00  0.00     0.210 HD
ENDBRANCH  27  28
BRANCH  27  30
HETATM   30  C6  UNL     1       1.422  51.755 -14.131  1.00  0.00     0.076 C 
HETATM   31  C7  UNL     1       2.953  51.669 -14.076  1.00  0.00     0.048 C 
HETATM   32  C8  UNL     1       0.866  50.441 -14.693  1.00  0.00     0.048 C 
BRANCH  30  33
HETATM   33  O2  UNL     1       1.073  52.805 -15.041  1.00  0.00    -0.388 OA
HETATM   34  H17 UNL     1       1.494  52.614 -15.898  1.00  0.00     0.210 HD
ENDBRANCH  30  33
ENDBRANCH  27  30
ENDBRANCH  26  27
ENDBRANCH  25  26
ENDBRANCH  23  25
ENDBRANCH   1  23
BRANCH   2  35
HETATM   35  O3  UNL     1       1.355  53.178  -7.004  1.00  0.00    -0.395 OA
HETATM   36  H20 UNL     1       1.646  52.360  -6.565  1.00  0.00     0.210 HD
ENDBRANCH   2  35
BRANCH   4  37
HETATM   37  C13 UNL     1       5.043  54.151  -9.328  1.00  0.00     0.150 C 
HETATM   38  O4  UNL     1       4.742  53.054  -9.776  1.00  0.00    -0.649 OA
BRANCH  37  39
HETATM   39  O5  UNL     1       5.927  54.905 -10.007  1.00  0.00    -0.776 OA
HETATM   40  H23 UNL     1       6.162  54.348 -10.781  1.00  0.00     0.167 HD
ENDBRANCH  37  39
ENDBRANCH   4  37
TORSDOF 10
ENDMDL
MODEL 3
REMARK minimizedAffinity -7.12387991
REMARK CNNscore 0.590935767
REMARK CNNaffinity 6.07074976
REMARK  10 active torsions:
REMARK  status: ('A' for Active; 'I' for Inactive)
REMARK    1  A    between atoms: C2_2  and  C3_3 
REMARK    2  A    between atoms: C2_2  and  C9_11 
REMARK    3  A    between atoms: C3_3  and  C4_4 
REMARK    4  A    between atoms: C4_4  and  C5_5 
REMARK    5  A    between atoms: C5_5  and  O1_6 
REMARK    6  A    between atoms: C5_5  and  C6_7 
REMARK    7  A    between atoms: C6_7  and  O2_10 
REMARK    8  A    between atoms: C10_12  and  O3_13 
REMARK    9  A    between atoms: C12_15  and  C13_16 
REMARK   10  A    between atoms: C13_16  and  O5_18 
ROOT
HETATM    1  C9  UNL     1      -9.178  46.018 -29.701  1.00  0.00     0.028 C 
HETATM    2  C10 UNL     1      -8.291  45.280 -28.667  1.00  0.00     0.124 C 
HETATM    3  C11 UNL     1      -9.009  45.365 -27.324  1.00  0.00     0.053 C 
HETATM    4  C12 UNL     1      -9.742  46.724 -27.363  1.00  0.00     0.060 C 
HETATM    5  C14 UNL     1     -10.835  46.864 -26.239  1.00  0.00     0.014 C 
HETATM    6  C15 UNL     1     -10.223  46.643 -24.835  1.00  0.00     0.007 C 
HETATM    7  C16 UNL     1     -11.209  46.577 -23.666  1.00  0.00     0.007 C 
HETATM    8  C17 UNL     1     -12.689  46.753 -24.038  1.00  0.00     0.010 C 
HETATM    9  C18 UNL     1     -13.664  46.481 -22.843  1.00  0.00     0.018 C 
HETATM   10  C19 UNL     1     -13.345  47.413 -21.658  1.00  0.00     0.023 C 
HETATM   11  C20 UNL     1     -13.632  45.022 -22.354  1.00  0.00     0.023 C 
HETATM   12  C21 UNL     1     -15.100  46.785 -23.288  1.00  0.00     0.135 C 
HETATM   13  O6  UNL     1     -16.029  46.885 -22.480  1.00  0.00    -0.297 OA
HETATM   14  C22 UNL     1     -15.350  46.987 -24.762  1.00  0.00     0.080 C 
HETATM   15  C23 UNL     1     -14.594  45.939 -25.559  1.00  0.00     0.018 C 
HETATM   16  C24 UNL     1     -13.089  45.967 -25.299  1.00  0.00    -0.026 A 
HETATM   17  C25 UNL     1     -12.321  44.722 -25.717  1.00  0.00     0.021 A 
HETATM   18  C26 UNL     1     -12.086  46.011 -26.473  1.00  0.00    -0.027 A 
HETATM   19  C27 UNL     1     -12.624  46.103 -27.884  1.00  0.00     0.011 C 
HETATM   20  C28 UNL     1     -11.550  45.783 -28.910  1.00  0.00     0.012 C 
HETATM   21  C29 UNL     1     -10.300  46.729 -28.839  1.00  0.00    -0.020 C 
HETATM   22  C30 UNL     1     -10.775  48.109 -29.323  1.00  0.00     0.017 C 
ENDROOT
BRANCH   1  23
HETATM   23  C2  UNL     1      -8.290  46.744 -30.759  1.00  0.00    -0.011 C 
HETATM   24  C1  UNL     1      -7.949  45.970 -32.034  1.00  0.00     0.010 C 
BRANCH  23  25
HETATM   25  C3  UNL     1      -7.011  47.373 -30.149  1.00  0.00     0.007 C 
BRANCH  25  26
HETATM   26  C4  UNL     1      -5.716  47.033 -30.918  1.00  0.00     0.035 C 
BRANCH  26  27
HETATM   27  C5  UNL     1      -5.272  48.159 -31.877  1.00  0.00     0.151 C 
BRANCH  27  28
HETATM   28  O1  UNL     1      -4.530  49.153 -31.168  1.00  0.00    -0.393 OA
HETATM   29  H10 UNL     1      -3.817  48.704 -30.680  1.00  0.00     0.210 HD
ENDBRANCH  27  28
BRANCH  27  30
HETATM   30  C6  UNL     1      -4.474  47.655 -33.118  1.00  0.00     0.076 C 
HETATM   31  C7  UNL     1      -4.325  46.128 -33.065  1.00  0.00     0.048 C 
HETATM   32  C8  UNL     1      -5.130  48.049 -34.446  1.00  0.00     0.048 C 
BRANCH  30  33
HETATM   33  O2  UNL     1      -3.159  48.225 -33.090  1.00  0.00    -0.388 OA
HETATM   34  H17 UNL     1      -2.651  47.848 -33.828  1.00  0.00     0.210 HD
ENDBRANCH  30  33
ENDBRANCH  27  30
ENDBRANCH  26  27
ENDBRANCH  25  26
ENDBRANCH  23  25
ENDBRANCH   1  23
BRANCH   2  35
HETATM   35  O3  UNL     1      -8.123  43.925 -29.057  1.00  0.00    -0.395 OA
HETATM   36  H20 UNL     1      -7.578  43.496 -28.376  1.00  0.00     0.210 HD
ENDBRANCH   2  35
BRANCH   4  37
HETATM   37  C13 UNL     1      -8.776  47.898 -27.123  1.00  0.00     0.150 C 
HETATM   38  O4  UNL     1      -7.567  47.814 -26.959  1.00  0.00    -0.649 OA
BRANCH  37  39
HETATM   39  O5  UNL     1      -9.333  49.120 -27.197  1.00  0.00    -0.776 OA
HETATM   40  H23 UNL     1      -8.572  49.731 -27.083  1.00  0.00     0.167 HD
ENDBRANCH  37  39
ENDBRANCH   4  37
TORSDOF 10
ENDMDL
MODEL 4
REMARK minimizedAffinity -7.92667818
REMARK CNNscore 0.558119476
REMARK CNNaffinity 5.93265772
REMARK  10 active torsions:
REMARK  status: ('A' for Active; 'I' for Inactive)
REMARK    1  A    between atoms: C2_2  and  C3_3 
REMARK    2  A    between atoms: C2_2  and  C9_11 
REMARK    3  A    between atoms: C3_3  and  C4_4 
REMARK    4  A    between atoms: C4_4  and  C5_5 
REMARK    5  A    between atoms: C5_5  and  O1_6 
REMARK    6  A    between atoms: C5_5  and  C6_7 
REMARK    7  A    between atoms: C6_7  and  O2_10 
REMARK    8  A    between atoms: C10_12  and  O3_13 
REMARK    9  A    between atoms: C12_15  and  C13_16 
REMARK   10  A    between atoms: C13_16  and  O5_18 
ROOT
HETATM    1  C9  UNL     1     -12.787  46.468 -27.311  1.00  0.00     0.028 C 
HETATM    2  C10 UNL     1     -11.730  46.743 -26.212  1.00  0.00     0.124 C 
HETATM    3  C11 UNL     1     -10.378  46.846 -26.912  1.00  0.00     0.053 C 
HETATM    4  C12 UNL     1     -10.487  45.872 -28.106  1.00  0.00     0.060 C 
HETATM    5  C14 UNL     1      -9.348  46.080 -29.174  1.00  0.00     0.014 C 
HETATM    6  C15 UNL     1      -7.948  45.957 -28.527  1.00  0.00     0.007 C 
HETATM    7  C16 UNL     1      -6.754  46.312 -29.417  1.00  0.00     0.007 C 
HETATM    8  C17 UNL     1      -7.101  46.736 -30.851  1.00  0.00     0.010 C 
HETATM    9  C18 UNL     1      -5.869  47.276 -31.653  1.00  0.00     0.018 C 
HETATM   10  C19 UNL     1      -4.754  46.214 -31.715  1.00  0.00     0.023 C 
HETATM   11  C20 UNL     1      -5.289  48.577 -31.071  1.00  0.00     0.023 C 
HETATM   12  C21 UNL     1      -6.299  47.570 -33.096  1.00  0.00     0.135 C 
HETATM   13  O6  UNL     1      -5.477  47.774 -33.995  1.00  0.00    -0.297 OA
HETATM   14  C22 UNL     1      -7.776  47.578 -33.400  1.00  0.00     0.080 C 
HETATM   15  C23 UNL     1      -8.522  48.313 -32.301  1.00  0.00     0.018 C 
HETATM   16  C24 UNL     1      -8.300  47.699 -30.920  1.00  0.00    -0.026 A 
HETATM   17  C25 UNL     1      -8.656  48.585 -29.736  1.00  0.00     0.021 A 
HETATM   18  C26 UNL     1      -9.497  47.358 -30.006  1.00  0.00    -0.027 A 
HETATM   19  C27 UNL     1     -10.899  47.573 -30.535  1.00  0.00     0.011 C 
HETATM   20  C28 UNL     1     -11.928  47.531 -29.418  1.00  0.00     0.012 C 
HETATM   21  C29 UNL     1     -11.946  46.179 -28.621  1.00  0.00    -0.020 C 
HETATM   22  C30 UNL     1     -12.506  45.119 -29.583  1.00  0.00     0.017 C 
ENDROOT
BRANCH   1  23
HETATM   23  C2  UNL     1     -13.910  45.533 -26.762  1.00  0.00    -0.011 C 
HETATM   24  C1  UNL     1     -14.714  44.731 -27.787  1.00  0.00     0.010 C 
BRANCH  23  25
HETATM   25  C3  UNL     1     -14.860  46.247 -25.767  1.00  0.00     0.007 C 
BRANCH  25  26
HETATM   26  C4  UNL     1     -16.341  45.833 -25.906  1.00  0.00     0.035 C 
BRANCH  26  27
HETATM   27  C5  UNL     1     -17.067  45.724 -24.547  1.00  0.00     0.151 C 
BRANCH  27  28
HETATM   28  O1  UNL     1     -16.396  46.510 -23.561  1.00  0.00    -0.393 OA
HETATM   29  H10 UNL     1     -16.291  47.411 -23.916  1.00  0.00     0.210 HD
ENDBRANCH  27  28
BRANCH  27  30
HETATM   30  C6  UNL     1     -18.581  46.088 -24.608  1.00  0.00     0.076 C 
HETATM   31  C7  UNL     1     -19.259  45.335 -25.761  1.00  0.00     0.048 C 
HETATM   32  C8  UNL     1     -19.319  45.775 -23.302  1.00  0.00     0.048 C 
BRANCH  30  33
HETATM   33  O2  UNL     1     -18.713  47.492 -24.863  1.00  0.00    -0.388 OA
HETATM   34  H17 UNL     1     -19.660  47.691 -24.969  1.00  0.00     0.210 HD
ENDBRANCH  30  33
ENDBRANCH  27  30
ENDBRANCH  26  27
ENDBRANCH  25  26
ENDBRANCH  23  25
ENDBRANCH   1  23
BRANCH   2  35
HETATM   35  O3  UNL     1     -12.036  47.957 -25.542  1.00  0.00    -0.395 OA
HETATM   36  H20 UNL     1     -11.342  48.100 -24.876  1.00  0.00     0.210 HD
ENDBRANCH   2  35
BRANCH   4  37
HETATM   37  C13 UNL     1     -10.344  44.406 -27.659  1.00  0.00     0.150 C 
HETATM   38  O4  UNL     1     -10.341  43.427 -28.391  1.00  0.00    -0.649 OA
BRANCH  37  39
HETATM   39  O5  UNL     1     -10.113  44.230 -26.345  1.00  0.00    -0.776 OA
HETATM   40  H23 UNL     1      -9.990  43.259 -26.257  1.00  0.00     0.167 HD
ENDBRANCH  37  39
ENDBRANCH   4  37
TORSDOF 10
ENDMDL
MODEL 5
REMARK minimizedAffinity -6.98349476
REMARK CNNscore 0.538893163
REMARK CNNaffinity 5.58154821
REMARK  10 active torsions:
REMARK  status: ('A' for Active; 'I' for Inactive)
REMARK    1  A    between atoms: C2_2  and  C3_3 
REMARK    2  A    between atoms: C2_2  and  C9_11 
REMARK    3  A    between atoms: C3_3  and  C4_4 
REMARK    4  A    between atoms: C4_4  and  C5_5 
REMARK    5  A    between atoms: C5_5  and  O1_6 
REMARK    6  A    between atoms: C5_5  and  C6_7 
REMARK    7  A    between atoms: C6_7  and  O2_10 
REMARK    8  A    between atoms: C10_12  and  O3_13 
REMARK    9  A    between atoms: C12_15  and  C13_16 
REMARK   10  A    between atoms: C13_16  and  O5_18 
ROOT
HETATM    1  C9  UNL     1     -10.673  45.650 -28.659  1.00  0.00     0.028 C 
HETATM    2  C10 UNL     1     -10.211  45.371 -27.206  1.00  0.00     0.124 C 
HETATM    3  C11 UNL     1     -11.464  45.368 -26.336  1.00  0.00     0.053 C 
HETATM    4  C12 UNL     1     -12.403  46.394 -27.007  1.00  0.00     0.060 C 
HETATM    5  C14 UNL     1     -13.889  46.295 -26.494  1.00  0.00     0.014 C 
HETATM    6  C15 UNL     1     -13.959  46.453 -24.956  1.00  0.00     0.007 C 
HETATM    7  C16 UNL     1     -15.323  46.200 -24.309  1.00  0.00     0.007 C 
HETATM    8  C17 UNL     1     -16.457  45.833 -25.277  1.00  0.00     0.010 C 
HETATM    9  C18 UNL     1     -17.774  45.394 -24.551  1.00  0.00     0.018 C 
HETATM   10  C19 UNL     1     -18.275  46.509 -23.613  1.00  0.00     0.023 C 
HETATM   11  C20 UNL     1     -17.616  44.094 -23.742  1.00  0.00     0.023 C 
HETATM   12  C21 UNL     1     -18.868  45.152 -25.599  1.00  0.00     0.135 C 
HETATM   13  O6  UNL     1     -20.058  45.033 -25.287  1.00  0.00    -0.297 OA
HETATM   14  C22 UNL     1     -18.451  45.088 -27.046  1.00  0.00     0.080 C 
HETATM   15  C23 UNL     1     -17.183  44.264 -27.180  1.00  0.00     0.018 C 
HETATM   16  C24 UNL     1     -16.025  44.818 -26.350  1.00  0.00    -0.026 A 
HETATM   17  C25 UNL     1     -14.874  43.858 -26.096  1.00  0.00     0.021 A 
HETATM   18  C26 UNL     1     -14.640  45.055 -26.990  1.00  0.00    -0.027 A 
HETATM   19  C27 UNL     1     -14.471  44.800 -28.472  1.00  0.00     0.011 C 
HETATM   20  C28 UNL     1     -13.003  44.736 -28.861  1.00  0.00     0.012 C 
HETATM   21  C29 UNL     1     -12.200  46.044 -28.532  1.00  0.00    -0.020 C 
HETATM   22  C30 UNL     1     -12.720  47.123 -29.496  1.00  0.00     0.017 C 
ENDROOT
BRANCH   1  23
HETATM   23  C2  UNL     1      -9.604  46.500 -29.414  1.00  0.00    -0.011 C 
HETATM   24  C1  UNL     1      -8.782  47.488 -28.582  1.00  0.00     0.010 C 
BRANCH  23  25
HETATM   25  C3  UNL     1     -10.166  47.195 -30.680  1.00  0.00     0.007 C 
BRANCH  25  26
HETATM   26  C4  UNL     1      -9.403  46.849 -31.977  1.00  0.00     0.035 C 
BRANCH  26  27
HETATM   27  C5  UNL     1      -8.401  47.946 -32.398  1.00  0.00     0.151 C 
BRANCH  27  28
HETATM   28  O1  UNL     1      -8.602  49.128 -31.621  1.00  0.00    -0.393 OA
HETATM   29  H10 UNL     1      -8.585  48.875 -30.681  1.00  0.00     0.210 HD
ENDBRANCH  27  28
BRANCH  27  30
HETATM   30  C6  UNL     1      -6.910  47.496 -32.343  1.00  0.00     0.076 C 
HETATM   31  C7  UNL     1      -6.817  46.031 -31.894  1.00  0.00     0.048 C 
HETATM   32  C8  UNL     1      -6.192  47.654 -33.688  1.00  0.00     0.048 C 
BRANCH  30  33
HETATM   33  O2  UNL     1      -6.217  48.295 -31.376  1.00  0.00    -0.388 OA
HETATM   34  H17 UNL     1      -5.308  47.957 -31.301  1.00  0.00     0.210 HD
ENDBRANCH  30  33
ENDBRANCH  27  30
ENDBRANCH  26  27
ENDBRANCH  25  26
ENDBRANCH  23  25
ENDBRANCH   1  23
BRANCH   2  35
HETATM   35  O3  UNL     1      -9.558  44.112 -27.141  1.00  0.00    -0.395 OA
HETATM   36  H20 UNL     1      -9.302  43.969 -26.214  1.00  0.00     0.210 HD
ENDBRANCH   2  35
BRANCH   4  37
HETATM   37  C13 UNL     1     -11.976  47.842 -26.700  1.00  0.00     0.150 C 
HETATM   38  O4  UNL     1     -12.513  48.855 -27.123  1.00  0.00    -0.649 OA
BRANCH  37  39
HETATM   39  O5  UNL     1     -10.975  47.964 -25.811  1.00  0.00    -0.776 OA
HETATM   40  H23 UNL     1     -10.884  48.936 -25.694  1.00  0.00     0.167 HD
ENDBRANCH  37  39
ENDBRANCH   4  37
TORSDOF 10
ENDMDL
MODEL 6
REMARK minimizedAffinity -7.37188911
REMARK CNNscore 0.499020994
REMARK CNNaffinity 6.37204933
REMARK  10 active torsions:
REMARK  status: ('A' for Active; 'I' for Inactive)
REMARK    1  A    between atoms: C2_2  and  C3_3 
REMARK    2  A    between atoms: C2_2  and  C9_11 
REMARK    3  A    between atoms: C3_3  and  C4_4 
REMARK    4  A    between atoms: C4_4  and  C5_5 
REMARK    5  A    between atoms: C5_5  and  O1_6 
REMARK    6  A    between atoms: C5_5  and  C6_7 
REMARK    7  A    between atoms: C6_7  and  O2_10 
REMARK    8  A    between atoms: C10_12  and  O3_13 
REMARK    9  A    between atoms: C12_15  and  C13_16 
REMARK   10  A    between atoms: C13_16  and  O5_18 
ROOT
HETATM    1  C9  UNL     1      -1.513  52.088 -10.867  1.00  0.00     0.028 C 
HETATM    2  C10 UNL     1      -0.990  52.943 -12.049  1.00  0.00     0.124 C 
HETATM    3  C11 UNL     1       0.339  53.547 -11.605  1.00  0.00     0.053 C 
HETATM    4  C12 UNL     1       0.176  53.765 -10.085  1.00  0.00     0.060 C 
HETATM    5  C14 UNL     1       1.543  54.042  -9.355  1.00  0.00     0.014 C 
HETATM    6  C15 UNL     1       2.274  55.254  -9.980  1.00  0.00     0.007 C 
HETATM    7  C16 UNL     1       3.696  55.522  -9.480  1.00  0.00     0.007 C 
HETATM    8  C17 UNL     1       4.213  54.554  -8.405  1.00  0.00     0.010 C 
HETATM    9  C18 UNL     1       5.731  54.750  -8.075  1.00  0.00     0.018 C 
HETATM   10  C19 UNL     1       6.004  56.192  -7.604  1.00  0.00     0.023 C 
HETATM   11  C20 UNL     1       6.657  54.428  -9.261  1.00  0.00     0.023 C 
HETATM   12  C21 UNL     1       6.119  53.813  -6.923  1.00  0.00     0.135 C 
HETATM   13  O6  UNL     1       7.184  53.936  -6.309  1.00  0.00    -0.297 OA
HETATM   14  C22 UNL     1       5.137  52.736  -6.534  1.00  0.00     0.080 C 
HETATM   15  C23 UNL     1       4.568  52.086  -7.782  1.00  0.00     0.018 C 
HETATM   16  C24 UNL     1       3.874  53.084  -8.708  1.00  0.00    -0.026 A 
HETATM   17  C25 UNL     1       3.646  52.616 -10.136  1.00  0.00     0.021 A 
HETATM   18  C26 UNL     1       2.448  52.811  -9.235  1.00  0.00    -0.027 A 
HETATM   19  C27 UNL     1       1.722  51.573  -8.757  1.00  0.00     0.011 C 
HETATM   20  C28 UNL     1       0.508  51.271  -9.621  1.00  0.00     0.012 C 
HETATM   21  C29 UNL     1      -0.549  52.430  -9.660  1.00  0.00    -0.020 C 
HETATM   22  C30 UNL     1      -1.183  52.482  -8.260  1.00  0.00     0.017 C 
ENDROOT
BRANCH   1  23
HETATM   23  C2  UNL     1      -3.071  52.155 -10.796  1.00  0.00    -0.011 C 
HETATM   24  C1  UNL     1      -3.695  53.488 -10.377  1.00  0.00     0.010 C 
BRANCH  23  25
HETATM   25  C3  UNL     1      -3.691  50.988  -9.987  1.00  0.00     0.007 C 
BRANCH  25  26
HETATM   26  C4  UNL     1      -5.178  50.722 -10.308  1.00  0.00     0.035 C 
BRANCH  26  27
HETATM   27  C5  UNL     1      -5.632  49.296  -9.924  1.00  0.00     0.151 C 
BRANCH  27  28
HETATM   28  O1  UNL     1      -5.031  48.898  -8.690  1.00  0.00    -0.393 OA
HETATM   29  H10 UNL     1      -5.210  49.593  -8.032  1.00  0.00     0.210 HD
ENDBRANCH  27  28
BRANCH  27  30
HETATM   30  C6  UNL     1      -7.179  49.119  -9.868  1.00  0.00     0.076 C 
HETATM   31  C7  UNL     1      -7.681  48.455 -11.158  1.00  0.00     0.048 C 
HETATM   32  C8  UNL     1      -7.637  48.286  -8.665  1.00  0.00     0.048 C 
BRANCH  30  33
HETATM   33  O2  UNL     1      -7.794  50.409  -9.770  1.00  0.00    -0.388 OA
HETATM   34  H17 UNL     1      -8.759  50.288  -9.808  1.00  0.00     0.210 HD
ENDBRANCH  30  33
ENDBRANCH  27  30
ENDBRANCH  26  27
ENDBRANCH  25  26
ENDBRANCH  23  25
ENDBRANCH   1  23
BRANCH   2  35
HETATM   35  O3  UNL     1      -0.807  52.122 -13.193  1.00  0.00    -0.395 OA
HETATM   36  H20 UNL     1      -0.462  52.692 -13.902  1.00  0.00     0.210 HD
ENDBRANCH   2  35
BRANCH   4  37
HETATM   37  C13 UNL     1      -0.692  55.000  -9.778  1.00  0.00     0.150 C 
HETATM   38  O4  UNL     1      -1.415  55.587 -10.571  1.00  0.00    -0.649 OA
BRANCH  37  39
HETATM   39  O5  UNL     1      -0.701  55.384  -8.489  1.00  0.00    -0.776 OA
HETATM   40  H23 UNL     1      -1.342  56.128  -8.472  1.00  0.00     0.167 HD
ENDBRANCH  37  39
ENDBRANCH   4  37
TORSDOF 10
ENDMDL
MODEL 7
REMARK minimizedAffinity -7.77715349
REMARK CNNscore 0.483962685
REMARK CNNaffinity 6.6453743
REMARK  10 active torsions:
REMARK  status: ('A' for Active; 'I' for Inactive)
REMARK    1  A    between atoms: C2_2  and  C3_3 
REMARK    2  A    between atoms: C2_2  and  C9_11 
REMARK    3  A    between atoms: C3_3  and  C4_4 
REMARK    4  A    between atoms: C4_4  and  C5_5 
REMARK    5  A    between atoms: C5_5  and  O1_6 
REMARK    6  A    between atoms: C5_5  and  C6_7 
REMARK    7  A    between atoms: C6_7  and  O2_10 
REMARK    8  A    between atoms: C10_12  and  O3_13 
REMARK    9  A    between atoms: C12_15  and  C13_16 
REMARK   10  A    between atoms: C13_16  and  O5_18 
ROOT
HETATM    1  C9  UNL     1       1.024  50.700 -12.694  1.00  0.00     0.028 C 
HETATM    2  C10 UNL     1       0.671  52.185 -12.958  1.00  0.00     0.124 C 
HETATM    3  C11 UNL     1       0.351  52.307 -14.445  1.00  0.00     0.053 C 
HETATM    4  C12 UNL     1       1.264  51.263 -15.124  1.00  0.00     0.060 C 
HETATM    5  C14 UNL     1       0.848  50.958 -16.612  1.00  0.00     0.014 C 
HETATM    6  C15 UNL     1       0.818  52.253 -17.459  1.00  0.00     0.007 C 
HETATM    7  C16 UNL     1       0.259  52.124 -18.878  1.00  0.00     0.007 C 
HETATM    8  C17 UNL     1      -0.192  50.714 -19.286  1.00  0.00     0.010 C 
HETATM    9  C18 UNL     1      -0.934  50.676 -20.665  1.00  0.00     0.018 C 
HETATM   10  C19 UNL     1      -0.036  51.243 -21.781  1.00  0.00     0.023 C 
HETATM   11  C20 UNL     1      -2.268  51.444 -20.657  1.00  0.00     0.023 C 
HETATM   12  C21 UNL     1      -1.246  49.217 -21.026  1.00  0.00     0.135 C 
HETATM   13  O6  UNL     1      -1.607  48.887 -22.161  1.00  0.00    -0.297 OA
HETATM   14  C22 UNL     1      -1.074  48.176 -19.950  1.00  0.00     0.080 C 
HETATM   15  C23 UNL     1      -1.642  48.691 -18.640  1.00  0.00     0.018 C 
HETATM   16  C24 UNL     1      -0.988  49.995 -18.183  1.00  0.00    -0.026 A 
HETATM   17  C25 UNL     1      -1.753  50.787 -17.133  1.00  0.00     0.021 A 
HETATM   18  C26 UNL     1      -0.442  50.141 -16.746  1.00  0.00    -0.027 A 
HETATM   19  C27 UNL     1      -0.496  48.944 -15.822  1.00  0.00     0.011 C 
HETATM   20  C28 UNL     1      -0.256  49.345 -14.376  1.00  0.00     0.012 C 
HETATM   21  C29 UNL     1       1.127  50.044 -14.131  1.00  0.00    -0.020 C 
HETATM   22  C30 UNL     1       2.199  48.959 -14.322  1.00  0.00     0.017 C 
ENDROOT
BRANCH   1  23
HETATM   23  C2  UNL     1       2.129  50.592 -11.597  1.00  0.00    -0.011 C 
HETATM   24  C1  UNL     1       1.673  50.242 -10.178  1.00  0.00     0.010 C 
BRANCH  23  25
HETATM   25  C3  UNL     1       3.082  51.814 -11.573  1.00  0.00     0.007 C 
BRANCH  25  26
HETATM   26  C4  UNL     1       3.005  52.645 -10.275  1.00  0.00     0.035 C 
BRANCH  26  27
HETATM   27  C5  UNL     1       2.377  54.040 -10.489  1.00  0.00     0.151 C 
BRANCH  27  28
HETATM   28  O1  UNL     1       1.066  54.088  -9.924  1.00  0.00    -0.393 OA
HETATM   29  H10 UNL     1       1.127  53.787  -9.000  1.00  0.00     0.210 HD
ENDBRANCH  27  28
BRANCH  27  30
HETATM   30  C6  UNL     1       3.252  55.216  -9.958  1.00  0.00     0.076 C 
HETATM   31  C7  UNL     1       4.655  54.709  -9.597  1.00  0.00     0.048 C 
HETATM   32  C8  UNL     1       3.377  56.365 -10.965  1.00  0.00     0.048 C 
BRANCH  30  33
HETATM   33  O2  UNL     1       2.654  55.739  -8.765  1.00  0.00    -0.388 OA
HETATM   34  H17 UNL     1       3.246  56.423  -8.406  1.00  0.00     0.210 HD
ENDBRANCH  30  33
ENDBRANCH  27  30
ENDBRANCH  26  27
ENDBRANCH  25  26
ENDBRANCH  23  25
ENDBRANCH   1  23
BRANCH   2  35
HETATM   35  O3  UNL     1      -0.453  52.559 -12.175  1.00  0.00    -0.395 OA
HETATM   36  H20 UNL     1      -0.651  53.488 -12.384  1.00  0.00     0.210 HD
ENDBRANCH   2  35
BRANCH   4  37
HETATM   37  C13 UNL     1       2.720  51.754 -15.214  1.00  0.00     0.150 C 
HETATM   38  O4  UNL     1       3.720  51.087 -14.994  1.00  0.00    -0.649 OA
BRANCH  37  39
HETATM   39  O5  UNL     1       2.871  53.011 -15.669  1.00  0.00    -0.776 OA
HETATM   40  H23 UNL     1       3.845  53.127 -15.718  1.00  0.00     0.167 HD
ENDBRANCH  37  39
ENDBRANCH   4  37
TORSDOF 10
ENDMDL
MODEL 8
REMARK minimizedAffinity -7.27718544
REMARK CNNscore 0.467711151
REMARK CNNaffinity 6.55003881
REMARK  10 active torsions:
REMARK  status: ('A' for Active; 'I' for Inactive)
REMARK    1  A    between atoms: C2_2  and  C3_3 
REMARK    2  A    between atoms: C2_2  and  C9_11 
REMARK    3  A    between atoms: C3_3  and  C4_4 
REMARK    4  A    between atoms: C4_4  and  C5_5 
REMARK    5  A    between atoms: C5_5  and  O1_6 
REMARK    6  A    between atoms: C5_5  and  C6_7 
REMARK    7  A    between atoms: C6_7  and  O2_10 
REMARK    8  A    between atoms: C10_12  and  O3_13 
REMARK    9  A    between atoms: C12_15  and  C13_16 
REMARK   10  A    between atoms: C13_16  and  O5_18 
ROOT
HETATM    1  C9  UNL     1      -5.380  47.458 -20.195  1.00  0.00     0.028 C 
HETATM    2  C10 UNL     1      -4.670  46.779 -21.392  1.00  0.00     0.124 C 
HETATM    3  C11 UNL     1      -3.556  47.721 -21.840  1.00  0.00     0.053 C 
HETATM    4  C12 UNL     1      -4.108  49.134 -21.554  1.00  0.00     0.060 C 
HETATM    5  C14 UNL     1      -2.996  50.248 -21.599  1.00  0.00     0.014 C 
HETATM    6  C15 UNL     1      -2.256  50.242 -22.958  1.00  0.00     0.007 C 
HETATM    7  C16 UNL     1      -1.034  51.157 -23.071  1.00  0.00     0.007 C 
HETATM    8  C17 UNL     1      -0.704  51.978 -21.816  1.00  0.00     0.010 C 
HETATM    9  C18 UNL     1       0.660  52.742 -21.916  1.00  0.00     0.018 C 
HETATM   10  C19 UNL     1       0.666  53.687 -23.133  1.00  0.00     0.023 C 
HETATM   11  C20 UNL     1       1.875  51.802 -22.007  1.00  0.00     0.023 C 
HETATM   12  C21 UNL     1       0.842  53.609 -20.663  1.00  0.00     0.135 C 
HETATM   13  O6  UNL     1       1.707  54.488 -20.597  1.00  0.00    -0.297 OA
HETATM   14  C22 UNL     1      -0.094  53.374 -19.505  1.00  0.00     0.080 C 
HETATM   15  C23 UNL     1      -0.273  51.883 -19.284  1.00  0.00     0.018 C 
HETATM   16  C24 UNL     1      -0.813  51.160 -20.517  1.00  0.00    -0.026 A 
HETATM   17  C25 UNL     1      -0.636  49.650 -20.531  1.00  0.00     0.021 A 
HETATM   18  C26 UNL     1      -2.032  50.218 -20.408  1.00  0.00    -0.027 A 
HETATM   19  C27 UNL     1      -2.728  50.083 -19.072  1.00  0.00     0.011 C 
HETATM   20  C28 UNL     1      -3.657  48.880 -19.048  1.00  0.00     0.012 C 
HETATM   21  C29 UNL     1      -4.781  48.922 -20.143  1.00  0.00    -0.020 C 
HETATM   22  C30 UNL     1      -5.741  50.050 -19.732  1.00  0.00     0.017 C 
ENDROOT
BRANCH   1  23
HETATM   23  C2  UNL     1      -6.907  47.132 -20.213  1.00  0.00    -0.011 C 
HETATM   24  C1  UNL     1      -7.487  46.575 -21.515  1.00  0.00     0.010 C 
BRANCH  23  25
HETATM   25  C3  UNL     1      -7.782  48.298 -19.686  1.00  0.00     0.007 C 
BRANCH  25  26
HETATM   26  C4  UNL     1      -8.501  47.990 -18.355  1.00  0.00     0.035 C 
BRANCH  26  27
HETATM   27  C5  UNL     1     -10.039  48.067 -18.469  1.00  0.00     0.151 C 
BRANCH  27  28
HETATM   28  O1  UNL     1     -10.436  48.074 -19.842  1.00  0.00    -0.393 OA
HETATM   29  H10 UNL     1     -10.015  47.314 -20.280  1.00  0.00     0.210 HD
ENDBRANCH  27  28
BRANCH  27  30
HETATM   30  C6  UNL     1     -10.789  46.948 -17.684  1.00  0.00     0.076 C 
HETATM   31  C7  UNL     1     -11.711  46.167 -18.630  1.00  0.00     0.048 C 
HETATM   32  C8  UNL     1      -9.836  45.969 -16.990  1.00  0.00     0.048 C 
BRANCH  30  33
HETATM   33  O2  UNL     1     -11.608  47.555 -16.676  1.00  0.00    -0.388 OA
HETATM   34  H17 UNL     1     -12.122  46.852 -16.242  1.00  0.00     0.210 HD
ENDBRANCH  30  33
ENDBRANCH  27  30
ENDBRANCH  26  27
ENDBRANCH  25  26
ENDBRANCH  23  25
ENDBRANCH   1  23
BRANCH   2  35
HETATM   35  O3  UNL     1      -4.132  45.529 -20.987  1.00  0.00    -0.395 OA
HETATM   36  H20 UNL     1      -3.682  45.147 -21.760  1.00  0.00     0.210 HD
ENDBRANCH   2  35
BRANCH   4  37
HETATM   37  C13 UNL     1      -5.141  49.566 -22.611  1.00  0.00     0.150 C 
HETATM   38  O4  UNL     1      -5.653  48.843 -23.454  1.00  0.00    -0.649 OA
BRANCH  37  39
HETATM   39  O5  UNL     1      -5.563  50.839 -22.509  1.00  0.00    -0.776 OA
HETATM   40  H23 UNL     1      -6.250  50.914 -23.209  1.00  0.00     0.167 HD
ENDBRANCH  37  39
ENDBRANCH   4  37
TORSDOF 10
ENDMDL
MODEL 9
REMARK minimizedAffinity -7.13829374
REMARK CNNscore 0.421406835
REMARK CNNaffinity 6.30930185
REMARK  10 active torsions:
REMARK  status: ('A' for Active; 'I' for Inactive)
REMARK    1  A    between atoms: C2_2  and  C3_3 
REMARK    2  A    between atoms: C2_2  and  C9_11 
REMARK    3  A    between atoms: C3_3  and  C4_4 
REMARK    4  A    between atoms: C4_4  and  C5_5 
REMARK    5  A    between atoms: C5_5  and  O1_6 
REMARK    6  A    between atoms: C5_5  and  C6_7 
REMARK    7  A    between atoms: C6_7  and  O2_10 
REMARK    8  A    between atoms: C10_12  and  O3_13 
REMARK    9  A    between atoms: C12_15  and  C13_16 
REMARK   10  A    between atoms: C13_16  and  O5_18 
ROOT
HETATM    1  C9  UNL     1      -2.554  51.709 -12.869  1.00  0.00     0.028 C 
HETATM    2  C10 UNL     1      -3.616  52.603 -12.181  1.00  0.00     0.124 C 
HETATM    3  C11 UNL     1      -2.923  53.295 -11.011  1.00  0.00     0.053 C 
HETATM    4  C12 UNL     1      -1.875  52.271 -10.523  1.00  0.00     0.060 C 
HETATM    5  C14 UNL     1      -0.801  52.903  -9.560  1.00  0.00     0.014 C 
HETATM    6  C15 UNL     1      -1.475  53.579  -8.342  1.00  0.00     0.007 C 
HETATM    7  C16 UNL     1      -0.558  54.385  -7.418  1.00  0.00     0.007 C 
HETATM    8  C17 UNL     1       0.925  54.408  -7.815  1.00  0.00     0.010 C 
HETATM    9  C18 UNL     1       1.780  55.402  -6.957  1.00  0.00     0.018 C 
HETATM   10  C19 UNL     1       1.681  55.050  -5.460  1.00  0.00     0.023 C 
HETATM   11  C20 UNL     1       1.377  56.874  -7.153  1.00  0.00     0.023 C 
HETATM   12  C21 UNL     1       3.255  55.271  -7.360  1.00  0.00     0.135 C 
HETATM   13  O6  UNL     1       4.164  55.759  -6.681  1.00  0.00    -0.297 OA
HETATM   14  C22 UNL     1       3.574  54.498  -8.614  1.00  0.00     0.080 C 
HETATM   15  C23 UNL     1       2.596  54.874  -9.713  1.00  0.00     0.018 C 
HETATM   16  C24 UNL     1       1.140  54.618  -9.324  1.00  0.00    -0.026 A 
HETATM   17  C25 UNL     1       0.094  55.331 -10.168  1.00  0.00     0.021 A 
HETATM   18  C26 UNL     1       0.202  53.826 -10.260  1.00  0.00    -0.027 A 
HETATM   19  C27 UNL     1       0.771  53.241 -11.534  1.00  0.00     0.011 C 
HETATM   20  C28 UNL     1      -0.330  52.812 -12.490  1.00  0.00     0.012 C 
HETATM   21  C29 UNL     1      -1.306  51.737 -11.895  1.00  0.00    -0.020 C 
HETATM   22  C30 UNL     1      -0.494  50.438 -11.772  1.00  0.00     0.017 C 
ENDROOT
BRANCH   1  23
HETATM   23  C2  UNL     1      -3.214  50.404 -13.415  1.00  0.00    -0.011 C 
HETATM   24  C1  UNL     1      -3.736  49.401 -12.384  1.00  0.00     0.010 C 
BRANCH  23  25
HETATM   25  C3  UNL     1      -2.347  49.686 -14.479  1.00  0.00     0.007 C 
BRANCH  25  26
HETATM   26  C4  UNL     1      -1.566  50.644 -15.404  1.00  0.00     0.035 C 
BRANCH  26  27
HETATM   27  C5  UNL     1      -1.984  50.526 -16.886  1.00  0.00     0.151 C 
BRANCH  27  28
HETATM   28  O1  UNL     1      -3.135  51.332 -17.144  1.00  0.00    -0.393 OA
HETATM   29  H10 UNL     1      -2.948  52.233 -16.826  1.00  0.00     0.210 HD
ENDBRANCH  27  28
BRANCH  27  30
HETATM   30  C6  UNL     1      -0.842  50.856 -17.894  1.00  0.00     0.076 C 
HETATM   31  C7  UNL     1       0.470  51.112 -17.140  1.00  0.00     0.048 C 
HETATM   32  C8  UNL     1      -0.619  49.742 -18.923  1.00  0.00     0.048 C 
BRANCH  30  33
HETATM   33  O2  UNL     1      -1.179  52.053 -18.606  1.00  0.00    -0.388 OA
HETATM   34  H17 UNL     1      -0.428  52.285 -19.179  1.00  0.00     0.210 HD
ENDBRANCH  30  33
ENDBRANCH  27  30
ENDBRANCH  26  27
ENDBRANCH  25  26
ENDBRANCH  23  25
ENDBRANCH   1  23
BRANCH   2  35
HETATM   35  O3  UNL     1      -4.108  53.563 -13.105  1.00  0.00    -0.395 OA
HETATM   36  H20 UNL     1      -4.755  54.112 -12.630  1.00  0.00     0.210 HD
ENDBRANCH   2  35
BRANCH   4  37
HETATM   37  C13 UNL     1      -2.523  51.140  -9.704  1.00  0.00     0.150 C 
HETATM   38  O4  UNL     1      -3.720  50.982  -9.517  1.00  0.00    -0.649 OA
BRANCH  37  39
HETATM   39  O5  UNL     1      -1.669  50.208  -9.244  1.00  0.00    -0.776 OA
HETATM   40  H23 UNL     1      -2.254  49.548  -8.810  1.00  0.00     0.167 HD
ENDBRANCH  37  39
ENDBRANCH   4  37
TORSDOF 10
ENDMDL
