MODEL 1
REMARK minimizedAffinity -8.01200485
REMARK CNNscore 0.424627602
REMARK CNNaffinity 5.596838
REMARK  12 active torsions:
REMARK  status: ('A' for Active; 'I' for Inactive)
REMARK    1  A    between atoms: C2_2  and  C27_36 
REMARK    2  A    between atoms: C3_3  and  C4_4 
REMARK    3  A    between atoms: C4_4  and  C5_5 
REMARK    4  A    between atoms: C5_5  and  C6_6 
REMARK    5  A    between atoms: C6_6  and  C8_8 
REMARK    6  A    between atoms: C10_10  and  O1_11 
REMARK    7  A    between atoms: O1_11  and  S1_12 
REMARK    8  A    between atoms: C11_16  and  O5_17 
REMARK    9  A    between atoms: C12_18  and  O6_19 
REMARK   10  A    between atoms: C14_21  and  O7_22 
REMARK   11  A    between atoms: C17_25  and  O8_26 
REMARK   12  A    between atoms: C27_36  and  O9_37 
ROOT
HETATM    1  C8  UNL     1     -12.297  46.742 -27.537  1.00  0.00     0.005 C 
HETATM    2  C9  UNL     1     -11.628  47.297 -26.233  1.00  0.00     0.044 C 
HETATM    3  C10 UNL     1     -10.105  47.185 -26.427  1.00  0.00     0.201 C 
HETATM    4  C11 UNL     1      -9.949  47.141 -27.954  1.00  0.00     0.162 A 
HETATM    5  C12 UNL     1      -8.549  46.825 -28.577  1.00  0.00     0.139 A 
HETATM    6  C13 UNL     1      -7.531  47.978 -28.423  1.00  0.00     0.093 C 
HETATM    7  C14 UNL     1      -6.175  47.654 -29.052  1.00  0.00     0.127 C 
HETATM    8  C15 UNL     1      -6.332  47.406 -30.559  1.00  0.00     0.025 C 
HETATM    9  C16 UNL     1      -4.980  47.173 -31.261  1.00  0.00     0.039 C 
HETATM   10  C17 UNL     1      -5.129  46.996 -32.776  1.00  0.00     0.118 C 
HETATM   11  C18 UNL     1      -6.570  47.069 -33.271  1.00  0.00     0.032 C 
HETATM   12  C19 UNL     1      -7.581  46.261 -32.442  1.00  0.00     0.012 C 
HETATM   13  C20 UNL     1      -7.357  46.277 -30.890  1.00  0.00    -0.030 C 
HETATM   14  C21 UNL     1      -6.807  44.883 -30.488  1.00  0.00     0.016 C 
HETATM   15  C22 UNL     1      -8.715  46.595 -30.134  1.00  0.00     0.050 C 
HETATM   16  C23 UNL     1      -9.871  45.627 -30.481  1.00  0.00     0.011 C 
HETATM   17  C24 UNL     1     -11.204  46.037 -29.832  1.00  0.00     0.015 C 
HETATM   18  C25 UNL     1     -11.080  46.099 -28.302  1.00  0.00     0.013 C 
HETATM   19  C26 UNL     1     -10.837  44.657 -27.770  1.00  0.00     0.020 C 
HETATM   20 NA1  UNL     1     -10.697  46.645 -28.345  1.00  0.00    -0.358 Na
ATOM     21  HA1 UNL     1     -11.652  46.324 -28.503  1.00  0.00     0.159 HD
ENDROOT
BRANCH   1  22
HETATM   22  C6  UNL     1     -13.562  45.887 -27.230  1.00  0.00    -0.013 C 
HETATM   23  C7  UNL     1     -14.540  45.860 -28.412  1.00  0.00     0.010 C 
BRANCH  22  24
HETATM   24  C5  UNL     1     -14.297  46.417 -25.968  1.00  0.00     0.008 C 
BRANCH  24  25
HETATM   25  C4  UNL     1     -15.385  45.459 -25.464  1.00  0.00     0.028 C 
BRANCH  25  26
HETATM   26  C3  UNL     1     -16.555  46.213 -24.889  1.00  0.00    -0.022 C 
HETATM   27  C2  UNL     1     -17.858  46.102 -25.215  1.00  0.00    -0.064 C 
HETATM   28  C1  UNL     1     -18.410  45.190 -26.279  1.00  0.00     0.045 C 
BRANCH  27  29
HETATM   29  C27 UNL     1     -18.902  46.919 -24.493  1.00  0.00     0.197 C 
BRANCH  29  30
HETATM   30  O9  UNL     1     -20.170  46.679 -25.084  1.00  0.00    -0.397 OA
HETATM   31  H45 UNL     1     -20.072  46.892 -26.028  1.00  0.00     0.209 HD
ENDBRANCH  29  30
ENDBRANCH  27  29
ENDBRANCH  25  26
ENDBRANCH  24  25
ENDBRANCH  22  24
ENDBRANCH   1  22
BRANCH   3  32
HETATM   32  O1  UNL     1      -9.432  48.287 -25.858  1.00  0.00    -0.246 OA
BRANCH  32  33
HETATM   33  S1  UNL     1      -8.462  47.975 -24.580  1.00  0.00     0.252 S 
HETATM   34  O2  UNL     1      -7.456  47.063 -25.135  1.00  0.00    -0.572 OA
HETATM   35  O3  UNL     1      -7.942  49.292 -24.233  1.00  0.00    -0.572 OA
HETATM   36  O4  UNL     1      -9.366  47.374 -23.609  1.00  0.00    -0.572 OA
ENDBRANCH  32  33
ENDBRANCH   3  32
BRANCH   4  37
HETATM   37  O5  UNL     1     -10.349  48.445 -28.470  1.00  0.00    -0.368 OA
HETATM   38  H17 UNL     1      -9.977  49.096 -27.838  1.00  0.00     0.212 HD
ENDBRANCH   4  37
BRANCH   5  39
HETATM   39  O6  UNL     1      -8.000  45.674 -27.935  1.00  0.00    -0.370 OA
HETATM   40  H18 UNL     1      -7.727  45.944 -27.019  1.00  0.00     0.212 HD
ENDBRANCH   5  39
BRANCH   7  41
HETATM   41  O7  UNL     1      -5.309  48.776 -28.853  1.00  0.00    -0.395 OA
HETATM   42  H22 UNL     1      -5.277  48.928 -27.888  1.00  0.00     0.210 HD
ENDBRANCH   7  41
BRANCH  10  43
HETATM   43  O8  UNL     1      -4.530  45.770 -33.199  1.00  0.00    -0.396 OA
HETATM   44  H27 UNL     1      -5.075  45.040 -32.863  1.00  0.00     0.210 HD
ENDBRANCH  10  43
TORSDOF 12
ENDMDL
MODEL 2
REMARK minimizedAffinity -7.80871582
REMARK CNNscore 0.37044695
REMARK CNNaffinity 5.18257284
REMARK  12 active torsions:
REMARK  status: ('A' for Active; 'I' for Inactive)
REMARK    1  A    between atoms: C2_2  and  C27_36 
REMARK    2  A    between atoms: C3_3  and  C4_4 
REMARK    3  A    between atoms: C4_4  and  C5_5 
REMARK    4  A    between atoms: C5_5  and  C6_6 
REMARK    5  A    between atoms: C6_6  and  C8_8 
REMARK    6  A    between atoms: C10_10  and  O1_11 
REMARK    7  A    between atoms: O1_11  and  S1_12 
REMARK    8  A    between atoms: C11_16  and  O5_17 
REMARK    9  A    between atoms: C12_18  and  O6_19 
REMARK   10  A    between atoms: C14_21  and  O7_22 
REMARK   11  A    between atoms: C17_25  and  O8_26 
REMARK   12  A    between atoms: C27_36  and  O9_37 
ROOT
HETATM    1  C8  UNL     1     -15.413  46.006 -26.323  1.00  0.00     0.005 C 
HETATM    2  C9  UNL     1     -16.769  45.231 -26.201  1.00  0.00     0.044 C 
HETATM    3  C10 UNL     1     -16.989  44.946 -24.704  1.00  0.00     0.201 C 
HETATM    4  C11 UNL     1     -16.126  46.013 -24.014  1.00  0.00     0.162 A 
HETATM    5  C12 UNL     1     -15.910  45.946 -22.466  1.00  0.00     0.139 A 
HETATM    6  C13 UNL     1     -17.169  46.317 -21.650  1.00  0.00     0.093 C 
HETATM    7  C14 UNL     1     -16.931  46.260 -20.139  1.00  0.00     0.127 C 
HETATM    8  C15 UNL     1     -15.836  47.257 -19.734  1.00  0.00     0.025 C 
HETATM    9  C16 UNL     1     -15.626  47.313 -18.209  1.00  0.00     0.039 C 
HETATM   10  C17 UNL     1     -14.583  48.359 -17.799  1.00  0.00     0.118 C 
HETATM   11  C18 UNL     1     -13.963  49.111 -18.972  1.00  0.00     0.032 C 
HETATM   12  C19 UNL     1     -13.533  48.227 -20.153  1.00  0.00     0.012 C 
HETATM   13  C20 UNL     1     -14.492  47.034 -20.496  1.00  0.00    -0.030 C 
HETATM   14  C21 UNL     1     -13.792  45.730 -20.031  1.00  0.00     0.016 C 
HETATM   15  C22 UNL     1     -14.798  46.994 -22.052  1.00  0.00     0.050 C 
HETATM   16  C23 UNL     1     -13.534  46.914 -22.941  1.00  0.00     0.011 C 
HETATM   17  C24 UNL     1     -13.857  47.005 -24.442  1.00  0.00     0.015 C 
HETATM   18  C25 UNL     1     -14.812  45.882 -24.874  1.00  0.00     0.013 C 
HETATM   19  C26 UNL     1     -14.065  44.523 -24.736  1.00  0.00     0.020 C 
HETATM   20 NA1  UNL     1     -15.315  46.167 -24.538  1.00  0.00    -0.358 Na
ATOM     21  HA1 UNL     1     -14.714  46.307 -25.351  1.00  0.00     0.159 HD
ENDROOT
BRANCH   1  22
HETATM   22  C6  UNL     1     -14.579  45.539 -27.553  1.00  0.00    -0.013 C 
HETATM   23  C7  UNL     1     -14.734  44.035 -27.817  1.00  0.00     0.010 C 
BRANCH  22  24
HETATM   24  C5  UNL     1     -13.074  45.874 -27.363  1.00  0.00     0.008 C 
BRANCH  24  25
HETATM   25  C4  UNL     1     -12.723  47.306 -27.787  1.00  0.00     0.028 C 
BRANCH  25  26
HETATM   26  C3  UNL     1     -11.682  47.906 -26.880  1.00  0.00    -0.022 C 
HETATM   27  C2  UNL     1     -10.366  48.078 -27.120  1.00  0.00    -0.064 C 
HETATM   28  C1  UNL     1      -9.655  47.657 -28.379  1.00  0.00     0.045 C 
BRANCH  27  29
HETATM   29  C27 UNL     1      -9.480  48.743 -26.097  1.00  0.00     0.197 C 
BRANCH  29  30
HETATM   30  O9  UNL     1      -9.719  50.142 -26.113  1.00  0.00    -0.397 OA
HETATM   31  H45 UNL     1      -9.565  50.431 -27.029  1.00  0.00     0.209 HD
ENDBRANCH  29  30
ENDBRANCH  27  29
ENDBRANCH  25  26
ENDBRANCH  24  25
ENDBRANCH  22  24
ENDBRANCH   1  22
BRANCH   3  32
HETATM   32  O1  UNL     1     -18.351  45.059 -24.353  1.00  0.00    -0.246 OA
BRANCH  32  33
HETATM   33  S1  UNL     1     -19.340  45.748 -25.457  1.00  0.00     0.252 S 
HETATM   34  O2  UNL     1     -18.745  45.351 -26.737  1.00  0.00    -0.572 OA
HETATM   35  O3  UNL     1     -20.627  45.124 -25.180  1.00  0.00    -0.572 OA
HETATM   36  O4  UNL     1     -19.246  47.169 -25.151  1.00  0.00    -0.572 OA
ENDBRANCH  32  33
ENDBRANCH   3  32
BRANCH   4  37
HETATM   37  O5  UNL     1     -16.733  47.309 -24.292  1.00  0.00    -0.368 OA
HETATM   38  H17 UNL     1     -17.699  47.163 -24.215  1.00  0.00     0.212 HD
ENDBRANCH   4  37
BRANCH   5  39
HETATM   39  O6  UNL     1     -15.535  44.617 -22.103  1.00  0.00    -0.370 OA
HETATM   40  H18 UNL     1     -16.342  44.044 -22.191  1.00  0.00     0.212 HD
ENDBRANCH   5  39
BRANCH   7  41
HETATM   41  O7  UNL     1     -18.150  46.615 -19.480  1.00  0.00    -0.395 OA
HETATM   42  H22 UNL     1     -18.827  45.987 -19.802  1.00  0.00     0.210 HD
ENDBRANCH   7  41
BRANCH  10  43
HETATM   43  O8  UNL     1     -13.557  47.760 -17.007  1.00  0.00    -0.396 OA
HETATM   44  H27 UNL     1     -13.034  47.180 -17.584  1.00  0.00     0.210 HD
ENDBRANCH  10  43
TORSDOF 12
ENDMDL
MODEL 3
REMARK minimizedAffinity -7.79029703
REMARK CNNscore 0.361434132
REMARK CNNaffinity 5.48617172
REMARK  12 active torsions:
REMARK  status: ('A' for Active; 'I' for Inactive)
REMARK    1  A    between atoms: C2_2  and  C27_36 
REMARK    2  A    between atoms: C3_3  and  C4_4 
REMARK    3  A    between atoms: C4_4  and  C5_5 
REMARK    4  A    between atoms: C5_5  and  C6_6 
REMARK    5  A    between atoms: C6_6  and  C8_8 
REMARK    6  A    between atoms: C10_10  and  O1_11 
REMARK    7  A    between atoms: O1_11  and  S1_12 
REMARK    8  A    between atoms: C11_16  and  O5_17 
REMARK    9  A    between atoms: C12_18  and  O6_19 
REMARK   10  A    between atoms: C14_21  and  O7_22 
REMARK   11  A    between atoms: C17_25  and  O8_26 
REMARK   12  A    between atoms: C27_36  and  O9_37 
ROOT
HETATM    1  C8  UNL     1     -18.197  46.291 -22.113  1.00  0.00     0.005 C 
HETATM    2  C9  UNL     1     -16.747  46.850 -22.312  1.00  0.00     0.044 C 
HETATM    3  C10 UNL     1     -16.144  46.112 -23.520  1.00  0.00     0.201 C 
HETATM    4  C11 UNL     1     -17.383  45.630 -24.290  1.00  0.00     0.162 A 
HETATM    5  C12 UNL     1     -17.207  44.651 -25.498  1.00  0.00     0.139 A 
HETATM    6  C13 UNL     1     -16.587  45.317 -26.747  1.00  0.00     0.093 C 
HETATM    7  C14 UNL     1     -16.438  44.346 -27.920  1.00  0.00     0.127 C 
HETATM    8  C15 UNL     1     -17.812  43.809 -28.345  1.00  0.00     0.025 C 
HETATM    9  C16 UNL     1     -17.730  42.903 -29.589  1.00  0.00     0.039 C 
HETATM   10  C17 UNL     1     -19.110  42.424 -30.056  1.00  0.00     0.118 C 
HETATM   11  C18 UNL     1     -20.266  42.924 -29.195  1.00  0.00     0.032 C 
HETATM   12  C19 UNL     1     -20.042  42.807 -27.680  1.00  0.00     0.012 C 
HETATM   13  C20 UNL     1     -18.589  43.123 -27.179  1.00  0.00    -0.030 C 
HETATM   14  C21 UNL     1     -17.932  41.773 -26.784  1.00  0.00     0.016 C 
HETATM   15  C22 UNL     1     -18.629  44.121 -25.947  1.00  0.00     0.050 C 
HETATM   16  C23 UNL     1     -19.489  43.623 -24.761  1.00  0.00     0.011 C 
HETATM   17  C24 UNL     1     -19.610  44.667 -23.637  1.00  0.00     0.015 C 
HETATM   18  C25 UNL     1     -18.229  45.057 -23.090  1.00  0.00     0.013 C 
HETATM   19  C26 UNL     1     -17.614  43.816 -22.379  1.00  0.00     0.020 C 
HETATM   20 NA1  UNL     1     -18.086  45.382 -23.656  1.00  0.00    -0.358 Na
ATOM     21  HA1 UNL     1     -18.697  45.428 -22.841  1.00  0.00     0.159 HD
ENDROOT
BRANCH   1  22
HETATM   22  C6  UNL     1     -18.551  46.100 -20.608  1.00  0.00    -0.013 C 
HETATM   23  C7  UNL     1     -19.088  47.390 -19.973  1.00  0.00     0.010 C 
BRANCH  22  24
HETATM   24  C5  UNL     1     -17.314  45.610 -19.805  1.00  0.00     0.008 C 
BRANCH  24  25
HETATM   25  C4  UNL     1     -16.783  46.663 -18.825  1.00  0.00     0.028 C 
BRANCH  25  26
HETATM   26  C3  UNL     1     -15.492  47.266 -19.314  1.00  0.00    -0.022 C 
HETATM   27  C2  UNL     1     -14.950  48.455 -18.983  1.00  0.00    -0.064 C 
HETATM   28  C1  UNL     1     -15.570  49.458 -18.048  1.00  0.00     0.045 C 
BRANCH  27  29
HETATM   29  C27 UNL     1     -13.615  48.873 -19.549  1.00  0.00     0.197 C 
BRANCH  29  30
HETATM   30  O9  UNL     1     -13.721  50.193 -20.062  1.00  0.00    -0.397 OA
HETATM   31  H45 UNL     1     -14.447  50.172 -20.710  1.00  0.00     0.209 HD
ENDBRANCH  29  30
ENDBRANCH  27  29
ENDBRANCH  25  26
ENDBRANCH  24  25
ENDBRANCH  22  24
ENDBRANCH   1  22
BRANCH   3  32
HETATM   32  O1  UNL     1     -15.338  46.970 -24.298  1.00  0.00    -0.246 OA
BRANCH  32  33
HETATM   33  S1  UNL     1     -13.754  46.587 -24.413  1.00  0.00     0.252 S 
HETATM   34  O2  UNL     1     -13.767  45.125 -24.518  1.00  0.00    -0.572 OA
HETATM   35  O3  UNL     1     -13.340  47.267 -25.634  1.00  0.00    -0.572 OA
HETATM   36  O4  UNL     1     -13.190  47.109 -23.176  1.00  0.00    -0.572 OA
ENDBRANCH  32  33
ENDBRANCH   3  32
BRANCH   4  37
HETATM   37  O5  UNL     1     -18.059  46.812 -24.810  1.00  0.00    -0.368 OA
HETATM   38  H17 UNL     1     -17.341  47.404 -25.119  1.00  0.00     0.212 HD
ENDBRANCH   4  37
BRANCH   5  39
HETATM   39  O6  UNL     1     -16.349  43.577 -25.109  1.00  0.00    -0.370 OA
HETATM   40  H18 UNL     1     -15.427  43.940 -25.043  1.00  0.00     0.212 HD
ENDBRANCH   5  39
BRANCH   7  41
HETATM   41  O7  UNL     1     -15.856  45.055 -29.018  1.00  0.00    -0.395 OA
HETATM   42  H22 UNL     1     -15.010  45.419 -28.690  1.00  0.00     0.210 HD
ENDBRANCH   7  41
BRANCH  10  43
HETATM   43  O8  UNL     1     -19.144  40.999 -30.138  1.00  0.00    -0.396 OA
HETATM   44  H27 UNL     1     -19.112  40.647 -29.234  1.00  0.00     0.210 HD
ENDBRANCH  10  43
TORSDOF 12
ENDMDL
MODEL 4
REMARK minimizedAffinity -7.58842468
REMARK CNNscore 0.324795544
REMARK CNNaffinity 6.03007078
REMARK  12 active torsions:
REMARK  status: ('A' for Active; 'I' for Inactive)
REMARK    1  A    between atoms: C2_2  and  C27_36 
REMARK    2  A    between atoms: C3_3  and  C4_4 
REMARK    3  A    between atoms: C4_4  and  C5_5 
REMARK    4  A    between atoms: C5_5  and  C6_6 
REMARK    5  A    between atoms: C6_6  and  C8_8 
REMARK    6  A    between atoms: C10_10  and  O1_11 
REMARK    7  A    between atoms: O1_11  and  S1_12 
REMARK    8  A    between atoms: C11_16  and  O5_17 
REMARK    9  A    between atoms: C12_18  and  O6_19 
REMARK   10  A    between atoms: C14_21  and  O7_22 
REMARK   11  A    between atoms: C17_25  and  O8_26 
REMARK   12  A    between atoms: C27_36  and  O9_37 
ROOT
HETATM    1  C8  UNL     1      -0.957  50.376 -22.698  1.00  0.00     0.005 C 
HETATM    2  C9  UNL     1      -0.266  51.019 -21.448  1.00  0.00     0.044 C 
HETATM    3  C10 UNL     1      -1.032  50.524 -20.208  1.00  0.00     0.201 C 
HETATM    4  C11 UNL     1      -1.704  49.234 -20.702  1.00  0.00     0.162 A 
HETATM    5  C12 UNL     1      -2.754  48.514 -19.793  1.00  0.00     0.139 A 
HETATM    6  C13 UNL     1      -2.129  47.817 -18.563  1.00  0.00     0.093 C 
HETATM    7  C14 UNL     1      -3.172  47.107 -17.696  1.00  0.00     0.127 C 
HETATM    8  C15 UNL     1      -3.883  46.014 -18.506  1.00  0.00     0.025 C 
HETATM    9  C16 UNL     1      -4.874  45.200 -17.652  1.00  0.00     0.039 C 
HETATM   10  C17 UNL     1      -5.533  44.063 -18.443  1.00  0.00     0.118 C 
HETATM   11  C18 UNL     1      -5.089  43.982 -19.900  1.00  0.00     0.032 C 
HETATM   12  C19 UNL     1      -5.059  45.327 -20.643  1.00  0.00     0.012 C 
HETATM   13  C20 UNL     1      -4.551  46.554 -19.809  1.00  0.00    -0.030 C 
HETATM   14  C21 UNL     1      -5.787  47.435 -19.484  1.00  0.00     0.016 C 
HETATM   15  C22 UNL     1      -3.465  47.373 -20.627  1.00  0.00     0.050 C 
HETATM   16  C23 UNL     1      -3.954  47.855 -22.014  1.00  0.00     0.011 C 
HETATM   17  C24 UNL     1      -2.840  48.533 -22.832  1.00  0.00     0.015 C 
HETATM   18  C25 UNL     1      -2.263  49.745 -22.085  1.00  0.00     0.013 C 
HETATM   19  C26 UNL     1      -3.370  50.836 -21.988  1.00  0.00     0.020 C 
HETATM   20 NA1  UNL     1      -1.972  49.343 -21.637  1.00  0.00    -0.358 Na
ATOM     21  HA1 UNL     1      -1.925  49.613 -22.620  1.00  0.00     0.159 HD
ENDROOT
BRANCH   1  22
HETATM   22  C6  UNL     1      -1.062  51.374 -23.890  1.00  0.00    -0.013 C 
HETATM   23  C7  UNL     1      -2.065  52.501 -23.611  1.00  0.00     0.010 C 
BRANCH  22  24
HETATM   24  C5  UNL     1      -1.468  50.638 -25.196  1.00  0.00     0.008 C 
BRANCH  24  25
HETATM   25  C4  UNL     1      -2.762  51.186 -25.813  1.00  0.00     0.028 C 
BRANCH  25  26
HETATM   26  C3  UNL     1      -3.921  50.255 -25.573  1.00  0.00    -0.022 C 
HETATM   27  C2  UNL     1      -4.162  49.059 -26.146  1.00  0.00    -0.064 C 
HETATM   28  C1  UNL     1      -3.300  48.415 -27.199  1.00  0.00     0.045 C 
BRANCH  27  29
HETATM   29  C27 UNL     1      -5.366  48.244 -25.743  1.00  0.00     0.197 C 
BRANCH  29  30
HETATM   30  O9  UNL     1      -6.122  48.973 -24.788  1.00  0.00    -0.397 OA
HETATM   31  H45 UNL     1      -5.511  49.177 -24.059  1.00  0.00     0.209 HD
ENDBRANCH  29  30
ENDBRANCH  27  29
ENDBRANCH  25  26
ENDBRANCH  24  25
ENDBRANCH  22  24
ENDBRANCH   1  22
BRANCH   3  32
HETATM   32  O1  UNL     1      -0.159  50.285 -19.125  1.00  0.00    -0.246 OA
BRANCH  32  33
HETATM   33  S1  UNL     1      -0.421  51.152 -17.765  1.00  0.00     0.252 S 
HETATM   34  O2  UNL     1      -1.874  51.351 -17.765  1.00  0.00    -0.572 OA
HETATM   35  O3  UNL     1       0.057  50.264 -16.713  1.00  0.00    -0.572 OA
HETATM   36  O4  UNL     1       0.364  52.360 -17.979  1.00  0.00    -0.572 OA
ENDBRANCH  32  33
ENDBRANCH   3  32
BRANCH   4  37
HETATM   37  O5  UNL     1      -0.646  48.265 -20.962  1.00  0.00    -0.368 OA
HETATM   38  H17 UNL     1      -0.009  48.378 -20.225  1.00  0.00     0.212 HD
ENDBRANCH   4  37
BRANCH   5  39
HETATM   39  O6  UNL     1      -3.695  49.476 -19.314  1.00  0.00    -0.370 OA
HETATM   40  H18 UNL     1      -3.232  50.036 -18.636  1.00  0.00     0.212 HD
ENDBRANCH   5  39
BRANCH   7  41
HETATM   41  O7  UNL     1      -2.496  46.500 -16.591  1.00  0.00    -0.395 OA
HETATM   42  H22 UNL     1      -2.019  47.221 -16.133  1.00  0.00     0.210 HD
ENDBRANCH   7  41
BRANCH  10  43
HETATM   43  O8  UNL     1      -6.955  44.161 -18.371  1.00  0.00    -0.396 OA
HETATM   44  H27 UNL     1      -7.227  44.939 -18.884  1.00  0.00     0.210 HD
ENDBRANCH  10  43
TORSDOF 12
ENDMDL
MODEL 5
REMARK minimizedAffinity -7.41165113
REMARK CNNscore 0.273896366
REMARK CNNaffinity 5.71440077
REMARK  12 active torsions:
REMARK  status: ('A' for Active; 'I' for Inactive)
REMARK    1  A    between atoms: C2_2  and  C27_36 
REMARK    2  A    between atoms: C3_3  and  C4_4 
REMARK    3  A    between atoms: C4_4  and  C5_5 
REMARK    4  A    between atoms: C5_5  and  C6_6 
REMARK    5  A    between atoms: C6_6  and  C8_8 
REMARK    6  A    between atoms: C10_10  and  O1_11 
REMARK    7  A    between atoms: O1_11  and  S1_12 
REMARK    8  A    between atoms: C11_16  and  O5_17 
REMARK    9  A    between atoms: C12_18  and  O6_19 
REMARK   10  A    between atoms: C14_21  and  O7_22 
REMARK   11  A    between atoms: C17_25  and  O8_26 
REMARK   12  A    between atoms: C27_36  and  O9_37 
ROOT
HETATM    1  C8  UNL     1      -0.108  54.304  -9.987  1.00  0.00     0.005 C 
HETATM    2  C9  UNL     1       0.728  54.063 -11.290  1.00  0.00     0.044 C 
HETATM    3  C10 UNL     1       0.321  52.682 -11.835  1.00  0.00     0.201 C 
HETATM    4  C11 UNL     1      -1.067  52.457 -11.216  1.00  0.00     0.162 A 
HETATM    5  C12 UNL     1      -1.758  51.061 -11.362  1.00  0.00     0.139 A 
HETATM    6  C13 UNL     1      -2.257  50.766 -12.795  1.00  0.00     0.093 C 
HETATM    7  C14 UNL     1      -2.943  49.402 -12.911  1.00  0.00     0.127 C 
HETATM    8  C15 UNL     1      -4.175  49.346 -11.996  1.00  0.00     0.025 C 
HETATM    9  C16 UNL     1      -4.961  48.030 -12.150  1.00  0.00     0.039 C 
HETATM   10  C17 UNL     1      -6.230  48.002 -11.290  1.00  0.00     0.118 C 
HETATM   11  C18 UNL     1      -6.444  49.262 -10.456  1.00  0.00     0.032 C 
HETATM   12  C19 UNL     1      -5.196  49.767  -9.716  1.00  0.00     0.012 C 
HETATM   13  C20 UNL     1      -3.843  49.652 -10.502  1.00  0.00    -0.030 C 
HETATM   14  C21 UNL     1      -3.032  48.496  -9.859  1.00  0.00     0.016 C 
HETATM   15  C22 UNL     1      -3.041  51.019 -10.436  1.00  0.00     0.050 C 
HETATM   16  C23 UNL     1      -2.763  51.516  -8.997  1.00  0.00     0.011 C 
HETATM   17  C24 UNL     1      -2.097  52.903  -8.968  1.00  0.00     0.015 C 
HETATM   18  C25 UNL     1      -0.765  52.896  -9.733  1.00  0.00     0.013 C 
HETATM   19  C26 UNL     1       0.238  51.986  -8.965  1.00  0.00     0.020 C 
HETATM   20 NA1  UNL     1      -1.088  52.837 -10.315  1.00  0.00    -0.358 Na
ATOM     21  HA1 UNL     1      -0.931  53.494  -9.551  1.00  0.00     0.159 HD
ENDROOT
BRANCH   1  22
HETATM   22  C6  UNL     1       0.735  54.982  -8.866  1.00  0.00    -0.013 C 
HETATM   23  C7  UNL     1      -0.031  56.121  -8.179  1.00  0.00     0.010 C 
BRANCH  22  24
HETATM   24  C5  UNL     1       2.072  55.533  -9.434  1.00  0.00     0.008 C 
BRANCH  24  25
HETATM   25  C4  UNL     1       2.965  56.161  -8.356  1.00  0.00     0.028 C 
BRANCH  25  26
HETATM   26  C3  UNL     1       4.381  55.660  -8.457  1.00  0.00    -0.022 C 
HETATM   27  C2  UNL     1       5.478  56.131  -7.831  1.00  0.00    -0.064 C 
HETATM   28  C1  UNL     1       5.502  57.314  -6.900  1.00  0.00     0.045 C 
BRANCH  27  29
HETATM   29  C27 UNL     1       6.818  55.466  -8.026  1.00  0.00     0.197 C 
BRANCH  29  30
HETATM   30  O9  UNL     1       7.001  55.185  -9.405  1.00  0.00    -0.397 OA
HETATM   31  H45 UNL     1       6.238  54.643  -9.673  1.00  0.00     0.209 HD
ENDBRANCH  29  30
ENDBRANCH  27  29
ENDBRANCH  25  26
ENDBRANCH  24  25
ENDBRANCH  22  24
ENDBRANCH   1  22
BRANCH   3  32
HETATM   32  O1  UNL     1       0.278  52.678 -13.246  1.00  0.00    -0.246 OA
BRANCH  32  33
HETATM   33  S1  UNL     1       1.328  51.686 -14.010  1.00  0.00     0.252 S 
HETATM   34  O2  UNL     1       2.608  51.983 -13.359  1.00  0.00    -0.572 OA
HETATM   35  O3  UNL     1       0.804  50.359 -13.710  1.00  0.00    -0.572 OA
HETATM   36  O4  UNL     1       1.235  52.104 -15.402  1.00  0.00    -0.572 OA
ENDBRANCH  32  33
ENDBRANCH   3  32
BRANCH   4  37
HETATM   37  O5  UNL     1      -1.972  53.432 -11.812  1.00  0.00    -0.368 OA
HETATM   38  H17 UNL     1      -1.726  53.466 -12.760  1.00  0.00     0.212 HD
ENDBRANCH   4  37
BRANCH   5  39
HETATM   39  O6  UNL     1      -0.826  50.038 -11.009  1.00  0.00    -0.370 OA
HETATM   40  H18 UNL     1      -0.156  49.978 -11.740  1.00  0.00     0.212 HD
ENDBRANCH   5  39
BRANCH   7  41
HETATM   41  O7  UNL     1      -3.362  49.226 -14.267  1.00  0.00    -0.395 OA
HETATM   42  H22 UNL     1      -2.558  49.318 -14.816  1.00  0.00     0.210 HD
ENDBRANCH   7  41
BRANCH  10  43
HETATM   43  O8  UNL     1      -6.237  46.852 -10.444  1.00  0.00    -0.396 OA
HETATM   44  H27 UNL     1      -5.549  46.971  -9.771  1.00  0.00     0.210 HD
ENDBRANCH  10  43
TORSDOF 12
ENDMDL
MODEL 6
REMARK minimizedAffinity -9.11478996
REMARK CNNscore 0.272205561
REMARK CNNaffinity 6.56454802
REMARK  12 active torsions:
REMARK  status: ('A' for Active; 'I' for Inactive)
REMARK    1  A    between atoms: C2_2  and  C27_36 
REMARK    2  A    between atoms: C3_3  and  C4_4 
REMARK    3  A    between atoms: C4_4  and  C5_5 
REMARK    4  A    between atoms: C5_5  and  C6_6 
REMARK    5  A    between atoms: C6_6  and  C8_8 
REMARK    6  A    between atoms: C10_10  and  O1_11 
REMARK    7  A    between atoms: O1_11  and  S1_12 
REMARK    8  A    between atoms: C11_16  and  O5_17 
REMARK    9  A    between atoms: C12_18  and  O6_19 
REMARK   10  A    between atoms: C14_21  and  O7_22 
REMARK   11  A    between atoms: C17_25  and  O8_26 
REMARK   12  A    between atoms: C27_36  and  O9_37 
ROOT
HETATM    1  C8  UNL     1      -2.215  51.666 -21.477  1.00  0.00     0.005 C 
HETATM    2  C9  UNL     1      -3.524  50.812 -21.371  1.00  0.00     0.044 C 
HETATM    3  C10 UNL     1      -3.432  50.010 -20.060  1.00  0.00     0.201 C 
HETATM    4  C11 UNL     1      -2.434  50.823 -19.222  1.00  0.00     0.162 A 
HETATM    5  C12 UNL     1      -1.902  50.236 -17.873  1.00  0.00     0.139 A 
HETATM    6  C13 UNL     1      -2.961  50.219 -16.747  1.00  0.00     0.093 C 
HETATM    7  C14 UNL     1      -2.415  49.654 -15.434  1.00  0.00     0.127 C 
HETATM    8  C15 UNL     1      -1.250  50.516 -14.927  1.00  0.00     0.025 C 
HETATM    9  C16 UNL     1      -0.728  50.050 -13.554  1.00  0.00     0.039 C 
HETATM   10  C17 UNL     1       0.388  50.953 -13.015  1.00  0.00     0.118 C 
HETATM   11  C18 UNL     1       0.760  52.104 -13.945  1.00  0.00     0.032 C 
HETATM   12  C19 UNL     1       0.926  51.715 -15.422  1.00  0.00     0.012 C 
HETATM   13  C20 UNL     1      -0.096  50.658 -15.967  1.00  0.00    -0.030 C 
HETATM   14  C21 UNL     1       0.671  49.320 -16.142  1.00  0.00     0.016 C 
HETATM   15  C22 UNL     1      -0.718  51.143 -17.344  1.00  0.00     0.050 C 
HETATM   16  C23 UNL     1       0.334  51.458 -18.434  1.00  0.00     0.011 C 
HETATM   17  C24 UNL     1      -0.293  52.045 -19.711  1.00  0.00     0.015 C 
HETATM   18  C25 UNL     1      -1.328  51.083 -20.315  1.00  0.00     0.013 C 
HETATM   19  C26 UNL     1      -0.583  49.812 -20.817  1.00  0.00     0.020 C 
HETATM   20 NA1  UNL     1      -1.747  51.201 -19.808  1.00  0.00    -0.358 Na
ATOM     21  HA1 UNL     1      -1.327  51.653 -20.620  1.00  0.00     0.159 HD
ENDROOT
BRANCH   1  22
HETATM   22  C6  UNL     1      -1.659  51.710 -22.932  1.00  0.00    -0.013 C 
HETATM   23  C7  UNL     1      -1.787  50.354 -23.639  1.00  0.00     0.010 C 
BRANCH  22  24
HETATM   24  C5  UNL     1      -0.171  52.156 -22.943  1.00  0.00     0.008 C 
BRANCH  24  25
HETATM   25  C4  UNL     1       0.196  52.979 -24.185  1.00  0.00     0.028 C 
BRANCH  25  26
HETATM   26  C3  UNL     1       1.077  52.196 -25.121  1.00  0.00    -0.022 C 
HETATM   27  C2  UNL     1       1.115  52.246 -26.468  1.00  0.00    -0.064 C 
HETATM   28  C1  UNL     1       0.227  53.107 -27.327  1.00  0.00     0.045 C 
BRANCH  27  29
HETATM   29  C27 UNL     1       2.104  51.408 -27.240  1.00  0.00     0.197 C 
BRANCH  29  30
HETATM   30  O9  UNL     1       3.335  52.109 -27.332  1.00  0.00    -0.397 OA
HETATM   31  H45 UNL     1       3.126  52.967 -27.741  1.00  0.00     0.209 HD
ENDBRANCH  29  30
ENDBRANCH  27  29
ENDBRANCH  25  26
ENDBRANCH  24  25
ENDBRANCH  22  24
ENDBRANCH   1  22
BRANCH   3  32
HETATM   32  O1  UNL     1      -4.691  49.907 -19.431  1.00  0.00    -0.246 OA
BRANCH  32  33
HETATM   33  S1  UNL     1      -5.804  48.961 -20.164  1.00  0.00     0.252 S 
HETATM   34  O2  UNL     1      -4.999  47.886 -20.753  1.00  0.00    -0.572 OA
HETATM   35  O3  UNL     1      -6.651  48.533 -19.058  1.00  0.00    -0.572 OA
HETATM   36  O4  UNL     1      -6.426  49.859 -21.128  1.00  0.00    -0.572 OA
ENDBRANCH  32  33
ENDBRANCH   3  32
BRANCH   4  37
HETATM   37  O5  UNL     1      -3.071  52.094 -18.899  1.00  0.00    -0.368 OA
HETATM   38  H17 UNL     1      -4.002  51.868 -18.689  1.00  0.00     0.212 HD
ENDBRANCH   4  37
BRANCH   5  39
HETATM   39  O6  UNL     1      -1.474  48.890 -18.086  1.00  0.00    -0.370 OA
HETATM   40  H18 UNL     1      -2.288  48.333 -18.209  1.00  0.00     0.212 HD
ENDBRANCH   5  39
BRANCH   7  41
HETATM   41  O7  UNL     1      -3.468  49.679 -14.465  1.00  0.00    -0.395 OA
HETATM   42  H22 UNL     1      -4.204  49.162 -14.847  1.00  0.00     0.210 HD
ENDBRANCH   7  41
BRANCH  10  43
HETATM   43  O8  UNL     1       1.550  50.183 -12.705  1.00  0.00    -0.396 OA
HETATM   44  H27 UNL     1       1.935  49.874 -13.541  1.00  0.00     0.210 HD
ENDBRANCH  10  43
TORSDOF 12
ENDMDL
MODEL 7
REMARK minimizedAffinity -8.71773434
REMARK CNNscore 0.263493747
REMARK CNNaffinity 6.33752584
REMARK  12 active torsions:
REMARK  status: ('A' for Active; 'I' for Inactive)
REMARK    1  A    between atoms: C2_2  and  C27_36 
REMARK    2  A    between atoms: C3_3  and  C4_4 
REMARK    3  A    between atoms: C4_4  and  C5_5 
REMARK    4  A    between atoms: C5_5  and  C6_6 
REMARK    5  A    between atoms: C6_6  and  C8_8 
REMARK    6  A    between atoms: C10_10  and  O1_11 
REMARK    7  A    between atoms: O1_11  and  S1_12 
REMARK    8  A    between atoms: C11_16  and  O5_17 
REMARK    9  A    between atoms: C12_18  and  O6_19 
REMARK   10  A    between atoms: C14_21  and  O7_22 
REMARK   11  A    between atoms: C17_25  and  O8_26 
REMARK   12  A    between atoms: C27_36  and  O9_37 
ROOT
HETATM    1  C8  UNL     1      -3.346  49.005 -24.129  1.00  0.00     0.005 C 
HETATM    2  C9  UNL     1      -2.247  49.692 -23.250  1.00  0.00     0.044 C 
HETATM    3  C10 UNL     1      -2.861  49.914 -21.856  1.00  0.00     0.201 C 
HETATM    4  C11 UNL     1      -3.995  48.879 -21.805  1.00  0.00     0.162 A 
HETATM    5  C12 UNL     1      -5.011  48.908 -20.615  1.00  0.00     0.139 A 
HETATM    6  C13 UNL     1      -4.406  48.435 -19.274  1.00  0.00     0.093 C 
HETATM    7  C14 UNL     1      -5.421  48.458 -18.129  1.00  0.00     0.127 C 
HETATM    8  C15 UNL     1      -6.593  47.516 -18.438  1.00  0.00     0.025 C 
HETATM    9  C16 UNL     1      -7.596  47.423 -17.272  1.00  0.00     0.039 C 
HETATM   10  C17 UNL     1      -8.730  46.429 -17.551  1.00  0.00     0.118 C 
HETATM   11  C18 UNL     1      -8.642  45.755 -18.917  1.00  0.00     0.032 C 
HETATM   12  C19 UNL     1      -8.335  46.701 -20.087  1.00  0.00     0.012 C 
HETATM   13  C20 UNL     1      -7.304  47.844 -19.788  1.00  0.00    -0.030 C 
HETATM   14  C21 UNL     1      -8.100  49.173 -19.695  1.00  0.00     0.016 C 
HETATM   15  C22 UNL     1      -6.204  47.917 -20.929  1.00  0.00     0.050 C 
HETATM   16  C23 UNL     1      -6.785  48.102 -22.352  1.00  0.00     0.011 C 
HETATM   17  C24 UNL     1      -5.704  48.041 -23.446  1.00  0.00     0.015 C 
HETATM   18  C25 UNL     1      -4.631  49.118 -23.227  1.00  0.00     0.013 C 
HETATM   19  C26 UNL     1      -5.288  50.514 -23.432  1.00  0.00     0.020 C 
HETATM   20 NA1  UNL     1      -4.399  48.792 -22.691  1.00  0.00    -0.358 Na
ATOM     21  HA1 UNL     1      -4.469  48.715 -23.706  1.00  0.00     0.159 HD
ENDROOT
BRANCH   1  22
HETATM   22  C6  UNL     1      -3.367  49.561 -25.584  1.00  0.00    -0.013 C 
HETATM   23  C7  UNL     1      -3.083  48.469 -26.624  1.00  0.00     0.010 C 
BRANCH  22  24
HETATM   24  C5  UNL     1      -2.334  50.710 -25.753  1.00  0.00     0.008 C 
BRANCH  24  25
HETATM   25  C4  UNL     1      -1.347  50.463 -26.901  1.00  0.00     0.028 C 
BRANCH  25  26
HETATM   26  C3  UNL     1       0.072  50.720 -26.469  1.00  0.00    -0.022 C 
HETATM   27  C2  UNL     1       0.962  51.581 -27.002  1.00  0.00    -0.064 C 
HETATM   28  C1  UNL     1       0.706  52.461 -28.197  1.00  0.00     0.045 C 
BRANCH  27  29
HETATM   29  C27 UNL     1       2.337  51.733 -26.401  1.00  0.00     0.197 C 
BRANCH  29  30
HETATM   30  O9  UNL     1       3.312  51.468 -27.399  1.00  0.00    -0.397 OA
HETATM   31  H45 UNL     1       3.115  50.578 -27.738  1.00  0.00     0.209 HD
ENDBRANCH  29  30
ENDBRANCH  27  29
ENDBRANCH  25  26
ENDBRANCH  24  25
ENDBRANCH  22  24
ENDBRANCH   1  22
BRANCH   3  32
HETATM   32  O1  UNL     1      -1.909  49.708 -20.835  1.00  0.00    -0.246 OA
BRANCH  32  33
HETATM   33  S1  UNL     1      -1.498  51.011 -19.939  1.00  0.00     0.252 S 
HETATM   34  O2  UNL     1      -0.475  50.486 -19.029  1.00  0.00    -0.572 OA
HETATM   35  O3  UNL     1      -0.986  51.945 -20.934  1.00  0.00    -0.572 OA
HETATM   36  O4  UNL     1      -2.752  51.390 -19.301  1.00  0.00    -0.572 OA
ENDBRANCH  32  33
ENDBRANCH   3  32
BRANCH   4  37
HETATM   37  O5  UNL     1      -3.378  47.558 -21.791  1.00  0.00    -0.368 OA
HETATM   38  H17 UNL     1      -2.602  47.643 -21.197  1.00  0.00     0.212 HD
ENDBRANCH   4  37
BRANCH   5  39
HETATM   39  O6  UNL     1      -5.478  50.246 -20.432  1.00  0.00    -0.370 OA
HETATM   40  H18 UNL     1      -4.734  50.771 -20.037  1.00  0.00     0.212 HD
ENDBRANCH   5  39
BRANCH   7  41
HETATM   41  O7  UNL     1      -4.764  48.008 -16.940  1.00  0.00    -0.395 OA
HETATM   42  H22 UNL     1      -4.000  48.603 -16.809  1.00  0.00     0.210 HD
ENDBRANCH   7  41
BRANCH  10  43
HETATM   43  O8  UNL     1     -10.000  47.063 -17.401  1.00  0.00    -0.396 OA
HETATM   44  H27 UNL     1     -10.108  47.692 -18.133  1.00  0.00     0.210 HD
ENDBRANCH  10  43
TORSDOF 12
ENDMDL
MODEL 8
REMARK minimizedAffinity -8.58565998
REMARK CNNscore 0.248664737
REMARK CNNaffinity 6.1326251
REMARK  12 active torsions:
REMARK  status: ('A' for Active; 'I' for Inactive)
REMARK    1  A    between atoms: C2_2  and  C27_36 
REMARK    2  A    between atoms: C3_3  and  C4_4 
REMARK    3  A    between atoms: C4_4  and  C5_5 
REMARK    4  A    between atoms: C5_5  and  C6_6 
REMARK    5  A    between atoms: C6_6  and  C8_8 
REMARK    6  A    between atoms: C10_10  and  O1_11 
REMARK    7  A    between atoms: O1_11  and  S1_12 
REMARK    8  A    between atoms: C11_16  and  O5_17 
REMARK    9  A    between atoms: C12_18  and  O6_19 
REMARK   10  A    between atoms: C14_21  and  O7_22 
REMARK   11  A    between atoms: C17_25  and  O8_26 
REMARK   12  A    between atoms: C27_36  and  O9_37 
ROOT
HETATM    1  C8  UNL     1      -2.350  50.438 -23.581  1.00  0.00     0.005 C 
HETATM    2  C9  UNL     1      -1.857  51.331 -22.392  1.00  0.00     0.044 C 
HETATM    3  C10 UNL     1      -2.899  51.196 -21.268  1.00  0.00     0.201 C 
HETATM    4  C11 UNL     1      -3.589  49.861 -21.588  1.00  0.00     0.162 A 
HETATM    5  C12 UNL     1      -4.866  49.442 -20.787  1.00  0.00     0.139 A 
HETATM    6  C13 UNL     1      -4.572  49.036 -19.325  1.00  0.00     0.093 C 
HETATM    7  C14 UNL     1      -5.832  48.615 -18.566  1.00  0.00     0.127 C 
HETATM    8  C15 UNL     1      -6.479  47.396 -19.239  1.00  0.00     0.025 C 
HETATM    9  C16 UNL     1      -7.696  46.869 -18.457  1.00  0.00     0.039 C 
HETATM   10  C17 UNL     1      -8.300  45.610 -19.090  1.00  0.00     0.118 C 
HETATM   11  C18 UNL     1      -7.588  45.151 -20.359  1.00  0.00     0.032 C 
HETATM   12  C19 UNL     1      -7.273  46.269 -21.364  1.00  0.00     0.012 C 
HETATM   13  C20 UNL     1      -6.817  47.635 -20.744  1.00  0.00    -0.030 C 
HETATM   14  C21 UNL     1      -7.995  48.633 -20.903  1.00  0.00     0.016 C 
HETATM   15  C22 UNL     1      -5.512  48.171 -21.472  1.00  0.00     0.050 C 
HETATM   16  C23 UNL     1      -5.665  48.323 -23.004  1.00  0.00     0.011 C 
HETATM   17  C24 UNL     1      -4.349  48.721 -23.695  1.00  0.00     0.015 C 
HETATM   18  C25 UNL     1      -3.809  50.047 -23.137  1.00  0.00     0.013 C 
HETATM   19  C26 UNL     1      -4.795  51.184 -23.534  1.00  0.00     0.020 C 
HETATM   20 NA1  UNL     1      -3.655  49.752 -22.558  1.00  0.00    -0.358 Na
ATOM     21  HA1 UNL     1      -3.387  49.770 -23.542  1.00  0.00     0.159 HD
ENDROOT
BRANCH   1  22
HETATM   22  C6  UNL     1      -2.114  51.118 -24.963  1.00  0.00    -0.013 C 
HETATM   23  C7  UNL     1      -3.420  51.633 -25.583  1.00  0.00     0.010 C 
BRANCH  22  24
HETATM   24  C5  UNL     1      -1.427  50.138 -25.953  1.00  0.00     0.008 C 
BRANCH  24  25
HETATM   25  C4  UNL     1      -0.109  50.685 -26.517  1.00  0.00     0.028 C 
BRANCH  25  26
HETATM   26  C3  UNL     1      -0.341  51.906 -27.368  1.00  0.00    -0.022 C 
HETATM   27  C2  UNL     1      -0.220  53.201 -27.016  1.00  0.00    -0.064 C 
HETATM   28  C1  UNL     1       0.156  53.694 -25.644  1.00  0.00     0.045 C 
BRANCH  27  29
HETATM   29  C27 UNL     1      -0.457  54.296 -28.027  1.00  0.00     0.197 C 
BRANCH  29  30
HETATM   30  O9  UNL     1      -1.818  54.273 -28.427  1.00  0.00    -0.397 OA
HETATM   31  H45 UNL     1      -1.986  53.374 -28.759  1.00  0.00     0.209 HD
ENDBRANCH  29  30
ENDBRANCH  27  29
ENDBRANCH  25  26
ENDBRANCH  24  25
ENDBRANCH  22  24
ENDBRANCH   1  22
BRANCH   3  32
HETATM   32  O1  UNL     1      -2.287  51.184 -19.996  1.00  0.00    -0.246 OA
BRANCH  32  33
HETATM   33  S1  UNL     1      -0.664  51.376 -19.961  1.00  0.00     0.252 S 
HETATM   34  O2  UNL     1      -0.363  51.443 -18.527  1.00  0.00    -0.572 OA
HETATM   35  O3  UNL     1      -0.176  50.169 -20.614  1.00  0.00    -0.572 OA
HETATM   36  O4  UNL     1      -0.456  52.620 -20.690  1.00  0.00    -0.572 OA
ENDBRANCH  32  33
ENDBRANCH   3  32
BRANCH   4  37
HETATM   37  O5  UNL     1      -2.606  48.804 -21.384  1.00  0.00    -0.368 OA
HETATM   38  H17 UNL     1      -2.119  49.060 -20.572  1.00  0.00     0.212 HD
ENDBRANCH   4  37
BRANCH   5  39
HETATM   39  O6  UNL     1      -5.780  50.540 -20.756  1.00  0.00    -0.370 OA
HETATM   40  H18 UNL     1      -5.405  51.224 -20.140  1.00  0.00     0.212 HD
ENDBRANCH   5  39
BRANCH   7  41
HETATM   41  O7  UNL     1      -5.455  48.263 -17.231  1.00  0.00    -0.395 OA
HETATM   42  H22 UNL     1      -5.005  49.048 -16.859  1.00  0.00     0.210 HD
ENDBRANCH   7  41
BRANCH  10  43
HETATM   43  O8  UNL     1      -9.690  45.797 -19.352  1.00  0.00    -0.396 OA
HETATM   44  H27 UNL     1      -9.774  46.438 -20.076  1.00  0.00     0.210 HD
ENDBRANCH  10  43
TORSDOF 12
ENDMDL
MODEL 9
REMARK minimizedAffinity -7.91229725
REMARK CNNscore 0.245990604
REMARK CNNaffinity 5.99893188
REMARK  12 active torsions:
REMARK  status: ('A' for Active; 'I' for Inactive)
REMARK    1  A    between atoms: C2_2  and  C27_36 
REMARK    2  A    between atoms: C3_3  and  C4_4 
REMARK    3  A    between atoms: C4_4  and  C5_5 
REMARK    4  A    between atoms: C5_5  and  C6_6 
REMARK    5  A    between atoms: C6_6  and  C8_8 
REMARK    6  A    between atoms: C10_10  and  O1_11 
REMARK    7  A    between atoms: O1_11  and  S1_12 
REMARK    8  A    between atoms: C11_16  and  O5_17 
REMARK    9  A    between atoms: C12_18  and  O6_19 
REMARK   10  A    between atoms: C14_21  and  O7_22 
REMARK   11  A    between atoms: C17_25  and  O8_26 
REMARK   12  A    between atoms: C27_36  and  O9_37 
ROOT
HETATM    1  C8  UNL     1      -3.566  50.163 -22.007  1.00  0.00     0.005 C 
HETATM    2  C9  UNL     1      -4.890  49.571 -21.415  1.00  0.00     0.044 C 
HETATM    3  C10 UNL     1      -4.585  49.149 -19.967  1.00  0.00     0.201 C 
HETATM    4  C11 UNL     1      -3.360  50.002 -19.604  1.00  0.00     0.162 A 
HETATM    5  C12 UNL     1      -2.600  49.729 -18.264  1.00  0.00     0.139 A 
HETATM    6  C13 UNL     1      -3.385  50.172 -17.008  1.00  0.00     0.093 C 
HETATM    7  C14 UNL     1      -2.618  49.909 -15.711  1.00  0.00     0.127 C 
HETATM    8  C15 UNL     1      -1.298  50.695 -15.704  1.00  0.00     0.025 C 
HETATM    9  C16 UNL     1      -0.532  50.546 -14.376  1.00  0.00     0.039 C 
HETATM   10  C17 UNL     1       0.750  51.386 -14.341  1.00  0.00     0.118 C 
HETATM   11  C18 UNL     1       1.009  52.176 -15.620  1.00  0.00     0.032 C 
HETATM   12  C19 UNL     1       0.814  51.383 -16.921  1.00  0.00     0.012 C 
HETATM   13  C20 UNL     1      -0.391  50.380 -16.934  1.00  0.00    -0.030 C 
HETATM   14  C21 UNL     1       0.198  48.947 -16.845  1.00  0.00     0.016 C 
HETATM   15  C22 UNL     1      -1.254  50.561 -18.253  1.00  0.00     0.050 C 
HETATM   16  C23 UNL     1      -0.442  50.412 -19.562  1.00  0.00     0.011 C 
HETATM   17  C24 UNL     1      -1.278  50.718 -20.817  1.00  0.00     0.015 C 
HETATM   18  C25 UNL     1      -2.501  49.792 -20.909  1.00  0.00     0.013 C 
HETATM   19  C26 UNL     1      -1.999  48.337 -21.143  1.00  0.00     0.020 C 
HETATM   20 NA1  UNL     1      -2.787  50.102 -20.391  1.00  0.00    -0.358 Na
ATOM     21  HA1 UNL     1      -2.516  50.252 -21.363  1.00  0.00     0.159 HD
ENDROOT
BRANCH   1  22
HETATM   22  C6  UNL     1      -3.340  49.730 -23.486  1.00  0.00    -0.013 C 
HETATM   23  C7  UNL     1      -2.423  48.504 -23.595  1.00  0.00     0.010 C 
BRANCH  22  24
HETATM   24  C5  UNL     1      -2.738  50.896 -24.319  1.00  0.00     0.008 C 
BRANCH  24  25
HETATM   25  C4  UNL     1      -1.209  50.823 -24.430  1.00  0.00     0.028 C 
BRANCH  25  26
HETATM   26  C3  UNL     1      -0.624  52.156 -24.815  1.00  0.00    -0.022 C 
HETATM   27  C2  UNL     1       0.174  52.958 -24.082  1.00  0.00    -0.064 C 
HETATM   28  C1  UNL     1       0.623  52.677 -22.673  1.00  0.00     0.045 C 
BRANCH  27  29
HETATM   29  C27 UNL     1       0.701  54.250 -24.657  1.00  0.00     0.197 C 
BRANCH  29  30
HETATM   30  O9  UNL     1       0.103  54.472 -25.925  1.00  0.00    -0.397 OA
HETATM   31  H45 UNL     1       0.300  53.682 -26.458  1.00  0.00     0.209 HD
ENDBRANCH  29  30
ENDBRANCH  27  29
ENDBRANCH  25  26
ENDBRANCH  24  25
ENDBRANCH  22  24
ENDBRANCH   1  22
BRANCH   3  32
HETATM   32  O1  UNL     1      -5.680  49.405 -19.114  1.00  0.00    -0.246 OA
BRANCH  32  33
HETATM   33  S1  UNL     1      -6.425  48.104 -18.463  1.00  0.00     0.252 S 
HETATM   34  O2  UNL     1      -7.528  48.695 -17.697  1.00  0.00    -0.572 OA
HETATM   35  O3  UNL     1      -6.852  47.350 -19.635  1.00  0.00    -0.572 OA
HETATM   36  O4  UNL     1      -5.381  47.486 -17.658  1.00  0.00    -0.572 OA
ENDBRANCH  32  33
ENDBRANCH   3  32
BRANCH   4  37
HETATM   37  O5  UNL     1      -3.797  51.392 -19.558  1.00  0.00    -0.368 OA
HETATM   38  H17 UNL     1      -4.676  51.371 -19.123  1.00  0.00     0.212 HD
ENDBRANCH   4  37
BRANCH   5  39
HETATM   39  O6  UNL     1      -2.349  48.328 -18.146  1.00  0.00    -0.370 OA
HETATM   40  H18 UNL     1      -3.216  47.884 -17.948  1.00  0.00     0.212 HD
ENDBRANCH   5  39
BRANCH   7  41
HETATM   41  O7  UNL     1      -3.426  50.349 -14.615  1.00  0.00    -0.395 OA
HETATM   42  H22 UNL     1      -4.271  49.862 -14.686  1.00  0.00     0.210 HD
ENDBRANCH   7  41
BRANCH  10  43
HETATM   43  O8  UNL     1       1.879  50.566 -14.038  1.00  0.00    -0.396 OA
HETATM   44  H27 UNL     1       2.044  49.990 -14.802  1.00  0.00     0.210 HD
ENDBRANCH  10  43
TORSDOF 12
ENDMDL
