MODEL 1
REMARK minimizedAffinity -7.41116762
REMARK CNNscore 0.35109964
REMARK CNNaffinity 7.75617647
REMARK  13 active torsions:
REMARK  status: ('A' for Active; 'I' for Inactive)
REMARK    1  A    between atoms: O1_2  and  C2_3 
REMARK    2  A    between atoms: C12_14  and  C13_15 
REMARK    3  A    between atoms: C13_15  and  C15_17 
REMARK    4  A    between atoms: C15_17  and  C16_18 
REMARK    5  A    between atoms: C17_19  and  C18_20 
REMARK    6  A    between atoms: C18_20  and  O3_23 
REMARK    7  A    between atoms: C28_31  and  O4_32 
REMARK    8  A    between atoms: O4_32  and  C29_33 
REMARK    9  A    between atoms: C30_35  and  C31_36 
REMARK   10  A    between atoms: C31_36  and  O6_37 
REMARK   11  A    between atoms: C32_38  and  O7_39 
REMARK   12  A    between atoms: C33_40  and  O8_41 
REMARK   13  A    between atoms: C34_42  and  O9_43 
ROOT
HETATM    1  C2  UNL     1      -7.882   6.509  16.230  1.00  0.00     0.270 C 
HETATM    2  O2  UNL     1      -9.126   6.315  15.514  1.00  0.00    -0.344 OA
HETATM    3  C3  UNL     1      -9.037   7.023  14.251  1.00  0.00     0.095 C 
HETATM    4  C4  UNL     1      -8.420   5.996  13.313  1.00  0.00     0.008 C 
HETATM    5  C5  UNL     1      -7.105   5.750  13.288  1.00  0.00    -0.021 C 
HETATM    6  C6  UNL     1      -6.168   6.406  14.269  1.00  0.00     0.030 C 
HETATM    7  C7  UNL     1      -6.929   7.352  15.309  1.00  0.00     0.024 C 
HETATM    8  C8  UNL     1      -5.913   8.145  16.194  1.00  0.00     0.016 C 
HETATM    9  C9  UNL     1      -4.651   8.698  15.507  1.00  0.00     0.011 C 
HETATM   10  C10 UNL     1      -3.944   7.610  14.691  1.00  0.00    -0.032 C 
HETATM   11  C11 UNL     1      -3.483   6.501  15.683  1.00  0.00     0.016 C 
HETATM   12  C12 UNL     1      -2.747   8.066  13.807  1.00  0.00    -0.002 C 
HETATM   13  C21 UNL     1      -2.656   6.945  12.737  1.00  0.00     0.006 C 
HETATM   14  C22 UNL     1      -4.007   6.185  12.770  1.00  0.00     0.011 C 
HETATM   15  C23 UNL     1      -4.947   7.098  13.585  1.00  0.00    -0.029 C 
HETATM   16  C24 UNL     1      -5.434   8.199  12.584  1.00  0.00     0.016 C 
HETATM   17  C25 UNL     1      -8.053   8.169  14.597  1.00  0.00     0.039 C 
HETATM   18  C26 UNL     1      -8.697   9.258  15.496  1.00  0.00     0.011 C 
HETATM   19  C27 UNL     1     -10.207   9.158  15.662  1.00  0.00     0.033 C 
HETATM   20  C28 UNL     1     -10.869   8.896  14.325  1.00  0.00     0.136 C 
HETATM   21  C35 UNL     1     -10.457   7.499  13.742  1.00  0.00     0.014 C 
HETATM   22  C36 UNL     1     -10.491   7.690  12.197  1.00  0.00     0.021 C 
HETATM   23  C37 UNL     1     -11.516   6.420  14.093  1.00  0.00     0.021 C 
ENDROOT
BRANCH  20  24
HETATM   24  O4  UNL     1     -12.299   8.959  14.410  1.00  0.00    -0.352 OA
BRANCH  24  25
HETATM   25  C29 UNL     1     -12.993   7.732  14.226  1.00  0.00     0.292 C 
HETATM   26  O5  UNL     1     -13.822   7.750  13.062  1.00  0.00    -0.348 OA
HETATM   27  C30 UNL     1     -15.059   8.474  13.167  1.00  0.00     0.179 C 
HETATM   28  C32 UNL     1     -15.172   9.370  14.412  1.00  0.00     0.180 C 
HETATM   29  C33 UNL     1     -14.908   8.549  15.683  1.00  0.00     0.183 C 
HETATM   30  C34 UNL     1     -13.851   7.450  15.474  1.00  0.00     0.204 C 
BRANCH  27  31
HETATM   31  C31 UNL     1     -15.265   9.283  11.877  1.00  0.00     0.198 C 
BRANCH  31  32
HETATM   32  O6  UNL     1     -15.948   8.539  10.875  1.00  0.00    -0.398 OA
HETATM   33  H48 UNL     1     -16.716   8.112  11.316  1.00  0.00     0.209 HD
ENDBRANCH  31  32
ENDBRANCH  27  31
BRANCH  28  34
HETATM   34  O7  UNL     1     -16.465   9.986  14.488  1.00  0.00    -0.390 OA
HETATM   35  H50 UNL     1     -16.975   9.428  15.118  1.00  0.00     0.210 HD
ENDBRANCH  28  34
BRANCH  29  36
HETATM   36  O8  UNL     1     -16.158   7.975  16.125  1.00  0.00    -0.390 OA
HETATM   37  H52 UNL     1     -15.973   7.022  16.277  1.00  0.00     0.210 HD
ENDBRANCH  29  36
BRANCH  30  38
HETATM   38  O9  UNL     1     -14.514   6.171  15.373  1.00  0.00    -0.388 OA
HETATM   39  H54 UNL     1     -14.709   6.022  14.426  1.00  0.00     0.210 HD
ENDBRANCH  30  38
ENDBRANCH  24  25
ENDBRANCH  20  24
BRANCH   1  40
HETATM   40  O1  UNL     1      -7.277   5.287  16.638  1.00  0.00    -0.365 OA
HETATM   41  C1  UNL     1      -7.863   4.163  15.998  1.00  0.00     0.204 C 
ENDBRANCH   1  40
BRANCH  12  42
HETATM   42  C13 UNL     1      -1.417   8.599  14.414  1.00  0.00    -0.010 C 
HETATM   43  C14 UNL     1      -1.723   9.336  15.734  1.00  0.00     0.010 C 
BRANCH  42  44
HETATM   44  C15 UNL     1      -0.427   9.446  13.583  1.00  0.00     0.031 C 
BRANCH  44  45
HETATM   45  C16 UNL     1       0.387   8.744  12.533  1.00  0.00    -0.027 C 
HETATM   46  C17 UNL     1      -0.039   8.514  11.278  1.00  0.00     0.006 C 
BRANCH  46  47
HETATM   47  C18 UNL     1       0.719   7.835  10.161  1.00  0.00     0.068 C 
HETATM   48  C19 UNL     1       2.246   7.937  10.243  1.00  0.00     0.050 C 
HETATM   49  C20 UNL     1       0.235   8.364   8.809  1.00  0.00     0.050 C 
BRANCH  47  50
HETATM   50  O3  UNL     1       0.376   6.449  10.228  1.00  0.00    -0.387 OA
HETATM   51  H30 UNL     1       0.598   6.147  11.127  1.00  0.00     0.211 HD
ENDBRANCH  47  50
ENDBRANCH  46  47
ENDBRANCH  44  45
ENDBRANCH  42  44
ENDBRANCH  12  42
TORSDOF 13
ENDMDL
MODEL 2
REMARK minimizedAffinity -7.79296398
REMARK CNNscore 0.282072902
REMARK CNNaffinity 6.62647963
REMARK  13 active torsions:
REMARK  status: ('A' for Active; 'I' for Inactive)
REMARK    1  A    between atoms: O1_2  and  C2_3 
REMARK    2  A    between atoms: C12_14  and  C13_15 
REMARK    3  A    between atoms: C13_15  and  C15_17 
REMARK    4  A    between atoms: C15_17  and  C16_18 
REMARK    5  A    between atoms: C17_19  and  C18_20 
REMARK    6  A    between atoms: C18_20  and  O3_23 
REMARK    7  A    between atoms: C28_31  and  O4_32 
REMARK    8  A    between atoms: O4_32  and  C29_33 
REMARK    9  A    between atoms: C30_35  and  C31_36 
REMARK   10  A    between atoms: C31_36  and  O6_37 
REMARK   11  A    between atoms: C32_38  and  O7_39 
REMARK   12  A    between atoms: C33_40  and  O8_41 
REMARK   13  A    between atoms: C34_42  and  O9_43 
ROOT
HETATM    1  C2  UNL     1      -7.553 -12.259   1.859  1.00  0.00     0.270 C 
HETATM    2  O2  UNL     1      -7.208 -12.364   0.455  1.00  0.00    -0.344 OA
HETATM    3  C3  UNL     1      -6.196 -11.368   0.161  1.00  0.00     0.095 C 
HETATM    4  C4  UNL     1      -4.892 -12.090   0.461  1.00  0.00     0.008 C 
HETATM    5  C5  UNL     1      -4.421 -12.227   1.707  1.00  0.00    -0.021 C 
HETATM    6  C6  UNL     1      -5.215 -11.760   2.899  1.00  0.00     0.030 C 
HETATM    7  C7  UNL     1      -6.636 -11.151   2.491  1.00  0.00     0.024 C 
HETATM    8  C8  UNL     1      -7.355 -10.523   3.730  1.00  0.00     0.016 C 
HETATM    9  C9  UNL     1      -6.490  -9.730   4.727  1.00  0.00     0.011 C 
HETATM   10  C10 UNL     1      -5.256 -10.535   5.151  1.00  0.00    -0.032 C 
HETATM   11  C11 UNL     1      -5.756 -11.813   5.886  1.00  0.00     0.016 C 
HETATM   12  C12 UNL     1      -4.205  -9.793   6.026  1.00  0.00    -0.002 C 
HETATM   13  C21 UNL     1      -2.908 -10.613   5.785  1.00  0.00     0.006 C 
HETATM   14  C22 UNL     1      -3.143 -11.455   4.505  1.00  0.00     0.011 C 
HETATM   15  C23 UNL     1      -4.401 -10.837   3.858  1.00  0.00    -0.029 C 
HETATM   16  C24 UNL     1      -3.898  -9.565   3.095  1.00  0.00     0.016 C 
HETATM   17  C25 UNL     1      -6.515 -10.271   1.207  1.00  0.00     0.039 C 
HETATM   18  C26 UNL     1      -7.808  -9.481   0.869  1.00  0.00     0.011 C 
HETATM   19  C27 UNL     1      -8.379  -9.728  -0.520  1.00  0.00     0.033 C 
HETATM   20  C28 UNL     1      -7.274  -9.707  -1.557  1.00  0.00     0.136 C 
HETATM   21  C35 UNL     1      -6.263 -10.888  -1.345  1.00  0.00     0.014 C 
HETATM   22  C36 UNL     1      -4.896 -10.333  -1.844  1.00  0.00     0.021 C 
HETATM   23  C37 UNL     1      -6.625 -12.094  -2.252  1.00  0.00     0.021 C 
ENDROOT
BRANCH  20  24
HETATM   24  O4  UNL     1      -7.787  -9.771  -2.894  1.00  0.00    -0.352 OA
BRANCH  24  25
HETATM   25  C29 UNL     1      -7.152  -8.933  -3.851  1.00  0.00     0.292 C 
HETATM   26  O5  UNL     1      -7.450  -7.551  -3.642  1.00  0.00    -0.348 OA
HETATM   27  C30 UNL     1      -8.749  -7.106  -4.064  1.00  0.00     0.179 C 
HETATM   28  C32 UNL     1      -9.735  -8.237  -4.402  1.00  0.00     0.180 C 
HETATM   29  C33 UNL     1      -9.118  -9.186  -5.440  1.00  0.00     0.183 C 
HETATM   30  C34 UNL     1      -7.598  -9.357  -5.263  1.00  0.00     0.204 C 
BRANCH  27  31
HETATM   31  C31 UNL     1      -9.322  -6.171  -2.986  1.00  0.00     0.198 C 
BRANCH  31  32
HETATM   32  O6  UNL     1      -9.899  -4.995  -3.541  1.00  0.00    -0.398 OA
HETATM   33  H48 UNL     1     -10.464  -5.286  -4.291  1.00  0.00     0.209 HD
ENDBRANCH  31  32
ENDBRANCH  27  31
BRANCH  28  34
HETATM   34  O7  UNL     1     -10.974  -7.710  -4.898  1.00  0.00    -0.390 OA
HETATM   35  H50 UNL     1     -10.906  -7.779  -5.877  1.00  0.00     0.210 HD
ENDBRANCH  28  34
BRANCH  29  36
HETATM   36  O8  UNL     1      -9.423  -8.682  -6.760  1.00  0.00    -0.390 OA
HETATM   37  H52 UNL     1      -8.568  -8.676  -7.244  1.00  0.00     0.210 HD
ENDBRANCH  29  36
BRANCH  30  38
HETATM   38  O9  UNL     1      -6.917  -8.589  -6.278  1.00  0.00    -0.388 OA
HETATM   39  H54 UNL     1      -6.757  -7.698  -5.907  1.00  0.00     0.210 HD
ENDBRANCH  30  38
ENDBRANCH  24  25
ENDBRANCH  20  24
BRANCH   1  40
HETATM   40  O1  UNL     1      -7.444 -13.495   2.553  1.00  0.00    -0.365 OA
HETATM   41  C1  UNL     1      -8.701 -13.956   3.024  1.00  0.00     0.204 C 
ENDBRANCH   1  40
BRANCH  12  42
HETATM   42  C13 UNL     1      -4.508  -9.327   7.479  1.00  0.00    -0.010 C 
HETATM   43  C14 UNL     1      -3.777 -10.254   8.471  1.00  0.00     0.010 C 
BRANCH  42  44
HETATM   44  C15 UNL     1      -5.955  -9.102   7.975  1.00  0.00     0.031 C 
BRANCH  44  45
HETATM   45  C16 UNL     1      -6.324  -9.645   9.326  1.00  0.00    -0.027 C 
HETATM   46  C17 UNL     1      -6.451  -8.889  10.432  1.00  0.00     0.006 C 
BRANCH  46  47
HETATM   47  C18 UNL     1      -6.836  -9.349  11.819  1.00  0.00     0.068 C 
HETATM   48  C19 UNL     1      -6.573 -10.829  12.120  1.00  0.00     0.050 C 
HETATM   49  C20 UNL     1      -8.305  -9.018  12.088  1.00  0.00     0.050 C 
BRANCH  47  50
HETATM   50  O3  UNL     1      -6.047  -8.579  12.730  1.00  0.00    -0.387 OA
HETATM   51  H30 UNL     1      -5.116  -8.722  12.486  1.00  0.00     0.211 HD
ENDBRANCH  47  50
ENDBRANCH  46  47
ENDBRANCH  44  45
ENDBRANCH  42  44
ENDBRANCH  12  42
TORSDOF 13
ENDMDL
MODEL 3
REMARK minimizedAffinity -7.65806723
REMARK CNNscore 0.236882135
REMARK CNNaffinity 6.16602659
REMARK  13 active torsions:
REMARK  status: ('A' for Active; 'I' for Inactive)
REMARK    1  A    between atoms: O1_2  and  C2_3 
REMARK    2  A    between atoms: C12_14  and  C13_15 
REMARK    3  A    between atoms: C13_15  and  C15_17 
REMARK    4  A    between atoms: C15_17  and  C16_18 
REMARK    5  A    between atoms: C17_19  and  C18_20 
REMARK    6  A    between atoms: C18_20  and  O3_23 
REMARK    7  A    between atoms: C28_31  and  O4_32 
REMARK    8  A    between atoms: O4_32  and  C29_33 
REMARK    9  A    between atoms: C30_35  and  C31_36 
REMARK   10  A    between atoms: C31_36  and  O6_37 
REMARK   11  A    between atoms: C32_38  and  O7_39 
REMARK   12  A    between atoms: C33_40  and  O8_41 
REMARK   13  A    between atoms: C34_42  and  O9_43 
ROOT
HETATM    1  C2  UNL     1     -11.562  -8.406  15.329  1.00  0.00     0.270 C 
HETATM    2  O2  UNL     1     -11.538  -8.618  13.896  1.00  0.00    -0.344 OA
HETATM    3  C3  UNL     1     -11.443 -10.044  13.649  1.00  0.00     0.095 C 
HETATM    4  C4  UNL     1     -12.895 -10.494  13.619  1.00  0.00     0.008 C 
HETATM    5  C5  UNL     1     -13.598 -10.716  14.735  1.00  0.00    -0.021 C 
HETATM    6  C6  UNL     1     -13.017 -10.429  16.096  1.00  0.00     0.030 C 
HETATM    7  C7  UNL     1     -11.541  -9.818  16.017  1.00  0.00     0.024 C 
HETATM    8  C8  UNL     1     -10.908  -9.696  17.442  1.00  0.00     0.016 C 
HETATM    9  C9  UNL     1     -11.161 -10.846  18.434  1.00  0.00     0.011 C 
HETATM   10  C10 UNL     1     -12.653 -11.186  18.518  1.00  0.00    -0.032 C 
HETATM   11  C11 UNL     1     -13.393  -9.931  19.067  1.00  0.00     0.016 C 
HETATM   12  C12 UNL     1     -13.038 -12.440  19.355  1.00  0.00    -0.002 C 
HETATM   13  C21 UNL     1     -14.427 -12.830  18.782  1.00  0.00     0.006 C 
HETATM   14  C22 UNL     1     -14.564 -12.112  17.414  1.00  0.00     0.011 C 
HETATM   15  C23 UNL     1     -13.135 -11.632  17.082  1.00  0.00    -0.029 C 
HETATM   16  C24 UNL     1     -12.395 -12.886  16.505  1.00  0.00     0.016 C 
HETATM   17  C25 UNL     1     -10.700 -10.537  14.916  1.00  0.00     0.039 C 
HETATM   18  C26 UNL     1      -9.199 -10.143  14.921  1.00  0.00     0.011 C 
HETATM   19  C27 UNL     1      -8.666  -9.589  13.607  1.00  0.00     0.033 C 
HETATM   20  C28 UNL     1      -9.147 -10.433  12.445  1.00  0.00     0.136 C 
HETATM   21  C35 UNL     1     -10.706 -10.358  12.285  1.00  0.00     0.014 C 
HETATM   22  C36 UNL     1     -11.112 -11.745  11.706  1.00  0.00     0.021 C 
HETATM   23  C37 UNL     1     -11.102  -9.289  11.231  1.00  0.00     0.021 C 
ENDROOT
BRANCH  20  24
HETATM   24  O4  UNL     1      -8.535 -10.045  11.207  1.00  0.00    -0.352 OA
BRANCH  24  25
HETATM   25  C29 UNL     1      -7.871  -8.788  11.201  1.00  0.00     0.292 C 
HETATM   26  O5  UNL     1      -7.570  -8.342   9.877  1.00  0.00    -0.348 OA
HETATM   27  C30 UNL     1      -6.455  -8.973   9.228  1.00  0.00     0.179 C 
HETATM   28  C32 UNL     1      -5.936 -10.239   9.931  1.00  0.00     0.180 C 
HETATM   29  C33 UNL     1      -5.612  -9.933  11.401  1.00  0.00     0.183 C 
HETATM   30  C34 UNL     1      -6.573  -8.904  12.022  1.00  0.00     0.204 C 
BRANCH  27  31
HETATM   31  C31 UNL     1      -6.839  -9.265   7.768  1.00  0.00     0.198 C 
BRANCH  31  32
HETATM   32  O6  UNL     1      -6.548  -8.172   6.904  1.00  0.00    -0.398 OA
HETATM   33  H48 UNL     1      -5.637  -7.874   7.123  1.00  0.00     0.209 HD
ENDBRANCH  31  32
ENDBRANCH  27  31
BRANCH  28  34
HETATM   34  O7  UNL     1      -4.772 -10.755   9.270  1.00  0.00    -0.390 OA
HETATM   35  H50 UNL     1      -4.012 -10.420   9.798  1.00  0.00     0.210 HD
ENDBRANCH  28  34
BRANCH  29  36
HETATM   36  O8  UNL     1      -4.246  -9.469  11.481  1.00  0.00    -0.390 OA
HETATM   37  H52 UNL     1      -4.279  -8.644  12.014  1.00  0.00     0.210 HD
ENDBRANCH  29  36
BRANCH  30  38
HETATM   38  O9  UNL     1      -5.900  -7.630  12.117  1.00  0.00    -0.388 OA
HETATM   39  H54 UNL     1      -6.081  -7.146  11.286  1.00  0.00     0.210 HD
ENDBRANCH  30  38
ENDBRANCH  24  25
ENDBRANCH  20  24
BRANCH   1  40
HETATM   40  O1  UNL     1     -12.670  -7.625  15.758  1.00  0.00    -0.365 OA
HETATM   41  C1  UNL     1     -12.512  -6.252  15.433  1.00  0.00     0.204 C 
ENDBRANCH   1  40
BRANCH  12  42
HETATM   42  C13 UNL     1     -12.846 -12.504  20.897  1.00  0.00    -0.010 C 
HETATM   43  C14 UNL     1     -14.226 -12.423  21.583  1.00  0.00     0.010 C 
BRANCH  42  44
HETATM   44  C15 UNL     1     -11.864 -11.565  21.635  1.00  0.00     0.031 C 
BRANCH  44  45
HETATM   45  C16 UNL     1     -10.728 -12.195  22.391  1.00  0.00    -0.027 C 
HETATM   46  C17 UNL     1      -9.568 -11.572  22.663  1.00  0.00     0.006 C 
BRANCH  46  47
HETATM   47  C18 UNL     1      -8.387 -12.122  23.430  1.00  0.00     0.068 C 
HETATM   48  C19 UNL     1      -8.669 -12.504  24.888  1.00  0.00     0.050 C 
HETATM   49  C20 UNL     1      -7.221 -11.134  23.368  1.00  0.00     0.050 C 
BRANCH  47  50
HETATM   50  O3  UNL     1      -7.982 -13.310  22.746  1.00  0.00    -0.387 OA
HETATM   51  H30 UNL     1      -8.762 -13.891  22.705  1.00  0.00     0.211 HD
ENDBRANCH  47  50
ENDBRANCH  46  47
ENDBRANCH  44  45
ENDBRANCH  42  44
ENDBRANCH  12  42
TORSDOF 13
ENDMDL
MODEL 4
REMARK minimizedAffinity -7.48312902
REMARK CNNscore 0.236873761
REMARK CNNaffinity 6.34275866
REMARK  13 active torsions:
REMARK  status: ('A' for Active; 'I' for Inactive)
REMARK    1  A    between atoms: O1_2  and  C2_3 
REMARK    2  A    between atoms: C12_14  and  C13_15 
REMARK    3  A    between atoms: C13_15  and  C15_17 
REMARK    4  A    between atoms: C15_17  and  C16_18 
REMARK    5  A    between atoms: C17_19  and  C18_20 
REMARK    6  A    between atoms: C18_20  and  O3_23 
REMARK    7  A    between atoms: C28_31  and  O4_32 
REMARK    8  A    between atoms: O4_32  and  C29_33 
REMARK    9  A    between atoms: C30_35  and  C31_36 
REMARK   10  A    between atoms: C31_36  and  O6_37 
REMARK   11  A    between atoms: C32_38  and  O7_39 
REMARK   12  A    between atoms: C33_40  and  O8_41 
REMARK   13  A    between atoms: C34_42  and  O9_43 
ROOT
HETATM    1  C2  UNL     1      -8.479 -12.157   5.113  1.00  0.00     0.270 C 
HETATM    2  O2  UNL     1      -9.059 -11.909   6.417  1.00  0.00    -0.344 OA
HETATM    3  C3  UNL     1      -9.450 -10.513   6.482  1.00  0.00     0.095 C 
HETATM    4  C4  UNL     1     -10.867 -10.517   5.931  1.00  0.00     0.008 C 
HETATM    5  C5  UNL     1     -11.124 -10.546   4.618  1.00  0.00    -0.021 C 
HETATM    6  C6  UNL     1     -10.015 -10.684   3.607  1.00  0.00     0.030 C 
HETATM    7  C7  UNL     1      -8.575 -10.823   4.289  1.00  0.00     0.024 C 
HETATM    8  C8  UNL     1      -7.440 -10.789   3.215  1.00  0.00     0.016 C 
HETATM    9  C9  UNL     1      -7.592  -9.794   2.049  1.00  0.00     0.011 C 
HETATM   10  C10 UNL     1      -8.972  -9.919   1.393  1.00  0.00    -0.032 C 
HETATM   11  C11 UNL     1      -9.084 -11.352   0.796  1.00  0.00     0.016 C 
HETATM   12  C12 UNL     1      -9.329  -8.860   0.310  1.00  0.00    -0.002 C 
HETATM   13  C21 UNL     1     -10.882  -8.888   0.291  1.00  0.00     0.006 C 
HETATM   14  C22 UNL     1     -11.331  -9.576   1.606  1.00  0.00     0.011 C 
HETATM   15  C23 UNL     1     -10.064  -9.598   2.488  1.00  0.00    -0.029 C 
HETATM   16  C24 UNL     1      -9.964  -8.165   3.111  1.00  0.00     0.016 C 
HETATM   17  C25 UNL     1      -8.441  -9.855   5.507  1.00  0.00     0.039 C 
HETATM   18  C26 UNL     1      -7.005  -9.783   6.091  1.00  0.00     0.011 C 
HETATM   19  C27 UNL     1      -6.885 -10.115   7.572  1.00  0.00     0.033 C 
HETATM   20  C28 UNL     1      -7.979  -9.423   8.359  1.00  0.00     0.136 C 
HETATM   21  C35 UNL     1      -9.401  -9.956   7.962  1.00  0.00     0.014 C 
HETATM   22  C36 UNL     1     -10.350  -8.739   8.161  1.00  0.00     0.021 C 
HETATM   23  C37 UNL     1      -9.867 -11.066   8.943  1.00  0.00     0.021 C 
ENDROOT
BRANCH  20  24
HETATM   24  O4  UNL     1      -7.805  -9.576   9.774  1.00  0.00    -0.352 OA
BRANCH  24  25
HETATM   25  C29 UNL     1      -6.478  -9.818  10.221  1.00  0.00     0.292 C 
HETATM   26  O5  UNL     1      -6.357 -11.067  10.905  1.00  0.00    -0.348 OA
HETATM   27  C30 UNL     1      -6.855 -11.110  12.251  1.00  0.00     0.179 C 
HETATM   28  C32 UNL     1      -7.712  -9.898  12.656  1.00  0.00     0.180 C 
HETATM   29  C33 UNL     1      -6.943  -8.594  12.398  1.00  0.00     0.183 C 
HETATM   30  C34 UNL     1      -6.045  -8.668  11.150  1.00  0.00     0.204 C 
BRANCH  27  31
HETATM   31  C31 UNL     1      -7.623 -12.427  12.449  1.00  0.00     0.198 C 
BRANCH  31  32
HETATM   32  O6  UNL     1      -8.264 -12.863  11.256  1.00  0.00    -0.398 OA
HETATM   33  H48 UNL     1      -7.600 -12.784  10.535  1.00  0.00     0.209 HD
ENDBRANCH  31  32
ENDBRANCH  27  31
BRANCH  28  34
HETATM   34  O7  UNL     1      -8.094  -9.975  14.037  1.00  0.00    -0.390 OA
HETATM   35  H50 UNL     1      -7.454  -9.398  14.510  1.00  0.00     0.210 HD
ENDBRANCH  28  34
BRANCH  29  36
HETATM   36  O8  UNL     1      -6.159  -8.285  13.572  1.00  0.00    -0.390 OA
HETATM   37  H52 UNL     1      -5.252  -8.100  13.243  1.00  0.00     0.210 HD
ENDBRANCH  29  36
BRANCH  30  38
HETATM   38  O9  UNL     1      -4.671  -8.824  11.568  1.00  0.00    -0.388 OA
HETATM   39  H54 UNL     1      -4.495  -9.784  11.627  1.00  0.00     0.210 HD
ENDBRANCH  30  38
ENDBRANCH  24  25
ENDBRANCH  20  24
BRANCH   1  40
HETATM   40  O1  UNL     1      -9.088 -13.245   4.430  1.00  0.00    -0.365 OA
HETATM   41  C1  UNL     1      -8.198 -14.339   4.269  1.00  0.00     0.204 C 
ENDBRANCH   1  40
BRANCH  12  42
HETATM   42  C13 UNL     1      -8.589  -8.784  -1.057  1.00  0.00    -0.010 C 
HETATM   43  C14 UNL     1      -7.209  -9.459  -0.923  1.00  0.00     0.010 C 
BRANCH  42  44
HETATM   44  C15 UNL     1      -8.424  -7.448  -1.817  1.00  0.00     0.031 C 
BRANCH  44  45
HETATM   45  C16 UNL     1      -8.206  -7.510  -3.302  1.00  0.00    -0.027 C 
HETATM   46  C17 UNL     1      -9.177  -7.324  -4.214  1.00  0.00     0.006 C 
BRANCH  46  47
HETATM   47  C18 UNL     1      -9.042  -7.350  -5.719  1.00  0.00     0.068 C 
HETATM   48  C19 UNL     1      -9.407  -6.047  -6.437  1.00  0.00     0.050 C 
HETATM   49  C20 UNL     1      -9.861  -8.507  -6.295  1.00  0.00     0.050 C 
BRANCH  47  50
HETATM   50  O3  UNL     1      -7.664  -7.620  -5.993  1.00  0.00    -0.387 OA
HETATM   51  H30 UNL     1      -7.147  -6.931  -5.539  1.00  0.00     0.211 HD
ENDBRANCH  47  50
ENDBRANCH  46  47
ENDBRANCH  44  45
ENDBRANCH  42  44
ENDBRANCH  12  42
TORSDOF 13
ENDMDL
MODEL 5
REMARK minimizedAffinity -8.09115124
REMARK CNNscore 0.20170249
REMARK CNNaffinity 6.09208679
REMARK  13 active torsions:
REMARK  status: ('A' for Active; 'I' for Inactive)
REMARK    1  A    between atoms: O1_2  and  C2_3 
REMARK    2  A    between atoms: C12_14  and  C13_15 
REMARK    3  A    between atoms: C13_15  and  C15_17 
REMARK    4  A    between atoms: C15_17  and  C16_18 
REMARK    5  A    between atoms: C17_19  and  C18_20 
REMARK    6  A    between atoms: C18_20  and  O3_23 
REMARK    7  A    between atoms: C28_31  and  O4_32 
REMARK    8  A    between atoms: O4_32  and  C29_33 
REMARK    9  A    between atoms: C30_35  and  C31_36 
REMARK   10  A    between atoms: C31_36  and  O6_37 
REMARK   11  A    between atoms: C32_38  and  O7_39 
REMARK   12  A    between atoms: C33_40  and  O8_41 
REMARK   13  A    between atoms: C34_42  and  O9_43 
ROOT
HETATM    1  C2  UNL     1       3.235  10.212  20.338  1.00  0.00     0.270 C 
HETATM    2  O2  UNL     1       4.291  10.877  21.074  1.00  0.00    -0.344 OA
HETATM    3  C3  UNL     1       4.390  12.242  20.591  1.00  0.00     0.095 C 
HETATM    4  C4  UNL     1       3.402  12.999  21.465  1.00  0.00     0.008 C 
HETATM    5  C5  UNL     1       2.085  12.991  21.227  1.00  0.00    -0.021 C 
HETATM    6  C6  UNL     1       1.494  12.141  20.132  1.00  0.00     0.030 C 
HETATM    7  C7  UNL     1       2.594  11.268  19.368  1.00  0.00     0.024 C 
HETATM    8  C8  UNL     1       1.972  10.535  18.135  1.00  0.00     0.016 C 
HETATM    9  C9  UNL     1       0.952  11.314  17.284  1.00  0.00     0.011 C 
HETATM   10  C10 UNL     1      -0.136  11.941  18.163  1.00  0.00    -0.032 C 
HETATM   11  C11 UNL     1      -0.905  10.781  18.862  1.00  0.00     0.016 C 
HETATM   12  C12 UNL     1      -1.140  12.897  17.457  1.00  0.00    -0.002 C 
HETATM   13  C21 UNL     1      -1.679  13.766  18.626  1.00  0.00     0.006 C 
HETATM   14  C22 UNL     1      -0.683  13.597  19.803  1.00  0.00     0.011 C 
HETATM   15  C23 UNL     1       0.561  12.939  19.168  1.00  0.00    -0.029 C 
HETATM   16  C24 UNL     1       1.352  14.107  18.487  1.00  0.00     0.016 C 
HETATM   17  C25 UNL     1       3.894  12.099  19.130  1.00  0.00     0.039 C 
HETATM   18  C26 UNL     1       4.928  11.390  18.215  1.00  0.00     0.011 C 
HETATM   19  C27 UNL     1       6.312  11.199  18.819  1.00  0.00     0.033 C 
HETATM   20  C28 UNL     1       6.767  12.469  19.509  1.00  0.00     0.136 C 
HETATM   21  C35 UNL     1       5.858  12.814  20.740  1.00  0.00     0.014 C 
HETATM   22  C36 UNL     1       5.874  14.368  20.822  1.00  0.00     0.021 C 
HETATM   23  C37 UNL     1       6.485  12.280  22.056  1.00  0.00     0.021 C 
ENDROOT
BRANCH  20  24
HETATM   24  O4  UNL     1       8.129  12.386  19.948  1.00  0.00    -0.352 OA
BRANCH  24  25
HETATM   25  C29 UNL     1       9.046  13.276  19.323  1.00  0.00     0.292 C 
HETATM   26  O5  UNL     1       9.483  12.794  18.050  1.00  0.00    -0.348 OA
HETATM   27  C30 UNL     1      10.461  11.742  18.066  1.00  0.00     0.179 C 
HETATM   28  C32 UNL     1      10.673  11.085  19.440  1.00  0.00     0.180 C 
HETATM   29  C33 UNL     1      11.001  12.152  20.494  1.00  0.00     0.183 C 
HETATM   30  C34 UNL     1      10.259  13.479  20.250  1.00  0.00     0.204 C 
BRANCH  27  31
HETATM   31  C31 UNL     1      10.078  10.700  17.002  1.00  0.00     0.198 C 
BRANCH  31  32
HETATM   32  O6  UNL     1       9.843   9.414  17.565  1.00  0.00    -0.398 OA
HETATM   33  H48 UNL     1       9.266   9.552  18.350  1.00  0.00     0.209 HD
ENDBRANCH  31  32
ENDBRANCH  27  31
BRANCH  28  34
HETATM   34  O7  UNL     1      11.724  10.110  19.388  1.00  0.00    -0.390 OA
HETATM   35  H50 UNL     1      12.518  10.574  19.737  1.00  0.00     0.210 HD
ENDBRANCH  28  34
BRANCH  29  36
HETATM   36  O8  UNL     1      12.430  12.362  20.503  1.00  0.00    -0.390 OA
HETATM   37  H52 UNL     1      12.554  13.335  20.451  1.00  0.00     0.210 HD
ENDBRANCH  29  36
BRANCH  30  38
HETATM   38  O9  UNL     1      11.184  14.440  19.696  1.00  0.00    -0.388 OA
HETATM   39  H54 UNL     1      11.140  14.354  18.723  1.00  0.00     0.210 HD
ENDBRANCH  30  38
ENDBRANCH  24  25
ENDBRANCH  20  24
BRANCH   1  40
HETATM   40  O1  UNL     1       2.261   9.610  21.182  1.00  0.00    -0.365 OA
HETATM   41  C1  UNL     1       2.822   9.161  22.407  1.00  0.00     0.204 C 
ENDBRANCH   1  40
BRANCH  12  42
HETATM   42  C13 UNL     1      -2.162  12.397  16.395  1.00  0.00    -0.010 C 
HETATM   43  C14 UNL     1      -2.239  13.423  15.245  1.00  0.00     0.010 C 
BRANCH  42  44
HETATM   44  C15 UNL     1      -3.596  11.971  16.785  1.00  0.00     0.031 C 
BRANCH  44  45
HETATM   45  C16 UNL     1      -4.012  10.559  16.487  1.00  0.00    -0.027 C 
HETATM   46  C17 UNL     1      -4.507  10.153  15.304  1.00  0.00     0.006 C 
BRANCH  46  47
HETATM   47  C18 UNL     1      -4.930   8.755  14.915  1.00  0.00     0.068 C 
HETATM   48  C19 UNL     1      -4.513   8.306  13.511  1.00  0.00     0.050 C 
HETATM   49  C20 UNL     1      -6.444   8.605  15.080  1.00  0.00     0.050 C 
BRANCH  47  50
HETATM   50  O3  UNL     1      -4.306   7.873  15.851  1.00  0.00    -0.387 OA
HETATM   51  H30 UNL     1      -3.349   8.047  15.808  1.00  0.00     0.211 HD
ENDBRANCH  47  50
ENDBRANCH  46  47
ENDBRANCH  44  45
ENDBRANCH  42  44
ENDBRANCH  12  42
TORSDOF 13
ENDMDL
MODEL 6
REMARK minimizedAffinity -7.48905325
REMARK CNNscore 0.198609427
REMARK CNNaffinity 6.07147169
REMARK  13 active torsions:
REMARK  status: ('A' for Active; 'I' for Inactive)
REMARK    1  A    between atoms: O1_2  and  C2_3 
REMARK    2  A    between atoms: C12_14  and  C13_15 
REMARK    3  A    between atoms: C13_15  and  C15_17 
REMARK    4  A    between atoms: C15_17  and  C16_18 
REMARK    5  A    between atoms: C17_19  and  C18_20 
REMARK    6  A    between atoms: C18_20  and  O3_23 
REMARK    7  A    between atoms: C28_31  and  O4_32 
REMARK    8  A    between atoms: O4_32  and  C29_33 
REMARK    9  A    between atoms: C30_35  and  C31_36 
REMARK   10  A    between atoms: C31_36  and  O6_37 
REMARK   11  A    between atoms: C32_38  and  O7_39 
REMARK   12  A    between atoms: C33_40  and  O8_41 
REMARK   13  A    between atoms: C34_42  and  O9_43 
ROOT
HETATM    1  C2  UNL     1       2.293  10.396  17.807  1.00  0.00     0.270 C 
HETATM    2  O2  UNL     1       2.948  10.240  19.090  1.00  0.00    -0.344 OA
HETATM    3  C3  UNL     1       2.496  11.308  19.962  1.00  0.00     0.095 C 
HETATM    4  C4  UNL     1       1.247  10.731  20.610  1.00  0.00     0.008 C 
HETATM    5  C5  UNL     1       0.062  10.714  19.989  1.00  0.00    -0.021 C 
HETATM    6  C6  UNL     1      -0.078  11.174  18.560  1.00  0.00     0.030 C 
HETATM    7  C7  UNL     1       1.316  11.621  17.918  1.00  0.00     0.024 C 
HETATM    8  C8  UNL     1       1.106  12.251  16.502  1.00  0.00     0.016 C 
HETATM    9  C9  UNL     1      -0.108  13.180  16.310  1.00  0.00     0.011 C 
HETATM   10  C10 UNL     1      -1.394  12.522  16.821  1.00  0.00    -0.032 C 
HETATM   11  C11 UNL     1      -1.646  11.248  15.962  1.00  0.00     0.016 C 
HETATM   12  C12 UNL     1      -2.671  13.410  16.845  1.00  0.00    -0.002 C 
HETATM   13  C21 UNL     1      -3.570  12.703  17.896  1.00  0.00     0.006 C 
HETATM   14  C22 UNL     1      -2.645  11.768  18.717  1.00  0.00     0.011 C 
HETATM   15  C23 UNL     1      -1.214  12.226  18.361  1.00  0.00    -0.029 C 
HETATM   16  C24 UNL     1      -0.947  13.491  19.244  1.00  0.00     0.016 C 
HETATM   17  C25 UNL     1       2.167  12.431  18.946  1.00  0.00     0.039 C 
HETATM   18  C26 UNL     1       3.440  13.074  18.333  1.00  0.00     0.011 C 
HETATM   19  C27 UNL     1       4.752  12.692  19.004  1.00  0.00     0.033 C 
HETATM   20  C28 UNL     1       4.612  12.755  20.511  1.00  0.00     0.136 C 
HETATM   21  C35 UNL     1       3.589  11.690  21.040  1.00  0.00     0.014 C 
HETATM   22  C36 UNL     1       2.960  12.340  22.307  1.00  0.00     0.021 C 
HETATM   23  C37 UNL     1       4.324  10.403  21.504  1.00  0.00     0.021 C 
ENDROOT
BRANCH  20  24
HETATM   24  O4  UNL     1       5.867  12.564  21.177  1.00  0.00    -0.352 OA
BRANCH  24  25
HETATM   25  C29 UNL     1       6.497  13.736  21.679  1.00  0.00     0.292 C 
HETATM   26  O5  UNL     1       7.450  14.273  20.759  1.00  0.00    -0.348 OA
HETATM   27  C30 UNL     1       8.711  13.591  20.673  1.00  0.00     0.179 C 
HETATM   28  C32 UNL     1       8.742  12.214  21.358  1.00  0.00     0.180 C 
HETATM   29  C33 UNL     1       8.286  12.338  22.819  1.00  0.00     0.183 C 
HETATM   30  C34 UNL     1       7.189  13.400  23.014  1.00  0.00     0.204 C 
BRANCH  27  31
HETATM   31  C31 UNL     1       9.112  13.486  19.193  1.00  0.00     0.198 C 
BRANCH  31  32
HETATM   32  O6  UNL     1      10.521  13.391  19.020  1.00  0.00    -0.398 OA
HETATM   33  H48 UNL     1      10.839  12.720  19.664  1.00  0.00     0.209 HD
ENDBRANCH  31  32
ENDBRANCH  27  31
BRANCH  28  34
HETATM   34  O7  UNL     1      10.057  11.641  21.303  1.00  0.00    -0.390 OA
HETATM   35  H50 UNL     1      10.456  11.838  22.181  1.00  0.00     0.210 HD
ENDBRANCH  28  34
BRANCH  29  36
HETATM   36  O8  UNL     1       9.440  12.641  23.635  1.00  0.00    -0.390 OA
HETATM   37  H52 UNL     1       9.177  13.409  24.189  1.00  0.00     0.210 HD
ENDBRANCH  29  36
BRANCH  30  38
HETATM   38  O9  UNL     1       7.776  14.579  23.608  1.00  0.00    -0.388 OA
HETATM   39  H54 UNL     1       8.065  15.158  22.874  1.00  0.00     0.210 HD
ENDBRANCH  30  38
ENDBRANCH  24  25
ENDBRANCH  20  24
BRANCH   1  40
HETATM   40  O1  UNL     1       1.619   9.219  17.379  1.00  0.00    -0.365 OA
HETATM   41  C1  UNL     1       2.255   8.616  16.263  1.00  0.00     0.204 C 
ENDBRANCH   1  40
BRANCH  12  42
HETATM   42  C13 UNL     1      -3.349  13.931  15.545  1.00  0.00    -0.010 C 
HETATM   43  C14 UNL     1      -2.331  13.880  14.388  1.00  0.00     0.010 C 
BRANCH  42  44
HETATM   44  C15 UNL     1      -4.090  15.288  15.503  1.00  0.00     0.031 C 
BRANCH  44  45
HETATM   45  C16 UNL     1      -5.574  15.283  15.739  1.00  0.00    -0.027 C 
HETATM   46  C17 UNL     1      -6.343  14.181  15.678  1.00  0.00     0.006 C 
BRANCH  46  47
HETATM   47  C18 UNL     1      -7.832  14.086  15.920  1.00  0.00     0.068 C 
HETATM   48  C19 UNL     1      -8.715  14.787  14.882  1.00  0.00     0.050 C 
HETATM   49  C20 UNL     1      -8.165  14.603  17.320  1.00  0.00     0.050 C 
BRANCH  47  50
HETATM   50  O3  UNL     1      -8.154  12.693  15.887  1.00  0.00    -0.387 OA
HETATM   51  H30 UNL     1      -7.848  12.353  15.028  1.00  0.00     0.211 HD
ENDBRANCH  47  50
ENDBRANCH  46  47
ENDBRANCH  44  45
ENDBRANCH  42  44
ENDBRANCH  12  42
TORSDOF 13
ENDMDL
MODEL 7
REMARK minimizedAffinity -7.78621864
REMARK CNNscore 0.171978667
REMARK CNNaffinity 6.57423019
REMARK  13 active torsions:
REMARK  status: ('A' for Active; 'I' for Inactive)
REMARK    1  A    between atoms: O1_2  and  C2_3 
REMARK    2  A    between atoms: C12_14  and  C13_15 
REMARK    3  A    between atoms: C13_15  and  C15_17 
REMARK    4  A    between atoms: C15_17  and  C16_18 
REMARK    5  A    between atoms: C17_19  and  C18_20 
REMARK    6  A    between atoms: C18_20  and  O3_23 
REMARK    7  A    between atoms: C28_31  and  O4_32 
REMARK    8  A    between atoms: O4_32  and  C29_33 
REMARK    9  A    between atoms: C30_35  and  C31_36 
REMARK   10  A    between atoms: C31_36  and  O6_37 
REMARK   11  A    between atoms: C32_38  and  O7_39 
REMARK   12  A    between atoms: C33_40  and  O8_41 
REMARK   13  A    between atoms: C34_42  and  O9_43 
ROOT
HETATM    1  C2  UNL     1      -0.346  10.687  16.463  1.00  0.00     0.270 C 
HETATM    2  O2  UNL     1      -1.288  11.589  17.094  1.00  0.00    -0.344 OA
HETATM    3  C3  UNL     1      -2.557  11.478  16.400  1.00  0.00     0.095 C 
HETATM    4  C4  UNL     1      -3.262  10.345  17.131  1.00  0.00     0.008 C 
HETATM    5  C5  UNL     1      -2.993   9.058  16.883  1.00  0.00    -0.021 C 
HETATM    6  C6  UNL     1      -1.894   8.657  15.933  1.00  0.00     0.030 C 
HETATM    7  C7  UNL     1      -1.113   9.916  15.330  1.00  0.00     0.024 C 
HETATM    8  C8  UNL     1      -0.102   9.471  14.224  1.00  0.00     0.016 C 
HETATM    9  C9  UNL     1      -0.553   8.367  13.248  1.00  0.00     0.011 C 
HETATM   10  C10 UNL     1      -1.115   7.158  14.004  1.00  0.00    -0.032 C 
HETATM   11  C11 UNL     1       0.035   6.568  14.871  1.00  0.00     0.016 C 
HETATM   12  C12 UNL     1      -1.764   6.036  13.143  1.00  0.00    -0.002 C 
HETATM   13  C21 UNL     1      -2.700   5.318  14.153  1.00  0.00     0.006 C 
HETATM   14  C22 UNL     1      -2.889   6.283  15.352  1.00  0.00     0.011 C 
HETATM   15  C23 UNL     1      -2.362   7.642  14.844  1.00  0.00    -0.029 C 
HETATM   16  C24 UNL     1      -3.526   8.252  13.993  1.00  0.00     0.016 C 
HETATM   17  C25 UNL     1      -2.106  11.067  14.976  1.00  0.00     0.039 C 
HETATM   18  C26 UNL     1      -1.449  12.238  14.196  1.00  0.00     0.011 C 
HETATM   19  C27 UNL     1      -1.594  13.611  14.838  1.00  0.00     0.033 C 
HETATM   20  C28 UNL     1      -3.014  13.822  15.320  1.00  0.00     0.136 C 
HETATM   21  C35 UNL     1      -3.387  12.823  16.471  1.00  0.00     0.014 C 
HETATM   22  C36 UNL     1      -4.915  12.577  16.303  1.00  0.00     0.021 C 
HETATM   23  C37 UNL     1      -3.179  13.480  17.862  1.00  0.00     0.021 C 
ENDROOT
BRANCH  20  24
HETATM   24  O4  UNL     1      -3.234  15.162  15.781  1.00  0.00    -0.352 OA
BRANCH  24  25
HETATM   25  C29 UNL     1      -4.117  15.957  15.000  1.00  0.00     0.292 C 
HETATM   26  O5  UNL     1      -3.615  16.186  13.681  1.00  0.00    -0.348 OA
HETATM   27  C30 UNL     1      -2.568  17.162  13.555  1.00  0.00     0.179 C 
HETATM   28  C32 UNL     1      -1.936  17.599  14.888  1.00  0.00     0.180 C 
HETATM   29  C33 UNL     1      -3.024  18.086  15.856  1.00  0.00     0.183 C 
HETATM   30  C34 UNL     1      -4.343  17.304  15.714  1.00  0.00     0.204 C 
BRANCH  27  31
HETATM   31  C31 UNL     1      -1.505  16.619  12.586  1.00  0.00     0.198 C 
BRANCH  31  32
HETATM   32  O6  UNL     1      -1.795  15.295  12.152  1.00  0.00    -0.398 OA
HETATM   33  H48 UNL     1      -2.744  15.284  11.898  1.00  0.00     0.209 HD
ENDBRANCH  31  32
ENDBRANCH  27  31
BRANCH  28  34
HETATM   34  O7  UNL     1      -0.966  18.636  14.682  1.00  0.00    -0.390 OA
HETATM   35  H50 UNL     1      -1.441  19.472  14.890  1.00  0.00     0.210 HD
ENDBRANCH  28  34
BRANCH  29  36
HETATM   36  O8  UNL     1      -3.242  19.496  15.629  1.00  0.00    -0.390 OA
HETATM   37  H52 UNL     1      -4.214  19.602  15.541  1.00  0.00     0.210 HD
ENDBRANCH  29  36
BRANCH  30  38
HETATM   38  O9  UNL     1      -5.298  18.118  15.001  1.00  0.00    -0.388 OA
HETATM   39  H54 UNL     1      -5.195  17.918  14.050  1.00  0.00     0.210 HD
ENDBRANCH  30  38
ENDBRANCH  24  25
ENDBRANCH  20  24
BRANCH   1  40
HETATM   40  O1  UNL     1       0.273   9.796  17.383  1.00  0.00    -0.365 OA
HETATM   41  C1  UNL     1       1.277  10.439  18.153  1.00  0.00     0.204 C 
ENDBRANCH   1  40
BRANCH  12  42
HETATM   42  C13 UNL     1      -0.938   5.152  12.165  1.00  0.00    -0.010 C 
HETATM   43  C14 UNL     1      -0.432   6.026  10.998  1.00  0.00     0.010 C 
BRANCH  42  44
HETATM   44  C15 UNL     1      -1.499   3.829  11.595  1.00  0.00     0.031 C 
BRANCH  44  45
HETATM   45  C16 UNL     1      -2.944   3.799  11.188  1.00  0.00    -0.027 C 
HETATM   46  C17 UNL     1      -3.795   2.806  11.503  1.00  0.00     0.006 C 
BRANCH  46  47
HETATM   47  C18 UNL     1      -5.262   2.707  11.151  1.00  0.00     0.068 C 
HETATM   48  C19 UNL     1      -6.194   3.626  11.947  1.00  0.00     0.050 C 
HETATM   49  C20 UNL     1      -5.730   1.256  11.279  1.00  0.00     0.050 C 
BRANCH  47  50
HETATM   50  O3  UNL     1      -5.370   3.074   9.774  1.00  0.00    -0.387 OA
HETATM   51  H30 UNL     1      -4.979   3.961   9.687  1.00  0.00     0.211 HD
ENDBRANCH  47  50
ENDBRANCH  46  47
ENDBRANCH  44  45
ENDBRANCH  42  44
ENDBRANCH  12  42
TORSDOF 13
ENDMDL
MODEL 8
REMARK minimizedAffinity -7.03137732
REMARK CNNscore 0.161860913
REMARK CNNaffinity 6.66794205
REMARK  13 active torsions:
REMARK  status: ('A' for Active; 'I' for Inactive)
REMARK    1  A    between atoms: O1_2  and  C2_3 
REMARK    2  A    between atoms: C12_14  and  C13_15 
REMARK    3  A    between atoms: C13_15  and  C15_17 
REMARK    4  A    between atoms: C15_17  and  C16_18 
REMARK    5  A    between atoms: C17_19  and  C18_20 
REMARK    6  A    between atoms: C18_20  and  O3_23 
REMARK    7  A    between atoms: C28_31  and  O4_32 
REMARK    8  A    between atoms: O4_32  and  C29_33 
REMARK    9  A    between atoms: C30_35  and  C31_36 
REMARK   10  A    between atoms: C31_36  and  O6_37 
REMARK   11  A    between atoms: C32_38  and  O7_39 
REMARK   12  A    between atoms: C33_40  and  O8_41 
REMARK   13  A    between atoms: C34_42  and  O9_43 
ROOT
HETATM    1  C2  UNL     1     -12.661  16.495   0.407  1.00  0.00     0.270 C 
HETATM    2  O2  UNL     1     -13.533  15.459  -0.109  1.00  0.00    -0.344 OA
HETATM    3  C3  UNL     1     -12.924  14.173   0.172  1.00  0.00     0.095 C 
HETATM    4  C4  UNL     1     -13.452  13.827   1.556  1.00  0.00     0.008 C 
HETATM    5  C5  UNL     1     -12.923  14.342   2.672  1.00  0.00    -0.021 C 
HETATM    6  C6  UNL     1     -11.833  15.381   2.614  1.00  0.00     0.030 C 
HETATM    7  C7  UNL     1     -11.451  15.788   1.115  1.00  0.00     0.024 C 
HETATM    8  C8  UNL     1     -10.206  16.734   1.091  1.00  0.00     0.016 C 
HETATM    9  C9  UNL     1      -9.058  16.425   2.070  1.00  0.00     0.011 C 
HETATM   10  C10 UNL     1      -9.583  16.237   3.497  1.00  0.00    -0.032 C 
HETATM   11  C11 UNL     1     -10.223  17.584   3.945  1.00  0.00     0.016 C 
HETATM   12  C12 UNL     1      -8.557  15.754   4.562  1.00  0.00    -0.002 C 
HETATM   13  C21 UNL     1      -9.460  15.126   5.659  1.00  0.00     0.006 C 
HETATM   14  C22 UNL     1     -10.844  14.873   5.007  1.00  0.00     0.011 C 
HETATM   15  C23 UNL     1     -10.593  15.023   3.491  1.00  0.00    -0.029 C 
HETATM   16  C24 UNL     1      -9.974  13.660   3.031  1.00  0.00     0.016 C 
HETATM   17  C25 UNL     1     -11.417  14.531   0.190  1.00  0.00     0.039 C 
HETATM   18  C26 UNL     1     -10.853  14.816  -1.228  1.00  0.00     0.011 C 
HETATM   19  C27 UNL     1     -11.775  14.450  -2.382  1.00  0.00     0.033 C 
HETATM   20  C28 UNL     1     -12.392  13.085  -2.153  1.00  0.00     0.136 C 
HETATM   21  C35 UNL     1     -13.334  13.081  -0.897  1.00  0.00     0.014 C 
HETATM   22  C36 UNL     1     -13.229  11.636  -0.328  1.00  0.00     0.021 C 
HETATM   23  C37 UNL     1     -14.812  13.302  -1.315  1.00  0.00     0.021 C 
ENDROOT
BRANCH  20  24
HETATM   24  O4  UNL     1     -13.137  12.631  -3.291  1.00  0.00    -0.352 OA
BRANCH  24  25
HETATM   25  C29 UNL     1     -12.456  12.661  -4.539  1.00  0.00     0.292 C 
HETATM   26  O5  UNL     1     -13.351  12.850  -5.638  1.00  0.00    -0.348 OA
HETATM   27  C30 UNL     1     -14.117  11.704  -6.043  1.00  0.00     0.179 C 
HETATM   28  C32 UNL     1     -14.084  10.529  -5.052  1.00  0.00     0.180 C 
HETATM   29  C33 UNL     1     -12.632  10.135  -4.744  1.00  0.00     0.183 C 
HETATM   30  C34 UNL     1     -11.679  11.343  -4.718  1.00  0.00     0.204 C 
BRANCH  27  31
HETATM   31  C31 UNL     1     -15.559  12.154  -6.328  1.00  0.00     0.198 C 
BRANCH  31  32
HETATM   32  O6  UNL     1     -15.924  11.969  -7.691  1.00  0.00    -0.398 OA
HETATM   33  H48 UNL     1     -15.633  11.064  -7.940  1.00  0.00     0.209 HD
ENDBRANCH  31  32
ENDBRANCH  27  31
BRANCH  28  34
HETATM   34  O7  UNL     1     -14.797   9.397  -5.572  1.00  0.00    -0.390 OA
HETATM   35  H50 UNL     1     -14.103   8.809  -5.946  1.00  0.00     0.210 HD
ENDBRANCH  28  34
BRANCH  29  36
HETATM   36  O8  UNL     1     -12.201   9.167  -5.727  1.00  0.00    -0.390 OA
HETATM   37  H52 UNL     1     -11.336   9.495  -6.058  1.00  0.00     0.210 HD
ENDBRANCH  29  36
BRANCH  30  38
HETATM   38  O9  UNL     1     -10.903  11.357  -5.936  1.00  0.00    -0.388 OA
HETATM   39  H54 UNL     1     -11.399  11.891  -6.588  1.00  0.00     0.210 HD
ENDBRANCH  30  38
ENDBRANCH  24  25
ENDBRANCH  20  24
BRANCH   1  40
HETATM   40  O1  UNL     1     -13.328  17.401   1.278  1.00  0.00    -0.365 OA
HETATM   41  C1  UNL     1     -13.457  18.693   0.706  1.00  0.00     0.204 C 
ENDBRANCH   1  40
BRANCH  12  42
HETATM   42  C13 UNL     1      -7.359  16.632   5.024  1.00  0.00    -0.010 C 
HETATM   43  C14 UNL     1      -7.782  17.454   6.260  1.00  0.00     0.010 C 
BRANCH  42  44
HETATM   44  C15 UNL     1      -6.601  17.555   4.042  1.00  0.00     0.031 C 
BRANCH  44  45
HETATM   45  C16 UNL     1      -5.454  16.965   3.271  1.00  0.00    -0.027 C 
HETATM   46  C17 UNL     1      -5.599  16.205   2.170  1.00  0.00     0.006 C 
BRANCH  46  47
HETATM   47  C18 UNL     1      -4.505  15.591   1.327  1.00  0.00     0.068 C 
HETATM   48  C19 UNL     1      -3.364  14.930   2.108  1.00  0.00     0.050 C 
HETATM   49  C20 UNL     1      -3.938  16.640   0.368  1.00  0.00     0.050 C 
BRANCH  47  50
HETATM   50  O3  UNL     1      -5.129  14.577   0.537  1.00  0.00    -0.387 OA
HETATM   51  H30 UNL     1      -5.570  13.969   1.156  1.00  0.00     0.211 HD
ENDBRANCH  47  50
ENDBRANCH  46  47
ENDBRANCH  44  45
ENDBRANCH  42  44
ENDBRANCH  12  42
TORSDOF 13
ENDMDL
MODEL 9
REMARK minimizedAffinity -8.68702793
REMARK CNNscore 0.148214772
REMARK CNNaffinity 6.50599098
REMARK  13 active torsions:
REMARK  status: ('A' for Active; 'I' for Inactive)
REMARK    1  A    between atoms: O1_2  and  C2_3 
REMARK    2  A    between atoms: C12_14  and  C13_15 
REMARK    3  A    between atoms: C13_15  and  C15_17 
REMARK    4  A    between atoms: C15_17  and  C16_18 
REMARK    5  A    between atoms: C17_19  and  C18_20 
REMARK    6  A    between atoms: C18_20  and  O3_23 
REMARK    7  A    between atoms: C28_31  and  O4_32 
REMARK    8  A    between atoms: O4_32  and  C29_33 
REMARK    9  A    between atoms: C30_35  and  C31_36 
REMARK   10  A    between atoms: C31_36  and  O6_37 
REMARK   11  A    between atoms: C32_38  and  O7_39 
REMARK   12  A    between atoms: C33_40  and  O8_41 
REMARK   13  A    between atoms: C34_42  and  O9_43 
ROOT
HETATM    1  C2  UNL     1      -2.688   7.837  14.358  1.00  0.00     0.270 C 
HETATM    2  O2  UNL     1      -1.669   6.845  14.081  1.00  0.00    -0.344 OA
HETATM    3  C3  UNL     1      -0.372   7.487  14.180  1.00  0.00     0.095 C 
HETATM    4  C4  UNL     1      -0.016   7.338  15.651  1.00  0.00     0.008 C 
HETATM    5  C5  UNL     1      -0.510   8.151  16.592  1.00  0.00    -0.021 C 
HETATM    6  C6  UNL     1      -1.537   9.201  16.257  1.00  0.00     0.030 C 
HETATM    7  C7  UNL     1      -1.958   9.181  14.715  1.00  0.00     0.024 C 
HETATM    8  C8  UNL     1      -2.889  10.389  14.371  1.00  0.00     0.016 C 
HETATM    9  C9  UNL     1      -2.554  11.750  15.008  1.00  0.00     0.011 C 
HETATM   10  C10 UNL     1      -2.355  11.617  16.522  1.00  0.00    -0.032 C 
HETATM   11  C11 UNL     1      -3.703  11.139  17.135  1.00  0.00     0.016 C 
HETATM   12  C12 UNL     1      -1.846  12.881  17.274  1.00  0.00    -0.002 C 
HETATM   13  C21 UNL     1      -1.216  12.291  18.564  1.00  0.00     0.006 C 
HETATM   14  C22 UNL     1      -0.987  10.780  18.299  1.00  0.00     0.011 C 
HETATM   15  C23 UNL     1      -1.153  10.624  16.772  1.00  0.00    -0.029 C 
HETATM   16  C24 UNL     1       0.211  11.079  16.154  1.00  0.00     0.016 C 
HETATM   17  C25 UNL     1      -0.712   8.951  13.802  1.00  0.00     0.039 C 
HETATM   18  C26 UNL     1      -1.008   9.124  12.288  1.00  0.00     0.011 C 
HETATM   19  C27 UNL     1      -0.667   7.924  11.415  1.00  0.00     0.033 C 
HETATM   20  C28 UNL     1       0.693   7.370  11.787  1.00  0.00     0.136 C 
HETATM   21  C35 UNL     1       0.700   6.794  13.247  1.00  0.00     0.014 C 
HETATM   22  C36 UNL     1       2.154   7.023  13.755  1.00  0.00     0.021 C 
HETATM   23  C37 UNL     1       0.457   5.260  13.236  1.00  0.00     0.021 C 
ENDROOT
BRANCH  20  24
HETATM   24  O4  UNL     1       1.123   6.345  10.882  1.00  0.00    -0.352 OA
BRANCH  24  25
HETATM   25  C29 UNL     1       1.517   6.776   9.586  1.00  0.00     0.292 C 
HETATM   26  O5  UNL     1       2.161   5.738   8.844  1.00  0.00    -0.348 OA
HETATM   27  C30 UNL     1       3.523   5.450   9.199  1.00  0.00     0.179 C 
HETATM   28  C32 UNL     1       3.991   6.088  10.518  1.00  0.00     0.180 C 
HETATM   29  C33 UNL     1       3.742   7.604  10.490  1.00  0.00     0.183 C 
HETATM   30  C34 UNL     1       2.462   7.984   9.725  1.00  0.00     0.204 C 
BRANCH  27  31
HETATM   31  C31 UNL     1       3.711   3.924   9.221  1.00  0.00     0.198 C 
BRANCH  31  32
HETATM   32  O6  UNL     1       2.791   3.278  10.093  1.00  0.00    -0.398 OA
HETATM   33  H48 UNL     1       1.906   3.662   9.902  1.00  0.00     0.209 HD
ENDBRANCH  31  32
ENDBRANCH  27  31
BRANCH  28  34
HETATM   34  O7  UNL     1       5.382   5.825  10.753  1.00  0.00    -0.390 OA
HETATM   35  H50 UNL     1       5.847   6.638  10.454  1.00  0.00     0.210 HD
ENDBRANCH  28  34
BRANCH  29  36
HETATM   36  O8  UNL     1       4.896   8.247   9.904  1.00  0.00    -0.390 OA
HETATM   37  H52 UNL     1       4.540   8.852   9.218  1.00  0.00     0.210 HD
ENDBRANCH  29  36
BRANCH  30  38
HETATM   38  O9  UNL     1       2.826   8.514   8.432  1.00  0.00    -0.388 OA
HETATM   39  H54 UNL     1       2.853   7.760   7.809  1.00  0.00     0.210 HD
ENDBRANCH  30  38
ENDBRANCH  24  25
ENDBRANCH  20  24
BRANCH   1  40
HETATM   40  O1  UNL     1      -3.591   7.438  15.382  1.00  0.00    -0.365 OA
HETATM   41  C1  UNL     1      -3.659   6.026  15.512  1.00  0.00     0.204 C 
ENDBRANCH   1  40
BRANCH  12  42
HETATM   42  C13 UNL     1      -2.704  14.172  17.411  1.00  0.00    -0.010 C 
HETATM   43  C14 UNL     1      -2.073  15.292  16.558  1.00  0.00     0.010 C 
BRANCH  42  44
HETATM   44  C15 UNL     1      -3.088  14.749  18.793  1.00  0.00     0.031 C 
BRANCH  44  45
HETATM   45  C16 UNL     1      -4.456  14.433  19.328  1.00  0.00    -0.027 C 
HETATM   46  C17 UNL     1      -4.759  14.381  20.638  1.00  0.00     0.006 C 
BRANCH  46  47
HETATM   47  C18 UNL     1      -6.106  14.091  21.258  1.00  0.00     0.068 C 
HETATM   48  C19 UNL     1      -6.088  13.143  22.462  1.00  0.00     0.050 C 
HETATM   49  C20 UNL     1      -7.065  13.559  20.192  1.00  0.00     0.050 C 
BRANCH  47  50
HETATM   50  O3  UNL     1      -6.619  15.348  21.709  1.00  0.00    -0.387 OA
HETATM   51  H30 UNL     1      -5.953  15.723  22.312  1.00  0.00     0.211 HD
ENDBRANCH  47  50
ENDBRANCH  46  47
ENDBRANCH  44  45
ENDBRANCH  42  44
ENDBRANCH  12  42
TORSDOF 13
ENDMDL
