MODEL 1
REMARK minimizedAffinity -7.46514606
REMARK CNNscore 0.834940434
REMARK CNNaffinity 7.070539
REMARK  11 active torsions:
REMARK  status: ('A' for Active; 'I' for Inactive)
REMARK    1  A    between atoms: N1_2  and  C2_3 
REMARK    2  A    between atoms: C2_3  and  C3_4 
REMARK    3  A    between atoms: C3_4  and  C4_5 
REMARK    4  A    between atoms: C7_8  and  C8_9 
REMARK    5  A    between atoms: C8_9  and  O1_10 
REMARK    6  A    between atoms: C9_12  and  C10_13 
REMARK    7  A    between atoms: C10_13  and  O3_14 
REMARK    8  A    between atoms: C10_13  and  C11_15 
REMARK    9  A    between atoms: C11_15  and  O4_17 
REMARK   10  A    between atoms: C11_15  and  C13_18 
REMARK   11  A    between atoms: C20_26  and  C21_27 
ROOT
HETATM    1  C13 UNL     1     -13.001  44.963 -26.476  1.00  0.00     0.034 C 
HETATM    2  C14 UNL     1     -13.038  46.322 -25.687  1.00  0.00     0.012 C 
HETATM    3  C15 UNL     1     -14.498  46.621 -25.333  1.00  0.00     0.044 C 
HETATM    4  C16 UNL     1     -15.190  45.256 -25.441  1.00  0.00     0.093 C 
HETATM    5  O5  UNL     1     -14.788  44.325 -24.408  1.00  0.00    -0.363 OA
HETATM    6  C17 UNL     1     -14.576  44.756 -23.073  1.00  0.00     0.263 C 
HETATM    7  C18 UNL     1     -15.689  44.368 -22.202  1.00  0.00    -0.080 C 
HETATM    8  C19 UNL     1     -16.556  44.050 -21.430  1.00  0.00    -0.093 C 
HETATM    9  C20 UNL     1     -17.620  43.655 -20.472  1.00  0.00     0.121 C 
HETATM   10  C27 UNL     1     -18.570  42.577 -21.055  1.00  0.00     0.190 C 
HETATM   11  O6  UNL     1     -19.597  43.065 -21.930  1.00  0.00    -0.384 OA
HETATM   12  C28 UNL     1     -19.180  43.333 -23.266  1.00  0.00     0.122 C 
HETATM   13  C29 UNL     1     -19.206  42.060 -24.115  1.00  0.00     0.033 C 
HETATM   14  C30 UNL     1     -19.361  42.334 -25.619  1.00  0.00     0.013 C 
HETATM   15  C31 UNL     1     -18.845  43.736 -26.066  1.00  0.00    -0.026 C 
HETATM   16  C32 UNL     1     -19.228  43.915 -27.559  1.00  0.00     0.016 C 
HETATM   17  C33 UNL     1     -19.641  44.819 -25.266  1.00  0.00     0.071 C 
HETATM   18  C34 UNL     1     -20.093  44.396 -23.861  1.00  0.00     0.045 C 
HETATM   19  C35 UNL     1     -18.954  46.169 -25.210  1.00  0.00     0.154 C 
HETATM   20  O7  UNL     1     -19.583  47.222 -25.075  1.00  0.00    -0.293 OA
HETATM   21  C36 UNL     1     -17.485  46.245 -25.258  1.00  0.00     0.057 C 
HETATM   22  C37 UNL     1     -16.710  45.185 -25.520  1.00  0.00    -0.036 C 
HETATM   23  C38 UNL     1     -17.269  43.809 -25.863  1.00  0.00     0.026 C 
HETATM   24  C39 UNL     1     -16.487  43.117 -27.024  1.00  0.00     0.011 C 
HETATM   25  C40 UNL     1     -14.960  43.264 -26.952  1.00  0.00     0.014 C 
HETATM   26  C41 UNL     1     -14.534  44.734 -26.788  1.00  0.00    -0.002 C 
HETATM   27  C42 UNL     1     -15.000  45.534 -28.034  1.00  0.00     0.019 C 
ENDROOT
BRANCH   1  28
HETATM   28  C11 UNL     1     -11.864  44.979 -27.558  1.00  0.00     0.087 C 
HETATM   29  C12 UNL     1     -11.857  46.350 -28.277  1.00  0.00     0.049 C 
BRANCH  28  30
HETATM   30  C10 UNL     1     -10.388  44.658 -27.139  1.00  0.00     0.181 C 
BRANCH  30  31
HETATM   31  C9  UNL     1      -9.750  43.364 -27.692  1.00  0.00     0.158 C 
HETATM   32  C4  UNL     1      -9.505  43.250 -29.219  1.00  0.00     0.025 C 
HETATM   33  C5  UNL     1     -10.641  42.349 -29.684  1.00  0.00     0.019 C 
HETATM   34  C6  UNL     1     -10.392  41.647 -31.013  1.00  0.00     0.013 C 
HETATM   35  C7  UNL     1     -10.721  41.382 -28.500  1.00  0.00     0.149 C 
HETATM   36  O2  UNL     1     -10.548  42.215 -27.335  1.00  0.00    -0.375 OA
BRANCH  32  37
HETATM   37  C3  UNL     1      -9.164  44.506 -30.047  1.00  0.00     0.037 C 
BRANCH  37  38
HETATM   38  C2  UNL     1      -7.691  44.880 -30.279  1.00  0.00     0.269 C 
BRANCH  38  39
HETATM   39  N1  UNL     1      -6.824  43.766 -30.670  1.00  0.00     0.079 N 
HETATM   40  C1  UNL     1      -6.065  44.072 -31.889  1.00  0.00     0.306 C 
HETATM   41  H4  UNL     1      -6.127  43.640 -29.929  1.00  0.00     0.315 HD
ENDBRANCH  38  39
ENDBRANCH  37  38
ENDBRANCH  32  37
BRANCH  35  42
HETATM   42  C8  UNL     1     -12.035  40.604 -28.418  1.00  0.00     0.196 C 
BRANCH  42  43
HETATM   43  O1  UNL     1     -13.098  41.371 -28.986  1.00  0.00    -0.398 OA
HETATM   44  H17 UNL     1     -13.656  40.754 -29.491  1.00  0.00     0.209 HD
ENDBRANCH  42  43
ENDBRANCH  35  42
ENDBRANCH  30  31
BRANCH  30  45
HETATM   45  O3  UNL     1      -9.576  45.816 -27.371  1.00  0.00    -0.390 OA
HETATM   46  H20 UNL     1      -8.836  45.748 -26.728  1.00  0.00     0.210 HD
ENDBRANCH  30  45
ENDBRANCH  28  30
BRANCH  28  47
HETATM   47  O4  UNL     1     -12.199  44.024 -28.591  1.00  0.00    -0.387 OA
HETATM   48  H24 UNL     1     -11.797  43.184 -28.299  1.00  0.00     0.210 HD
ENDBRANCH  28  47
ENDBRANCH   1  28
BRANCH   9  49
HETATM   49  C21 UNL     1     -18.357  44.838 -19.862  1.00  0.00    -0.040 A 
HETATM   50  C22 UNL     1     -19.294  44.624 -18.835  1.00  0.00     0.008 A 
HETATM   51  C23 UNL     1     -19.989  45.695 -18.272  1.00  0.00     0.001 A 
HETATM   52  C24 UNL     1     -19.772  46.995 -18.730  1.00  0.00     0.000 A 
HETATM   53  C25 UNL     1     -18.851  47.220 -19.753  1.00  0.00     0.001 A 
HETATM   54  C26 UNL     1     -18.151  46.153 -20.312  1.00  0.00     0.008 A 
ENDBRANCH   9  49
TORSDOF 11
ENDMDL
MODEL 2
REMARK minimizedAffinity -8.3197155
REMARK CNNscore 0.71385777
REMARK CNNaffinity 7.87080526
REMARK  11 active torsions:
REMARK  status: ('A' for Active; 'I' for Inactive)
REMARK    1  A    between atoms: N1_2  and  C2_3 
REMARK    2  A    between atoms: C2_3  and  C3_4 
REMARK    3  A    between atoms: C3_4  and  C4_5 
REMARK    4  A    between atoms: C7_8  and  C8_9 
REMARK    5  A    between atoms: C8_9  and  O1_10 
REMARK    6  A    between atoms: C9_12  and  C10_13 
REMARK    7  A    between atoms: C10_13  and  O3_14 
REMARK    8  A    between atoms: C10_13  and  C11_15 
REMARK    9  A    between atoms: C11_15  and  O4_17 
REMARK   10  A    between atoms: C11_15  and  C13_18 
REMARK   11  A    between atoms: C20_26  and  C21_27 
ROOT
HETATM    1  C13 UNL     1      -1.692  53.036 -10.637  1.00  0.00     0.034 C 
HETATM    2  C14 UNL     1      -2.247  52.930  -9.170  1.00  0.00     0.012 C 
HETATM    3  C15 UNL     1      -1.050  52.838  -8.220  1.00  0.00     0.044 C 
HETATM    4  C16 UNL     1       0.118  53.396  -9.042  1.00  0.00     0.093 C 
HETATM    5  O5  UNL     1       0.013  54.817  -9.297  1.00  0.00    -0.363 OA
HETATM    6  C17 UNL     1      -0.464  55.708  -8.301  1.00  0.00     0.263 C 
HETATM    7  C18 UNL     1       0.631  56.471  -7.695  1.00  0.00    -0.080 C 
HETATM    8  C19 UNL     1       1.482  57.149  -7.182  1.00  0.00    -0.093 C 
HETATM    9  C20 UNL     1       2.527  57.994  -6.549  1.00  0.00     0.121 C 
HETATM   10  C27 UNL     1       3.864  57.966  -7.333  1.00  0.00     0.190 C 
HETATM   11  O6  UNL     1       4.699  56.825  -7.092  1.00  0.00    -0.384 OA
HETATM   12  C28 UNL     1       4.331  55.643  -7.797  1.00  0.00     0.122 C 
HETATM   13  C29 UNL     1       4.917  55.642  -9.211  1.00  0.00     0.033 C 
HETATM   14  C30 UNL     1       5.087  54.233  -9.799  1.00  0.00     0.013 C 
HETATM   15  C31 UNL     1       4.116  53.172  -9.198  1.00  0.00    -0.026 C 
HETATM   16  C32 UNL     1       4.532  51.790  -9.768  1.00  0.00     0.016 C 
HETATM   17  C33 UNL     1       4.364  53.114  -7.655  1.00  0.00     0.071 C 
HETATM   18  C34 UNL     1       4.817  54.432  -7.013  1.00  0.00     0.045 C 
HETATM   19  C35 UNL     1       3.211  52.519  -6.871  1.00  0.00     0.154 C 
HETATM   20  O7  UNL     1       3.375  51.957  -5.785  1.00  0.00    -0.293 OA
HETATM   21  C36 UNL     1       1.835  52.658  -7.373  1.00  0.00     0.057 C 
HETATM   22  C37 UNL     1       1.551  53.143  -8.588  1.00  0.00    -0.036 C 
HETATM   23  C38 UNL     1       2.620  53.535  -9.601  1.00  0.00     0.026 C 
HETATM   24  C39 UNL     1       2.269  53.080 -11.052  1.00  0.00     0.011 C 
HETATM   25  C40 UNL     1       0.801  53.287 -11.456  1.00  0.00     0.014 C 
HETATM   26  C41 UNL     1      -0.167  52.675 -10.427  1.00  0.00    -0.002 C 
HETATM   27  C42 UNL     1       0.066  51.142 -10.367  1.00  0.00     0.019 C 
ENDROOT
BRANCH   1  28
HETATM   28  C11 UNL     1      -2.649  52.309 -11.647  1.00  0.00     0.087 C 
HETATM   29  C12 UNL     1      -4.069  52.916 -11.538  1.00  0.00     0.049 C 
BRANCH  28  30
HETATM   30  C10 UNL     1      -2.275  52.253 -13.168  1.00  0.00     0.181 C 
BRANCH  30  31
HETATM   31  C9  UNL     1      -1.802  50.898 -13.742  1.00  0.00     0.158 C 
HETATM   32  C4  UNL     1      -0.469  50.850 -14.531  1.00  0.00     0.025 C 
HETATM   33  C5  UNL     1      -0.929  50.789 -15.982  1.00  0.00     0.019 C 
HETATM   34  C6  UNL     1       0.105  50.230 -16.952  1.00  0.00     0.013 C 
HETATM   35  C7  UNL     1      -2.163  49.895 -15.837  1.00  0.00     0.149 C 
HETATM   36  O2  UNL     1      -2.803  50.348 -14.627  1.00  0.00    -0.375 OA
BRANCH  32  37
HETATM   37  C3  UNL     1       0.691  51.796 -14.157  1.00  0.00     0.037 C 
BRANCH  37  38
HETATM   38  C2  UNL     1       2.062  51.614 -14.829  1.00  0.00     0.269 C 
BRANCH  38  39
HETATM   39  N1  UNL     1       2.454  52.695 -15.736  1.00  0.00     0.079 N 
HETATM   40  C1  UNL     1       3.861  52.581 -16.139  1.00  0.00     0.306 C 
HETATM   41  H4  UNL     1       1.906  52.592 -16.597  1.00  0.00     0.315 HD
ENDBRANCH  38  39
ENDBRANCH  37  38
ENDBRANCH  32  37
BRANCH  35  42
HETATM   42  C8  UNL     1      -3.129  49.969 -17.020  1.00  0.00     0.196 C 
BRANCH  42  43
HETATM   43  O1  UNL     1      -3.067  51.260 -17.626  1.00  0.00    -0.398 OA
HETATM   44  H17 UNL     1      -3.111  51.126 -18.589  1.00  0.00     0.209 HD
ENDBRANCH  42  43
ENDBRANCH  35  42
ENDBRANCH  30  31
BRANCH  30  45
HETATM   45  O3  UNL     1      -3.339  52.833 -13.931  1.00  0.00    -0.390 OA
HETATM   46  H20 UNL     1      -2.917  53.176 -14.749  1.00  0.00     0.210 HD
ENDBRANCH  30  45
ENDBRANCH  28  30
BRANCH  28  47
HETATM   47  O4  UNL     1      -2.803  50.935 -11.226  1.00  0.00    -0.387 OA
HETATM   48  H24 UNL     1      -2.088  50.449 -11.680  1.00  0.00     0.210 HD
ENDBRANCH  28  47
ENDBRANCH   1  28
BRANCH   9  49
HETATM   49  C21 UNL     1       2.700  57.733  -5.060  1.00  0.00    -0.040 A 
HETATM   50  C22 UNL     1       2.324  56.491  -4.519  1.00  0.00     0.008 A 
HETATM   51  C23 UNL     1       2.464  56.237  -3.154  1.00  0.00     0.001 A 
HETATM   52  C24 UNL     1       2.968  57.221  -2.304  1.00  0.00     0.000 A 
HETATM   53  C25 UNL     1       3.337  58.461  -2.825  1.00  0.00     0.001 A 
HETATM   54  C26 UNL     1       3.205  58.713  -4.189  1.00  0.00     0.008 A 
ENDBRANCH   9  49
TORSDOF 11
ENDMDL
MODEL 3
REMARK minimizedAffinity -8.89301872
REMARK CNNscore 0.686593592
REMARK CNNaffinity 7.0412755
REMARK  11 active torsions:
REMARK  status: ('A' for Active; 'I' for Inactive)
REMARK    1  A    between atoms: N1_2  and  C2_3 
REMARK    2  A    between atoms: C2_3  and  C3_4 
REMARK    3  A    between atoms: C3_4  and  C4_5 
REMARK    4  A    between atoms: C7_8  and  C8_9 
REMARK    5  A    between atoms: C8_9  and  O1_10 
REMARK    6  A    between atoms: C9_12  and  C10_13 
REMARK    7  A    between atoms: C10_13  and  O3_14 
REMARK    8  A    between atoms: C10_13  and  C11_15 
REMARK    9  A    between atoms: C11_15  and  O4_17 
REMARK   10  A    between atoms: C11_15  and  C13_18 
REMARK   11  A    between atoms: C20_26  and  C21_27 
ROOT
HETATM    1  C13 UNL     1     -13.210  44.845 -26.814  1.00  0.00     0.034 C 
HETATM    2  C14 UNL     1     -13.320  46.267 -26.153  1.00  0.00     0.012 C 
HETATM    3  C15 UNL     1     -14.780  46.484 -25.744  1.00  0.00     0.044 C 
HETATM    4  C16 UNL     1     -15.361  45.066 -25.687  1.00  0.00     0.093 C 
HETATM    5  O5  UNL     1     -14.833  44.272 -24.598  1.00  0.00    -0.363 OA
HETATM    6  C17 UNL     1     -14.592  44.845 -23.322  1.00  0.00     0.263 C 
HETATM    7  C18 UNL     1     -15.624  44.457 -22.356  1.00  0.00    -0.080 C 
HETATM    8  C19 UNL     1     -16.422  44.148 -21.511  1.00  0.00    -0.093 C 
HETATM    9  C20 UNL     1     -17.401  43.766 -20.461  1.00  0.00     0.121 C 
HETATM   10  C27 UNL     1     -18.287  42.567 -20.887  1.00  0.00     0.190 C 
HETATM   11  O6  UNL     1     -19.392  42.887 -21.743  1.00  0.00    -0.384 OA
HETATM   12  C28 UNL     1     -19.066  43.057 -23.119  1.00  0.00     0.122 C 
HETATM   13  C29 UNL     1     -19.029  41.710 -23.845  1.00  0.00     0.033 C 
HETATM   14  C30 UNL     1     -19.281  41.826 -25.356  1.00  0.00     0.013 C 
HETATM   15  C31 UNL     1     -18.905  43.214 -25.959  1.00  0.00    -0.026 C 
HETATM   16  C32 UNL     1     -19.375  43.218 -27.438  1.00  0.00     0.016 C 
HETATM   17  C33 UNL     1     -19.747  44.303 -25.218  1.00  0.00     0.071 C 
HETATM   18  C34 UNL     1     -20.092  43.984 -23.756  1.00  0.00     0.045 C 
HETATM   19  C35 UNL     1     -19.172  45.702 -25.326  1.00  0.00     0.154 C 
HETATM   20  O7  UNL     1     -19.877  46.711 -25.252  1.00  0.00    -0.293 OA
HETATM   21  C36 UNL     1     -17.718  45.887 -25.464  1.00  0.00     0.057 C 
HETATM   22  C37 UNL     1     -16.873  44.870 -25.671  1.00  0.00    -0.036 C 
HETATM   23  C38 UNL     1     -17.332  43.428 -25.855  1.00  0.00     0.026 C 
HETATM   24  C39 UNL     1     -16.555  42.690 -26.989  1.00  0.00     0.011 C 
HETATM   25  C40 UNL     1     -15.043  42.961 -27.019  1.00  0.00     0.014 C 
HETATM   26  C41 UNL     1     -14.732  44.469 -27.016  1.00  0.00    -0.002 C 
HETATM   27  C42 UNL     1     -15.324  45.107 -28.301  1.00  0.00     0.019 C 
ENDROOT
BRANCH   1  28
HETATM   28  C11 UNL     1     -12.133  44.845 -27.956  1.00  0.00     0.087 C 
HETATM   29  C12 UNL     1     -12.473  45.952 -28.984  1.00  0.00     0.049 C 
BRANCH  28  30
HETATM   30  C10 UNL     1     -10.615  44.988 -27.593  1.00  0.00     0.181 C 
BRANCH  30  31
HETATM   31  C9  UNL     1      -9.860  46.222 -28.138  1.00  0.00     0.158 C 
HETATM   32  C4  UNL     1      -8.314  46.166 -28.229  1.00  0.00     0.025 C 
HETATM   33  C5  UNL     1      -7.868  46.989 -27.027  1.00  0.00     0.019 C 
HETATM   34  C6  UNL     1      -6.450  47.539 -27.126  1.00  0.00     0.013 C 
HETATM   35  C7  UNL     1      -8.939  48.082 -27.035  1.00  0.00     0.149 C 
HETATM   36  O2  UNL     1     -10.165  47.390 -27.345  1.00  0.00    -0.375 OA
BRANCH  32  37
HETATM   37  C3  UNL     1      -7.600  44.830 -28.523  1.00  0.00     0.037 C 
BRANCH  37  38
HETATM   38  C2  UNL     1      -7.198  44.492 -29.968  1.00  0.00     0.269 C 
BRANCH  38  39
HETATM   39  N1  UNL     1      -6.359  45.495 -30.628  1.00  0.00     0.079 N 
HETATM   40  C1  UNL     1      -6.219  45.225 -32.064  1.00  0.00     0.306 C 
HETATM   41  H4  UNL     1      -6.841  46.398 -30.558  1.00  0.00     0.315 HD
ENDBRANCH  38  39
ENDBRANCH  37  38
ENDBRANCH  32  37
BRANCH  35  42
HETATM   42  C8  UNL     1      -9.065  48.842 -25.714  1.00  0.00     0.196 C 
BRANCH  42  43
HETATM   43  O1  UNL     1      -9.669  50.116 -25.934  1.00  0.00    -0.398 OA
HETATM   44  H17 UNL     1     -10.284  50.272 -25.195  1.00  0.00     0.209 HD
ENDBRANCH  42  43
ENDBRANCH  35  42
ENDBRANCH  30  31
BRANCH  30  45
HETATM   45  O3  UNL     1     -10.457  44.825 -26.178  1.00  0.00    -0.390 OA
HETATM   46  H20 UNL     1      -9.543  44.486 -26.056  1.00  0.00     0.210 HD
ENDBRANCH  30  45
ENDBRANCH  28  30
BRANCH  28  47
HETATM   47  O4  UNL     1     -12.248  43.608 -28.696  1.00  0.00    -0.387 OA
HETATM   48  H24 UNL     1     -11.649  42.985 -28.243  1.00  0.00     0.210 HD
ENDBRANCH  28  47
ENDBRANCH   1  28
BRANCH   9  49
HETATM   49  C21 UNL     1     -18.202  44.941 -19.921  1.00  0.00    -0.040 A 
HETATM   50  C22 UNL     1     -17.929  46.243 -20.377  1.00  0.00     0.008 A 
HETATM   51  C23 UNL     1     -18.645  47.335 -19.884  1.00  0.00     0.001 A 
HETATM   52  C24 UNL     1     -19.637  47.149 -18.921  1.00  0.00     0.000 A 
HETATM   53  C25 UNL     1     -19.914  45.865 -18.455  1.00  0.00     0.001 A 
HETATM   54  C26 UNL     1     -19.204  44.773 -18.950  1.00  0.00     0.008 A 
ENDBRANCH   9  49
TORSDOF 11
ENDMDL
MODEL 4
REMARK minimizedAffinity -8.57565403
REMARK CNNscore 0.666665614
REMARK CNNaffinity 7.06516695
REMARK  11 active torsions:
REMARK  status: ('A' for Active; 'I' for Inactive)
REMARK    1  A    between atoms: N1_2  and  C2_3 
REMARK    2  A    between atoms: C2_3  and  C3_4 
REMARK    3  A    between atoms: C3_4  and  C4_5 
REMARK    4  A    between atoms: C7_8  and  C8_9 
REMARK    5  A    between atoms: C8_9  and  O1_10 
REMARK    6  A    between atoms: C9_12  and  C10_13 
REMARK    7  A    between atoms: C10_13  and  O3_14 
REMARK    8  A    between atoms: C10_13  and  C11_15 
REMARK    9  A    between atoms: C11_15  and  O4_17 
REMARK   10  A    between atoms: C11_15  and  C13_18 
REMARK   11  A    between atoms: C20_26  and  C21_27 
ROOT
HETATM    1  C13 UNL     1     -12.981  44.953 -26.605  1.00  0.00     0.034 C 
HETATM    2  C14 UNL     1     -13.007  46.318 -25.826  1.00  0.00     0.012 C 
HETATM    3  C15 UNL     1     -14.462  46.622 -25.458  1.00  0.00     0.044 C 
HETATM    4  C16 UNL     1     -15.158  45.258 -25.547  1.00  0.00     0.093 C 
HETATM    5  O5  UNL     1     -14.745  44.333 -24.512  1.00  0.00    -0.363 OA
HETATM    6  C17 UNL     1     -14.518  44.775 -23.183  1.00  0.00     0.263 C 
HETATM    7  C18 UNL     1     -15.621  44.395 -22.296  1.00  0.00    -0.080 C 
HETATM    8  C19 UNL     1     -16.479  44.084 -21.512  1.00  0.00    -0.093 C 
HETATM    9  C20 UNL     1     -17.533  43.698 -20.538  1.00  0.00     0.121 C 
HETATM   10  C27 UNL     1     -18.491  42.618 -21.102  1.00  0.00     0.190 C 
HETATM   11  O6  UNL     1     -19.527  43.100 -21.969  1.00  0.00    -0.384 OA
HETATM   12  C28 UNL     1     -19.125  43.358 -23.312  1.00  0.00     0.122 C 
HETATM   13  C29 UNL     1     -19.163  42.078 -24.151  1.00  0.00     0.033 C 
HETATM   14  C30 UNL     1     -19.335  42.341 -25.655  1.00  0.00     0.013 C 
HETATM   15  C31 UNL     1     -18.822  43.738 -26.118  1.00  0.00    -0.026 C 
HETATM   16  C32 UNL     1     -19.222  43.906 -27.609  1.00  0.00     0.016 C 
HETATM   17  C33 UNL     1     -19.607  44.828 -25.318  1.00  0.00     0.071 C 
HETATM   18  C34 UNL     1     -20.043  44.417 -23.904  1.00  0.00     0.045 C 
HETATM   19  C35 UNL     1     -18.917  46.178 -25.280  1.00  0.00     0.154 C 
HETATM   20  O7  UNL     1     -19.543  47.232 -25.146  1.00  0.00    -0.293 OA
HETATM   21  C36 UNL     1     -17.449  46.252 -25.346  1.00  0.00     0.057 C 
HETATM   22  C37 UNL     1     -16.679  45.188 -25.608  1.00  0.00    -0.036 C 
HETATM   23  C38 UNL     1     -17.243  43.810 -25.934  1.00  0.00     0.026 C 
HETATM   24  C39 UNL     1     -16.476  43.108 -27.098  1.00  0.00     0.011 C 
HETATM   25  C40 UNL     1     -14.948  43.253 -27.045  1.00  0.00     0.014 C 
HETATM   26  C41 UNL     1     -14.518  44.724 -26.898  1.00  0.00    -0.002 C 
HETATM   27  C42 UNL     1     -14.997  45.515 -28.144  1.00  0.00     0.019 C 
ENDROOT
BRANCH   1  28
HETATM   28  C11 UNL     1     -11.857  44.959 -27.700  1.00  0.00     0.087 C 
HETATM   29  C12 UNL     1     -12.502  44.828 -29.101  1.00  0.00     0.049 C 
BRANCH  28  30
HETATM   30  C10 UNL     1     -10.837  46.147 -27.760  1.00  0.00     0.181 C 
BRANCH  30  31
HETATM   31  C9  UNL     1      -9.449  45.872 -28.383  1.00  0.00     0.158 C 
HETATM   32  C4  UNL     1      -8.184  46.131 -27.525  1.00  0.00     0.025 C 
HETATM   33  C5  UNL     1      -7.664  47.455 -28.070  1.00  0.00     0.019 C 
HETATM   34  C6  UNL     1      -6.189  47.719 -27.794  1.00  0.00     0.013 C 
HETATM   35  C7  UNL     1      -7.975  47.276 -29.558  1.00  0.00     0.149 C 
HETATM   36  O2  UNL     1      -9.274  46.650 -29.587  1.00  0.00    -0.375 OA
BRANCH  32  37
HETATM   37  C3  UNL     1      -8.225  45.919 -25.997  1.00  0.00     0.037 C 
BRANCH  37  38
HETATM   38  C2  UNL     1      -8.230  47.141 -25.065  1.00  0.00     0.269 C 
BRANCH  38  39
HETATM   39  N1  UNL     1      -9.507  47.856 -24.990  1.00  0.00     0.079 N 
HETATM   40  C1  UNL     1      -9.438  49.161 -25.657  1.00  0.00     0.306 C 
HETATM   41  H4  UNL     1     -10.200  47.309 -25.512  1.00  0.00     0.315 HD
ENDBRANCH  38  39
ENDBRANCH  37  38
ENDBRANCH  32  37
BRANCH  35  42
HETATM   42  C8  UNL     1      -7.986  48.582 -30.354  1.00  0.00     0.196 C 
BRANCH  42  43
HETATM   43  O1  UNL     1      -8.688  49.593 -29.631  1.00  0.00    -0.398 OA
HETATM   44  H17 UNL     1      -8.194  50.424 -29.749  1.00  0.00     0.209 HD
ENDBRANCH  42  43
ENDBRANCH  35  42
ENDBRANCH  30  31
BRANCH  30  45
HETATM   45  O3  UNL     1     -11.484  47.288 -28.337  1.00  0.00    -0.390 OA
HETATM   46  H20 UNL     1     -11.015  48.068 -27.967  1.00  0.00     0.210 HD
ENDBRANCH  30  45
ENDBRANCH  28  30
BRANCH  28  47
HETATM   47  O4  UNL     1     -11.061  43.761 -27.548  1.00  0.00    -0.387 OA
HETATM   48  H24 UNL     1     -10.347  44.008 -26.930  1.00  0.00     0.210 HD
ENDBRANCH  28  47
ENDBRANCH   1  28
BRANCH   9  49
HETATM   49  C21 UNL     1     -18.262  44.887 -19.929  1.00  0.00    -0.040 A 
HETATM   50  C22 UNL     1     -17.918  46.193 -20.320  1.00  0.00     0.008 A 
HETATM   51  C23 UNL     1     -18.567  47.297 -19.763  1.00  0.00     0.001 A 
HETATM   52  C24 UNL     1     -19.560  47.117 -18.800  1.00  0.00     0.000 A 
HETATM   53  C25 UNL     1     -19.906  45.827 -18.398  1.00  0.00     0.001 A 
HETATM   54  C26 UNL     1     -19.264  44.724 -18.958  1.00  0.00     0.008 A 
ENDBRANCH   9  49
TORSDOF 11
ENDMDL
MODEL 5
REMARK minimizedAffinity -7.47244549
REMARK CNNscore 0.654038787
REMARK CNNaffinity 7.8064332
REMARK  11 active torsions:
REMARK  status: ('A' for Active; 'I' for Inactive)
REMARK    1  A    between atoms: N1_2  and  C2_3 
REMARK    2  A    between atoms: C2_3  and  C3_4 
REMARK    3  A    between atoms: C3_4  and  C4_5 
REMARK    4  A    between atoms: C7_8  and  C8_9 
REMARK    5  A    between atoms: C8_9  and  O1_10 
REMARK    6  A    between atoms: C9_12  and  C10_13 
REMARK    7  A    between atoms: C10_13  and  O3_14 
REMARK    8  A    between atoms: C10_13  and  C11_15 
REMARK    9  A    between atoms: C11_15  and  O4_17 
REMARK   10  A    between atoms: C11_15  and  C13_18 
REMARK   11  A    between atoms: C20_26  and  C21_27 
ROOT
HETATM    1  C13 UNL     1      -1.633  53.054  -9.572  1.00  0.00     0.034 C 
HETATM    2  C14 UNL     1      -1.492  52.002  -8.412  1.00  0.00     0.012 C 
HETATM    3  C15 UNL     1      -0.082  52.130  -7.829  1.00  0.00     0.044 C 
HETATM    4  C16 UNL     1       0.372  53.528  -8.267  1.00  0.00     0.093 C 
HETATM    5  O5  UNL     1      -0.349  54.598  -7.611  1.00  0.00    -0.363 OA
HETATM    6  C17 UNL     1      -0.701  54.513  -6.239  1.00  0.00     0.263 C 
HETATM    7  C18 UNL     1       0.169  55.352  -5.410  1.00  0.00    -0.080 C 
HETATM    8  C19 UNL     1       0.828  56.046  -4.681  1.00  0.00    -0.093 C 
HETATM    9  C20 UNL     1       1.635  56.905  -3.777  1.00  0.00     0.121 C 
HETATM   10  C27 UNL     1       2.468  57.959  -4.550  1.00  0.00     0.190 C 
HETATM   11  O6  UNL     1       3.694  57.482  -5.123  1.00  0.00    -0.384 OA
HETATM   12  C28 UNL     1       3.555  56.777  -6.353  1.00  0.00     0.122 C 
HETATM   13  C29 UNL     1       3.501  57.745  -7.537  1.00  0.00     0.033 C 
HETATM   14  C30 UNL     1       3.948  57.110  -8.863  1.00  0.00     0.013 C 
HETATM   15  C31 UNL     1       3.762  55.563  -8.922  1.00  0.00    -0.026 C 
HETATM   16  C32 UNL     1       4.412  55.070 -10.242  1.00  0.00     0.016 C 
HETATM   17  C33 UNL     1       4.590  54.936  -7.753  1.00  0.00     0.071 C 
HETATM   18  C34 UNL     1       4.724  55.812  -6.499  1.00  0.00     0.045 C 
HETATM   19  C35 UNL     1       4.147  53.538  -7.368  1.00  0.00     0.154 C 
HETATM   20  O7  UNL     1       4.917  52.721  -6.856  1.00  0.00    -0.293 OA
HETATM   21  C36 UNL     1       2.741  53.140  -7.549  1.00  0.00     0.057 C 
HETATM   22  C37 UNL     1       1.849  53.898  -8.199  1.00  0.00    -0.036 C 
HETATM   23  C38 UNL     1       2.210  55.214  -8.878  1.00  0.00     0.026 C 
HETATM   24  C39 UNL     1       1.524  55.380 -10.269  1.00  0.00     0.011 C 
HETATM   25  C40 UNL     1       0.054  54.936 -10.322  1.00  0.00     0.014 C 
HETATM   26  C41 UNL     1      -0.132  53.510  -9.771  1.00  0.00    -0.002 C 
HETATM   27  C42 UNL     1       0.664  52.519 -10.661  1.00  0.00     0.019 C 
ENDROOT
BRANCH   1  28
HETATM   28  C11 UNL     1      -2.555  52.501 -10.715  1.00  0.00     0.087 C 
HETATM   29  C12 UNL     1      -3.795  53.417 -10.864  1.00  0.00     0.049 C 
BRANCH  28  30
HETATM   30  C10 UNL     1      -1.964  52.271 -12.148  1.00  0.00     0.181 C 
BRANCH  30  31
HETATM   31  C9  UNL     1      -1.200  50.953 -12.406  1.00  0.00     0.158 C 
HETATM   32  C4  UNL     1      -0.430  50.789 -13.742  1.00  0.00     0.025 C 
HETATM   33  C5  UNL     1      -1.347  49.889 -14.560  1.00  0.00     0.019 C 
HETATM   34  C6  UNL     1      -0.657  49.145 -15.696  1.00  0.00     0.013 C 
HETATM   35  C7  UNL     1      -1.865  48.959 -13.460  1.00  0.00     0.149 C 
HETATM   36  O2  UNL     1      -2.099  49.825 -12.330  1.00  0.00    -0.375 OA
BRANCH  32  37
HETATM   37  C3  UNL     1       0.212  52.015 -14.424  1.00  0.00     0.037 C 
BRANCH  37  38
HETATM   38  C2  UNL     1       1.583  51.869 -15.105  1.00  0.00     0.269 C 
BRANCH  38  39
HETATM   39  N1  UNL     1       1.944  52.963 -16.009  1.00  0.00     0.079 N 
HETATM   40  C1  UNL     1       3.334  52.851 -16.467  1.00  0.00     0.306 C 
HETATM   41  H4  UNL     1       1.363  52.876 -16.850  1.00  0.00     0.315 HD
ENDBRANCH  38  39
ENDBRANCH  37  38
ENDBRANCH  32  37
BRANCH  35  42
HETATM   42  C8  UNL     1      -3.140  48.201 -13.833  1.00  0.00     0.196 C 
BRANCH  42  43
HETATM   43  O1  UNL     1      -4.208  48.574 -12.961  1.00  0.00    -0.398 OA
HETATM   44  H17 UNL     1      -5.010  48.646 -13.508  1.00  0.00     0.209 HD
ENDBRANCH  42  43
ENDBRANCH  35  42
ENDBRANCH  30  31
BRANCH  30  45
HETATM   45  O3  UNL     1      -2.989  52.513 -13.119  1.00  0.00    -0.390 OA
HETATM   46  H20 UNL     1      -2.515  52.792 -13.934  1.00  0.00     0.210 HD
ENDBRANCH  30  45
ENDBRANCH  28  30
BRANCH  28  47
HETATM   47  O4  UNL     1      -3.090  51.224 -10.297  1.00  0.00    -0.387 OA
HETATM   48  H24 UNL     1      -2.443  50.564 -10.611  1.00  0.00     0.210 HD
ENDBRANCH  28  47
ENDBRANCH   1  28
BRANCH   9  49
HETATM   49  C21 UNL     1       2.455  56.119  -2.764  1.00  0.00    -0.040 A 
HETATM   50  C22 UNL     1       2.891  54.819  -3.075  1.00  0.00     0.008 A 
HETATM   51  C23 UNL     1       3.633  54.079  -2.154  1.00  0.00     0.001 A 
HETATM   52  C24 UNL     1       3.943  54.616  -0.905  1.00  0.00     0.000 A 
HETATM   53  C25 UNL     1       3.511  55.902  -0.580  1.00  0.00     0.001 A 
HETATM   54  C26 UNL     1       2.775  56.645  -1.501  1.00  0.00     0.008 A 
ENDBRANCH   9  49
TORSDOF 11
ENDMDL
MODEL 6
REMARK minimizedAffinity -7.44112396
REMARK CNNscore 0.643072367
REMARK CNNaffinity 6.9655261
REMARK  11 active torsions:
REMARK  status: ('A' for Active; 'I' for Inactive)
REMARK    1  A    between atoms: N1_2  and  C2_3 
REMARK    2  A    between atoms: C2_3  and  C3_4 
REMARK    3  A    between atoms: C3_4  and  C4_5 
REMARK    4  A    between atoms: C7_8  and  C8_9 
REMARK    5  A    between atoms: C8_9  and  O1_10 
REMARK    6  A    between atoms: C9_12  and  C10_13 
REMARK    7  A    between atoms: C10_13  and  O3_14 
REMARK    8  A    between atoms: C10_13  and  C11_15 
REMARK    9  A    between atoms: C11_15  and  O4_17 
REMARK   10  A    between atoms: C11_15  and  C13_18 
REMARK   11  A    between atoms: C20_26  and  C21_27 
ROOT
HETATM    1  C13 UNL     1       2.660  54.736  -8.687  1.00  0.00     0.034 C 
HETATM    2  C14 UNL     1       3.225  56.028  -9.383  1.00  0.00     0.012 C 
HETATM    3  C15 UNL     1       3.643  57.009  -8.285  1.00  0.00     0.044 C 
HETATM    4  C16 UNL     1       3.808  56.125  -7.043  1.00  0.00     0.093 C 
HETATM    5  O5  UNL     1       4.939  55.225  -7.124  1.00  0.00    -0.363 OA
HETATM    6  C17 UNL     1       6.168  55.642  -7.699  1.00  0.00     0.263 C 
HETATM    7  C18 UNL     1       7.177  55.913  -6.669  1.00  0.00    -0.080 C 
HETATM    8  C19 UNL     1       8.055  56.118  -5.874  1.00  0.00    -0.093 C 
HETATM    9  C20 UNL     1       9.146  56.369  -4.898  1.00  0.00     0.121 C 
HETATM   10  C27 UNL     1       8.820  55.808  -3.490  1.00  0.00     0.190 C 
HETATM   11  O6  UNL     1       7.963  56.626  -2.681  1.00  0.00    -0.384 OA
HETATM   12  C28 UNL     1       6.573  56.529  -2.976  1.00  0.00     0.122 C 
HETATM   13  C29 UNL     1       5.941  55.337  -2.254  1.00  0.00     0.033 C 
HETATM   14  C30 UNL     1       4.430  55.495  -2.024  1.00  0.00     0.013 C 
HETATM   15  C31 UNL     1       3.727  56.437  -3.048  1.00  0.00    -0.026 C 
HETATM   16  C32 UNL     1       2.260  56.620  -2.576  1.00  0.00     0.016 C 
HETATM   17  C33 UNL     1       4.407  57.843  -2.953  1.00  0.00     0.071 C 
HETATM   18  C34 UNL     1       5.893  57.828  -2.568  1.00  0.00     0.045 C 
HETATM   19  C35 UNL     1       4.193  58.712  -4.177  1.00  0.00     0.154 C 
HETATM   20  O7  UNL     1       4.210  59.944  -4.120  1.00  0.00    -0.293 OA
HETATM   21  C36 UNL     1       4.016  58.086  -5.497  1.00  0.00     0.057 C 
HETATM   22  C37 UNL     1       3.864  56.766  -5.661  1.00  0.00    -0.036 C 
HETATM   23  C38 UNL     1       3.788  55.784  -4.498  1.00  0.00     0.026 C 
HETATM   24  C39 UNL     1       2.693  54.691  -4.704  1.00  0.00     0.011 C 
HETATM   25  C40 UNL     1       2.618  54.113  -6.126  1.00  0.00     0.014 C 
HETATM   26  C41 UNL     1       2.512  55.221  -7.189  1.00  0.00    -0.002 C 
HETATM   27  C42 UNL     1       1.197  56.012  -6.961  1.00  0.00     0.019 C 
ENDROOT
BRANCH   1  28
HETATM   28  C11 UNL     1       1.502  54.106  -9.538  1.00  0.00     0.087 C 
HETATM   29  C12 UNL     1       1.142  55.060 -10.703  1.00  0.00     0.049 C 
BRANCH  28  30
HETATM   30  C10 UNL     1       1.673  52.669 -10.141  1.00  0.00     0.181 C 
BRANCH  30  31
HETATM   31  C9  UNL     1       1.960  52.556 -11.655  1.00  0.00     0.158 C 
HETATM   32  C4  UNL     1       0.898  51.886 -12.565  1.00  0.00     0.025 C 
HETATM   33  C5  UNL     1       1.478  50.501 -12.811  1.00  0.00     0.019 C 
HETATM   34  C6  UNL     1       0.939  49.797 -14.051  1.00  0.00     0.013 C 
HETATM   35  C7  UNL     1       2.966  50.845 -12.915  1.00  0.00     0.149 C 
HETATM   36  O2  UNL     1       3.187  51.828 -11.884  1.00  0.00    -0.375 OA
BRANCH  32  37
HETATM   37  C3  UNL     1      -0.603  52.017 -12.232  1.00  0.00     0.037 C 
BRANCH  37  38
HETATM   38  C2  UNL     1      -1.636  51.976 -13.370  1.00  0.00     0.269 C 
BRANCH  38  39
HETATM   39  N1  UNL     1      -2.895  52.669 -13.088  1.00  0.00     0.079 N 
HETATM   40  C1  UNL     1      -3.264  52.567 -11.671  1.00  0.00     0.306 C 
HETATM   41  H4  UNL     1      -2.747  53.668 -13.269  1.00  0.00     0.315 HD
ENDBRANCH  38  39
ENDBRANCH  37  38
ENDBRANCH  32  37
BRANCH  35  42
HETATM   42  C8  UNL     1       3.898  49.648 -12.730  1.00  0.00     0.196 C 
BRANCH  42  43
HETATM   43  O1  UNL     1       4.962  49.699 -13.681  1.00  0.00    -0.398 OA
HETATM   44  H17 UNL     1       5.773  49.423 -13.218  1.00  0.00     0.209 HD
ENDBRANCH  42  43
ENDBRANCH  35  42
ENDBRANCH  30  31
BRANCH  30  45
HETATM   45  O3  UNL     1       2.615  51.940  -9.345  1.00  0.00    -0.390 OA
HETATM   46  H20 UNL     1       2.372  50.994  -9.456  1.00  0.00     0.210 HD
ENDBRANCH  30  45
ENDBRANCH  28  30
BRANCH  28  47
HETATM   47  O4  UNL     1       0.309  54.054  -8.723  1.00  0.00    -0.387 OA
HETATM   48  H24 UNL     1       0.343  53.186  -8.278  1.00  0.00     0.210 HD
ENDBRANCH  28  47
ENDBRANCH   1  28
BRANCH   9  49
HETATM   49  C21 UNL     1       9.619  57.815  -4.872  1.00  0.00    -0.040 A 
HETATM   50  C22 UNL     1       8.699  58.855  -5.096  1.00  0.00     0.008 A 
HETATM   51  C23 UNL     1       9.116  60.187  -5.089  1.00  0.00     0.001 A 
HETATM   52  C24 UNL     1      10.456  60.504  -4.869  1.00  0.00     0.000 A 
HETATM   53  C25 UNL     1      11.380  59.482  -4.653  1.00  0.00     0.001 A 
HETATM   54  C26 UNL     1      10.965  58.152  -4.654  1.00  0.00     0.008 A 
ENDBRANCH   9  49
TORSDOF 11
ENDMDL
MODEL 7
REMARK minimizedAffinity -7.85647011
REMARK CNNscore 0.353466034
REMARK CNNaffinity 6.60938787
REMARK  11 active torsions:
REMARK  status: ('A' for Active; 'I' for Inactive)
REMARK    1  A    between atoms: N1_2  and  C2_3 
REMARK    2  A    between atoms: C2_3  and  C3_4 
REMARK    3  A    between atoms: C3_4  and  C4_5 
REMARK    4  A    between atoms: C7_8  and  C8_9 
REMARK    5  A    between atoms: C8_9  and  O1_10 
REMARK    6  A    between atoms: C9_12  and  C10_13 
REMARK    7  A    between atoms: C10_13  and  O3_14 
REMARK    8  A    between atoms: C10_13  and  C11_15 
REMARK    9  A    between atoms: C11_15  and  O4_17 
REMARK   10  A    between atoms: C11_15  and  C13_18 
REMARK   11  A    between atoms: C20_26  and  C21_27 
ROOT
HETATM    1  C13 UNL     1       2.788  54.410  -9.567  1.00  0.00     0.034 C 
HETATM    2  C14 UNL     1       3.333  55.763 -10.155  1.00  0.00     0.012 C 
HETATM    3  C15 UNL     1       3.599  56.711  -8.983  1.00  0.00     0.044 C 
HETATM    4  C16 UNL     1       3.710  55.778  -7.771  1.00  0.00     0.093 C 
HETATM    5  O5  UNL     1       4.895  54.947  -7.793  1.00  0.00    -0.363 OA
HETATM    6  C17 UNL     1       6.142  55.458  -8.239  1.00  0.00     0.263 C 
HETATM    7  C18 UNL     1       7.042  55.732  -7.115  1.00  0.00    -0.080 C 
HETATM    8  C19 UNL     1       7.837  55.947  -6.239  1.00  0.00    -0.093 C 
HETATM    9  C20 UNL     1       8.825  56.209  -5.161  1.00  0.00     0.121 C 
HETATM   10  C27 UNL     1       8.414  55.564  -3.812  1.00  0.00     0.190 C 
HETATM   11  O6  UNL     1       7.446  56.295  -3.046  1.00  0.00    -0.384 OA
HETATM   12  C28 UNL     1       6.094  56.136  -3.465  1.00  0.00     0.122 C 
HETATM   13  C29 UNL     1       5.474  54.878  -2.853  1.00  0.00     0.033 C 
HETATM   14  C30 UNL     1       3.942  54.943  -2.750  1.00  0.00     0.013 C 
HETATM   15  C31 UNL     1       3.274  55.893  -3.789  1.00  0.00    -0.026 C 
HETATM   16  C32 UNL     1       1.764  55.973  -3.439  1.00  0.00     0.016 C 
HETATM   17  C33 UNL     1       3.860  57.328  -3.574  1.00  0.00     0.071 C 
HETATM   18  C34 UNL     1       5.306  57.375  -3.062  1.00  0.00     0.045 C 
HETATM   19  C35 UNL     1       3.700  58.241  -4.773  1.00  0.00     0.154 C 
HETATM   20  O7  UNL     1       3.640  59.468  -4.661  1.00  0.00    -0.293 OA
HETATM   21  C36 UNL     1       3.672  57.671  -6.130  1.00  0.00     0.057 C 
HETATM   22  C37 UNL     1       3.612  56.355  -6.364  1.00  0.00    -0.036 C 
HETATM   23  C38 UNL     1       3.496  55.315  -5.255  1.00  0.00     0.026 C 
HETATM   24  C39 UNL     1       2.488  54.176  -5.603  1.00  0.00     0.011 C 
HETATM   25  C40 UNL     1       2.567  53.663  -7.049  1.00  0.00     0.014 C 
HETATM   26  C41 UNL     1       2.486  54.813  -8.069  1.00  0.00    -0.002 C 
HETATM   27  C42 UNL     1       1.113  55.520  -7.922  1.00  0.00     0.019 C 
ENDROOT
BRANCH   1  28
HETATM   28  C11 UNL     1       1.745  53.760 -10.543  1.00  0.00     0.087 C 
HETATM   29  C12 UNL     1       2.493  52.981 -11.652  1.00  0.00     0.049 C 
BRANCH  28  30
HETATM   30  C10 UNL     1       0.632  52.815  -9.972  1.00  0.00     0.181 C 
BRANCH  30  31
HETATM   31  C9  UNL     1      -0.831  53.311 -10.033  1.00  0.00     0.158 C 
HETATM   32  C4  UNL     1      -1.922  52.500  -9.288  1.00  0.00     0.025 C 
HETATM   33  C5  UNL     1      -2.611  51.736 -10.411  1.00  0.00     0.019 C 
HETATM   34  C6  UNL     1      -4.020  51.257 -10.082  1.00  0.00     0.013 C 
HETATM   35  C7  UNL     1      -2.579  52.794 -11.517  1.00  0.00     0.149 C 
HETATM   36  O2  UNL     1      -1.277  53.402 -11.404  1.00  0.00    -0.375 OA
BRANCH  32  37
HETATM   37  C3  UNL     1      -1.580  51.755  -7.981  1.00  0.00     0.037 C 
BRANCH  37  38
HETATM   38  C2  UNL     1      -0.919  52.523  -6.825  1.00  0.00     0.269 C 
BRANCH  38  39
HETATM   39  N1  UNL     1      -1.846  53.268  -5.969  1.00  0.00     0.079 N 
HETATM   40  C1  UNL     1      -1.132  54.127  -5.016  1.00  0.00     0.306 C 
HETATM   41  H4  UNL     1      -2.384  53.901  -6.570  1.00  0.00     0.315 HD
ENDBRANCH  38  39
ENDBRANCH  37  38
ENDBRANCH  32  37
BRANCH  35  42
HETATM   42  C8  UNL     1      -2.795  52.233 -12.923  1.00  0.00     0.196 C 
BRANCH  42  43
HETATM   43  O1  UNL     1      -3.763  53.016 -13.623  1.00  0.00    -0.398 OA
HETATM   44  H17 UNL     1      -3.450  53.105 -14.540  1.00  0.00     0.209 HD
ENDBRANCH  42  43
ENDBRANCH  35  42
ENDBRANCH  30  31
BRANCH  30  45
HETATM   45  O3  UNL     1       0.794  51.509 -10.537  1.00  0.00    -0.390 OA
HETATM   46  H20 UNL     1       0.417  50.889  -9.875  1.00  0.00     0.210 HD
ENDBRANCH  30  45
ENDBRANCH  28  30
BRANCH  28  47
HETATM   47  O4  UNL     1       1.048  54.817 -11.241  1.00  0.00    -0.387 OA
HETATM   48  H24 UNL     1       0.275  55.023 -10.682  1.00  0.00     0.210 HD
ENDBRANCH  28  47
ENDBRANCH   1  28
BRANCH   9  49
HETATM   49  C21 UNL     1       9.208  57.676  -5.032  1.00  0.00    -0.040 A 
HETATM   50  C22 UNL     1      10.558  58.035  -4.871  1.00  0.00     0.008 A 
HETATM   51  C23 UNL     1      10.928  59.374  -4.738  1.00  0.00     0.001 A 
HETATM   52  C24 UNL     1       9.958  60.377  -4.752  1.00  0.00     0.000 A 
HETATM   53  C25 UNL     1       8.614  60.034  -4.903  1.00  0.00     0.001 A 
HETATM   54  C26 UNL     1       8.244  58.698  -5.042  1.00  0.00     0.008 A 
ENDBRANCH   9  49
TORSDOF 11
ENDMDL
MODEL 8
REMARK minimizedAffinity -7.42449379
REMARK CNNscore 0.283025891
REMARK CNNaffinity 6.10805893
REMARK  11 active torsions:
REMARK  status: ('A' for Active; 'I' for Inactive)
REMARK    1  A    between atoms: N1_2  and  C2_3 
REMARK    2  A    between atoms: C2_3  and  C3_4 
REMARK    3  A    between atoms: C3_4  and  C4_5 
REMARK    4  A    between atoms: C7_8  and  C8_9 
REMARK    5  A    between atoms: C8_9  and  O1_10 
REMARK    6  A    between atoms: C9_12  and  C10_13 
REMARK    7  A    between atoms: C10_13  and  O3_14 
REMARK    8  A    between atoms: C10_13  and  C11_15 
REMARK    9  A    between atoms: C11_15  and  O4_17 
REMARK   10  A    between atoms: C11_15  and  C13_18 
REMARK   11  A    between atoms: C20_26  and  C21_27 
ROOT
HETATM    1  C13 UNL     1     -11.932  46.281 -27.568  1.00  0.00     0.034 C 
HETATM    2  C14 UNL     1     -12.535  47.597 -26.954  1.00  0.00     0.012 C 
HETATM    3  C15 UNL     1     -13.998  47.322 -26.596  1.00  0.00     0.044 C 
HETATM    4  C16 UNL     1     -14.076  45.792 -26.512  1.00  0.00     0.093 C 
HETATM    5  O5  UNL     1     -13.356  45.241 -25.384  1.00  0.00    -0.363 OA
HETATM    6  C17 UNL     1     -13.369  45.886 -24.120  1.00  0.00     0.263 C 
HETATM    7  C18 UNL     1     -14.249  45.194 -23.174  1.00  0.00    -0.080 C 
HETATM    8  C19 UNL     1     -14.931  44.653 -22.344  1.00  0.00    -0.093 C 
HETATM    9  C20 UNL     1     -15.766  43.986 -21.312  1.00  0.00     0.121 C 
HETATM   10  C27 UNL     1     -16.185  42.552 -21.728  1.00  0.00     0.190 C 
HETATM   11  O6  UNL     1     -17.301  42.469 -22.626  1.00  0.00    -0.384 OA
HETATM   12  C28 UNL     1     -16.997  42.712 -23.996  1.00  0.00     0.122 C 
HETATM   13  C29 UNL     1     -16.486  41.441 -24.679  1.00  0.00     0.033 C 
HETATM   14  C30 UNL     1     -16.703  41.437 -26.200  1.00  0.00     0.013 C 
HETATM   15  C31 UNL     1     -16.788  42.859 -26.833  1.00  0.00    -0.026 C 
HETATM   16  C32 UNL     1     -17.176  42.678 -28.325  1.00  0.00     0.016 C 
HETATM   17  C33 UNL     1     -17.973  43.619 -26.151  1.00  0.00     0.071 C 
HETATM   18  C34 UNL     1     -18.247  43.231 -24.692  1.00  0.00     0.045 C 
HETATM   19  C35 UNL     1     -17.892  45.127 -26.285  1.00  0.00     0.154 C 
HETATM   20  O7  UNL     1     -18.896  45.843 -26.263  1.00  0.00    -0.293 OA
HETATM   21  C36 UNL     1     -16.579  45.784 -26.386  1.00  0.00     0.057 C 
HETATM   22  C37 UNL     1     -15.436  45.103 -26.536  1.00  0.00    -0.036 C 
HETATM   23  C38 UNL     1     -15.381  43.588 -26.688  1.00  0.00     0.026 C 
HETATM   24  C39 UNL     1     -14.360  43.130 -27.776  1.00  0.00     0.011 C 
HETATM   25  C40 UNL     1     -13.024  43.890 -27.769  1.00  0.00     0.014 C 
HETATM   26  C41 UNL     1     -13.234  45.415 -27.803  1.00  0.00    -0.002 C 
HETATM   27  C42 UNL     1     -13.954  45.794 -29.124  1.00  0.00     0.019 C 
ENDROOT
BRANCH   1  28
HETATM   28  C11 UNL     1     -10.874  46.618 -28.676  1.00  0.00     0.087 C 
HETATM   29  C12 UNL     1      -9.454  46.303 -28.145  1.00  0.00     0.049 C 
BRANCH  28  30
HETATM   30  C10 UNL     1     -11.002  45.967 -30.096  1.00  0.00     0.181 C 
BRANCH  30  31
HETATM   31  C9  UNL     1     -10.303  46.677 -31.277  1.00  0.00     0.158 C 
HETATM   32  C4  UNL     1      -8.913  46.165 -31.736  1.00  0.00     0.025 C 
HETATM   33  C5  UNL     1      -7.955  47.189 -31.143  1.00  0.00     0.019 C 
HETATM   34  C6  UNL     1      -6.593  47.253 -31.824  1.00  0.00     0.013 C 
HETATM   35  C7  UNL     1      -8.779  48.467 -31.324  1.00  0.00     0.149 C 
HETATM   36  O2  UNL     1     -10.128  48.082 -30.990  1.00  0.00    -0.375 OA
BRANCH  32  37
HETATM   37  C3  UNL     1      -8.563  44.666 -31.625  1.00  0.00     0.037 C 
BRANCH  37  38
HETATM   38  C2  UNL     1      -7.455  44.219 -30.657  1.00  0.00     0.269 C 
BRANCH  38  39
HETATM   39  N1  UNL     1      -6.447  43.330 -31.240  1.00  0.00     0.079 N 
HETATM   40  C1  UNL     1      -6.209  43.635 -32.656  1.00  0.00     0.306 C 
HETATM   41  H4  UNL     1      -5.559  43.511 -30.761  1.00  0.00     0.315 HD
ENDBRANCH  38  39
ENDBRANCH  37  38
ENDBRANCH  32  37
BRANCH  35  42
HETATM   42  C8  UNL     1      -8.318  49.635 -30.452  1.00  0.00     0.196 C 
BRANCH  42  43
HETATM   43  O1  UNL     1      -9.060  50.812 -30.773  1.00  0.00    -0.398 OA
HETATM   44  H17 UNL     1      -9.254  51.265 -29.933  1.00  0.00     0.209 HD
ENDBRANCH  42  43
ENDBRANCH  35  42
ENDBRANCH  30  31
BRANCH  30  45
HETATM   45  O3  UNL     1     -10.657  44.579 -30.005  1.00  0.00    -0.390 OA
HETATM   46  H20 UNL     1     -11.149  44.141 -30.734  1.00  0.00     0.210 HD
ENDBRANCH  30  45
ENDBRANCH  28  30
BRANCH  28  47
HETATM   47  O4  UNL     1     -10.877  48.048 -28.894  1.00  0.00    -0.387 OA
HETATM   48  H24 UNL     1     -11.538  48.196 -29.596  1.00  0.00     0.210 HD
ENDBRANCH  28  47
ENDBRANCH   1  28
BRANCH   9  49
HETATM   49  C21 UNL     1     -16.934  44.837 -20.833  1.00  0.00    -0.040 A 
HETATM   50  C22 UNL     1     -17.509  44.589 -19.574  1.00  0.00     0.008 A 
HETATM   51  C23 UNL     1     -18.588  45.351 -19.122  1.00  0.00     0.001 A 
HETATM   52  C24 UNL     1     -19.119  46.362 -19.922  1.00  0.00     0.000 A 
HETATM   53  C25 UNL     1     -18.563  46.614 -21.176  1.00  0.00     0.001 A 
HETATM   54  C26 UNL     1     -17.481  45.859 -21.626  1.00  0.00     0.008 A 
ENDBRANCH   9  49
TORSDOF 11
ENDMDL
MODEL 9
REMARK minimizedAffinity -8.17068005
REMARK CNNscore 0.264651716
REMARK CNNaffinity 6.44645357
REMARK  11 active torsions:
REMARK  status: ('A' for Active; 'I' for Inactive)
REMARK    1  A    between atoms: N1_2  and  C2_3 
REMARK    2  A    between atoms: C2_3  and  C3_4 
REMARK    3  A    between atoms: C3_4  and  C4_5 
REMARK    4  A    between atoms: C7_8  and  C8_9 
REMARK    5  A    between atoms: C8_9  and  O1_10 
REMARK    6  A    between atoms: C9_12  and  C10_13 
REMARK    7  A    between atoms: C10_13  and  O3_14 
REMARK    8  A    between atoms: C10_13  and  C11_15 
REMARK    9  A    between atoms: C11_15  and  O4_17 
REMARK   10  A    between atoms: C11_15  and  C13_18 
REMARK   11  A    between atoms: C20_26  and  C21_27 
ROOT
HETATM    1  C13 UNL     1     -11.138  46.397 -28.027  1.00  0.00     0.034 C 
HETATM    2  C14 UNL     1     -11.400  47.860 -27.513  1.00  0.00     0.012 C 
HETATM    3  C15 UNL     1     -12.676  47.840 -26.667  1.00  0.00     0.044 C 
HETATM    4  C16 UNL     1     -12.836  46.365 -26.276  1.00  0.00     0.093 C 
HETATM    5  O5  UNL     1     -11.823  45.903 -25.350  1.00  0.00    -0.363 OA
HETATM    6  C17 UNL     1     -11.363  46.730 -24.293  1.00  0.00     0.263 C 
HETATM    7  C18 UNL     1     -11.927  46.315 -23.004  1.00  0.00    -0.080 C 
HETATM    8  C19 UNL     1     -12.330  46.003 -21.915  1.00  0.00    -0.093 C 
HETATM    9  C20 UNL     1     -12.819  45.619 -20.566  1.00  0.00     0.121 C 
HETATM   10  C27 UNL     1     -13.459  44.207 -20.549  1.00  0.00     0.190 C 
HETATM   11  O6  UNL     1     -14.814  44.136 -21.016  1.00  0.00    -0.384 OA
HETATM   12  C28 UNL     1     -14.969  44.123 -22.432  1.00  0.00     0.122 C 
HETATM   13  C29 UNL     1     -14.812  42.706 -22.989  1.00  0.00     0.033 C 
HETATM   14  C30 UNL     1     -15.525  42.497 -24.334  1.00  0.00     0.013 C 
HETATM   15  C31 UNL     1     -15.710  43.804 -25.164  1.00  0.00    -0.026 C 
HETATM   16  C32 UNL     1     -16.587  43.449 -26.395  1.00  0.00     0.016 C 
HETATM   17  C33 UNL     1     -16.538  44.810 -24.299  1.00  0.00     0.071 C 
HETATM   18  C34 UNL     1     -16.337  44.691 -22.782  1.00  0.00     0.045 C 
HETATM   19  C35 UNL     1     -16.394  46.255 -24.733  1.00  0.00     0.154 C 
HETATM   20  O7  UNL     1     -17.276  47.094 -24.531  1.00  0.00    -0.293 OA
HETATM   21  C36 UNL     1     -15.145  46.709 -25.366  1.00  0.00     0.057 C 
HETATM   22  C37 UNL     1     -14.172  45.868 -25.738  1.00  0.00    -0.036 C 
HETATM   23  C38 UNL     1     -14.285  44.353 -25.612  1.00  0.00     0.026 C 
HETATM   24  C39 UNL     1     -13.724  43.602 -26.860  1.00  0.00     0.011 C 
HETATM   25  C40 UNL     1     -12.410  44.170 -27.418  1.00  0.00     0.014 C 
HETATM   26  C41 UNL     1     -12.504  45.686 -27.671  1.00  0.00    -0.002 C 
HETATM   27  C42 UNL     1     -13.594  45.950 -28.743  1.00  0.00     0.019 C 
ENDROOT
BRANCH   1  28
HETATM   28  C11 UNL     1     -10.489  46.417 -29.456  1.00  0.00     0.087 C 
HETATM   29  C12 UNL     1     -11.573  46.755 -30.508  1.00  0.00     0.049 C 
BRANCH  28  30
HETATM   30  C10 UNL     1      -9.255  47.341 -29.736  1.00  0.00     0.181 C 
BRANCH  30  31
HETATM   31  C9  UNL     1      -7.849  46.705 -29.656  1.00  0.00     0.158 C 
HETATM   32  C4  UNL     1      -6.980  46.979 -28.401  1.00  0.00     0.025 C 
HETATM   33  C5  UNL     1      -5.984  48.021 -28.892  1.00  0.00     0.019 C 
HETATM   34  C6  UNL     1      -4.707  48.116 -28.067  1.00  0.00     0.013 C 
HETATM   35  C7  UNL     1      -5.743  47.516 -30.316  1.00  0.00     0.149 C 
HETATM   36  O2  UNL     1      -7.046  47.111 -30.785  1.00  0.00    -0.375 OA
BRANCH  32  37
HETATM   37  C3  UNL     1      -7.645  47.175 -27.023  1.00  0.00     0.037 C 
BRANCH  37  38
HETATM   38  C2  UNL     1      -6.786  47.614 -25.825  1.00  0.00     0.269 C 
BRANCH  38  39
HETATM   39  N1  UNL     1      -7.543  48.025 -24.640  1.00  0.00     0.079 N 
HETATM   40  C1  UNL     1      -8.597  48.990 -24.977  1.00  0.00     0.306 C 
HETATM   41  H4  UNL     1      -8.026  47.196 -24.277  1.00  0.00     0.315 HD
ENDBRANCH  38  39
ENDBRANCH  37  38
ENDBRANCH  32  37
BRANCH  35  42
HETATM   42  C8  UNL     1      -5.132  48.558 -31.253  1.00  0.00     0.196 C 
BRANCH  42  43
HETATM   43  O1  UNL     1      -4.720  49.706 -30.510  1.00  0.00    -0.398 OA
HETATM   44  H17 UNL     1      -3.868  49.997 -30.882  1.00  0.00     0.209 HD
ENDBRANCH  42  43
ENDBRANCH  35  42
ENDBRANCH  30  31
BRANCH  30  45
HETATM   45  O3  UNL     1      -9.471  48.047 -30.964  1.00  0.00    -0.390 OA
HETATM   46  H20 UNL     1      -8.954  48.879 -30.881  1.00  0.00     0.210 HD
ENDBRANCH  30  45
ENDBRANCH  28  30
BRANCH  28  47
HETATM   47  O4  UNL     1     -10.063  45.075 -29.785  1.00  0.00    -0.387 OA
HETATM   48  H24 UNL     1      -9.145  45.014 -29.459  1.00  0.00     0.210 HD
ENDBRANCH  28  47
ENDBRANCH   1  28
BRANCH   9  49
HETATM   49  C21 UNL     1     -13.692  46.680 -19.912  1.00  0.00    -0.040 A 
HETATM   50  C22 UNL     1     -14.817  46.296 -19.162  1.00  0.00     0.008 A 
HETATM   51  C23 UNL     1     -15.637  47.255 -18.565  1.00  0.00     0.001 A 
HETATM   52  C24 UNL     1     -15.355  48.613 -18.714  1.00  0.00     0.000 A 
HETATM   53  C25 UNL     1     -14.246  49.009 -19.462  1.00  0.00     0.001 A 
HETATM   54  C26 UNL     1     -13.423  48.052 -20.053  1.00  0.00     0.008 A 
ENDBRANCH   9  49
TORSDOF 11
ENDMDL
