MODEL 1
REMARK minimizedAffinity -8.72684288
REMARK CNNscore 0.566343665
REMARK CNNaffinity 5.85972071
REMARK  9 active torsions:
REMARK  status: ('A' for Active; 'I' for Inactive)
REMARK    1  A    between atoms: C2_2  and  C3_3 
REMARK    2  A    between atoms: C2_2  and  C11_13 
REMARK    3  A    between atoms: C3_3  and  C4_4 
REMARK    4  A    between atoms: C4_4  and  C5_5 
REMARK    5  A    between atoms: C5_5  and  C8_9 
REMARK    6  A    between atoms: C6_6  and  C7_7 
REMARK    7  A    between atoms: C7_7  and  O1_8 
REMARK    8  A    between atoms: C8_9  and  O2_12 
REMARK    9  A    between atoms: C25_27  and  O3_28 
ROOT
HETATM    1  C11 UNL     1       5.934  65.511 -36.166  1.00  0.00     0.005 C 
HETATM    2  C12 UNL     1       4.881  65.291 -35.057  1.00  0.00     0.033 C 
HETATM    3  C13 UNL     1       3.619  65.742 -35.708  1.00  0.00    -0.018 C 
HETATM    4  C14 UNL     1       3.861  66.506 -36.782  1.00  0.00    -0.047 C 
HETATM    5  C15 UNL     1       2.898  67.096 -37.698  1.00  0.00    -0.048 C 
HETATM    6  C16 UNL     1       3.306  67.615 -38.884  1.00  0.00    -0.064 C 
HETATM    7  C17 UNL     1       4.770  67.570 -39.306  1.00  0.00     0.036 C 
HETATM    8  C18 UNL     1       5.652  66.629 -38.476  1.00  0.00     0.019 C 
HETATM    9  C19 UNL     1       5.354  66.722 -36.975  1.00  0.00    -0.012 C 
HETATM   10  C20 UNL     1       5.748  68.095 -36.393  1.00  0.00     0.021 C 
HETATM   11  C21 UNL     1       2.321  68.337 -39.834  1.00  0.00    -0.016 C 
HETATM   12  C22 UNL     1       2.482  69.853 -39.554  1.00  0.00     0.020 C 
HETATM   13  C23 UNL     1       2.610  68.070 -41.340  1.00  0.00     0.016 C 
HETATM   14  C24 UNL     1       1.565  68.677 -42.280  1.00  0.00     0.033 C 
HETATM   15  C25 UNL     1       0.147  68.238 -41.930  1.00  0.00     0.118 C 
HETATM   16  C26 UNL     1      -0.184  68.474 -40.457  1.00  0.00     0.037 C 
HETATM   17  C27 UNL     1       0.871  67.826 -39.553  1.00  0.00     0.001 C 
HETATM   18  C28 UNL     1       0.511  67.971 -38.078  1.00  0.00     0.010 C 
HETATM   19  C29 UNL     1       1.459  67.133 -37.222  1.00  0.00     0.040 C 
ENDROOT
BRANCH   1  20
HETATM   20  C2  UNL     1       7.377  65.614 -35.603  1.00  0.00    -0.013 C 
HETATM   21  C1  UNL     1       8.445  65.653 -36.702  1.00  0.00     0.010 C 
BRANCH  20  22
HETATM   22  C3  UNL     1       7.705  64.487 -34.583  1.00  0.00     0.009 C 
BRANCH  22  23
HETATM   23  C4  UNL     1       8.732  63.443 -35.060  1.00  0.00     0.037 C 
BRANCH  23  24
HETATM   24  C5  UNL     1       9.107  62.431 -33.976  1.00  0.00    -0.049 C 
HETATM   25  C6  UNL     1       8.445  61.256 -33.856  1.00  0.00     0.004 C 
BRANCH  25  26
HETATM   26  C7  UNL     1       7.305  60.740 -34.676  1.00  0.00     0.191 C 
BRANCH  26  27
HETATM   27  O1  UNL     1       7.831  59.820 -35.621  1.00  0.00    -0.397 OA
HETATM   28  H12 UNL     1       8.475  60.312 -36.161  1.00  0.00     0.209 HD
ENDBRANCH  26  27
ENDBRANCH  25  26
BRANCH  24  29
HETATM   29  C8  UNL     1      10.310  62.805 -33.089  1.00  0.00     0.074 C 
HETATM   30  C9  UNL     1      10.661  61.709 -32.075  1.00  0.00     0.050 C 
HETATM   31  C10 UNL     1      11.598  63.184 -33.842  1.00  0.00     0.050 C 
BRANCH  29  32
HETATM   32  O2  UNL     1       9.931  63.966 -32.340  1.00  0.00    -0.386 OA
HETATM   33  H19 UNL     1       9.641  64.633 -32.985  1.00  0.00     0.211 HD
ENDBRANCH  29  32
ENDBRANCH  24  29
ENDBRANCH  23  24
ENDBRANCH  22  23
ENDBRANCH  20  22
ENDBRANCH   1  20
BRANCH  15  34
HETATM   34  O3  UNL     1      -0.787  68.936 -42.747  1.00  0.00    -0.396 OA
HETATM   35  H39 UNL     1      -0.701  69.886 -42.560  1.00  0.00     0.210 HD
ENDBRANCH  15  34
TORSDOF 9
ENDMDL
MODEL 2
REMARK minimizedAffinity -8.36226463
REMARK CNNscore 0.499154747
REMARK CNNaffinity 5.98650312
REMARK  9 active torsions:
REMARK  status: ('A' for Active; 'I' for Inactive)
REMARK    1  A    between atoms: C2_2  and  C3_3 
REMARK    2  A    between atoms: C2_2  and  C11_13 
REMARK    3  A    between atoms: C3_3  and  C4_4 
REMARK    4  A    between atoms: C4_4  and  C5_5 
REMARK    5  A    between atoms: C5_5  and  C8_9 
REMARK    6  A    between atoms: C6_6  and  C7_7 
REMARK    7  A    between atoms: C7_7  and  O1_8 
REMARK    8  A    between atoms: C8_9  and  O2_12 
REMARK    9  A    between atoms: C25_27  and  O3_28 
ROOT
HETATM    1  C11 UNL     1       5.722  65.798 -36.043  1.00  0.00     0.005 C 
HETATM    2  C12 UNL     1       4.705  65.705 -34.884  1.00  0.00     0.033 C 
HETATM    3  C13 UNL     1       3.426  66.106 -35.538  1.00  0.00    -0.018 C 
HETATM    4  C14 UNL     1       3.641  66.755 -36.690  1.00  0.00    -0.047 C 
HETATM    5  C15 UNL     1       2.655  67.264 -37.631  1.00  0.00    -0.048 C 
HETATM    6  C16 UNL     1       3.029  67.654 -38.875  1.00  0.00    -0.064 C 
HETATM    7  C17 UNL     1       4.478  67.547 -39.337  1.00  0.00     0.036 C 
HETATM    8  C18 UNL     1       5.377  66.682 -38.444  1.00  0.00     0.019 C 
HETATM    9  C19 UNL     1       5.129  66.930 -36.951  1.00  0.00    -0.012 C 
HETATM   10  C20 UNL     1       5.557  68.349 -36.524  1.00  0.00     0.021 C 
HETATM   11  C21 UNL     1       2.022  68.291 -39.862  1.00  0.00    -0.016 C 
HETATM   12  C22 UNL     1       2.208  69.825 -39.741  1.00  0.00     0.020 C 
HETATM   13  C23 UNL     1       2.258  67.870 -41.341  1.00  0.00     0.016 C 
HETATM   14  C24 UNL     1       1.189  68.394 -42.304  1.00  0.00     0.033 C 
HETATM   15  C25 UNL     1      -0.221  68.012 -41.867  1.00  0.00     0.118 C 
HETATM   16  C26 UNL     1      -0.500  68.400 -40.416  1.00  0.00     0.037 C 
HETATM   17  C27 UNL     1       0.576  67.832 -39.485  1.00  0.00     0.001 C 
HETATM   18  C28 UNL     1       0.267  68.128 -38.021  1.00  0.00     0.010 C 
HETATM   19  C29 UNL     1       1.233  67.368 -37.116  1.00  0.00     0.040 C 
ENDROOT
BRANCH   1  20
HETATM   20  C2  UNL     1       7.184  65.937 -35.539  1.00  0.00    -0.013 C 
HETATM   21  C1  UNL     1       8.213  65.384 -36.532  1.00  0.00     0.010 C 
BRANCH  20  22
HETATM   22  C3  UNL     1       7.400  65.296 -34.138  1.00  0.00     0.009 C 
BRANCH  22  23
HETATM   23  C4  UNL     1       6.448  64.137 -33.789  1.00  0.00     0.037 C 
BRANCH  23  24
HETATM   24  C5  UNL     1       6.924  62.788 -34.328  1.00  0.00    -0.049 C 
HETATM   25  C6  UNL     1       8.231  62.439 -34.290  1.00  0.00     0.004 C 
BRANCH  25  26
HETATM   26  C7  UNL     1       9.390  63.227 -33.766  1.00  0.00     0.191 C 
BRANCH  26  27
HETATM   27  O1  UNL     1       9.680  62.756 -32.458  1.00  0.00    -0.397 OA
HETATM   28  H12 UNL     1       8.875  62.896 -31.927  1.00  0.00     0.209 HD
ENDBRANCH  26  27
ENDBRANCH  25  26
BRANCH  24  29
HETATM   29  C8  UNL     1       5.823  61.842 -34.847  1.00  0.00     0.074 C 
HETATM   30  C9  UNL     1       6.299  60.388 -34.960  1.00  0.00     0.050 C 
HETATM   31  C10 UNL     1       4.509  61.850 -34.048  1.00  0.00     0.050 C 
BRANCH  29  32
HETATM   32  O2  UNL     1       5.488  62.279 -36.170  1.00  0.00    -0.386 OA
HETATM   33  H19 UNL     1       5.257  63.220 -36.103  1.00  0.00     0.211 HD
ENDBRANCH  29  32
ENDBRANCH  24  29
ENDBRANCH  23  24
ENDBRANCH  22  23
ENDBRANCH  20  22
ENDBRANCH   1  20
BRANCH  15  34
HETATM   34  O3  UNL     1      -1.174  68.637 -42.721  1.00  0.00    -0.396 OA
HETATM   35  H39 UNL     1      -1.072  69.600 -42.633  1.00  0.00     0.210 HD
ENDBRANCH  15  34
TORSDOF 9
ENDMDL
MODEL 3
REMARK minimizedAffinity -7.75477695
REMARK CNNscore 0.481814504
REMARK CNNaffinity 7.14238167
REMARK  9 active torsions:
REMARK  status: ('A' for Active; 'I' for Inactive)
REMARK    1  A    between atoms: C2_2  and  C3_3 
REMARK    2  A    between atoms: C2_2  and  C11_13 
REMARK    3  A    between atoms: C3_3  and  C4_4 
REMARK    4  A    between atoms: C4_4  and  C5_5 
REMARK    5  A    between atoms: C5_5  and  C8_9 
REMARK    6  A    between atoms: C6_6  and  C7_7 
REMARK    7  A    between atoms: C7_7  and  O1_8 
REMARK    8  A    between atoms: C8_9  and  O2_12 
REMARK    9  A    between atoms: C25_27  and  O3_28 
ROOT
HETATM    1  C11 UNL     1      -1.436  50.724 -16.119  1.00  0.00     0.005 C 
HETATM    2  C12 UNL     1      -2.965  50.582 -15.956  1.00  0.00     0.033 C 
HETATM    3  C13 UNL     1      -3.232  51.334 -14.696  1.00  0.00    -0.018 C 
HETATM    4  C14 UNL     1      -2.116  51.505 -13.975  1.00  0.00    -0.047 C 
HETATM    5  C15 UNL     1      -1.961  52.218 -12.718  1.00  0.00    -0.048 C 
HETATM    6  C16 UNL     1      -0.725  52.533 -12.253  1.00  0.00    -0.064 C 
HETATM    7  C17 UNL     1       0.531  52.178 -13.041  1.00  0.00     0.036 C 
HETATM    8  C18 UNL     1       0.284  51.762 -14.496  1.00  0.00     0.019 C 
HETATM    9  C19 UNL     1      -0.926  50.830 -14.640  1.00  0.00    -0.012 C 
HETATM   10  C20 UNL     1      -0.680  49.461 -13.974  1.00  0.00     0.021 C 
HETATM   11  C21 UNL     1      -0.525  53.203 -10.873  1.00  0.00    -0.016 C 
HETATM   12  C22 UNL     1      -0.187  52.060  -9.881  1.00  0.00     0.020 C 
HETATM   13  C23 UNL     1       0.633  54.243 -10.855  1.00  0.00     0.016 C 
HETATM   14  C24 UNL     1       0.754  55.000  -9.530  1.00  0.00     0.033 C 
HETATM   15  C25 UNL     1      -0.557  55.664  -9.121  1.00  0.00     0.118 C 
HETATM   16  C26 UNL     1      -1.728  54.683  -9.129  1.00  0.00     0.037 C 
HETATM   17  C27 UNL     1      -1.829  53.969 -10.481  1.00  0.00     0.001 C 
HETATM   18  C28 UNL     1      -3.047  53.053 -10.543  1.00  0.00     0.010 C 
HETATM   19  C29 UNL     1      -3.240  52.531 -11.965  1.00  0.00     0.040 C 
ENDROOT
BRANCH   1  20
HETATM   20  C2  UNL     1      -0.832  49.628 -17.037  1.00  0.00    -0.013 C 
HETATM   21  C1  UNL     1       0.323  48.866 -16.378  1.00  0.00     0.010 C 
BRANCH  20  22
HETATM   22  C3  UNL     1      -0.383  50.182 -18.419  1.00  0.00     0.009 C 
BRANCH  22  23
HETATM   23  C4  UNL     1      -1.136  51.437 -18.903  1.00  0.00     0.037 C 
BRANCH  23  24
HETATM   24  C5  UNL     1      -0.873  51.764 -20.373  1.00  0.00    -0.049 C 
HETATM   25  C6  UNL     1       0.208  52.488 -20.748  1.00  0.00     0.004 C 
BRANCH  25  26
HETATM   26  C7  UNL     1       1.278  53.078 -19.885  1.00  0.00     0.191 C 
BRANCH  26  27
HETATM   27  O1  UNL     1       1.441  54.438 -20.263  1.00  0.00    -0.397 OA
HETATM   28  H12 UNL     1       1.691  54.438 -21.204  1.00  0.00     0.209 HD
ENDBRANCH  26  27
ENDBRANCH  25  26
BRANCH  24  29
HETATM   29  C8  UNL     1      -1.867  51.165 -21.387  1.00  0.00     0.074 C 
HETATM   30  C9  UNL     1      -1.907  51.945 -22.707  1.00  0.00     0.050 C 
HETATM   31  C10 UNL     1      -1.661  49.678 -21.721  1.00  0.00     0.050 C 
BRANCH  29  32
HETATM   32  O2  UNL     1      -3.171  51.265 -20.800  1.00  0.00    -0.386 OA
HETATM   33  H19 UNL     1      -3.120  50.831 -19.931  1.00  0.00     0.211 HD
ENDBRANCH  29  32
ENDBRANCH  24  29
ENDBRANCH  23  24
ENDBRANCH  22  23
ENDBRANCH  20  22
ENDBRANCH   1  20
BRANCH  15  34
HETATM   34  O3  UNL     1      -0.421  56.236  -7.823  1.00  0.00    -0.396 OA
HETATM   35  H39 UNL     1      -0.227  55.518  -7.196  1.00  0.00     0.210 HD
ENDBRANCH  15  34
TORSDOF 9
ENDMDL
MODEL 4
REMARK minimizedAffinity -9.99462986
REMARK CNNscore 0.459804952
REMARK CNNaffinity 7.34251213
REMARK  9 active torsions:
REMARK  status: ('A' for Active; 'I' for Inactive)
REMARK    1  A    between atoms: C2_2  and  C3_3 
REMARK    2  A    between atoms: C2_2  and  C11_13 
REMARK    3  A    between atoms: C3_3  and  C4_4 
REMARK    4  A    between atoms: C4_4  and  C5_5 
REMARK    5  A    between atoms: C5_5  and  C8_9 
REMARK    6  A    between atoms: C6_6  and  C7_7 
REMARK    7  A    between atoms: C7_7  and  O1_8 
REMARK    8  A    between atoms: C8_9  and  O2_12 
REMARK    9  A    between atoms: C25_27  and  O3_28 
ROOT
HETATM    1  C11 UNL     1      -1.243  48.553 -19.651  1.00  0.00     0.005 C 
HETATM    2  C12 UNL     1      -2.327  47.540 -20.085  1.00  0.00     0.033 C 
HETATM    3  C13 UNL     1      -2.485  47.834 -21.539  1.00  0.00    -0.018 C 
HETATM    4  C14 UNL     1      -1.992  49.038 -21.857  1.00  0.00    -0.047 C 
HETATM    5  C15 UNL     1      -1.923  49.660 -23.170  1.00  0.00    -0.048 C 
HETATM    6  C16 UNL     1      -1.156  50.761 -23.370  1.00  0.00    -0.064 C 
HETATM    7  C17 UNL     1      -0.323  51.361 -22.243  1.00  0.00     0.036 C 
HETATM    8  C18 UNL     1      -0.161  50.462 -21.011  1.00  0.00     0.019 C 
HETATM    9  C19 UNL     1      -1.469  49.760 -20.625  1.00  0.00    -0.012 C 
HETATM   10  C20 UNL     1      -2.535  50.759 -20.131  1.00  0.00     0.021 C 
HETATM   11  C21 UNL     1      -1.140  51.501 -24.729  1.00  0.00    -0.016 C 
HETATM   12  C22 UNL     1      -2.128  52.687 -24.587  1.00  0.00     0.020 C 
HETATM   13  C23 UNL     1       0.263  52.057 -25.111  1.00  0.00     0.016 C 
HETATM   14  C24 UNL     1       0.314  52.679 -26.509  1.00  0.00     0.033 C 
HETATM   15  C25 UNL     1      -0.185  51.721 -27.587  1.00  0.00     0.118 C 
HETATM   16  C26 UNL     1      -1.558  51.143 -27.254  1.00  0.00     0.037 C 
HETATM   17  C27 UNL     1      -1.557  50.506 -25.860  1.00  0.00     0.001 C 
HETATM   18  C28 UNL     1      -2.892  49.840 -25.544  1.00  0.00     0.010 C 
HETATM   19  C29 UNL     1      -2.785  49.035 -24.251  1.00  0.00     0.040 C 
ENDROOT
BRANCH   1  20
HETATM   20  C2  UNL     1      -1.258  48.818 -18.121  1.00  0.00    -0.013 C 
HETATM   21  C1  UNL     1      -2.566  49.456 -17.639  1.00  0.00     0.010 C 
BRANCH  20  22
HETATM   22  C3  UNL     1      -0.046  49.669 -17.647  1.00  0.00     0.009 C 
BRANCH  22  23
HETATM   23  C4  UNL     1      -0.397  51.045 -17.051  1.00  0.00     0.037 C 
BRANCH  23  24
HETATM   24  C5  UNL     1       0.826  51.936 -16.837  1.00  0.00    -0.049 C 
HETATM   25  C6  UNL     1       1.220  52.825 -17.778  1.00  0.00     0.004 C 
BRANCH  25  26
HETATM   26  C7  UNL     1       0.604  53.102 -19.113  1.00  0.00     0.191 C 
BRANCH  26  27
HETATM   27  O1  UNL     1       1.399  54.083 -19.764  1.00  0.00    -0.397 OA
HETATM   28  H12 UNL     1       1.395  54.870 -19.191  1.00  0.00     0.209 HD
ENDBRANCH  26  27
ENDBRANCH  25  26
BRANCH  24  29
HETATM   29  C8  UNL     1       1.529  51.801 -15.472  1.00  0.00     0.074 C 
HETATM   30  C9  UNL     1       1.274  50.443 -14.807  1.00  0.00     0.050 C 
HETATM   31  C10 UNL     1       3.048  52.048 -15.479  1.00  0.00     0.050 C 
BRANCH  29  32
HETATM   32  O2  UNL     1       0.967  52.802 -14.613  1.00  0.00    -0.386 OA
HETATM   33  H19 UNL     1       1.068  53.652 -15.073  1.00  0.00     0.211 HD
ENDBRANCH  29  32
ENDBRANCH  24  29
ENDBRANCH  23  24
ENDBRANCH  22  23
ENDBRANCH  20  22
ENDBRANCH   1  20
BRANCH  15  34
HETATM   34  O3  UNL     1      -0.241  52.397 -28.840  1.00  0.00    -0.396 OA
HETATM   35  H39 UNL     1      -0.874  53.130 -28.759  1.00  0.00     0.210 HD
ENDBRANCH  15  34
TORSDOF 9
ENDMDL
MODEL 5
REMARK minimizedAffinity -8.49132156
REMARK CNNscore 0.354485154
REMARK CNNaffinity 7.1841073
REMARK  9 active torsions:
REMARK  status: ('A' for Active; 'I' for Inactive)
REMARK    1  A    between atoms: C2_2  and  C3_3 
REMARK    2  A    between atoms: C2_2  and  C11_13 
REMARK    3  A    between atoms: C3_3  and  C4_4 
REMARK    4  A    between atoms: C4_4  and  C5_5 
REMARK    5  A    between atoms: C5_5  and  C8_9 
REMARK    6  A    between atoms: C6_6  and  C7_7 
REMARK    7  A    between atoms: C7_7  and  O1_8 
REMARK    8  A    between atoms: C8_9  and  O2_12 
REMARK    9  A    between atoms: C25_27  and  O3_28 
ROOT
HETATM    1  C11 UNL     1      -3.244  51.203 -24.705  1.00  0.00     0.005 C 
HETATM    2  C12 UNL     1      -4.757  51.261 -24.397  1.00  0.00     0.033 C 
HETATM    3  C13 UNL     1      -4.793  51.156 -22.910  1.00  0.00    -0.018 C 
HETATM    4  C14 UNL     1      -3.645  50.669 -22.420  1.00  0.00    -0.047 C 
HETATM    5  C15 UNL     1      -3.282  50.461 -21.027  1.00  0.00    -0.048 C 
HETATM    6  C16 UNL     1      -1.992  50.218 -20.682  1.00  0.00    -0.064 C 
HETATM    7  C17 UNL     1      -0.885  50.185 -21.729  1.00  0.00     0.036 C 
HETATM    8  C18 UNL     1      -1.272  50.762 -23.097  1.00  0.00     0.019 C 
HETATM    9  C19 UNL     1      -2.674  50.323 -23.539  1.00  0.00    -0.012 C 
HETATM   10  C20 UNL     1      -2.742  48.809 -23.820  1.00  0.00     0.021 C 
HETATM   11  C21 UNL     1      -1.591  49.895 -19.223  1.00  0.00    -0.016 C 
HETATM   12  C22 UNL     1      -1.504  48.350 -19.130  1.00  0.00     0.020 C 
HETATM   13  C23 UNL     1      -0.218  50.502 -18.813  1.00  0.00     0.016 C 
HETATM   14  C24 UNL     1       0.125  50.294 -17.335  1.00  0.00     0.033 C 
HETATM   15  C25 UNL     1      -0.974  50.804 -16.408  1.00  0.00     0.118 C 
HETATM   16  C26 UNL     1      -2.345  50.239 -16.775  1.00  0.00     0.037 C 
HETATM   17  C27 UNL     1      -2.660  50.495 -18.253  1.00  0.00     0.001 C 
HETATM   18  C28 UNL     1      -4.063  50.022 -18.619  1.00  0.00     0.010 C 
HETATM   19  C29 UNL     1      -4.423  50.485 -20.028  1.00  0.00     0.040 C 
ENDROOT
BRANCH   1  20
HETATM   20  C2  UNL     1      -2.952  50.777 -26.169  1.00  0.00    -0.013 C 
HETATM   21  C1  UNL     1      -3.711  49.513 -26.585  1.00  0.00     0.010 C 
BRANCH  20  22
HETATM   22  C3  UNL     1      -1.432  50.603 -26.452  1.00  0.00     0.009 C 
BRANCH  22  23
HETATM   23  C4  UNL     1      -0.907  51.325 -27.707  1.00  0.00     0.037 C 
BRANCH  23  24
HETATM   24  C5  UNL     1       0.133  52.400 -27.389  1.00  0.00    -0.049 C 
HETATM   25  C6  UNL     1      -0.091  53.702 -27.685  1.00  0.00     0.004 C 
BRANCH  25  26
HETATM   26  C7  UNL     1      -1.292  54.317 -28.332  1.00  0.00     0.191 C 
BRANCH  26  27
HETATM   27  O1  UNL     1      -2.405  53.474 -28.073  1.00  0.00    -0.397 OA
HETATM   28  H12 UNL     1      -2.191  52.604 -28.455  1.00  0.00     0.209 HD
ENDBRANCH  26  27
ENDBRANCH  25  26
BRANCH  24  29
HETATM   29  C8  UNL     1       1.403  51.917 -26.662  1.00  0.00     0.074 C 
HETATM   30  C9  UNL     1       1.209  50.561 -25.971  1.00  0.00     0.050 C 
HETATM   31  C10 UNL     1       2.672  51.831 -27.528  1.00  0.00     0.050 C 
BRANCH  29  32
HETATM   32  O2  UNL     1       1.686  52.876 -25.635  1.00  0.00    -0.386 OA
HETATM   33  H19 UNL     1       1.736  53.743 -26.070  1.00  0.00     0.211 HD
ENDBRANCH  29  32
ENDBRANCH  24  29
ENDBRANCH  23  24
ENDBRANCH  22  23
ENDBRANCH  20  22
ENDBRANCH   1  20
BRANCH  15  34
HETATM   34  O3  UNL     1      -0.661  50.463 -15.061  1.00  0.00    -0.396 OA
HETATM   35  H39 UNL     1      -0.624  49.493 -14.996  1.00  0.00     0.210 HD
ENDBRANCH  15  34
TORSDOF 9
ENDMDL
MODEL 6
REMARK minimizedAffinity -10.0029955
REMARK CNNscore 0.332152963
REMARK CNNaffinity 6.96886635
REMARK  9 active torsions:
REMARK  status: ('A' for Active; 'I' for Inactive)
REMARK    1  A    between atoms: C2_2  and  C3_3 
REMARK    2  A    between atoms: C2_2  and  C11_13 
REMARK    3  A    between atoms: C3_3  and  C4_4 
REMARK    4  A    between atoms: C4_4  and  C5_5 
REMARK    5  A    between atoms: C5_5  and  C8_9 
REMARK    6  A    between atoms: C6_6  and  C7_7 
REMARK    7  A    between atoms: C7_7  and  O1_8 
REMARK    8  A    between atoms: C8_9  and  O2_12 
REMARK    9  A    between atoms: C25_27  and  O3_28 
ROOT
HETATM    1  C11 UNL     1      -0.623  51.153 -21.863  1.00  0.00     0.005 C 
HETATM    2  C12 UNL     1       0.021  52.558 -21.858  1.00  0.00     0.033 C 
HETATM    3  C13 UNL     1       0.606  52.645 -20.490  1.00  0.00    -0.018 C 
HETATM    4  C14 UNL     1       0.067  51.740 -19.662  1.00  0.00    -0.047 C 
HETATM    5  C15 UNL     1       0.402  51.486 -18.270  1.00  0.00    -0.048 C 
HETATM    6  C16 UNL     1      -0.039  50.363 -17.650  1.00  0.00    -0.064 C 
HETATM    7  C17 UNL     1      -0.869  49.322 -18.393  1.00  0.00     0.036 C 
HETATM    8  C18 UNL     1      -0.875  49.472 -19.920  1.00  0.00     0.019 C 
HETATM    9  C19 UNL     1      -1.017  50.934 -20.362  1.00  0.00    -0.012 C 
HETATM   10  C20 UNL     1      -2.398  51.516 -19.996  1.00  0.00     0.021 C 
HETATM   11  C21 UNL     1       0.218  50.114 -16.145  1.00  0.00    -0.016 C 
HETATM   12  C22 UNL     1      -1.068  50.565 -15.406  1.00  0.00     0.020 C 
HETATM   13  C23 UNL     1       0.496  48.621 -15.806  1.00  0.00     0.016 C 
HETATM   14  C24 UNL     1       0.875  48.387 -14.341  1.00  0.00     0.033 C 
HETATM   15  C25 UNL     1       2.051  49.254 -13.902  1.00  0.00     0.118 C 
HETATM   16  C26 UNL     1       1.828  50.731 -14.219  1.00  0.00     0.037 C 
HETATM   17  C27 UNL     1       1.479  50.923 -15.699  1.00  0.00     0.001 C 
HETATM   18  C28 UNL     1       1.343  52.398 -16.059  1.00  0.00     0.010 C 
HETATM   19  C29 UNL     1       1.214  52.561 -17.571  1.00  0.00     0.040 C 
ENDROOT
BRANCH   1  20
HETATM   20  C2  UNL     1      -1.723  51.009 -22.950  1.00  0.00    -0.013 C 
HETATM   21  C1  UNL     1      -2.158  49.555 -23.168  1.00  0.00     0.010 C 
BRANCH  20  22
HETATM   22  C3  UNL     1      -1.315  51.651 -24.306  1.00  0.00     0.009 C 
BRANCH  22  23
HETATM   23  C4  UNL     1      -0.777  50.671 -25.366  1.00  0.00     0.037 C 
BRANCH  23  24
HETATM   24  C5  UNL     1      -0.567  51.322 -26.733  1.00  0.00    -0.049 C 
HETATM   25  C6  UNL     1      -1.556  51.347 -27.657  1.00  0.00     0.004 C 
BRANCH  25  26
HETATM   26  C7  UNL     1      -2.941  50.789 -27.554  1.00  0.00     0.191 C 
BRANCH  26  27
HETATM   27  O1  UNL     1      -3.421  50.574 -28.873  1.00  0.00    -0.397 OA
HETATM   28  H12 UNL     1      -3.410  51.440 -29.319  1.00  0.00     0.209 HD
ENDBRANCH  26  27
ENDBRANCH  25  26
BRANCH  24  29
HETATM   29  C8  UNL     1       0.801  51.995 -26.958  1.00  0.00     0.074 C 
HETATM   30  C9  UNL     1       1.882  51.471 -26.004  1.00  0.00     0.050 C 
HETATM   31  C10 UNL     1       1.354  51.913 -28.392  1.00  0.00     0.050 C 
BRANCH  29  32
HETATM   32  O2  UNL     1       0.631  53.390 -26.676  1.00  0.00    -0.386 OA
HETATM   33  H19 UNL     1      -0.104  53.699 -27.232  1.00  0.00     0.211 HD
ENDBRANCH  29  32
ENDBRANCH  24  29
ENDBRANCH  23  24
ENDBRANCH  22  23
ENDBRANCH  20  22
ENDBRANCH   1  20
BRANCH  15  34
HETATM   34  O3  UNL     1       2.270  49.093 -12.503  1.00  0.00    -0.396 OA
HETATM   35  H39 UNL     1       1.471  49.393 -12.037  1.00  0.00     0.210 HD
ENDBRANCH  15  34
TORSDOF 9
ENDMDL
MODEL 7
REMARK minimizedAffinity -7.93984509
REMARK CNNscore 0.329779476
REMARK CNNaffinity 6.98970079
REMARK  9 active torsions:
REMARK  status: ('A' for Active; 'I' for Inactive)
REMARK    1  A    between atoms: C2_2  and  C3_3 
REMARK    2  A    between atoms: C2_2  and  C11_13 
REMARK    3  A    between atoms: C3_3  and  C4_4 
REMARK    4  A    between atoms: C4_4  and  C5_5 
REMARK    5  A    between atoms: C5_5  and  C8_9 
REMARK    6  A    between atoms: C6_6  and  C7_7 
REMARK    7  A    between atoms: C7_7  and  O1_8 
REMARK    8  A    between atoms: C8_9  and  O2_12 
REMARK    9  A    between atoms: C25_27  and  O3_28 
ROOT
HETATM    1  C11 UNL     1      -1.842  51.276 -19.276  1.00  0.00     0.005 C 
HETATM    2  C12 UNL     1      -0.538  52.001 -18.873  1.00  0.00     0.033 C 
HETATM    3  C13 UNL     1      -0.064  52.566 -20.169  1.00  0.00    -0.018 C 
HETATM    4  C14 UNL     1      -0.642  51.961 -21.215  1.00  0.00    -0.047 C 
HETATM    5  C15 UNL     1      -0.472  52.256 -22.628  1.00  0.00    -0.048 C 
HETATM    6  C16 UNL     1      -1.327  51.739 -23.547  1.00  0.00    -0.064 C 
HETATM    7  C17 UNL     1      -2.502  50.863 -23.130  1.00  0.00     0.036 C 
HETATM    8  C18 UNL     1      -2.829  50.892 -21.631  1.00  0.00     0.019 C 
HETATM    9  C19 UNL     1      -1.568  50.844 -20.758  1.00  0.00    -0.012 C 
HETATM   10  C20 UNL     1      -0.834  49.493 -20.880  1.00  0.00     0.021 C 
HETATM   11  C21 UNL     1      -1.113  51.955 -25.064  1.00  0.00    -0.016 C 
HETATM   12  C22 UNL     1      -0.393  50.685 -25.585  1.00  0.00     0.020 C 
HETATM   13  C23 UNL     1      -2.442  52.139 -25.853  1.00  0.00     0.016 C 
HETATM   14  C24 UNL     1      -2.232  52.479 -27.332  1.00  0.00     0.033 C 
HETATM   15  C25 UNL     1      -1.332  53.695 -27.524  1.00  0.00     0.118 C 
HETATM   16  C26 UNL     1      -0.015  53.564 -26.763  1.00  0.00     0.037 C 
HETATM   17  C27 UNL     1      -0.271  53.253 -25.284  1.00  0.00     0.001 C 
HETATM   18  C28 UNL     1       1.028  53.210 -24.485  1.00  0.00     0.010 C 
HETATM   19  C29 UNL     1       0.723  53.116 -22.992  1.00  0.00     0.040 C 
ENDROOT
BRANCH   1  20
HETATM   20  C2  UNL     1      -2.258  50.188 -18.249  1.00  0.00    -0.013 C 
HETATM   21  C1  UNL     1      -1.162  49.145 -18.007  1.00  0.00     0.010 C 
BRANCH  20  22
HETATM   22  C3  UNL     1      -3.590  49.482 -18.630  1.00  0.00     0.009 C 
BRANCH  22  23
HETATM   23  C4  UNL     1      -3.472  47.981 -18.956  1.00  0.00     0.037 C 
BRANCH  23  24
HETATM   24  C5  UNL     1      -4.770  47.380 -19.495  1.00  0.00    -0.049 C 
HETATM   25  C6  UNL     1      -5.740  46.943 -18.658  1.00  0.00     0.004 C 
BRANCH  25  26
HETATM   26  C7  UNL     1      -5.752  46.947 -17.162  1.00  0.00     0.191 C 
BRANCH  26  27
HETATM   27  O1  UNL     1      -7.048  47.343 -16.738  1.00  0.00    -0.397 OA
HETATM   28  H12 UNL     1      -7.202  48.232 -17.105  1.00  0.00     0.209 HD
ENDBRANCH  26  27
ENDBRANCH  25  26
BRANCH  24  29
HETATM   29  C8  UNL     1      -4.924  47.368 -21.028  1.00  0.00     0.074 C 
HETATM   30  C9  UNL     1      -3.575  47.341 -21.757  1.00  0.00     0.050 C 
HETATM   31  C10 UNL     1      -5.794  46.235 -21.599  1.00  0.00     0.050 C 
BRANCH  29  32
HETATM   32  O2  UNL     1      -5.575  48.592 -21.392  1.00  0.00    -0.386 OA
HETATM   33  H19 UNL     1      -6.394  48.637 -20.872  1.00  0.00     0.211 HD
ENDBRANCH  29  32
ENDBRANCH  24  29
ENDBRANCH  23  24
ENDBRANCH  22  23
ENDBRANCH  20  22
ENDBRANCH   1  20
BRANCH  15  34
HETATM   34  O3  UNL     1      -1.066  53.880 -28.911  1.00  0.00    -0.396 OA
HETATM   35  H39 UNL     1      -0.598  53.092 -29.236  1.00  0.00     0.210 HD
ENDBRANCH  15  34
TORSDOF 9
ENDMDL
MODEL 8
REMARK minimizedAffinity -9.1053896
REMARK CNNscore 0.310924351
REMARK CNNaffinity 6.70862579
REMARK  9 active torsions:
REMARK  status: ('A' for Active; 'I' for Inactive)
REMARK    1  A    between atoms: C2_2  and  C3_3 
REMARK    2  A    between atoms: C2_2  and  C11_13 
REMARK    3  A    between atoms: C3_3  and  C4_4 
REMARK    4  A    between atoms: C4_4  and  C5_5 
REMARK    5  A    between atoms: C5_5  and  C8_9 
REMARK    6  A    between atoms: C6_6  and  C7_7 
REMARK    7  A    between atoms: C7_7  and  O1_8 
REMARK    8  A    between atoms: C8_9  and  O2_12 
REMARK    9  A    between atoms: C25_27  and  O3_28 
ROOT
HETATM    1  C11 UNL     1      -2.921  51.562 -22.265  1.00  0.00     0.005 C 
HETATM    2  C12 UNL     1      -4.337  51.222 -21.747  1.00  0.00     0.033 C 
HETATM    3  C13 UNL     1      -4.137  51.154 -20.271  1.00  0.00    -0.018 C 
HETATM    4  C14 UNL     1      -2.844  51.007 -19.952  1.00  0.00    -0.047 C 
HETATM    5  C15 UNL     1      -2.249  50.943 -18.627  1.00  0.00    -0.048 C 
HETATM    6  C16 UNL     1      -0.907  51.064 -18.469  1.00  0.00    -0.064 C 
HETATM    7  C17 UNL     1       0.013  51.298 -19.663  1.00  0.00     0.036 C 
HETATM    8  C18 UNL     1      -0.701  51.710 -20.956  1.00  0.00     0.019 C 
HETATM    9  C19 UNL     1      -1.981  50.900 -21.200  1.00  0.00    -0.012 C 
HETATM   10  C20 UNL     1      -1.678  49.415 -21.483  1.00  0.00     0.021 C 
HETATM   11  C21 UNL     1      -0.235  50.903 -17.085  1.00  0.00    -0.016 C 
HETATM   12  C22 UNL     1       0.275  49.440 -17.019  1.00  0.00     0.020 C 
HETATM   13  C23 UNL     1       0.967  51.866 -16.867  1.00  0.00     0.016 C 
HETATM   14  C24 UNL     1       1.555  51.800 -15.454  1.00  0.00     0.033 C 
HETATM   15  C25 UNL     1       0.499  52.024 -14.376  1.00  0.00     0.118 C 
HETATM   16  C26 UNL     1      -0.707  51.104 -14.551  1.00  0.00     0.037 C 
HETATM   17  C27 UNL     1      -1.281  51.222 -15.968  1.00  0.00     0.001 C 
HETATM   18  C28 UNL     1      -2.542  50.382 -16.136  1.00  0.00     0.010 C 
HETATM   19  C29 UNL     1      -3.205  50.690 -17.476  1.00  0.00     0.040 C 
ENDROOT
BRANCH   1  20
HETATM   20  C2  UNL     1      -2.732  51.187 -23.760  1.00  0.00    -0.013 C 
HETATM   21  C1  UNL     1      -3.058  49.719 -24.053  1.00  0.00     0.010 C 
BRANCH  20  22
HETATM   22  C3  UNL     1      -1.310  51.532 -24.290  1.00  0.00     0.009 C 
BRANCH  22  23
HETATM   23  C4  UNL     1      -0.775  50.603 -25.396  1.00  0.00     0.037 C 
BRANCH  23  24
HETATM   24  C5  UNL     1      -0.567  51.319 -26.731  1.00  0.00    -0.049 C 
HETATM   25  C6  UNL     1      -1.570  51.421 -27.635  1.00  0.00     0.004 C 
BRANCH  25  26
HETATM   26  C7  UNL     1      -2.969  50.900 -27.538  1.00  0.00     0.191 C 
BRANCH  26  27
HETATM   27  O1  UNL     1      -3.401  50.569 -28.849  1.00  0.00    -0.397 OA
HETATM   28  H12 UNL     1      -3.354  51.389 -29.373  1.00  0.00     0.209 HD
ENDBRANCH  26  27
ENDBRANCH  25  26
BRANCH  24  29
HETATM   29  C8  UNL     1       0.816  51.963 -26.944  1.00  0.00     0.074 C 
HETATM   30  C9  UNL     1       1.895  51.361 -26.035  1.00  0.00     0.050 C 
HETATM   31  C10 UNL     1       1.346  51.937 -28.389  1.00  0.00     0.050 C 
BRANCH  29  32
HETATM   32  O2  UNL     1       0.692  53.346 -26.591  1.00  0.00    -0.386 OA
HETATM   33  H19 UNL     1      -0.042  53.704 -27.119  1.00  0.00     0.211 HD
ENDBRANCH  29  32
ENDBRANCH  24  29
ENDBRANCH  23  24
ENDBRANCH  22  23
ENDBRANCH  20  22
ENDBRANCH   1  20
BRANCH  15  34
HETATM   34  O3  UNL     1       1.075  51.818 -13.090  1.00  0.00    -0.396 OA
HETATM   35  H39 UNL     1       1.379  50.896 -13.040  1.00  0.00     0.210 HD
ENDBRANCH  15  34
TORSDOF 9
ENDMDL
MODEL 9
REMARK minimizedAffinity -10.3383446
REMARK CNNscore 0.288572758
REMARK CNNaffinity 6.58852959
REMARK  9 active torsions:
REMARK  status: ('A' for Active; 'I' for Inactive)
REMARK    1  A    between atoms: C2_2  and  C3_3 
REMARK    2  A    between atoms: C2_2  and  C11_13 
REMARK    3  A    between atoms: C3_3  and  C4_4 
REMARK    4  A    between atoms: C4_4  and  C5_5 
REMARK    5  A    between atoms: C5_5  and  C8_9 
REMARK    6  A    between atoms: C6_6  and  C7_7 
REMARK    7  A    between atoms: C7_7  and  O1_8 
REMARK    8  A    between atoms: C8_9  and  O2_12 
REMARK    9  A    between atoms: C25_27  and  O3_28 
ROOT
HETATM    1  C11 UNL     1      -1.028  51.152 -25.091  1.00  0.00     0.005 C 
HETATM    2  C12 UNL     1      -0.204  52.448 -25.264  1.00  0.00     0.033 C 
HETATM    3  C13 UNL     1       0.270  52.722 -23.877  1.00  0.00    -0.018 C 
HETATM    4  C14 UNL     1      -0.454  52.057 -22.966  1.00  0.00    -0.047 C 
HETATM    5  C15 UNL     1      -0.274  52.033 -21.523  1.00  0.00    -0.048 C 
HETATM    6  C16 UNL     1      -0.913  51.105 -20.766  1.00  0.00    -0.064 C 
HETATM    7  C17 UNL     1      -1.809  50.047 -21.400  1.00  0.00     0.036 C 
HETATM    8  C18 UNL     1      -1.667  49.907 -22.921  1.00  0.00     0.019 C 
HETATM    9  C19 UNL     1      -1.573  51.267 -23.626  1.00  0.00    -0.012 C 
HETATM   10  C20 UNL     1      -2.889  52.063 -23.518  1.00  0.00     0.021 C 
HETATM   11  C21 UNL     1      -0.820  51.115 -19.222  1.00  0.00    -0.016 C 
HETATM   12  C22 UNL     1      -2.091  51.843 -18.716  1.00  0.00     0.020 C 
HETATM   13  C23 UNL     1      -0.774  49.690 -18.598  1.00  0.00     0.016 C 
HETATM   14  C24 UNL     1      -0.554  49.693 -17.083  1.00  0.00     0.033 C 
HETATM   15  C25 UNL     1       0.686  50.485 -16.679  1.00  0.00     0.118 C 
HETATM   16  C26 UNL     1       0.690  51.892 -17.273  1.00  0.00     0.037 C 
HETATM   17  C27 UNL     1       0.496  51.841 -18.793  1.00  0.00     0.001 C 
HETATM   18  C28 UNL     1       0.591  53.228 -19.419  1.00  0.00     0.010 C 
HETATM   19  C29 UNL     1       0.612  53.118 -20.941  1.00  0.00     0.040 C 
ENDROOT
BRANCH   1  20
HETATM   20  C2  UNL     1      -2.042  50.935 -26.247  1.00  0.00    -0.013 C 
HETATM   21  C1  UNL     1      -3.379  51.646 -26.009  1.00  0.00     0.010 C 
BRANCH  20  22
HETATM   22  C3  UNL     1      -2.287  49.430 -26.556  1.00  0.00     0.009 C 
BRANCH  22  23
HETATM   23  C4  UNL     1      -3.052  48.650 -25.470  1.00  0.00     0.037 C 
BRANCH  23  24
HETATM   24  C5  UNL     1      -4.542  48.500 -25.776  1.00  0.00    -0.049 C 
HETATM   25  C6  UNL     1      -4.979  48.283 -27.039  1.00  0.00     0.004 C 
BRANCH  25  26
HETATM   26  C7  UNL     1      -4.176  48.159 -28.295  1.00  0.00     0.191 C 
BRANCH  26  27
HETATM   27  O1  UNL     1      -4.559  49.217 -29.161  1.00  0.00    -0.397 OA
HETATM   28  H12 UNL     1      -5.513  49.111 -29.328  1.00  0.00     0.209 HD
ENDBRANCH  26  27
ENDBRANCH  25  26
BRANCH  24  29
HETATM   29  C8  UNL     1      -5.490  48.546 -24.562  1.00  0.00     0.074 C 
HETATM   30  C9  UNL     1      -6.766  47.723 -24.777  1.00  0.00     0.050 C 
HETATM   31  C10 UNL     1      -4.870  48.117 -23.220  1.00  0.00     0.050 C 
BRANCH  29  32
HETATM   32  O2  UNL     1      -5.891  49.911 -24.397  1.00  0.00    -0.386 OA
HETATM   33  H19 UNL     1      -5.075  50.436 -24.334  1.00  0.00     0.211 HD
ENDBRANCH  29  32
ENDBRANCH  24  29
ENDBRANCH  23  24
ENDBRANCH  22  23
ENDBRANCH  20  22
ENDBRANCH   1  20
BRANCH  15  34
HETATM   34  O3  UNL     1       0.762  50.565 -15.259  1.00  0.00    -0.396 OA
HETATM   35  H39 UNL     1      -0.025  51.038 -14.941  1.00  0.00     0.210 HD
ENDBRANCH  15  34
TORSDOF 9
ENDMDL
