MODEL 1
REMARK minimizedAffinity -7.55179834
REMARK CNNscore 0.520012617
REMARK CNNaffinity 6.81884384
REMARK  10 active torsions:
REMARK  status: ('A' for Active; 'I' for Inactive)
REMARK    1  A    between atoms: C3_3  and  O1_4 
REMARK    2  A    between atoms: N1_14  and  O2_16 
REMARK    3  A    between atoms: O2_16  and  C13_17 
REMARK    4  A    between atoms: C13_17  and  C14_18 
REMARK       I    between atoms: C14_18  and  N2_20 
REMARK    5  A    between atoms: N2_20  and  C15_21 
REMARK    6  A    between atoms: C15_21  and  C16_22 
REMARK       I    between atoms: C16_22  and  N3_24 
REMARK    7  A    between atoms: N3_24  and  C17_25 
REMARK    8  A    between atoms: C17_25  and  C18_26 
REMARK    9  A    between atoms: C17_25  and  C19_29 
REMARK   10  A    between atoms: C18_26  and  O6_28 
ROOT
HETATM    1  C1  UNL     1     -16.504  -5.308  30.751  1.00  0.00     0.015 C 
HETATM    2  C2  UNL     1     -15.404  -5.539  31.172  1.00  0.00    -0.078 C 
HETATM    3  C3  UNL     1     -14.062  -5.776  31.750  1.00  0.00     0.128 C 
HETATM    4  C4  UNL     1     -13.036  -4.831  31.127  1.00  0.00     0.052 C 
HETATM    5  C5  UNL     1     -12.664  -5.522  29.823  1.00  0.00     0.010 C 
HETATM    6  C6  UNL     1     -12.617  -7.030  30.160  1.00  0.00     0.002 C 
HETATM    7  C7  UNL     1     -13.051  -7.895  28.963  1.00  0.00    -0.004 C 
HETATM    8  C8  UNL     1     -12.434  -9.310  29.013  1.00  0.00     0.010 C 
HETATM    9  C9  UNL     1     -13.148 -10.332  28.113  1.00  0.00     0.035 C 
HETATM   10  C10 UNL     1     -13.929  -9.669  27.008  1.00  0.00    -0.069 C 
HETATM   11  C11 UNL     1     -13.644  -9.924  25.717  1.00  0.00     0.030 C 
HETATM   12  C12 UNL     1     -14.394  -9.262  24.610  1.00  0.00     0.032 C 
HETATM   13  N1  UNL     1     -14.367  -9.614  23.362  1.00  0.00    -0.271 N 
ATOM     14  H1  UNL     1     -14.939  -9.181  22.637  1.00  0.00     0.194 HD
HETATM   15  C22 UNL     1     -15.303  -8.095  24.956  1.00  0.00     0.060 C 
HETATM   16  C23 UNL     1     -15.056  -7.549  26.358  1.00  0.00     0.020 C 
HETATM   17  C24 UNL     1     -14.990  -8.657  27.449  1.00  0.00    -0.016 C 
HETATM   18  C25 UNL     1     -16.368  -9.357  27.529  1.00  0.00     0.020 C 
HETATM   19  C26 UNL     1     -14.586  -7.970  28.821  1.00  0.00     0.002 C 
HETATM   20  C27 UNL     1     -15.225  -8.587  30.084  1.00  0.00     0.007 C 
HETATM   21  C28 UNL     1     -14.500  -8.332  31.414  1.00  0.00     0.014 C 
HETATM   22  C29 UNL     1     -13.457  -7.197  31.469  1.00  0.00     0.003 C 
HETATM   23  C30 UNL     1     -12.472  -7.578  32.618  1.00  0.00     0.020 C 
ENDROOT
BRANCH   3  24
HETATM   24  O1  UNL     1     -14.154  -5.514  33.148  1.00  0.00    -0.377 OA
HETATM   25  H2  UNL     1     -14.596  -4.652  33.241  1.00  0.00     0.211 HD
ENDBRANCH   3  24
BRANCH  13  26
HETATM   26  O2  UNL     1     -13.459 -10.659  23.121  1.00  0.00    -0.271 OA
BRANCH  26  27
HETATM   27  C13 UNL     1     -13.425 -10.921  21.723  1.00  0.00     0.303 C 
BRANCH  27  28
HETATM   28  C14 UNL     1     -11.992 -10.970  21.191  1.00  0.00     0.244 C 
HETATM   29  O3  UNL     1     -11.640 -11.621  20.210  1.00  0.00    -0.271 OA
HETATM   30  N2  UNL     1     -11.090 -10.262  21.956  1.00  0.00    -0.350 N 
HETATM   31  H16 UNL     1     -11.411  -9.581  22.643  1.00  0.00     0.163 HD
BRANCH  30  32
HETATM   32  C15 UNL     1      -9.669 -10.284  21.667  1.00  0.00     0.225 C 
BRANCH  32  33
HETATM   33  C16 UNL     1      -9.044 -11.515  22.321  1.00  0.00     0.236 C 
HETATM   34  O4  UNL     1      -7.858 -11.807  22.162  1.00  0.00    -0.272 OA
HETATM   35  N3  UNL     1      -9.926 -12.278  23.062  1.00  0.00    -0.345 N 
HETATM   36  H19 UNL     1     -10.715 -11.772  23.446  1.00  0.00     0.163 HD
BRANCH  35  37
HETATM   37  C17 UNL     1      -9.422 -13.381  23.890  1.00  0.00     0.185 C 
BRANCH  37  38
HETATM   38  C18 UNL     1      -8.356 -14.202  23.139  1.00  0.00     0.163 C 
HETATM   39  O5  UNL     1      -8.515 -14.798  22.082  1.00  0.00    -0.648 OA
BRANCH  38  40
HETATM   40  O6  UNL     1      -7.175 -14.292  23.792  1.00  0.00    -0.775 OA
HETATM   41  H21 UNL     1      -6.620 -14.833  23.189  1.00  0.00     0.167 HD
ENDBRANCH  38  40
ENDBRANCH  37  38
BRANCH  37  42
HETATM   42  C19 UNL     1      -8.858 -12.875  25.237  1.00  0.00     0.010 C 
HETATM   43  C20 UNL     1      -8.145 -11.520  25.131  1.00  0.00     0.012 C 
HETATM   44  C21 UNL     1      -9.961 -12.797  26.304  1.00  0.00     0.012 C 
ENDBRANCH  37  42
ENDBRANCH  35  37
ENDBRANCH  32  33
ENDBRANCH  30  32
ENDBRANCH  27  28
ENDBRANCH  26  27
ENDBRANCH  13  26
TORSDOF 10
ENDMDL
MODEL 2
REMARK minimizedAffinity -7.07227087
REMARK CNNscore 0.385575533
REMARK CNNaffinity 6.11752748
REMARK  10 active torsions:
REMARK  status: ('A' for Active; 'I' for Inactive)
REMARK    1  A    between atoms: C3_3  and  O1_4 
REMARK    2  A    between atoms: N1_14  and  O2_16 
REMARK    3  A    between atoms: O2_16  and  C13_17 
REMARK    4  A    between atoms: C13_17  and  C14_18 
REMARK       I    between atoms: C14_18  and  N2_20 
REMARK    5  A    between atoms: N2_20  and  C15_21 
REMARK    6  A    between atoms: C15_21  and  C16_22 
REMARK       I    between atoms: C16_22  and  N3_24 
REMARK    7  A    between atoms: N3_24  and  C17_25 
REMARK    8  A    between atoms: C17_25  and  C18_26 
REMARK    9  A    between atoms: C17_25  and  C19_29 
REMARK   10  A    between atoms: C18_26  and  O6_28 
ROOT
HETATM    1  C1  UNL     1      -6.887  16.079  17.429  1.00  0.00     0.015 C 
HETATM    2  C2  UNL     1      -5.892  15.732  18.004  1.00  0.00    -0.078 C 
HETATM    3  C3  UNL     1      -4.624  15.344  18.661  1.00  0.00     0.128 C 
HETATM    4  C4  UNL     1      -4.151  13.983  18.151  1.00  0.00     0.052 C 
HETATM    5  C5  UNL     1      -4.956  12.995  18.983  1.00  0.00     0.010 C 
HETATM    6  C6  UNL     1      -5.016  13.609  20.401  1.00  0.00     0.002 C 
HETATM    7  C7  UNL     1      -6.336  13.265  21.115  1.00  0.00    -0.004 C 
HETATM    8  C8  UNL     1      -6.186  13.281  22.652  1.00  0.00     0.010 C 
HETATM    9  C9  UNL     1      -7.523  13.371  23.406  1.00  0.00     0.035 C 
HETATM   10  C10 UNL     1      -8.683  12.907  22.564  1.00  0.00    -0.069 C 
HETATM   11  C11 UNL     1      -9.444  11.867  22.956  1.00  0.00     0.030 C 
HETATM   12  C12 UNL     1     -10.584  11.381  22.127  1.00  0.00     0.032 C 
HETATM   13  N1  UNL     1     -11.512  10.564  22.520  1.00  0.00    -0.271 N 
ATOM     14  H1  UNL     1     -12.314  10.300  21.948  1.00  0.00     0.194 HD
HETATM   15  C22 UNL     1     -10.711  11.902  20.705  1.00  0.00     0.060 C 
HETATM   16  C23 UNL     1      -9.447  12.600  20.216  1.00  0.00     0.020 C 
HETATM   17  C24 UNL     1      -8.881  13.635  21.233  1.00  0.00    -0.016 C 
HETATM   18  C25 UNL     1      -9.919  14.769  21.414  1.00  0.00     0.020 C 
HETATM   19  C26 UNL     1      -7.500  14.173  20.667  1.00  0.00     0.002 C 
HETATM   20  C27 UNL     1      -7.190  15.654  20.973  1.00  0.00     0.007 C 
HETATM   21  C28 UNL     1      -5.712  16.070  20.925  1.00  0.00     0.014 C 
HETATM   22  C29 UNL     1      -4.714  15.133  20.213  1.00  0.00     0.003 C 
HETATM   23  C30 UNL     1      -3.323  15.422  20.859  1.00  0.00     0.020 C 
ENDROOT
BRANCH   3  24
HETATM   24  O1  UNL     1      -3.655  16.333  18.323  1.00  0.00    -0.377 OA
HETATM   25  H2  UNL     1      -3.705  16.454  17.358  1.00  0.00     0.211 HD
ENDBRANCH   3  24
BRANCH  13  26
HETATM   26  O2  UNL     1     -11.287  10.087  23.821  1.00  0.00    -0.271 OA
BRANCH  26  27
HETATM   27  C13 UNL     1     -11.226   8.665  23.782  1.00  0.00     0.303 C 
BRANCH  27  28
HETATM   28  C14 UNL     1     -12.607   8.045  23.569  1.00  0.00     0.244 C 
HETATM   29  O3  UNL     1     -13.648   8.692  23.476  1.00  0.00    -0.271 OA
HETATM   30  N2  UNL     1     -12.602   6.667  23.555  1.00  0.00    -0.350 N 
HETATM   31  H16 UNL     1     -11.731   6.150  23.441  1.00  0.00     0.163 HD
BRANCH  30  32
HETATM   32  C15 UNL     1     -13.833   5.906  23.473  1.00  0.00     0.225 C 
BRANCH  32  33
HETATM   33  C16 UNL     1     -13.965   5.029  24.718  1.00  0.00     0.236 C 
HETATM   34  O4  UNL     1     -14.583   5.402  25.715  1.00  0.00    -0.272 OA
HETATM   35  N3  UNL     1     -13.304   3.819  24.636  1.00  0.00    -0.345 N 
HETATM   36  H19 UNL     1     -13.185   3.456  23.697  1.00  0.00     0.163 HD
BRANCH  35  37
HETATM   37  C17 UNL     1     -13.498   2.808  25.683  1.00  0.00     0.185 C 
BRANCH  37  38
HETATM   38  C18 UNL     1     -14.439   1.684  25.208  1.00  0.00     0.163 C 
HETATM   39  O5  UNL     1     -15.637   1.597  25.443  1.00  0.00    -0.648 OA
BRANCH  38  40
HETATM   40  O6  UNL     1     -13.812   0.695  24.530  1.00  0.00    -0.775 OA
HETATM   41  H21 UNL     1     -14.540   0.076  24.303  1.00  0.00     0.167 HD
ENDBRANCH  38  40
ENDBRANCH  37  38
BRANCH  37  42
HETATM   42  C19 UNL     1     -12.154   2.214  26.162  1.00  0.00     0.010 C 
HETATM   43  C20 UNL     1     -12.274   1.400  27.458  1.00  0.00     0.012 C 
HETATM   44  C21 UNL     1     -11.507   1.352  25.068  1.00  0.00     0.012 C 
ENDBRANCH  37  42
ENDBRANCH  35  37
ENDBRANCH  32  33
ENDBRANCH  30  32
ENDBRANCH  27  28
ENDBRANCH  26  27
ENDBRANCH  13  26
TORSDOF 10
ENDMDL
MODEL 3
REMARK minimizedAffinity -7.45115185
REMARK CNNscore 0.270213366
REMARK CNNaffinity 6.51877594
REMARK  10 active torsions:
REMARK  status: ('A' for Active; 'I' for Inactive)
REMARK    1  A    between atoms: C3_3  and  O1_4 
REMARK    2  A    between atoms: N1_14  and  O2_16 
REMARK    3  A    between atoms: O2_16  and  C13_17 
REMARK    4  A    between atoms: C13_17  and  C14_18 
REMARK       I    between atoms: C14_18  and  N2_20 
REMARK    5  A    between atoms: N2_20  and  C15_21 
REMARK    6  A    between atoms: C15_21  and  C16_22 
REMARK       I    between atoms: C16_22  and  N3_24 
REMARK    7  A    between atoms: N3_24  and  C17_25 
REMARK    8  A    between atoms: C17_25  and  C18_26 
REMARK    9  A    between atoms: C17_25  and  C19_29 
REMARK   10  A    between atoms: C18_26  and  O6_28 
ROOT
HETATM    1  C1  UNL     1      -8.400   8.965  15.138  1.00  0.00     0.015 C 
HETATM    2  C2  UNL     1      -8.062   7.834  14.919  1.00  0.00    -0.078 C 
HETATM    3  C3  UNL     1      -7.718   6.423  14.634  1.00  0.00     0.128 C 
HETATM    4  C4  UNL     1      -7.693   5.607  15.926  1.00  0.00     0.052 C 
HETATM    5  C5  UNL     1      -6.312   5.892  16.499  1.00  0.00     0.010 C 
HETATM    6  C6  UNL     1      -5.365   5.932  15.278  1.00  0.00     0.002 C 
HETATM    7  C7  UNL     1      -4.211   6.930  15.485  1.00  0.00    -0.004 C 
HETATM    8  C8  UNL     1      -2.963   6.556  14.656  1.00  0.00     0.010 C 
HETATM    9  C9  UNL     1      -1.961   7.709  14.484  1.00  0.00     0.035 C 
HETATM   10  C10 UNL     1      -2.120   8.762  15.550  1.00  0.00    -0.069 C 
HETATM   11  C11 UNL     1      -1.101   9.059  16.380  1.00  0.00     0.030 C 
HETATM   12  C12 UNL     1      -1.246  10.084  17.452  1.00  0.00     0.032 C 
HETATM   13  N1  UNL     1      -0.274  10.611  18.132  1.00  0.00    -0.271 N 
ATOM     14  H1  UNL     1      -0.399  11.356  18.817  1.00  0.00     0.194 HD
HETATM   15  C22 UNL     1      -2.640  10.600  17.770  1.00  0.00     0.060 C 
HETATM   16  C23 UNL     1      -3.741   9.737  17.165  1.00  0.00     0.020 C 
HETATM   17  C24 UNL     1      -3.506   9.400  15.664  1.00  0.00    -0.016 C 
HETATM   18  C25 UNL     1      -3.538  10.716  14.850  1.00  0.00     0.020 C 
HETATM   19  C26 UNL     1      -4.639   8.386  15.207  1.00  0.00     0.002 C 
HETATM   20  C27 UNL     1      -5.124   8.548  13.751  1.00  0.00     0.007 C 
HETATM   21  C28 UNL     1      -5.793   7.323  13.110  1.00  0.00     0.014 C 
HETATM   22  C29 UNL     1      -6.284   6.193  14.039  1.00  0.00     0.003 C 
HETATM   23  C30 UNL     1      -6.285   4.896  13.170  1.00  0.00     0.020 C 
ENDROOT
BRANCH   3  24
HETATM   24  O1  UNL     1      -8.731   5.908  13.774  1.00  0.00    -0.377 OA
HETATM   25  H2  UNL     1      -9.585   6.146  14.175  1.00  0.00     0.211 HD
ENDBRANCH   3  24
BRANCH  13  26
HETATM   26  O2  UNL     1       0.969  10.037  17.819  1.00  0.00    -0.271 OA
BRANCH  26  27
HETATM   27  C13 UNL     1       1.987  10.736  18.527  1.00  0.00     0.303 C 
BRANCH  27  28
HETATM   28  C14 UNL     1       1.917  10.466  20.030  1.00  0.00     0.244 C 
HETATM   29  O3  UNL     1       0.871  10.313  20.657  1.00  0.00    -0.271 OA
HETATM   30  N2  UNL     1       3.146  10.475  20.655  1.00  0.00    -0.350 N 
HETATM   31  H16 UNL     1       4.007  10.411  20.113  1.00  0.00     0.163 HD
BRANCH  30  32
HETATM   32  C15 UNL     1       3.265  10.346  22.094  1.00  0.00     0.225 C 
BRANCH  32  33
HETATM   33  C16 UNL     1       4.274  11.372  22.607  1.00  0.00     0.236 C 
HETATM   34  O4  UNL     1       5.349  11.038  23.106  1.00  0.00    -0.272 OA
HETATM   35  N3  UNL     1       3.858  12.686  22.497  1.00  0.00    -0.345 N 
HETATM   36  H19 UNL     1       3.195  12.865  21.752  1.00  0.00     0.163 HD
BRANCH  35  37
HETATM   37  C17 UNL     1       4.799  13.776  22.781  1.00  0.00     0.185 C 
BRANCH  37  38
HETATM   38  C18 UNL     1       5.759  14.009  21.598  1.00  0.00     0.163 C 
HETATM   39  O5  UNL     1       6.615  14.881  21.523  1.00  0.00    -0.648 OA
BRANCH  38  40
HETATM   40  O6  UNL     1       5.542  13.186  20.547  1.00  0.00    -0.775 OA
HETATM   41  H21 UNL     1       6.225  13.461  19.897  1.00  0.00     0.167 HD
ENDBRANCH  38  40
ENDBRANCH  37  38
BRANCH  37  42
HETATM   42  C19 UNL     1       4.064  15.088  23.140  1.00  0.00     0.010 C 
HETATM   43  C20 UNL     1       2.715  14.860  23.837  1.00  0.00     0.012 C 
HETATM   44  C21 UNL     1       4.946  15.997  24.008  1.00  0.00     0.012 C 
ENDBRANCH  37  42
ENDBRANCH  35  37
ENDBRANCH  32  33
ENDBRANCH  30  32
ENDBRANCH  27  28
ENDBRANCH  26  27
ENDBRANCH  13  26
TORSDOF 10
ENDMDL
MODEL 4
REMARK minimizedAffinity -7.32862282
REMARK CNNscore 0.267744184
REMARK CNNaffinity 6.59185171
REMARK  10 active torsions:
REMARK  status: ('A' for Active; 'I' for Inactive)
REMARK    1  A    between atoms: C3_3  and  O1_4 
REMARK    2  A    between atoms: N1_14  and  O2_16 
REMARK    3  A    between atoms: O2_16  and  C13_17 
REMARK    4  A    between atoms: C13_17  and  C14_18 
REMARK       I    between atoms: C14_18  and  N2_20 
REMARK    5  A    between atoms: N2_20  and  C15_21 
REMARK    6  A    between atoms: C15_21  and  C16_22 
REMARK       I    between atoms: C16_22  and  N3_24 
REMARK    7  A    between atoms: N3_24  and  C17_25 
REMARK    8  A    between atoms: C17_25  and  C18_26 
REMARK    9  A    between atoms: C17_25  and  C19_29 
REMARK   10  A    between atoms: C18_26  and  O6_28 
ROOT
HETATM    1  C1  UNL     1      -2.711   9.233  16.525  1.00  0.00     0.015 C 
HETATM    2  C2  UNL     1      -2.424   8.632  15.526  1.00  0.00    -0.078 C 
HETATM    3  C3  UNL     1      -1.996   7.914  14.305  1.00  0.00     0.128 C 
HETATM    4  C4  UNL     1      -2.186   8.795  13.071  1.00  0.00     0.052 C 
HETATM    5  C5  UNL     1      -3.660   8.618  12.733  1.00  0.00     0.010 C 
HETATM    6  C6  UNL     1      -3.963   7.125  13.001  1.00  0.00     0.002 C 
HETATM    7  C7  UNL     1      -5.406   6.917  13.494  1.00  0.00    -0.004 C 
HETATM    8  C8  UNL     1      -5.936   5.504  13.163  1.00  0.00     0.010 C 
HETATM    9  C9  UNL     1      -7.170   5.094  13.984  1.00  0.00     0.035 C 
HETATM   10  C10 UNL     1      -7.908   6.287  14.533  1.00  0.00    -0.069 C 
HETATM   11  C11 UNL     1      -9.194   6.513  14.199  1.00  0.00     0.030 C 
HETATM   12  C12 UNL     1      -9.935   7.698  14.717  1.00  0.00     0.032 C 
HETATM   13  N1  UNL     1     -11.219   7.874  14.658  1.00  0.00    -0.271 N 
ATOM     14  H1  UNL     1     -11.704   8.667  15.077  1.00  0.00     0.194 HD
HETATM   15  C22 UNL     1      -9.142   8.793  15.413  1.00  0.00     0.060 C 
HETATM   16  C23 UNL     1      -7.641   8.674  15.181  1.00  0.00     0.020 C 
HETATM   17  C24 UNL     1      -7.092   7.236  15.414  1.00  0.00    -0.016 C 
HETATM   18  C25 UNL     1      -7.297   6.863  16.902  1.00  0.00     0.020 C 
HETATM   19  C26 UNL     1      -5.561   7.223  14.998  1.00  0.00     0.002 C 
HETATM   20  C27 UNL     1      -4.654   6.302  15.842  1.00  0.00     0.007 C 
HETATM   21  C28 UNL     1      -3.337   5.852  15.192  1.00  0.00     0.014 C 
HETATM   22  C29 UNL     1      -2.830   6.630  13.960  1.00  0.00     0.003 C 
HETATM   23  C30 UNL     1      -1.938   5.630  13.161  1.00  0.00     0.020 C 
ENDROOT
BRANCH   3  24
HETATM   24  O1  UNL     1      -0.612   7.613  14.457  1.00  0.00    -0.377 OA
HETATM   25  H2  UNL     1      -0.175   8.438  14.733  1.00  0.00     0.211 HD
ENDBRANCH   3  24
BRANCH  13  26
HETATM   26  O2  UNL     1     -11.866   6.848  13.949  1.00  0.00    -0.271 OA
BRANCH  26  27
HETATM   27  C13 UNL     1     -12.440   7.399  12.769  1.00  0.00     0.303 C 
BRANCH  27  28
HETATM   28  C14 UNL     1     -13.931   7.687  12.948  1.00  0.00     0.244 C 
HETATM   29  O3  UNL     1     -14.604   8.358  12.168  1.00  0.00    -0.271 OA
HETATM   30  N2  UNL     1     -14.461   7.179  14.115  1.00  0.00    -0.350 N 
HETATM   31  H16 UNL     1     -13.957   6.474  14.652  1.00  0.00     0.163 HD
BRANCH  30  32
HETATM   32  C15 UNL     1     -15.831   7.447  14.505  1.00  0.00     0.225 C 
BRANCH  32  33
HETATM   33  C16 UNL     1     -16.274   6.403  15.529  1.00  0.00     0.236 C 
HETATM   34  O4  UNL     1     -16.223   5.196  15.294  1.00  0.00    -0.272 OA
HETATM   35  N3  UNL     1     -16.764   6.932  16.708  1.00  0.00    -0.345 N 
HETATM   36  H19 UNL     1     -16.404   7.849  16.950  1.00  0.00     0.163 HD
BRANCH  35  37
HETATM   37  C17 UNL     1     -17.051   6.047  17.843  1.00  0.00     0.185 C 
BRANCH  37  38
HETATM   38  C18 UNL     1     -16.184   6.406  19.065  1.00  0.00     0.163 C 
HETATM   39  O5  UNL     1     -15.256   7.203  19.084  1.00  0.00    -0.648 OA
BRANCH  38  40
HETATM   40  O6  UNL     1     -16.479   5.689  20.174  1.00  0.00    -0.775 OA
HETATM   41  H21 UNL     1     -15.850   6.037  20.845  1.00  0.00     0.167 HD
ENDBRANCH  38  40
ENDBRANCH  37  38
BRANCH  37  42
HETATM   42  C19 UNL     1     -18.549   6.071  18.224  1.00  0.00     0.010 C 
HETATM   43  C20 UNL     1     -19.095   7.484  18.467  1.00  0.00     0.012 C 
HETATM   44  C21 UNL     1     -19.401   5.363  17.160  1.00  0.00     0.012 C 
ENDBRANCH  37  42
ENDBRANCH  35  37
ENDBRANCH  32  33
ENDBRANCH  30  32
ENDBRANCH  27  28
ENDBRANCH  26  27
ENDBRANCH  13  26
TORSDOF 10
ENDMDL
MODEL 5
REMARK minimizedAffinity -8.47595119
REMARK CNNscore 0.262932241
REMARK CNNaffinity 6.70087624
REMARK  10 active torsions:
REMARK  status: ('A' for Active; 'I' for Inactive)
REMARK    1  A    between atoms: C3_3  and  O1_4 
REMARK    2  A    between atoms: N1_14  and  O2_16 
REMARK    3  A    between atoms: O2_16  and  C13_17 
REMARK    4  A    between atoms: C13_17  and  C14_18 
REMARK       I    between atoms: C14_18  and  N2_20 
REMARK    5  A    between atoms: N2_20  and  C15_21 
REMARK    6  A    between atoms: C15_21  and  C16_22 
REMARK       I    between atoms: C16_22  and  N3_24 
REMARK    7  A    between atoms: N3_24  and  C17_25 
REMARK    8  A    between atoms: C17_25  and  C18_26 
REMARK    9  A    between atoms: C17_25  and  C19_29 
REMARK   10  A    between atoms: C18_26  and  O6_28 
ROOT
HETATM    1  C1  UNL     1      -2.580   8.928  16.663  1.00  0.00     0.015 C 
HETATM    2  C2  UNL     1      -2.268   8.376  15.644  1.00  0.00    -0.078 C 
HETATM    3  C3  UNL     1      -1.808   7.715  14.402  1.00  0.00     0.128 C 
HETATM    4  C4  UNL     1      -1.932   8.667  13.212  1.00  0.00     0.052 C 
HETATM    5  C5  UNL     1      -3.395   8.542  12.810  1.00  0.00     0.010 C 
HETATM    6  C6  UNL     1      -3.739   7.045  12.984  1.00  0.00     0.002 C 
HETATM    7  C7  UNL     1      -5.205   6.844  13.410  1.00  0.00    -0.004 C 
HETATM    8  C8  UNL     1      -5.751   5.464  12.982  1.00  0.00     0.010 C 
HETATM    9  C9  UNL     1      -7.024   5.039  13.732  1.00  0.00     0.035 C 
HETATM   10  C10 UNL     1      -7.758   6.217  14.318  1.00  0.00    -0.069 C 
HETATM   11  C11 UNL     1      -9.024   6.491  13.949  1.00  0.00     0.030 C 
HETATM   12  C12 UNL     1      -9.760   7.663  14.505  1.00  0.00     0.032 C 
HETATM   13  N1  UNL     1     -11.037   7.871  14.407  1.00  0.00    -0.271 N 
ATOM     14  H1  UNL     1     -11.520   8.651  14.851  1.00  0.00     0.194 HD
HETATM   15  C22 UNL     1      -8.972   8.700  15.289  1.00  0.00     0.060 C 
HETATM   16  C23 UNL     1      -7.465   8.558  15.107  1.00  0.00     0.020 C 
HETATM   17  C24 UNL     1      -6.957   7.097  15.280  1.00  0.00    -0.016 C 
HETATM   18  C25 UNL     1      -7.227   6.649  16.737  1.00  0.00     0.020 C 
HETATM   19  C26 UNL     1      -5.411   7.071  14.922  1.00  0.00     0.002 C 
HETATM   20  C27 UNL     1      -4.557   6.084  15.747  1.00  0.00     0.007 C 
HETATM   21  C28 UNL     1      -3.226   5.640  15.123  1.00  0.00     0.014 C 
HETATM   22  C29 UNL     1      -2.656   6.472  13.955  1.00  0.00     0.003 C 
HETATM   23  C30 UNL     1      -1.754   5.496  13.136  1.00  0.00     0.020 C 
ENDROOT
BRANCH   3  24
HETATM   24  O1  UNL     1      -0.437   7.374  14.589  1.00  0.00    -0.377 OA
HETATM   25  H2  UNL     1       0.005   8.173  14.926  1.00  0.00     0.211 HD
ENDBRANCH   3  24
BRANCH  13  26
HETATM   26  O2  UNL     1     -11.677   6.901  13.618  1.00  0.00    -0.271 OA
BRANCH  26  27
HETATM   27  C13 UNL     1     -12.622   6.207  14.426  1.00  0.00     0.303 C 
BRANCH  27  28
HETATM   28  C14 UNL     1     -14.021   6.238  13.811  1.00  0.00     0.244 C 
HETATM   29  O3  UNL     1     -14.359   6.988  12.897  1.00  0.00    -0.271 OA
HETATM   30  N2  UNL     1     -14.916   5.385  14.420  1.00  0.00    -0.350 N 
HETATM   31  H16 UNL     1     -14.590   4.641  15.036  1.00  0.00     0.163 HD
BRANCH  30  32
HETATM   32  C15 UNL     1     -16.316   5.358  14.043  1.00  0.00     0.225 C 
BRANCH  32  33
HETATM   33  C16 UNL     1     -16.900   3.987  14.382  1.00  0.00     0.236 C 
HETATM   34  O4  UNL     1     -17.974   3.863  14.971  1.00  0.00    -0.272 OA
HETATM   35  N3  UNL     1     -16.106   2.920  14.008  1.00  0.00    -0.345 N 
HETATM   36  H19 UNL     1     -15.491   3.096  13.222  1.00  0.00     0.163 HD
BRANCH  35  37
HETATM   37  C17 UNL     1     -16.626   1.551  14.108  1.00  0.00     0.185 C 
BRANCH  37  38
HETATM   38  C18 UNL     1     -17.260   1.095  12.779  1.00  0.00     0.163 C 
HETATM   39  O5  UNL     1     -18.419   0.738  12.617  1.00  0.00    -0.648 OA
BRANCH  38  40
HETATM   40  O6  UNL     1     -16.387   1.040  11.747  1.00  0.00    -0.775 OA
HETATM   41  H21 UNL     1     -16.943   0.742  10.994  1.00  0.00     0.167 HD
ENDBRANCH  38  40
ENDBRANCH  37  38
BRANCH  37  42
HETATM   42  C19 UNL     1     -15.532   0.552  14.550  1.00  0.00     0.010 C 
HETATM   43  C20 UNL     1     -14.881   0.914  15.892  1.00  0.00     0.012 C 
HETATM   44  C21 UNL     1     -16.083  -0.880  14.612  1.00  0.00     0.012 C 
ENDBRANCH  37  42
ENDBRANCH  35  37
ENDBRANCH  32  33
ENDBRANCH  30  32
ENDBRANCH  27  28
ENDBRANCH  26  27
ENDBRANCH  13  26
TORSDOF 10
ENDMDL
MODEL 6
REMARK minimizedAffinity -7.81126976
REMARK CNNscore 0.210677266
REMARK CNNaffinity 6.27208948
REMARK  10 active torsions:
REMARK  status: ('A' for Active; 'I' for Inactive)
REMARK    1  A    between atoms: C3_3  and  O1_4 
REMARK    2  A    between atoms: N1_14  and  O2_16 
REMARK    3  A    between atoms: O2_16  and  C13_17 
REMARK    4  A    between atoms: C13_17  and  C14_18 
REMARK       I    between atoms: C14_18  and  N2_20 
REMARK    5  A    between atoms: N2_20  and  C15_21 
REMARK    6  A    between atoms: C15_21  and  C16_22 
REMARK       I    between atoms: C16_22  and  N3_24 
REMARK    7  A    between atoms: N3_24  and  C17_25 
REMARK    8  A    between atoms: C17_25  and  C18_26 
REMARK    9  A    between atoms: C17_25  and  C19_29 
REMARK   10  A    between atoms: C18_26  and  O6_28 
ROOT
HETATM    1  C1  UNL     1      -2.874  10.050  19.238  1.00  0.00     0.015 C 
HETATM    2  C2  UNL     1      -2.861  10.941  18.434  1.00  0.00    -0.078 C 
HETATM    3  C3  UNL     1      -2.852  12.091  17.501  1.00  0.00     0.128 C 
HETATM    4  C4  UNL     1      -4.263  12.370  16.983  1.00  0.00     0.052 C 
HETATM    5  C5  UNL     1      -4.427  11.371  15.847  1.00  0.00     0.010 C 
HETATM    6  C6  UNL     1      -3.052  11.325  15.142  1.00  0.00     0.002 C 
HETATM    7  C7  UNL     1      -2.752   9.927  14.570  1.00  0.00    -0.004 C 
HETATM    8  C8  UNL     1      -1.778   9.985  13.372  1.00  0.00     0.010 C 
HETATM    9  C9  UNL     1      -1.117   8.637  13.042  1.00  0.00     0.035 C 
HETATM   10  C10 UNL     1      -1.909   7.471  13.574  1.00  0.00    -0.069 C 
HETATM   11  C11 UNL     1      -2.395   6.532  12.739  1.00  0.00     0.030 C 
HETATM   12  C12 UNL     1      -3.196   5.381  13.245  1.00  0.00     0.032 C 
HETATM   13  N1  UNL     1      -3.496   4.313  12.572  1.00  0.00    -0.271 N 
ATOM     14  H1  UNL     1      -3.993   3.515  12.967  1.00  0.00     0.194 HD
HETATM   15  C22 UNL     1      -3.685   5.424  14.684  1.00  0.00     0.060 C 
HETATM   16  C23 UNL     1      -3.565   6.809  15.308  1.00  0.00     0.020 C 
HETATM   17  C24 UNL     1      -2.174   7.470  15.081  1.00  0.00    -0.016 C 
HETATM   18  C25 UNL     1      -1.098   6.616  15.795  1.00  0.00     0.020 C 
HETATM   19  C26 UNL     1      -2.237   8.951  15.649  1.00  0.00     0.002 C 
HETATM   20  C27 UNL     1      -0.931   9.473  16.284  1.00  0.00     0.007 C 
HETATM   21  C28 UNL     1      -0.767  10.998  16.363  1.00  0.00     0.014 C 
HETATM   22  C29 UNL     1      -2.024  11.875  16.185  1.00  0.00     0.003 C 
HETATM   23  C30 UNL     1      -1.512  13.254  15.663  1.00  0.00     0.020 C 
ENDROOT
BRANCH   3  24
HETATM   24  O1  UNL     1      -2.389  13.222  18.232  1.00  0.00    -0.377 OA
HETATM   25  H2  UNL     1      -2.902  13.250  19.059  1.00  0.00     0.211 HD
ENDBRANCH   3  24
BRANCH  13  26
HETATM   26  O2  UNL     1      -3.059   4.382  11.239  1.00  0.00    -0.271 OA
BRANCH  26  27
HETATM   27  C13 UNL     1      -2.543   3.111  10.861  1.00  0.00     0.303 C 
BRANCH  27  28
HETATM   28  C14 UNL     1      -1.042   3.006  11.133  1.00  0.00     0.244 C 
HETATM   29  O3  UNL     1      -0.435   1.945  11.261  1.00  0.00    -0.271 OA
HETATM   30  N2  UNL     1      -0.419   4.225  11.295  1.00  0.00    -0.350 N 
HETATM   31  H16 UNL     1      -0.877   5.088  11.003  1.00  0.00     0.163 HD
BRANCH  30  32
HETATM   32  C15 UNL     1       0.980   4.318  11.666  1.00  0.00     0.225 C 
BRANCH  32  33
HETATM   33  C16 UNL     1       1.457   5.756  11.464  1.00  0.00     0.236 C 
HETATM   34  O4  UNL     1       1.635   6.523  12.410  1.00  0.00    -0.272 OA
HETATM   35  N3  UNL     1       1.628   6.120  10.141  1.00  0.00    -0.345 N 
HETATM   36  H19 UNL     1       1.842   5.357   9.510  1.00  0.00     0.163 HD
BRANCH  35  37
HETATM   37  C17 UNL     1       2.255   7.406   9.812  1.00  0.00     0.185 C 
BRANCH  37  38
HETATM   38  C18 UNL     1       3.720   7.452  10.287  1.00  0.00     0.163 C 
HETATM   39  O5  UNL     1       4.614   6.687   9.948  1.00  0.00    -0.648 OA
BRANCH  38  40
HETATM   40  O6  UNL     1       3.964   8.404  11.217  1.00  0.00    -0.775 OA
HETATM   41  H21 UNL     1       4.923   8.300  11.403  1.00  0.00     0.167 HD
ENDBRANCH  38  40
ENDBRANCH  37  38
BRANCH  37  42
HETATM   42  C19 UNL     1       2.172   7.713   8.300  1.00  0.00     0.010 C 
HETATM   43  C20 UNL     1       3.132   8.823   7.849  1.00  0.00     0.012 C 
HETATM   44  C21 UNL     1       2.415   6.449   7.463  1.00  0.00     0.012 C 
ENDBRANCH  37  42
ENDBRANCH  35  37
ENDBRANCH  32  33
ENDBRANCH  30  32
ENDBRANCH  27  28
ENDBRANCH  26  27
ENDBRANCH  13  26
TORSDOF 10
ENDMDL
MODEL 7
REMARK minimizedAffinity -7.04127693
REMARK CNNscore 0.207473069
REMARK CNNaffinity 5.39981842
REMARK  10 active torsions:
REMARK  status: ('A' for Active; 'I' for Inactive)
REMARK    1  A    between atoms: C3_3  and  O1_4 
REMARK    2  A    between atoms: N1_14  and  O2_16 
REMARK    3  A    between atoms: O2_16  and  C13_17 
REMARK    4  A    between atoms: C13_17  and  C14_18 
REMARK       I    between atoms: C14_18  and  N2_20 
REMARK    5  A    between atoms: N2_20  and  C15_21 
REMARK    6  A    between atoms: C15_21  and  C16_22 
REMARK       I    between atoms: C16_22  and  N3_24 
REMARK    7  A    between atoms: N3_24  and  C17_25 
REMARK    8  A    between atoms: C17_25  and  C18_26 
REMARK    9  A    between atoms: C17_25  and  C19_29 
REMARK   10  A    between atoms: C18_26  and  O6_28 
ROOT
HETATM    1  C1  UNL     1      -5.593 -11.694   5.579  1.00  0.00     0.015 C 
HETATM    2  C2  UNL     1      -4.556 -11.503   5.005  1.00  0.00    -0.078 C 
HETATM    3  C3  UNL     1      -3.240 -11.282   4.364  1.00  0.00     0.128 C 
HETATM    4  C4  UNL     1      -2.869  -9.800   4.399  1.00  0.00     0.052 C 
HETATM    5  C5  UNL     1      -3.616  -9.220   3.207  1.00  0.00     0.010 C 
HETATM    6  C6  UNL     1      -3.509 -10.292   2.098  1.00  0.00     0.002 C 
HETATM    7  C7  UNL     1      -4.757 -10.308   1.198  1.00  0.00    -0.004 C 
HETATM    8  C8  UNL     1      -4.449 -10.848  -0.216  1.00  0.00     0.010 C 
HETATM    9  C9  UNL     1      -5.697 -11.285  -1.001  1.00  0.00     0.035 C 
HETATM   10  C10 UNL     1      -6.953 -10.636  -0.479  1.00  0.00    -0.069 C 
HETATM   11  C11 UNL     1      -7.704  -9.852  -1.276  1.00  0.00     0.030 C 
HETATM   12  C12 UNL     1      -8.939  -9.187  -0.771  1.00  0.00     0.032 C 
HETATM   13  N1  UNL     1      -9.849  -8.623  -1.505  1.00  0.00    -0.271 N 
ATOM     14  H1  UNL     1     -10.714  -8.231  -1.134  1.00  0.00     0.194 HD
HETATM   15  C22 UNL     1      -9.195  -9.188   0.727  1.00  0.00     0.060 C 
HETATM   16  C23 UNL     1      -7.966  -9.585   1.536  1.00  0.00     0.020 C 
HETATM   17  C24 UNL     1      -7.263 -10.868   1.002  1.00  0.00    -0.016 C 
HETATM   18  C25 UNL     1      -8.238 -12.062   1.144  1.00  0.00     0.020 C 
HETATM   19  C26 UNL     1      -5.930 -11.080   1.837  1.00  0.00     0.002 C 
HETATM   20  C27 UNL     1      -5.541 -12.550   2.101  1.00  0.00     0.007 C 
HETATM   21  C28 UNL     1      -4.064 -12.823   2.418  1.00  0.00     0.014 C 
HETATM   22  C29 UNL     1      -3.177 -11.631   2.835  1.00  0.00     0.003 C 
HETATM   23  C30 UNL     1      -1.717 -12.031   2.455  1.00  0.00     0.020 C 
ENDROOT
BRANCH   3  24
HETATM   24  O1  UNL     1      -2.279 -12.024   5.110  1.00  0.00    -0.377 OA
HETATM   25  H2  UNL     1      -2.425 -11.805   6.048  1.00  0.00     0.211 HD
ENDBRANCH   3  24
BRANCH  13  26
HETATM   26  O2  UNL     1      -9.506  -8.613  -2.867  1.00  0.00    -0.271 OA
BRANCH  26  27
HETATM   27  C13 UNL     1     -10.700  -8.572  -3.639  1.00  0.00     0.303 C 
BRANCH  27  28
HETATM   28  C14 UNL     1     -10.445  -8.039  -5.049  1.00  0.00     0.244 C 
HETATM   29  O3  UNL     1     -10.879  -8.560  -6.074  1.00  0.00    -0.271 OA
HETATM   30  N2  UNL     1      -9.614  -6.940  -5.087  1.00  0.00    -0.350 N 
HETATM   31  H16 UNL     1      -9.418  -6.406  -4.241  1.00  0.00     0.163 HD
BRANCH  30  32
HETATM   32  C15 UNL     1      -9.174  -6.364  -6.343  1.00  0.00     0.225 C 
BRANCH  32  33
HETATM   33  C16 UNL     1      -9.908  -5.044  -6.574  1.00  0.00     0.236 C 
HETATM   34  O4  UNL     1     -10.993  -4.993  -7.153  1.00  0.00    -0.272 OA
HETATM   35  N3  UNL     1      -9.233  -3.928  -6.115  1.00  0.00    -0.345 N 
HETATM   36  H19 UNL     1      -8.598  -4.097  -5.344  1.00  0.00     0.163 HD
BRANCH  35  37
HETATM   37  C17 UNL     1      -9.902  -2.622  -6.108  1.00  0.00     0.185 C 
BRANCH  37  38
HETATM   38  C18 UNL     1     -11.086  -2.605  -5.122  1.00  0.00     0.163 C 
HETATM   39  O5  UNL     1     -12.200  -2.147  -5.338  1.00  0.00    -0.648 OA
BRANCH  38  40
HETATM   40  O6  UNL     1     -10.784  -3.093  -3.896  1.00  0.00    -0.775 OA
HETATM   41  H21 UNL     1     -11.631  -3.014  -3.404  1.00  0.00     0.167 HD
ENDBRANCH  38  40
ENDBRANCH  37  38
BRANCH  37  42
HETATM   42  C19 UNL     1      -8.917  -1.476  -5.782  1.00  0.00     0.010 C 
HETATM   43  C20 UNL     1      -7.901  -1.207  -6.901  1.00  0.00     0.012 C 
HETATM   44  C21 UNL     1      -9.668  -0.180  -5.443  1.00  0.00     0.012 C 
ENDBRANCH  37  42
ENDBRANCH  35  37
ENDBRANCH  32  33
ENDBRANCH  30  32
ENDBRANCH  27  28
ENDBRANCH  26  27
ENDBRANCH  13  26
TORSDOF 10
ENDMDL
MODEL 8
REMARK minimizedAffinity -6.89009714
REMARK CNNscore 0.198336273
REMARK CNNaffinity 5.92934847
REMARK  10 active torsions:
REMARK  status: ('A' for Active; 'I' for Inactive)
REMARK    1  A    between atoms: C3_3  and  O1_4 
REMARK    2  A    between atoms: N1_14  and  O2_16 
REMARK    3  A    between atoms: O2_16  and  C13_17 
REMARK    4  A    between atoms: C13_17  and  C14_18 
REMARK       I    between atoms: C14_18  and  N2_20 
REMARK    5  A    between atoms: N2_20  and  C15_21 
REMARK    6  A    between atoms: C15_21  and  C16_22 
REMARK       I    between atoms: C16_22  and  N3_24 
REMARK    7  A    between atoms: N3_24  and  C17_25 
REMARK    8  A    between atoms: C17_25  and  C18_26 
REMARK    9  A    between atoms: C17_25  and  C19_29 
REMARK   10  A    between atoms: C18_26  and  O6_28 
ROOT
HETATM    1  C1  UNL     1       0.515  16.526  16.869  1.00  0.00     0.015 C 
HETATM    2  C2  UNL     1       0.105  16.281  17.971  1.00  0.00    -0.078 C 
HETATM    3  C3  UNL     1      -0.370  16.046  19.353  1.00  0.00     0.128 C 
HETATM    4  C4  UNL     1       0.644  15.209  20.132  1.00  0.00     0.052 C 
HETATM    5  C5  UNL     1       0.322  13.782  19.713  1.00  0.00     0.010 C 
HETATM    6  C6  UNL     1      -1.221  13.723  19.619  1.00  0.00     0.002 C 
HETATM    7  C7  UNL     1      -1.688  12.753  18.520  1.00  0.00    -0.004 C 
HETATM    8  C8  UNL     1      -3.097  12.188  18.802  1.00  0.00     0.010 C 
HETATM    9  C9  UNL     1      -3.780  11.573  17.569  1.00  0.00     0.035 C 
HETATM   10  C10 UNL     1      -2.786  11.175  16.509  1.00  0.00    -0.069 C 
HETATM   11  C11 UNL     1      -2.689   9.894  16.104  1.00  0.00     0.030 C 
HETATM   12  C12 UNL     1      -1.698   9.479  15.070  1.00  0.00     0.032 C 
HETATM   13  N1  UNL     1      -1.689   8.342  14.444  1.00  0.00    -0.271 N 
ATOM     14  H1  UNL     1      -1.035   8.112  13.696  1.00  0.00     0.194 HD
HETATM   15  C22 UNL     1      -0.617  10.470  14.671  1.00  0.00     0.060 C 
HETATM   16  C23 UNL     1      -0.501  11.639  15.642  1.00  0.00     0.020 C 
HETATM   17  C24 UNL     1      -1.871  12.289  15.993  1.00  0.00    -0.016 C 
HETATM   18  C25 UNL     1      -2.476  12.898  14.705  1.00  0.00     0.020 C 
HETATM   19  C26 UNL     1      -1.621  13.385  17.113  1.00  0.00     0.002 C 
HETATM   20  C27 UNL     1      -2.523  14.635  17.030  1.00  0.00     0.007 C 
HETATM   21  C28 UNL     1      -2.697  15.443  18.324  1.00  0.00     0.014 C 
HETATM   22  C29 UNL     1      -1.691  15.208  19.471  1.00  0.00     0.003 C 
HETATM   23  C30 UNL     1      -2.440  15.600  20.783  1.00  0.00     0.020 C 
ENDROOT
BRANCH   3  24
HETATM   24  O1  UNL     1      -0.502  17.321  19.975  1.00  0.00    -0.377 OA
HETATM   25  H2  UNL     1       0.327  17.803  19.804  1.00  0.00     0.211 HD
ENDBRANCH   3  24
BRANCH  13  26
HETATM   26  O2  UNL     1      -2.681   7.466  14.913  1.00  0.00    -0.271 OA
BRANCH  26  27
HETATM   27  C13 UNL     1      -2.159   6.142  14.913  1.00  0.00     0.303 C 
BRANCH  27  28
HETATM   28  C14 UNL     1      -1.668   5.728  13.526  1.00  0.00     0.244 C 
HETATM   29  O3  UNL     1      -2.328   5.844  12.496  1.00  0.00    -0.271 OA
HETATM   30  N2  UNL     1      -0.423   5.138  13.529  1.00  0.00    -0.350 N 
HETATM   31  H16 UNL     1       0.190   5.217  14.341  1.00  0.00     0.163 HD
BRANCH  30  32
HETATM   32  C15 UNL     1       0.157   4.583  12.322  1.00  0.00     0.225 C 
BRANCH  32  33
HETATM   33  C16 UNL     1       1.176   5.572  11.756  1.00  0.00     0.236 C 
HETATM   34  O4  UNL     1       1.870   6.282  12.483  1.00  0.00    -0.272 OA
HETATM   35  N3  UNL     1       1.217   5.621  10.375  1.00  0.00    -0.345 N 
HETATM   36  H19 UNL     1       0.931   4.770   9.906  1.00  0.00     0.163 HD
BRANCH  35  37
HETATM   37  C17 UNL     1       2.272   6.389   9.702  1.00  0.00     0.185 C 
BRANCH  37  38
HETATM   38  C18 UNL     1       3.347   5.460   9.107  1.00  0.00     0.163 C 
HETATM   39  O5  UNL     1       3.335   4.964   7.988  1.00  0.00    -0.648 OA
BRANCH  38  40
HETATM   40  O6  UNL     1       4.337   5.143   9.974  1.00  0.00    -0.775 OA
HETATM   41  H21 UNL     1       4.925   4.561   9.445  1.00  0.00     0.167 HD
ENDBRANCH  38  40
ENDBRANCH  37  38
BRANCH  37  42
HETATM   42  C19 UNL     1       1.697   7.314   8.606  1.00  0.00     0.010 C 
HETATM   43  C20 UNL     1       0.474   8.120   9.066  1.00  0.00     0.012 C 
HETATM   44  C21 UNL     1       2.772   8.269   8.068  1.00  0.00     0.012 C 
ENDBRANCH  37  42
ENDBRANCH  35  37
ENDBRANCH  32  33
ENDBRANCH  30  32
ENDBRANCH  27  28
ENDBRANCH  26  27
ENDBRANCH  13  26
TORSDOF 10
ENDMDL
MODEL 9
REMARK minimizedAffinity -7.96881819
REMARK CNNscore 0.187721327
REMARK CNNaffinity 6.56533957
REMARK  10 active torsions:
REMARK  status: ('A' for Active; 'I' for Inactive)
REMARK    1  A    between atoms: C3_3  and  O1_4 
REMARK    2  A    between atoms: N1_14  and  O2_16 
REMARK    3  A    between atoms: O2_16  and  C13_17 
REMARK    4  A    between atoms: C13_17  and  C14_18 
REMARK       I    between atoms: C14_18  and  N2_20 
REMARK    5  A    between atoms: N2_20  and  C15_21 
REMARK    6  A    between atoms: C15_21  and  C16_22 
REMARK       I    between atoms: C16_22  and  N3_24 
REMARK    7  A    between atoms: N3_24  and  C17_25 
REMARK    8  A    between atoms: C17_25  and  C18_26 
REMARK    9  A    between atoms: C17_25  and  C19_29 
REMARK   10  A    between atoms: C18_26  and  O6_28 
ROOT
HETATM    1  C1  UNL     1      -2.380   8.889  16.667  1.00  0.00     0.015 C 
HETATM    2  C2  UNL     1      -2.067   8.376  15.628  1.00  0.00    -0.078 C 
HETATM    3  C3  UNL     1      -1.608   7.766  14.360  1.00  0.00     0.128 C 
HETATM    4  C4  UNL     1      -1.772   8.750  13.202  1.00  0.00     0.052 C 
HETATM    5  C5  UNL     1      -3.236   8.602  12.815  1.00  0.00     0.010 C 
HETATM    6  C6  UNL     1      -3.542   7.092  12.946  1.00  0.00     0.002 C 
HETATM    7  C7  UNL     1      -4.996   6.841  13.385  1.00  0.00    -0.004 C 
HETATM    8  C8  UNL     1      -5.514   5.462  12.921  1.00  0.00     0.010 C 
HETATM    9  C9  UNL     1      -6.767   4.983  13.673  1.00  0.00     0.035 C 
HETATM   10  C10 UNL     1      -7.521   6.124  14.305  1.00  0.00    -0.069 C 
HETATM   11  C11 UNL     1      -8.798   6.377  13.961  1.00  0.00     0.030 C 
HETATM   12  C12 UNL     1      -9.554   7.513  14.562  1.00  0.00     0.032 C 
HETATM   13  N1  UNL     1     -10.837   7.693  14.487  1.00  0.00    -0.271 N 
ATOM     14  H1  UNL     1     -11.334   8.447  14.962  1.00  0.00     0.194 HD
HETATM   15  C22 UNL     1      -8.781   8.544  15.368  1.00  0.00     0.060 C 
HETATM   16  C23 UNL     1      -7.274   8.446  15.162  1.00  0.00     0.020 C 
HETATM   17  C24 UNL     1      -6.728   6.994  15.284  1.00  0.00    -0.016 C 
HETATM   18  C25 UNL     1      -6.968   6.494  16.729  1.00  0.00     0.020 C 
HETATM   19  C26 UNL     1      -5.187   7.017  14.906  1.00  0.00     0.002 C 
HETATM   20  C27 UNL     1      -4.298   6.027  15.689  1.00  0.00     0.007 C 
HETATM   21  C28 UNL     1      -2.966   5.635  15.034  1.00  0.00     0.014 C 
HETATM   22  C29 UNL     1      -2.432   6.516  13.886  1.00  0.00     0.003 C 
HETATM   23  C30 UNL     1      -1.518   5.589  13.025  1.00  0.00     0.020 C 
ENDROOT
BRANCH   3  24
HETATM   24  O1  UNL     1      -0.228   7.453  14.518  1.00  0.00    -0.377 OA
HETATM   25  H2  UNL     1       0.200   8.252  14.875  1.00  0.00     0.211 HD
ENDBRANCH   3  24
BRANCH  13  26
HETATM   26  O2  UNL     1     -11.464   6.732  13.677  1.00  0.00    -0.271 OA
BRANCH  26  27
HETATM   27  C13 UNL     1     -12.697   6.358  14.283  1.00  0.00     0.303 C 
BRANCH  27  28
HETATM   28  C14 UNL     1     -13.740   7.471  14.176  1.00  0.00     0.244 C 
HETATM   29  O3  UNL     1     -14.425   7.869  15.116  1.00  0.00    -0.271 OA
HETATM   30  N2  UNL     1     -13.904   7.959  12.897  1.00  0.00    -0.350 N 
HETATM   31  H16 UNL     1     -13.214   7.766  12.173  1.00  0.00     0.163 HD
BRANCH  30  32
HETATM   32  C15 UNL     1     -14.925   8.940  12.586  1.00  0.00     0.225 C 
BRANCH  32  33
HETATM   33  C16 UNL     1     -16.177   8.220  12.087  1.00  0.00     0.236 C 
HETATM   34  O4  UNL     1     -16.559   8.306  10.920  1.00  0.00    -0.272 OA
HETATM   35  N3  UNL     1     -16.851   7.507  13.060  1.00  0.00    -0.345 N 
HETATM   36  H19 UNL     1     -16.277   7.181  13.829  1.00  0.00     0.163 HD
BRANCH  35  37
HETATM   37  C17 UNL     1     -17.961   6.623  12.682  1.00  0.00     0.185 C 
BRANCH  37  38
HETATM   38  C18 UNL     1     -17.644   5.153  13.017  1.00  0.00     0.163 C 
HETATM   39  O5  UNL     1     -16.721   4.753  13.714  1.00  0.00    -0.648 OA
BRANCH  38  40
HETATM   40  O6  UNL     1     -18.455   4.264  12.398  1.00  0.00    -0.775 OA
HETATM   41  H21 UNL     1     -18.126   3.395  12.715  1.00  0.00     0.167 HD
ENDBRANCH  38  40
ENDBRANCH  37  38
BRANCH  37  42
HETATM   42  C19 UNL     1     -19.288   7.051  13.351  1.00  0.00     0.010 C 
HETATM   43  C20 UNL     1     -19.128   7.451  14.824  1.00  0.00     0.012 C 
HETATM   44  C21 UNL     1     -19.955   8.196  12.574  1.00  0.00     0.012 C 
ENDBRANCH  37  42
ENDBRANCH  35  37
ENDBRANCH  32  33
ENDBRANCH  30  32
ENDBRANCH  27  28
ENDBRANCH  26  27
ENDBRANCH  13  26
TORSDOF 10
ENDMDL
