MODEL 1
REMARK minimizedAffinity -9.5824604
REMARK  4 active torsions:
REMARK  status: ('A' for Active; 'I' for Inactive)
REMARK    1  A    between atoms: C2_2  and  C3_3 
REMARK    2  A    between atoms: C2_2  and  C9_9 
REMARK    3  A    between atoms: C3_3  and  C4_4 
REMARK    4  A    between atoms: C4_4  and  C5_5 
ROOT
HETATM    1  C9  UNL     1      -1.412  50.287 -17.714  1.00  0.00     0.018 C 
HETATM    2  C10 UNL     1      -2.333  49.039 -17.787  1.00  0.00     0.010 C 
HETATM    3  C11 UNL     1      -3.033  49.122 -19.155  1.00  0.00     0.011 C 
HETATM    4  C12 UNL     1      -1.959  49.724 -20.090  1.00  0.00    -0.032 C 
HETATM    5  C13 UNL     1      -0.905  48.600 -20.342  1.00  0.00     0.016 C 
HETATM    6  C14 UNL     1      -1.411  50.848 -19.166  1.00  0.00     0.002 C 
HETATM    7  C15 UNL     1      -0.186  51.519 -19.769  1.00  0.00     0.006 C 
HETATM    8  C16 UNL     1      -0.533  52.124 -21.144  1.00  0.00     0.006 C 
HETATM    9  C17 UNL     1      -1.209  51.124 -22.125  1.00  0.00     0.003 C 
HETATM   10  C18 UNL     1      -1.428  51.664 -23.608  1.00  0.00    -0.035 C 
HETATM   11  C19 UNL     1      -2.374  52.887 -23.641  1.00  0.00     0.016 C 
HETATM   12  C20 UNL     1      -0.051  52.109 -24.190  1.00  0.00     0.017 C 
HETATM   13  C21 UNL     1      -0.060  52.406 -25.684  1.00  0.00     0.080 C 
HETATM   14  C22 UNL     1      -0.634  51.260 -26.482  1.00  0.00     0.135 C 
HETATM   15  O1  UNL     1      -0.064  50.887 -27.510  1.00  0.00    -0.297 OA
HETATM   16  C23 UNL     1      -1.982  50.677 -26.028  1.00  0.00     0.017 C 
HETATM   17  C24 UNL     1      -2.177  49.321 -26.756  1.00  0.00     0.023 C 
HETATM   18  C25 UNL     1      -3.104  51.609 -26.508  1.00  0.00     0.023 C 
HETATM   19  C26 UNL     1      -1.924  50.445 -24.478  1.00  0.00     0.009 C 
HETATM   20  C27 UNL     1      -3.196  49.801 -23.885  1.00  0.00     0.007 C 
HETATM   21  C28 UNL     1      -2.963  49.297 -22.454  1.00  0.00     0.011 C 
HETATM   22  C29 UNL     1      -2.452  50.379 -21.469  1.00  0.00    -0.032 C 
HETATM   23  C30 UNL     1      -3.640  51.351 -21.214  1.00  0.00     0.016 C 
ENDROOT
BRANCH   1  24
HETATM   24  C2  UNL     1      -0.077  50.174 -16.983  1.00  0.00    -0.084 C 
HETATM   25  C1  UNL     1       0.338  49.063 -16.350  1.00  0.00     0.014 C 
BRANCH  24  26
HETATM   26  C3  UNL     1       0.729  51.474 -16.973  1.00  0.00     0.037 C 
BRANCH  26  27
HETATM   27  C4  UNL     1       1.031  52.118 -15.612  1.00  0.00     0.031 C 
BRANCH  27  28
HETATM   28  C5  UNL     1       2.069  51.335 -14.852  1.00  0.00    -0.024 C 
HETATM   29  C6  UNL     1       3.409  51.423 -14.960  1.00  0.00    -0.091 C 
HETATM   30  C7  UNL     1       4.140  52.316 -15.926  1.00  0.00     0.042 C 
HETATM   31  C8  UNL     1       4.307  50.585 -14.089  1.00  0.00     0.042 C 
ENDBRANCH  27  28
ENDBRANCH  26  27
ENDBRANCH  24  26
ENDBRANCH   1  24
TORSDOF 4
ENDMDL
MODEL 2
REMARK minimizedAffinity -9.35044003
REMARK  4 active torsions:
REMARK  status: ('A' for Active; 'I' for Inactive)
REMARK    1  A    between atoms: C2_2  and  C3_3 
REMARK    2  A    between atoms: C2_2  and  C9_9 
REMARK    3  A    between atoms: C3_3  and  C4_4 
REMARK    4  A    between atoms: C4_4  and  C5_5 
ROOT
HETATM    1  C9  UNL     1      -2.423  48.875 -18.160  1.00  0.00     0.018 C 
HETATM    2  C10 UNL     1      -2.878  47.549 -18.825  1.00  0.00     0.010 C 
HETATM    3  C11 UNL     1      -3.144  47.898 -20.300  1.00  0.00     0.011 C 
HETATM    4  C12 UNL     1      -2.070  48.958 -20.635  1.00  0.00    -0.032 C 
HETATM    5  C13 UNL     1      -0.709  48.198 -20.730  1.00  0.00     0.016 C 
HETATM    6  C14 UNL     1      -2.165  49.837 -19.356  1.00  0.00     0.002 C 
HETATM    7  C15 UNL     1      -1.068  50.891 -19.321  1.00  0.00     0.006 C 
HETATM    8  C16 UNL     1      -1.163  51.799 -20.563  1.00  0.00     0.006 C 
HETATM    9  C17 UNL     1      -1.203  51.027 -21.912  1.00  0.00     0.003 C 
HETATM   10  C18 UNL     1      -1.131  51.934 -23.220  1.00  0.00    -0.035 C 
HETATM   11  C19 UNL     1      -2.340  52.892 -23.324  1.00  0.00     0.016 C 
HETATM   12  C20 UNL     1       0.164  52.801 -23.160  1.00  0.00     0.017 C 
HETATM   13  C21 UNL     1       0.502  53.527 -24.456  1.00  0.00     0.080 C 
HETATM   14  C22 UNL     1       0.544  52.585 -25.634  1.00  0.00     0.135 C 
HETATM   15  O1  UNL     1       1.470  52.662 -26.444  1.00  0.00    -0.297 OA
HETATM   16  C23 UNL     1      -0.647  51.632 -25.831  1.00  0.00     0.017 C 
HETATM   17  C24 UNL     1      -0.219  50.549 -26.855  1.00  0.00     0.023 C 
HETATM   18  C25 UNL     1      -1.802  52.419 -26.466  1.00  0.00     0.023 C 
HETATM   19  C26 UNL     1      -0.976  50.960 -24.452  1.00  0.00     0.009 C 
HETATM   20  C27 UNL     1      -2.120  49.924 -24.508  1.00  0.00     0.007 C 
HETATM   21  C28 UNL     1      -2.175  49.070 -23.234  1.00  0.00     0.011 C 
HETATM   22  C29 UNL     1      -2.310  49.884 -21.922  1.00  0.00    -0.032 C 
HETATM   23  C30 UNL     1      -3.750  50.474 -21.905  1.00  0.00     0.016 C 
ENDROOT
BRANCH   1  24
HETATM   24  C2  UNL     1      -1.384  48.819 -17.042  1.00  0.00    -0.084 C 
HETATM   25  C1  UNL     1      -1.515  48.066 -15.936  1.00  0.00     0.014 C 
BRANCH  24  26
HETATM   26  C3  UNL     1      -0.199  49.761 -17.259  1.00  0.00     0.037 C 
BRANCH  26  27
HETATM   27  C4  UNL     1       0.153  50.740 -16.129  1.00  0.00     0.031 C 
BRANCH  27  28
HETATM   28  C5  UNL     1       1.278  51.660 -16.530  1.00  0.00    -0.024 C 
HETATM   29  C6  UNL     1       2.444  51.862 -15.887  1.00  0.00    -0.091 C 
HETATM   30  C7  UNL     1       2.833  51.222 -14.582  1.00  0.00     0.042 C 
HETATM   31  C8  UNL     1       3.481  52.797 -16.452  1.00  0.00     0.042 C 
ENDBRANCH  27  28
ENDBRANCH  26  27
ENDBRANCH  24  26
ENDBRANCH   1  24
TORSDOF 4
ENDMDL
MODEL 3
REMARK minimizedAffinity -8.91248035
REMARK  4 active torsions:
REMARK  status: ('A' for Active; 'I' for Inactive)
REMARK    1  A    between atoms: C2_2  and  C3_3 
REMARK    2  A    between atoms: C2_2  and  C9_9 
REMARK    3  A    between atoms: C3_3  and  C4_4 
REMARK    4  A    between atoms: C4_4  and  C5_5 
ROOT
HETATM    1  C9  UNL     1      -1.065  51.598 -20.831  1.00  0.00     0.018 C 
HETATM    2  C10 UNL     1      -0.611  50.539 -19.791  1.00  0.00     0.010 C 
HETATM    3  C11 UNL     1      -1.848  49.663 -19.528  1.00  0.00     0.011 C 
HETATM    4  C12 UNL     1      -2.555  49.591 -20.901  1.00  0.00    -0.032 C 
HETATM    5  C13 UNL     1      -1.689  48.653 -21.800  1.00  0.00     0.016 C 
HETATM    6  C14 UNL     1      -2.446  51.081 -21.329  1.00  0.00     0.002 C 
HETATM    7  C15 UNL     1      -2.915  51.287 -22.762  1.00  0.00     0.006 C 
HETATM    8  C16 UNL     1      -4.378  50.826 -22.913  1.00  0.00     0.006 C 
HETATM    9  C17 UNL     1      -4.647  49.383 -22.400  1.00  0.00     0.003 C 
HETATM   10  C18 UNL     1      -6.105  48.814 -22.694  1.00  0.00    -0.035 C 
HETATM   11  C19 UNL     1      -7.201  49.649 -21.993  1.00  0.00     0.016 C 
HETATM   12  C20 UNL     1      -6.368  48.873 -24.231  1.00  0.00     0.017 C 
HETATM   13  C21 UNL     1      -7.614  48.127 -24.690  1.00  0.00     0.080 C 
HETATM   14  C22 UNL     1      -7.629  46.700 -24.200  1.00  0.00     0.135 C 
HETATM   15  O1  UNL     1      -7.938  45.792 -24.974  1.00  0.00    -0.297 OA
HETATM   16  C23 UNL     1      -7.360  46.454 -22.706  1.00  0.00     0.017 C 
HETATM   17  C24 UNL     1      -7.072  44.942 -22.522  1.00  0.00     0.023 C 
HETATM   18  C25 UNL     1      -8.641  46.767 -21.921  1.00  0.00     0.023 C 
HETATM   19  C26 UNL     1      -6.100  47.290 -22.286  1.00  0.00     0.009 C 
HETATM   20  C27 UNL     1      -5.669  47.094 -20.816  1.00  0.00     0.007 C 
HETATM   21  C28 UNL     1      -4.267  47.659 -20.556  1.00  0.00     0.011 C 
HETATM   22  C29 UNL     1      -4.099  49.155 -20.925  1.00  0.00    -0.032 C 
HETATM   23  C30 UNL     1      -4.909  49.970 -19.874  1.00  0.00     0.016 C 
ENDROOT
BRANCH   1  24
HETATM   24  C2  UNL     1      -0.059  52.085 -21.872  1.00  0.00    -0.084 C 
HETATM   25  C1  UNL     1       1.057  52.771 -21.570  1.00  0.00     0.014 C 
BRANCH  24  26
HETATM   26  C3  UNL     1      -0.473  51.783 -23.313  1.00  0.00     0.037 C 
BRANCH  26  27
HETATM   27  C4  UNL     1      -0.183  52.849 -24.379  1.00  0.00     0.031 C 
BRANCH  27  28
HETATM   28  C5  UNL     1       1.075  52.532 -25.146  1.00  0.00    -0.024 C 
HETATM   29  C6  UNL     1       1.230  51.633 -26.137  1.00  0.00    -0.091 C 
HETATM   30  C7  UNL     1       0.152  50.715 -26.646  1.00  0.00     0.042 C 
HETATM   31  C8  UNL     1       2.559  51.470 -26.825  1.00  0.00     0.042 C 
ENDBRANCH  27  28
ENDBRANCH  26  27
ENDBRANCH  24  26
ENDBRANCH   1  24
TORSDOF 4
ENDMDL
MODEL 4
REMARK minimizedAffinity -8.90010738
REMARK  4 active torsions:
REMARK  status: ('A' for Active; 'I' for Inactive)
REMARK    1  A    between atoms: C2_2  and  C3_3 
REMARK    2  A    between atoms: C2_2  and  C9_9 
REMARK    3  A    between atoms: C3_3  and  C4_4 
REMARK    4  A    between atoms: C4_4  and  C5_5 
ROOT
HETATM    1  C9  UNL     1      -4.108  48.006 -19.414  1.00  0.00     0.018 C 
HETATM    2  C10 UNL     1      -4.379  46.789 -20.339  1.00  0.00     0.010 C 
HETATM    3  C11 UNL     1      -4.277  47.332 -21.775  1.00  0.00     0.011 C 
HETATM    4  C12 UNL     1      -3.160  48.397 -21.696  1.00  0.00    -0.032 C 
HETATM    5  C13 UNL     1      -1.812  47.619 -21.555  1.00  0.00     0.016 C 
HETATM    6  C14 UNL     1      -3.570  49.106 -20.375  1.00  0.00     0.002 C 
HETATM    7  C15 UNL     1      -2.521  50.117 -19.935  1.00  0.00     0.006 C 
HETATM    8  C16 UNL     1      -2.313  51.180 -21.032  1.00  0.00     0.006 C 
HETATM    9  C17 UNL     1      -2.017  50.589 -22.440  1.00  0.00     0.003 C 
HETATM   10  C18 UNL     1      -1.631  51.654 -23.560  1.00  0.00    -0.035 C 
HETATM   11  C19 UNL     1      -2.783  52.650 -23.829  1.00  0.00     0.016 C 
HETATM   12  C20 UNL     1      -0.395  52.471 -23.073  1.00  0.00     0.017 C 
HETATM   13  C21 UNL     1       0.246  53.348 -24.141  1.00  0.00     0.080 C 
HETATM   14  C22 UNL     1       0.581  52.564 -25.386  1.00  0.00     0.135 C 
HETATM   15  O1  UNL     1       1.677  52.720 -25.929  1.00  0.00    -0.297 OA
HETATM   16  C23 UNL     1      -0.521  51.678 -25.991  1.00  0.00     0.017 C 
HETATM   17  C24 UNL     1       0.151  50.724 -27.012  1.00  0.00     0.023 C 
HETATM   18  C25 UNL     1      -1.489  52.570 -26.779  1.00  0.00     0.023 C 
HETATM   19  C26 UNL     1      -1.174  50.843 -24.834  1.00  0.00     0.009 C 
HETATM   20  C27 UNL     1      -2.263  49.854 -25.303  1.00  0.00     0.007 C 
HETATM   21  C28 UNL     1      -2.625  48.846 -24.204  1.00  0.00     0.011 C 
HETATM   22  C29 UNL     1      -3.081  49.487 -22.869  1.00  0.00    -0.032 C 
HETATM   23  C30 UNL     1      -4.485  50.109 -23.127  1.00  0.00     0.016 C 
ENDROOT
BRANCH   1  24
HETATM   24  C2  UNL     1      -3.375  47.779 -18.095  1.00  0.00    -0.084 C 
HETATM   25  C1  UNL     1      -3.961  47.288 -16.988  1.00  0.00     0.014 C 
BRANCH  24  26
HETATM   26  C3  UNL     1      -1.914  48.229 -18.120  1.00  0.00     0.037 C 
BRANCH  26  27
HETATM   27  C4  UNL     1      -1.293  48.717 -16.803  1.00  0.00     0.031 C 
BRANCH  27  28
HETATM   28  C5  UNL     1      -0.433  49.936 -17.018  1.00  0.00    -0.024 C 
HETATM   29  C6  UNL     1       0.587  50.369 -16.252  1.00  0.00    -0.091 C 
HETATM   30  C7  UNL     1       1.040  49.722 -14.971  1.00  0.00     0.042 C 
HETATM   31  C8  UNL     1       1.370  51.596 -16.638  1.00  0.00     0.042 C 
ENDBRANCH  27  28
ENDBRANCH  26  27
ENDBRANCH  24  26
ENDBRANCH   1  24
TORSDOF 4
ENDMDL
MODEL 5
REMARK minimizedAffinity -8.88921356
REMARK  4 active torsions:
REMARK  status: ('A' for Active; 'I' for Inactive)
REMARK    1  A    between atoms: C2_2  and  C3_3 
REMARK    2  A    between atoms: C2_2  and  C9_9 
REMARK    3  A    between atoms: C3_3  and  C4_4 
REMARK    4  A    between atoms: C4_4  and  C5_5 
ROOT
HETATM    1  C9  UNL     1      -1.667  51.843 -22.076  1.00  0.00     0.018 C 
HETATM    2  C10 UNL     1      -1.119  51.021 -20.878  1.00  0.00     0.010 C 
HETATM    3  C11 UNL     1      -2.281  50.115 -20.435  1.00  0.00     0.011 C 
HETATM    4  C12 UNL     1      -2.997  49.749 -21.755  1.00  0.00    -0.032 C 
HETATM    5  C13 UNL     1      -2.071  48.735 -22.498  1.00  0.00     0.016 C 
HETATM    6  C14 UNL     1      -3.010  51.145 -22.439  1.00  0.00     0.002 C 
HETATM    7  C15 UNL     1      -3.511  51.059 -23.873  1.00  0.00     0.006 C 
HETATM    8  C16 UNL     1      -4.936  50.471 -23.904  1.00  0.00     0.006 C 
HETATM    9  C17 UNL     1      -5.084  49.125 -23.140  1.00  0.00     0.003 C 
HETATM   10  C18 UNL     1      -6.497  48.405 -23.292  1.00  0.00    -0.035 C 
HETATM   11  C19 UNL     1      -7.646  49.266 -22.720  1.00  0.00     0.016 C 
HETATM   12  C20 UNL     1      -6.782  48.173 -24.809  1.00  0.00     0.017 C 
HETATM   13  C21 UNL     1      -7.972  47.267 -25.098  1.00  0.00     0.080 C 
HETATM   14  C22 UNL     1      -7.869  45.951 -24.365  1.00  0.00     0.135 C 
HETATM   15  O1  UNL     1      -8.116  44.900 -24.961  1.00  0.00    -0.297 OA
HETATM   16  C23 UNL     1      -7.563  45.993 -22.859  1.00  0.00     0.017 C 
HETATM   17  C24 UNL     1      -7.156  44.562 -22.422  1.00  0.00     0.023 C 
HETATM   18  C25 UNL     1      -8.855  46.342 -22.108  1.00  0.00     0.023 C 
HETATM   19  C26 UNL     1      -6.367  46.981 -22.625  1.00  0.00     0.009 C 
HETATM   20  C27 UNL     1      -5.905  47.080 -21.155  1.00  0.00     0.007 C 
HETATM   21  C28 UNL     1      -4.547  47.785 -21.033  1.00  0.00     0.011 C 
HETATM   22  C29 UNL     1      -4.502  49.201 -21.662  1.00  0.00    -0.032 C 
HETATM   23  C30 UNL     1      -5.360  50.126 -20.750  1.00  0.00     0.016 C 
ENDROOT
BRANCH   1  24
HETATM   24  C2  UNL     1      -0.716  52.213 -23.211  1.00  0.00    -0.084 C 
HETATM   25  C1  UNL     1       0.532  52.676 -23.021  1.00  0.00     0.014 C 
BRANCH  24  26
HETATM   26  C3  UNL     1      -1.338  52.076 -24.601  1.00  0.00     0.037 C 
BRANCH  26  27
HETATM   27  C4  UNL     1      -0.820  50.951 -25.510  1.00  0.00     0.031 C 
BRANCH  27  28
HETATM   28  C5  UNL     1       0.641  51.134 -25.833  1.00  0.00    -0.024 C 
HETATM   29  C6  UNL     1       1.181  51.534 -27.000  1.00  0.00    -0.091 C 
HETATM   30  C7  UNL     1       0.404  51.836 -28.253  1.00  0.00     0.042 C 
HETATM   31  C8  UNL     1       2.671  51.701 -27.140  1.00  0.00     0.042 C 
ENDBRANCH  27  28
ENDBRANCH  26  27
ENDBRANCH  24  26
ENDBRANCH   1  24
TORSDOF 4
ENDMDL
MODEL 6
REMARK minimizedAffinity -8.75077915
REMARK  4 active torsions:
REMARK  status: ('A' for Active; 'I' for Inactive)
REMARK    1  A    between atoms: C2_2  and  C3_3 
REMARK    2  A    between atoms: C2_2  and  C9_9 
REMARK    3  A    between atoms: C3_3  and  C4_4 
REMARK    4  A    between atoms: C4_4  and  C5_5 
ROOT
HETATM    1  C9  UNL     1      -2.812  49.624 -22.747  1.00  0.00     0.018 C 
HETATM    2  C10 UNL     1      -4.290  49.376 -22.342  1.00  0.00     0.010 C 
HETATM    3  C11 UNL     1      -4.255  49.034 -20.842  1.00  0.00     0.011 C 
HETATM    4  C12 UNL     1      -3.118  49.919 -20.282  1.00  0.00    -0.032 C 
HETATM    5  C13 UNL     1      -3.662  51.383 -20.259  1.00  0.00     0.016 C 
HETATM    6  C14 UNL     1      -2.051  49.705 -21.392  1.00  0.00     0.002 C 
HETATM    7  C15 UNL     1      -0.850  50.619 -21.196  1.00  0.00     0.006 C 
HETATM    8  C16 UNL     1      -0.204  50.359 -19.820  1.00  0.00     0.006 C 
HETATM    9  C17 UNL     1      -1.200  50.422 -18.628  1.00  0.00     0.003 C 
HETATM   10  C18 UNL     1      -0.540  50.326 -17.181  1.00  0.00    -0.035 C 
HETATM   11  C19 UNL     1       0.185  48.978 -16.967  1.00  0.00     0.016 C 
HETATM   12  C20 UNL     1       0.514  51.466 -17.033  1.00  0.00     0.017 C 
HETATM   13  C21 UNL     1       1.041  51.662 -15.617  1.00  0.00     0.080 C 
HETATM   14  C22 UNL     1      -0.078  51.835 -14.619  1.00  0.00     0.135 C 
HETATM   15  O1  UNL     1      -0.004  52.724 -13.768  1.00  0.00    -0.297 OA
HETATM   16  C23 UNL     1      -1.223  50.809 -14.643  1.00  0.00     0.017 C 
HETATM   17  C24 UNL     1      -2.391  51.389 -13.804  1.00  0.00     0.023 C 
HETATM   18  C25 UNL     1      -0.751  49.533 -13.934  1.00  0.00     0.023 C 
HETATM   19  C26 UNL     1      -1.682  50.615 -16.131  1.00  0.00     0.009 C 
HETATM   20  C27 UNL     1      -2.876  49.652 -16.306  1.00  0.00     0.007 C 
HETATM   21  C28 UNL     1      -3.487  49.755 -17.709  1.00  0.00     0.011 C 
HETATM   22  C29 UNL     1      -2.484  49.513 -18.865  1.00  0.00    -0.032 C 
HETATM   23  C30 UNL     1      -2.131  47.997 -18.844  1.00  0.00     0.016 C 
ENDROOT
BRANCH   1  24
HETATM   24  C2  UNL     1      -2.507  50.676 -23.810  1.00  0.00    -0.084 C 
HETATM   25  C1  UNL     1      -2.620  52.000 -23.607  1.00  0.00     0.014 C 
BRANCH  24  26
HETATM   26  C3  UNL     1      -2.125  50.083 -25.168  1.00  0.00     0.037 C 
BRANCH  26  27
HETATM   27  C4  UNL     1      -1.404  50.996 -26.170  1.00  0.00     0.031 C 
BRANCH  27  28
HETATM   28  C5  UNL     1       0.088  50.977 -25.956  1.00  0.00    -0.024 C 
HETATM   29  C6  UNL     1       1.047  51.370 -26.816  1.00  0.00    -0.091 C 
HETATM   30  C7  UNL     1       0.801  51.873 -28.213  1.00  0.00     0.042 C 
HETATM   31  C8  UNL     1       2.500  51.318 -26.423  1.00  0.00     0.042 C 
ENDBRANCH  27  28
ENDBRANCH  26  27
ENDBRANCH  24  26
ENDBRANCH   1  24
TORSDOF 4
ENDMDL
MODEL 7
REMARK minimizedAffinity -8.73055935
REMARK  4 active torsions:
REMARK  status: ('A' for Active; 'I' for Inactive)
REMARK    1  A    between atoms: C2_2  and  C3_3 
REMARK    2  A    between atoms: C2_2  and  C9_9 
REMARK    3  A    between atoms: C3_3  and  C4_4 
REMARK    4  A    between atoms: C4_4  and  C5_5 
ROOT
HETATM    1  C9  UNL     1      -4.047  50.235 -24.877  1.00  0.00     0.018 C 
HETATM    2  C10 UNL     1      -3.448  51.665 -24.955  1.00  0.00     0.010 C 
HETATM    3  C11 UNL     1      -3.342  52.147 -23.497  1.00  0.00     0.011 C 
HETATM    4  C12 UNL     1      -2.982  50.870 -22.704  1.00  0.00    -0.032 C 
HETATM    5  C13 UNL     1      -1.492  50.544 -23.038  1.00  0.00     0.016 C 
HETATM    6  C14 UNL     1      -3.967  49.866 -23.367  1.00  0.00     0.002 C 
HETATM    7  C15 UNL     1      -3.712  48.442 -22.898  1.00  0.00     0.006 C 
HETATM    8  C16 UNL     1      -3.859  48.352 -21.366  1.00  0.00     0.006 C 
HETATM    9  C17 UNL     1      -3.012  49.397 -20.585  1.00  0.00     0.003 C 
HETATM   10  C18 UNL     1      -3.008  49.225 -19.001  1.00  0.00    -0.035 C 
HETATM   11  C19 UNL     1      -4.422  49.394 -18.400  1.00  0.00     0.016 C 
HETATM   12  C20 UNL     1      -2.507  47.789 -18.652  1.00  0.00     0.017 C 
HETATM   13  C21 UNL     1      -2.204  47.565 -17.176  1.00  0.00     0.080 C 
HETATM   14  C22 UNL     1      -1.260  48.608 -16.630  1.00  0.00     0.135 C 
HETATM   15  O1  UNL     1      -0.317  48.263 -15.915  1.00  0.00    -0.297 OA
HETATM   16  C23 UNL     1      -1.588  50.085 -16.907  1.00  0.00     0.017 C 
HETATM   17  C24 UNL     1      -0.323  50.918 -16.575  1.00  0.00     0.023 C 
HETATM   18  C25 UNL     1      -2.688  50.531 -15.933  1.00  0.00     0.023 C 
HETATM   19  C26 UNL     1      -1.941  50.237 -18.428  1.00  0.00     0.009 C 
HETATM   20  C27 UNL     1      -2.235  51.687 -18.869  1.00  0.00     0.007 C 
HETATM   21  C28 UNL     1      -2.244  51.825 -20.397  1.00  0.00     0.011 C 
HETATM   22  C29 UNL     1      -3.235  50.878 -21.120  1.00  0.00    -0.032 C 
HETATM   23  C30 UNL     1      -4.667  51.398 -20.802  1.00  0.00     0.016 C 
ENDROOT
BRANCH   1  24
HETATM   24  C2  UNL     1      -3.598  49.194 -25.899  1.00  0.00    -0.084 C 
HETATM   25  C1  UNL     1      -4.429  48.320 -26.493  1.00  0.00     0.014 C 
BRANCH  24  26
HETATM   26  C3  UNL     1      -2.087  49.183 -26.140  1.00  0.00     0.037 C 
BRANCH  26  27
HETATM   27  C4  UNL     1      -1.469  50.391 -26.861  1.00  0.00     0.031 C 
BRANCH  27  28
HETATM   28  C5  UNL     1      -0.050  50.630 -26.415  1.00  0.00    -0.024 C 
HETATM   29  C6  UNL     1       0.911  51.318 -27.061  1.00  0.00    -0.091 C 
HETATM   30  C7  UNL     1       0.754  51.956 -28.415  1.00  0.00     0.042 C 
HETATM   31  C8  UNL     1       2.276  51.493 -26.448  1.00  0.00     0.042 C 
ENDBRANCH  27  28
ENDBRANCH  26  27
ENDBRANCH  24  26
ENDBRANCH   1  24
TORSDOF 4
ENDMDL
MODEL 8
REMARK minimizedAffinity -8.71132755
REMARK  4 active torsions:
REMARK  status: ('A' for Active; 'I' for Inactive)
REMARK    1  A    between atoms: C2_2  and  C3_3 
REMARK    2  A    between atoms: C2_2  and  C9_9 
REMARK    3  A    between atoms: C3_3  and  C4_4 
REMARK    4  A    between atoms: C4_4  and  C5_5 
ROOT
HETATM    1  C9  UNL     1       0.030  51.615 -21.200  1.00  0.00     0.018 C 
HETATM    2  C10 UNL     1       0.032  51.870 -22.731  1.00  0.00     0.010 C 
HETATM    3  C11 UNL     1      -0.928  50.824 -23.324  1.00  0.00     0.011 C 
HETATM    4  C12 UNL     1      -2.038  50.685 -22.257  1.00  0.00    -0.032 C 
HETATM    5  C13 UNL     1      -2.898  51.986 -22.336  1.00  0.00     0.016 C 
HETATM    6  C14 UNL     1      -1.160  50.638 -20.974  1.00  0.00     0.002 C 
HETATM    7  C15 UNL     1      -2.010  50.681 -19.714  1.00  0.00     0.006 C 
HETATM    8  C16 UNL     1      -2.993  49.493 -19.694  1.00  0.00     0.006 C 
HETATM    9  C17 UNL     1      -3.849  49.356 -20.985  1.00  0.00     0.003 C 
HETATM   10  C18 UNL     1      -4.991  48.246 -20.933  1.00  0.00    -0.035 C 
HETATM   11  C19 UNL     1      -4.406  46.827 -20.743  1.00  0.00     0.016 C 
HETATM   12  C20 UNL     1      -5.927  48.544 -19.722  1.00  0.00     0.017 C 
HETATM   13  C21 UNL     1      -7.210  47.722 -19.695  1.00  0.00     0.080 C 
HETATM   14  C22 UNL     1      -7.969  47.821 -20.995  1.00  0.00     0.135 C 
HETATM   15  O1  UNL     1      -9.189  47.998 -20.977  1.00  0.00    -0.297 OA
HETATM   16  C23 UNL     1      -7.189  47.581 -22.299  1.00  0.00     0.017 C 
HETATM   17  C24 UNL     1      -8.070  48.083 -23.472  1.00  0.00     0.023 C 
HETATM   18  C25 UNL     1      -7.007  46.070 -22.488  1.00  0.00     0.023 C 
HETATM   19  C26 UNL     1      -5.860  48.412 -22.240  1.00  0.00     0.009 C 
HETATM   20  C27 UNL     1      -4.996  48.318 -23.516  1.00  0.00     0.007 C 
HETATM   21  C28 UNL     1      -3.898  49.390 -23.538  1.00  0.00     0.011 C 
HETATM   22  C29 UNL     1      -2.960  49.374 -22.304  1.00  0.00    -0.032 C 
HETATM   23  C30 UNL     1      -2.081  48.096 -22.426  1.00  0.00     0.016 C 
ENDROOT
BRANCH   1  24
HETATM   24  C2  UNL     1       0.175  52.806 -20.256  1.00  0.00    -0.084 C 
HETATM   25  C1  UNL     1       0.760  53.967 -20.599  1.00  0.00     0.014 C 
BRANCH  24  26
HETATM   26  C3  UNL     1      -0.347  52.535 -18.843  1.00  0.00     0.037 C 
BRANCH  26  27
HETATM   27  C4  UNL     1       0.530  51.692 -17.906  1.00  0.00     0.031 C 
BRANCH  27  28
HETATM   28  C5  UNL     1       1.765  52.446 -17.483  1.00  0.00    -0.024 C 
HETATM   29  C6  UNL     1       2.509  52.252 -16.377  1.00  0.00    -0.091 C 
HETATM   30  C7  UNL     1       2.208  51.246 -15.299  1.00  0.00     0.042 C 
HETATM   31  C8  UNL     1       3.743  53.078 -16.126  1.00  0.00     0.042 C 
ENDBRANCH  27  28
ENDBRANCH  26  27
ENDBRANCH  24  26
ENDBRANCH   1  24
TORSDOF 4
ENDMDL
MODEL 9
REMARK minimizedAffinity -8.70509815
REMARK  4 active torsions:
REMARK  status: ('A' for Active; 'I' for Inactive)
REMARK    1  A    between atoms: C2_2  and  C3_3 
REMARK    2  A    between atoms: C2_2  and  C9_9 
REMARK    3  A    between atoms: C3_3  and  C4_4 
REMARK    4  A    between atoms: C4_4  and  C5_5 
ROOT
HETATM    1  C9  UNL     1      -2.640  49.980 -22.318  1.00  0.00     0.018 C 
HETATM    2  C10 UNL     1      -1.872  51.201 -22.893  1.00  0.00     0.010 C 
HETATM    3  C11 UNL     1      -1.353  51.975 -21.668  1.00  0.00     0.011 C 
HETATM    4  C12 UNL     1      -1.008  50.870 -20.644  1.00  0.00    -0.032 C 
HETATM    5  C13 UNL     1       0.296  50.178 -21.156  1.00  0.00     0.016 C 
HETATM    6  C14 UNL     1      -2.259  49.962 -20.809  1.00  0.00     0.002 C 
HETATM    7  C15 UNL     1      -2.114  48.664 -20.030  1.00  0.00     0.006 C 
HETATM    8  C16 UNL     1      -1.903  48.962 -18.532  1.00  0.00     0.006 C 
HETATM    9  C17 UNL     1      -0.750  49.964 -18.240  1.00  0.00     0.003 C 
HETATM   10  C18 UNL     1      -0.395  50.166 -16.700  1.00  0.00    -0.035 C 
HETATM   11  C19 UNL     1      -1.585  50.754 -15.907  1.00  0.00     0.016 C 
HETATM   12  C20 UNL     1      -0.044  48.779 -16.079  1.00  0.00     0.017 C 
HETATM   13  C21 UNL     1       0.564  48.845 -14.684  1.00  0.00     0.080 C 
HETATM   14  C22 UNL     1       1.755  49.771 -14.632  1.00  0.00     0.135 C 
HETATM   15  O1  UNL     1       2.779  49.416 -14.045  1.00  0.00    -0.297 OA
HETATM   16  C23 UNL     1       1.593  51.179 -15.229  1.00  0.00     0.017 C 
HETATM   17  C24 UNL     1       3.009  51.790 -15.385  1.00  0.00     0.023 C 
HETATM   18  C25 UNL     1       0.835  52.053 -14.221  1.00  0.00     0.023 C 
HETATM   19  C26 UNL     1       0.915  51.044 -16.638  1.00  0.00     0.009 C 
HETATM   20  C27 UNL     1       0.742  52.382 -17.389  1.00  0.00     0.007 C 
HETATM   21  C28 UNL     1       0.391  52.161 -18.867  1.00  0.00     0.011 C 
HETATM   22  C29 UNL     1      -0.873  51.295 -19.103  1.00  0.00    -0.032 C 
HETATM   23  C30 UNL     1      -2.095  52.155 -18.669  1.00  0.00     0.016 C 
ENDROOT
BRANCH   1  24
HETATM   24  C2  UNL     1      -2.606  48.662 -23.086  1.00  0.00    -0.084 C 
HETATM   25  C1  UNL     1      -2.342  47.471 -22.520  1.00  0.00     0.014 C 
BRANCH  24  26
HETATM   26  C3  UNL     1      -2.831  48.823 -24.591  1.00  0.00     0.037 C 
BRANCH  26  27
HETATM   27  C4  UNL     1      -4.232  48.518 -25.141  1.00  0.00     0.031 C 
BRANCH  27  28
HETATM   28  C5  UNL     1      -4.226  48.436 -26.646  1.00  0.00    -0.024 C 
HETATM   29  C6  UNL     1      -5.229  48.039 -27.452  1.00  0.00    -0.091 C 
HETATM   30  C7  UNL     1      -6.570  47.543 -26.983  1.00  0.00     0.042 C 
HETATM   31  C8  UNL     1      -5.064  48.055 -28.950  1.00  0.00     0.042 C 
ENDBRANCH  27  28
ENDBRANCH  26  27
ENDBRANCH  24  26
ENDBRANCH   1  24
TORSDOF 4
ENDMDL
