MODEL 1
REMARK minimizedAffinity -9.375741
REMARK  10 active torsions:
REMARK  status: ('A' for Active; 'I' for Inactive)
REMARK    1  A    between atoms: C12_14  and  C13_15 
REMARK    2  A    between atoms: C13_15  and  C15_17 
REMARK    3  A    between atoms: C15_17  and  C16_18 
REMARK    4  A    between atoms: C16_18  and  C17_19 
REMARK    5  A    between atoms: C18_20  and  C20_22 
REMARK    6  A    between atoms: C20_22  and  O3_23 
REMARK    7  A    between atoms: C26_29  and  C27_30 
REMARK    8  A    between atoms: C27_30  and  C28_31 
REMARK    9  A    between atoms: C28_31  and  C29_32 
REMARK   10  A    between atoms: C29_32  and  O5_34 
ROOT
HETATM    1  C1  UNL     1       4.050   7.675   9.869  1.00  0.00     0.025 C 
HETATM    2  C2  UNL     1       3.358   6.650  10.380  1.00  0.00     0.015 C 
HETATM    3  C3  UNL     1       3.138   5.416   9.588  1.00  0.00     0.289 C 
HETATM    4  O1  UNL     1       3.691   5.110   8.549  1.00  0.00    -0.260 OA
HETATM    5  O2  UNL     1       2.206   4.670  10.239  1.00  0.00    -0.311 OA
HETATM    6  C4  UNL     1       1.629   5.430  11.317  1.00  0.00     0.142 C 
HETATM    7  C5  UNL     1       0.296   5.997  10.842  1.00  0.00     0.039 C 
HETATM    8  C6  UNL     1      -0.400   6.965  11.810  1.00  0.00     0.006 C 
HETATM    9  C7  UNL     1       0.566   7.978  12.483  1.00  0.00    -0.027 A 
HETATM   10  C8  UNL     1      -0.124   8.907  13.507  1.00  0.00     0.011 C 
HETATM   11  C9  UNL     1      -1.121   8.226  14.455  1.00  0.00     0.011 C 
HETATM   12  C10 UNL     1      -2.140   7.380  13.674  1.00  0.00    -0.032 C 
HETATM   13  C11 UNL     1      -2.964   8.330  12.758  1.00  0.00     0.016 C 
HETATM   14  C12 UNL     1      -3.124   6.492  14.504  1.00  0.00    -0.002 C 
HETATM   15  C21 UNL     1      -3.453   5.322  13.525  1.00  0.00     0.006 C 
HETATM   16  C22 UNL     1      -2.444   5.396  12.362  1.00  0.00     0.011 C 
HETATM   17  C23 UNL     1      -1.306   6.283  12.891  1.00  0.00    -0.032 C 
HETATM   18  C24 UNL     1      -0.425   5.382  13.815  1.00  0.00     0.016 C 
HETATM   19  C25 UNL     1       1.497   8.780  11.608  1.00  0.00     0.022 A 
HETATM   20  C26 UNL     1       2.109   7.685  12.454  1.00  0.00    -0.021 A 
HETATM   21  C30 UNL     1       2.667   6.472  11.696  1.00  0.00     0.063 C 
ENDROOT
BRANCH  14  22
HETATM   22  C13 UNL     1      -4.382   7.044  15.245  1.00  0.00    -0.014 C 
HETATM   23  C14 UNL     1      -5.316   6.015  15.900  1.00  0.00     0.010 C 
BRANCH  22  24
HETATM   24  C15 UNL     1      -5.243   8.020  14.410  1.00  0.00     0.008 C 
BRANCH  24  25
HETATM   25  C16 UNL     1      -6.236   7.386  13.427  1.00  0.00     0.028 C 
BRANCH  25  26
HETATM   26  C17 UNL     1      -6.451   5.916  13.660  1.00  0.00    -0.022 C 
HETATM   27  C18 UNL     1      -7.407   5.125  13.127  1.00  0.00    -0.064 C 
HETATM   28  C19 UNL     1      -8.440   5.606  12.141  1.00  0.00     0.045 C 
BRANCH  27  29
HETATM   29  C20 UNL     1      -7.553   3.656  13.466  1.00  0.00     0.197 C 
BRANCH  29  30
HETATM   30  O3  UNL     1      -8.774   3.113  12.987  1.00  0.00    -0.397 OA
HETATM   31  H29 UNL     1      -9.483   3.607  13.430  1.00  0.00     0.209 HD
ENDBRANCH  29  30
ENDBRANCH  27  29
ENDBRANCH  25  26
ENDBRANCH  24  25
ENDBRANCH  22  24
ENDBRANCH  14  22
BRANCH  20  32
HETATM   32  C27 UNL     1       2.917   8.020  13.716  1.00  0.00     0.021 C 
BRANCH  32  33
HETATM   33  C28 UNL     1       4.434   8.018  13.529  1.00  0.00     0.111 C 
BRANCH  33  34
HETATM   34  C29 UNL     1       5.239   7.784  14.778  1.00  0.00     0.139 C 
HETATM   35  O4  UNL     1       5.139   8.425  15.811  1.00  0.00    -0.650 OA
BRANCH  34  36
HETATM   36  O5  UNL     1       6.055   6.718  14.718  1.00  0.00    -0.776 OA
HETATM   37  H43 UNL     1       6.454   6.676  15.614  1.00  0.00     0.167 HD
ENDBRANCH  34  36
ENDBRANCH  33  34
ENDBRANCH  32  33
ENDBRANCH  20  32
TORSDOF 10
ENDMDL
MODEL 2
REMARK minimizedAffinity -9.19561577
REMARK  10 active torsions:
REMARK  status: ('A' for Active; 'I' for Inactive)
REMARK    1  A    between atoms: C12_14  and  C13_15 
REMARK    2  A    between atoms: C13_15  and  C15_17 
REMARK    3  A    between atoms: C15_17  and  C16_18 
REMARK    4  A    between atoms: C16_18  and  C17_19 
REMARK    5  A    between atoms: C18_20  and  C20_22 
REMARK    6  A    between atoms: C20_22  and  O3_23 
REMARK    7  A    between atoms: C26_29  and  C27_30 
REMARK    8  A    between atoms: C27_30  and  C28_31 
REMARK    9  A    between atoms: C28_31  and  C29_32 
REMARK   10  A    between atoms: C29_32  and  O5_34 
ROOT
HETATM    1  C1  UNL     1       3.859   7.552  10.051  1.00  0.00     0.025 C 
HETATM    2  C2  UNL     1       3.138   6.570  10.605  1.00  0.00     0.015 C 
HETATM    3  C3  UNL     1       2.963   5.273   9.908  1.00  0.00     0.289 C 
HETATM    4  O1  UNL     1       3.576   4.884   8.931  1.00  0.00    -0.260 OA
HETATM    5  O2  UNL     1       1.995   4.580  10.563  1.00  0.00    -0.311 OA
HETATM    6  C4  UNL     1       1.357   5.424  11.539  1.00  0.00     0.142 C 
HETATM    7  C5  UNL     1       0.054   5.944  10.943  1.00  0.00     0.039 C 
HETATM    8  C6  UNL     1      -0.696   6.987  11.785  1.00  0.00     0.006 C 
HETATM    9  C7  UNL     1       0.229   8.056  12.425  1.00  0.00    -0.027 A 
HETATM   10  C8  UNL     1      -0.518   9.064  13.327  1.00  0.00     0.011 C 
HETATM   11  C9  UNL     1      -1.568   8.460  14.269  1.00  0.00     0.011 C 
HETATM   12  C10 UNL     1      -2.541   7.547  13.504  1.00  0.00    -0.032 C 
HETATM   13  C11 UNL     1      -3.310   8.414  12.466  1.00  0.00     0.016 C 
HETATM   14  C12 UNL     1      -3.572   6.728  14.347  1.00  0.00    -0.002 C 
HETATM   15  C21 UNL     1      -3.844   5.479  13.452  1.00  0.00     0.006 C 
HETATM   16  C22 UNL     1      -2.769   5.460  12.347  1.00  0.00     0.011 C 
HETATM   17  C23 UNL     1      -1.663   6.393  12.864  1.00  0.00    -0.032 C 
HETATM   18  C24 UNL     1      -0.838   5.575  13.910  1.00  0.00     0.016 C 
HETATM   19  C25 UNL     1       1.211   8.787  11.541  1.00  0.00     0.022 A 
HETATM   20  C26 UNL     1       1.772   7.768  12.510  1.00  0.00    -0.021 A 
HETATM   21  C30 UNL     1       2.372   6.499  11.889  1.00  0.00     0.063 C 
ENDROOT
BRANCH  14  22
HETATM   22  C13 UNL     1      -4.870   7.334  14.966  1.00  0.00    -0.014 C 
HETATM   23  C14 UNL     1      -4.720   8.629  15.778  1.00  0.00     0.010 C 
BRANCH  22  24
HETATM   24  C15 UNL     1      -5.713   6.336  15.794  1.00  0.00     0.008 C 
BRANCH  24  25
HETATM   25  C16 UNL     1      -6.990   5.805  15.129  1.00  0.00     0.028 C 
BRANCH  25  26
HETATM   26  C17 UNL     1      -6.778   4.531  14.359  1.00  0.00    -0.022 C 
HETATM   27  C18 UNL     1      -7.469   4.088  13.287  1.00  0.00    -0.064 C 
HETATM   28  C19 UNL     1      -8.594   4.852  12.639  1.00  0.00     0.045 C 
BRANCH  27  29
HETATM   29  C20 UNL     1      -7.190   2.761  12.610  1.00  0.00     0.197 C 
BRANCH  29  30
HETATM   30  O3  UNL     1      -8.332   1.917  12.591  1.00  0.00    -0.397 OA
HETATM   31  H29 UNL     1      -8.562   1.752  13.520  1.00  0.00     0.209 HD
ENDBRANCH  29  30
ENDBRANCH  27  29
ENDBRANCH  25  26
ENDBRANCH  24  25
ENDBRANCH  22  24
ENDBRANCH  14  22
BRANCH  20  32
HETATM   32  C27 UNL     1       2.506   8.211  13.785  1.00  0.00     0.021 C 
BRANCH  32  33
HETATM   33  C28 UNL     1       2.524   7.176  14.909  1.00  0.00     0.111 C 
BRANCH  33  34
HETATM   34  C29 UNL     1       1.879   7.610  16.196  1.00  0.00     0.139 C 
HETATM   35  O4  UNL     1       2.270   8.520  16.909  1.00  0.00    -0.650 OA
BRANCH  34  36
HETATM   36  O5  UNL     1       0.739   6.963  16.490  1.00  0.00    -0.776 OA
HETATM   37  H43 UNL     1       0.426   7.397  17.312  1.00  0.00     0.167 HD
ENDBRANCH  34  36
ENDBRANCH  33  34
ENDBRANCH  32  33
ENDBRANCH  20  32
TORSDOF 10
ENDMDL
MODEL 3
REMARK minimizedAffinity -9.05015373
REMARK  10 active torsions:
REMARK  status: ('A' for Active; 'I' for Inactive)
REMARK    1  A    between atoms: C12_14  and  C13_15 
REMARK    2  A    between atoms: C13_15  and  C15_17 
REMARK    3  A    between atoms: C15_17  and  C16_18 
REMARK    4  A    between atoms: C16_18  and  C17_19 
REMARK    5  A    between atoms: C18_20  and  C20_22 
REMARK    6  A    between atoms: C20_22  and  O3_23 
REMARK    7  A    between atoms: C26_29  and  C27_30 
REMARK    8  A    between atoms: C27_30  and  C28_31 
REMARK    9  A    between atoms: C28_31  and  C29_32 
REMARK   10  A    between atoms: C29_32  and  O5_34 
ROOT
HETATM    1  C1  UNL     1       2.486   7.192  11.819  1.00  0.00     0.025 C 
HETATM    2  C2  UNL     1       1.622   6.224  12.149  1.00  0.00     0.015 C 
HETATM    3  C3  UNL     1       1.463   5.027  11.290  1.00  0.00     0.289 C 
HETATM    4  O1  UNL     1       2.186   4.688  10.372  1.00  0.00    -0.260 OA
HETATM    5  O2  UNL     1       0.360   4.356  11.718  1.00  0.00    -0.311 OA
HETATM    6  C4  UNL     1      -0.356   5.148  12.684  1.00  0.00     0.142 C 
HETATM    7  C5  UNL     1      -1.515   5.838  11.973  1.00  0.00     0.039 C 
HETATM    8  C6  UNL     1      -2.306   6.849  12.814  1.00  0.00     0.006 C 
HETATM    9  C7  UNL     1      -1.414   7.762  13.698  1.00  0.00    -0.027 A 
HETATM   10  C8  UNL     1      -2.215   8.733  14.595  1.00  0.00     0.011 C 
HETATM   11  C9  UNL     1      -3.436   8.129  15.303  1.00  0.00     0.011 C 
HETATM   12  C10 UNL     1      -4.344   7.388  14.308  1.00  0.00    -0.032 C 
HETATM   13  C11 UNL     1      -4.885   8.421  13.278  1.00  0.00     0.016 C 
HETATM   14  C12 UNL     1      -5.546   6.579  14.896  1.00  0.00    -0.002 C 
HETATM   15  C21 UNL     1      -5.768   5.457  13.834  1.00  0.00     0.006 C 
HETATM   16  C22 UNL     1      -4.544   5.459  12.898  1.00  0.00     0.011 C 
HETATM   17  C23 UNL     1      -3.465   6.234  13.671  1.00  0.00    -0.032 C 
HETATM   18  C24 UNL     1      -2.866   5.244  14.722  1.00  0.00     0.016 C 
HETATM   19  C25 UNL     1      -0.262   8.492  13.052  1.00  0.00     0.022 A 
HETATM   20  C26 UNL     1       0.074   7.334  13.966  1.00  0.00    -0.021 A 
HETATM   21  C30 UNL     1       0.669   6.088  13.295  1.00  0.00     0.063 C 
ENDROOT
BRANCH  14  22
HETATM   22  C13 UNL     1      -6.876   7.228  15.391  1.00  0.00    -0.014 C 
HETATM   23  C14 UNL     1      -7.339   6.879  16.814  1.00  0.00     0.010 C 
BRANCH  22  24
HETATM   24  C15 UNL     1      -8.075   7.047  14.431  1.00  0.00     0.008 C 
BRANCH  24  25
HETATM   25  C16 UNL     1      -9.440   7.522  14.946  1.00  0.00     0.028 C 
BRANCH  25  26
HETATM   26  C17 UNL     1     -10.462   7.697  13.857  1.00  0.00    -0.022 C 
HETATM   27  C18 UNL     1     -11.279   8.751  13.652  1.00  0.00    -0.064 C 
HETATM   28  C19 UNL     1     -11.274   9.995  14.502  1.00  0.00     0.045 C 
BRANCH  27  29
HETATM   29  C20 UNL     1     -12.305   8.803  12.537  1.00  0.00     0.197 C 
BRANCH  29  30
HETATM   30  O3  UNL     1     -11.961   9.747  11.534  1.00  0.00    -0.397 OA
HETATM   31  H29 UNL     1     -11.934  10.612  11.974  1.00  0.00     0.209 HD
ENDBRANCH  29  30
ENDBRANCH  27  29
ENDBRANCH  25  26
ENDBRANCH  24  25
ENDBRANCH  22  24
ENDBRANCH  14  22
BRANCH  20  32
HETATM   32  C27 UNL     1       0.637   7.578  15.374  1.00  0.00     0.021 C 
BRANCH  32  33
HETATM   33  C28 UNL     1       1.837   8.522  15.433  1.00  0.00     0.111 C 
BRANCH  33  34
HETATM   34  C29 UNL     1       3.177   7.856  15.581  1.00  0.00     0.139 C 
HETATM   35  O4  UNL     1       4.248   8.436  15.660  1.00  0.00    -0.650 OA
BRANCH  34  36
HETATM   36  O5  UNL     1       3.119   6.520  15.717  1.00  0.00    -0.776 OA
HETATM   37  H43 UNL     1       4.054   6.257  15.858  1.00  0.00     0.167 HD
ENDBRANCH  34  36
ENDBRANCH  33  34
ENDBRANCH  32  33
ENDBRANCH  20  32
TORSDOF 10
ENDMDL
MODEL 4
REMARK minimizedAffinity -8.86365032
REMARK  10 active torsions:
REMARK  status: ('A' for Active; 'I' for Inactive)
REMARK    1  A    between atoms: C12_14  and  C13_15 
REMARK    2  A    between atoms: C13_15  and  C15_17 
REMARK    3  A    between atoms: C15_17  and  C16_18 
REMARK    4  A    between atoms: C16_18  and  C17_19 
REMARK    5  A    between atoms: C18_20  and  C20_22 
REMARK    6  A    between atoms: C20_22  and  O3_23 
REMARK    7  A    between atoms: C26_29  and  C27_30 
REMARK    8  A    between atoms: C27_30  and  C28_31 
REMARK    9  A    between atoms: C28_31  and  C29_32 
REMARK   10  A    between atoms: C29_32  and  O5_34 
ROOT
HETATM    1  C1  UNL     1      -9.723   6.696  14.245  1.00  0.00     0.025 C 
HETATM    2  C2  UNL     1      -8.768   6.672  15.182  1.00  0.00     0.015 C 
HETATM    3  C3  UNL     1      -8.865   7.533  16.385  1.00  0.00     0.289 C 
HETATM    4  O1  UNL     1      -9.841   8.157  16.756  1.00  0.00    -0.260 OA
HETATM    5  O2  UNL     1      -7.662   7.496  17.017  1.00  0.00    -0.311 OA
HETATM    6  C4  UNL     1      -6.691   6.825  16.192  1.00  0.00     0.142 C 
HETATM    7  C5  UNL     1      -5.858   7.883  15.477  1.00  0.00     0.039 C 
HETATM    8  C6  UNL     1      -4.864   7.354  14.432  1.00  0.00     0.006 C 
HETATM    9  C7  UNL     1      -5.440   6.226  13.535  1.00  0.00    -0.027 A 
HETATM   10  C8  UNL     1      -4.418   5.648  12.530  1.00  0.00     0.011 C 
HETATM   11  C9  UNL     1      -3.013   5.387  13.088  1.00  0.00     0.011 C 
HETATM   12  C10 UNL     1      -2.464   6.626  13.814  1.00  0.00    -0.032 C 
HETATM   13  C11 UNL     1      -2.331   7.779  12.778  1.00  0.00     0.016 C 
HETATM   14  C12 UNL     1      -1.110   6.471  14.579  1.00  0.00    -0.002 C 
HETATM   15  C21 UNL     1      -1.217   7.544  15.707  1.00  0.00     0.006 C 
HETATM   16  C22 UNL     1      -2.683   8.019  15.753  1.00  0.00     0.011 C 
HETATM   17  C23 UNL     1      -3.468   6.932  15.001  1.00  0.00    -0.032 C 
HETATM   18  C24 UNL     1      -3.650   5.740  15.996  1.00  0.00     0.016 C 
HETATM   19  C25 UNL     1      -6.765   6.452  12.848  1.00  0.00     0.022 A 
HETATM   20  C26 UNL     1      -6.739   5.476  14.004  1.00  0.00    -0.021 A 
HETATM   21  C30 UNL     1      -7.483   5.909  15.275  1.00  0.00     0.063 C 
ENDROOT
BRANCH  14  22
HETATM   22  C13 UNL     1       0.288   6.448  13.884  1.00  0.00    -0.014 C 
HETATM   23  C14 UNL     1       0.864   7.797  13.427  1.00  0.00     0.010 C 
BRANCH  22  24
HETATM   24  C15 UNL     1       0.406   5.447  12.712  1.00  0.00     0.008 C 
BRANCH  24  25
HETATM   25  C16 UNL     1      -0.688   4.375  12.617  1.00  0.00     0.028 C 
BRANCH  25  26
HETATM   26  C17 UNL     1      -0.269   3.161  11.835  1.00  0.00    -0.022 C 
HETATM   27  C18 UNL     1      -1.059   2.194  11.321  1.00  0.00    -0.064 C 
HETATM   28  C19 UNL     1      -2.562   2.196  11.424  1.00  0.00     0.045 C 
BRANCH  27  29
HETATM   29  C20 UNL     1      -0.519   0.988  10.580  1.00  0.00     0.197 C 
BRANCH  29  30
HETATM   30  O3  UNL     1      -0.995   0.921   9.244  1.00  0.00    -0.397 OA
HETATM   31  H29 UNL     1      -1.962   0.845   9.304  1.00  0.00     0.209 HD
ENDBRANCH  29  30
ENDBRANCH  27  29
ENDBRANCH  25  26
ENDBRANCH  24  25
ENDBRANCH  22  24
ENDBRANCH  14  22
BRANCH  20  32
HETATM   32  C27 UNL     1      -6.809   3.961  13.761  1.00  0.00     0.021 C 
BRANCH  32  33
HETATM   33  C28 UNL     1      -6.989   3.552  12.299  1.00  0.00     0.111 C 
BRANCH  33  34
HETATM   34  C29 UNL     1      -6.900   2.076  12.026  1.00  0.00     0.139 C 
HETATM   35  O4  UNL     1      -6.081   1.542  11.296  1.00  0.00    -0.650 OA
BRANCH  34  36
HETATM   36  O5  UNL     1      -7.763   1.328  12.736  1.00  0.00    -0.776 OA
HETATM   37  H43 UNL     1      -7.538   0.407  12.486  1.00  0.00     0.167 HD
ENDBRANCH  34  36
ENDBRANCH  33  34
ENDBRANCH  32  33
ENDBRANCH  20  32
TORSDOF 10
ENDMDL
MODEL 5
REMARK minimizedAffinity -8.72794819
REMARK  10 active torsions:
REMARK  status: ('A' for Active; 'I' for Inactive)
REMARK    1  A    between atoms: C12_14  and  C13_15 
REMARK    2  A    between atoms: C13_15  and  C15_17 
REMARK    3  A    between atoms: C15_17  and  C16_18 
REMARK    4  A    between atoms: C16_18  and  C17_19 
REMARK    5  A    between atoms: C18_20  and  C20_22 
REMARK    6  A    between atoms: C20_22  and  O3_23 
REMARK    7  A    between atoms: C26_29  and  C27_30 
REMARK    8  A    between atoms: C27_30  and  C28_31 
REMARK    9  A    between atoms: C28_31  and  C29_32 
REMARK   10  A    between atoms: C29_32  and  O5_34 
ROOT
HETATM    1  C1  UNL     1       5.305   6.734  11.013  1.00  0.00     0.025 C 
HETATM    2  C2  UNL     1       4.662   7.606  11.798  1.00  0.00     0.015 C 
HETATM    3  C3  UNL     1       5.327   8.186  12.989  1.00  0.00     0.289 C 
HETATM    4  O1  UNL     1       6.511   8.124  13.264  1.00  0.00    -0.260 OA
HETATM    5  O2  UNL     1       4.376   8.819  13.725  1.00  0.00    -0.311 OA
HETATM    6  C4  UNL     1       3.067   8.517  13.206  1.00  0.00     0.142 C 
HETATM    7  C5  UNL     1       2.457   7.412  14.060  1.00  0.00     0.039 C 
HETATM    8  C6  UNL     1       1.116   6.850  13.565  1.00  0.00     0.006 C 
HETATM    9  C7  UNL     1       1.060   6.628  12.030  1.00  0.00    -0.027 A 
HETATM   10  C8  UNL     1      -0.312   6.126  11.524  1.00  0.00     0.011 C 
HETATM   11  C9  UNL     1      -1.537   6.824  12.130  1.00  0.00     0.011 C 
HETATM   12  C10 UNL     1      -1.465   6.841  13.665  1.00  0.00    -0.032 C 
HETATM   13  C11 UNL     1      -1.487   5.370  14.171  1.00  0.00     0.016 C 
HETATM   14  C12 UNL     1      -2.558   7.659  14.428  1.00  0.00    -0.002 C 
HETATM   15  C21 UNL     1      -1.835   8.065  15.750  1.00  0.00     0.006 C 
HETATM   16  C22 UNL     1      -0.333   7.771  15.563  1.00  0.00     0.011 C 
HETATM   17  C23 UNL     1      -0.149   7.639  14.043  1.00  0.00    -0.032 C 
HETATM   18  C24 UNL     1      -0.105   9.092  13.468  1.00  0.00     0.016 C 
HETATM   19  C25 UNL     1       2.168   5.843  11.371  1.00  0.00     0.022 A 
HETATM   20  C26 UNL     1       2.131   7.336  11.124  1.00  0.00    -0.021 A 
HETATM   21  C30 UNL     1       3.271   8.156  11.745  1.00  0.00     0.063 C 
ENDROOT
BRANCH  14  22
HETATM   22  C13 UNL     1      -4.019   7.160  14.656  1.00  0.00    -0.014 C 
HETATM   23  C14 UNL     1      -4.264   6.232  15.855  1.00  0.00     0.010 C 
BRANCH  22  24
HETATM   24  C15 UNL     1      -4.684   6.529  13.410  1.00  0.00     0.008 C 
BRANCH  24  25
HETATM   25  C16 UNL     1      -5.389   5.182  13.620  1.00  0.00     0.028 C 
BRANCH  25  26
HETATM   26  C17 UNL     1      -5.210   4.228  12.472  1.00  0.00    -0.022 C 
HETATM   27  C18 UNL     1      -6.011   3.200  12.118  1.00  0.00    -0.064 C 
HETATM   28  C19 UNL     1      -7.290   2.850  12.832  1.00  0.00     0.045 C 
BRANCH  27  29
HETATM   29  C20 UNL     1      -5.709   2.274  10.958  1.00  0.00     0.197 C 
BRANCH  29  30
HETATM   30  O3  UNL     1      -4.910   1.167  11.347  1.00  0.00    -0.397 OA
HETATM   31  H29 UNL     1      -4.075   1.537  11.677  1.00  0.00     0.209 HD
ENDBRANCH  29  30
ENDBRANCH  27  29
ENDBRANCH  25  26
ENDBRANCH  24  25
ENDBRANCH  22  24
ENDBRANCH  14  22
BRANCH  20  32
HETATM   32  C27 UNL     1       1.657   7.902   9.777  1.00  0.00     0.021 C 
BRANCH  32  33
HETATM   33  C28 UNL     1       2.671   7.793   8.640  1.00  0.00     0.111 C 
BRANCH  33  34
HETATM   34  C29 UNL     1       2.467   6.637   7.700  1.00  0.00     0.139 C 
HETATM   35  O4  UNL     1       2.699   5.468   7.960  1.00  0.00    -0.650 OA
BRANCH  34  36
HETATM   36  O5  UNL     1       1.905   6.971   6.526  1.00  0.00    -0.776 OA
HETATM   37  H43 UNL     1       1.792   6.112   6.066  1.00  0.00     0.167 HD
ENDBRANCH  34  36
ENDBRANCH  33  34
ENDBRANCH  32  33
ENDBRANCH  20  32
TORSDOF 10
ENDMDL
MODEL 6
REMARK minimizedAffinity -8.63279533
REMARK  10 active torsions:
REMARK  status: ('A' for Active; 'I' for Inactive)
REMARK    1  A    between atoms: C12_14  and  C13_15 
REMARK    2  A    between atoms: C13_15  and  C15_17 
REMARK    3  A    between atoms: C15_17  and  C16_18 
REMARK    4  A    between atoms: C16_18  and  C17_19 
REMARK    5  A    between atoms: C18_20  and  C20_22 
REMARK    6  A    between atoms: C20_22  and  O3_23 
REMARK    7  A    between atoms: C26_29  and  C27_30 
REMARK    8  A    between atoms: C27_30  and  C28_31 
REMARK    9  A    between atoms: C28_31  and  C29_32 
REMARK   10  A    between atoms: C29_32  and  O5_34 
ROOT
HETATM    1  C1  UNL     1      -9.994   6.571  13.947  1.00  0.00     0.025 C 
HETATM    2  C2  UNL     1      -9.095   6.719  14.928  1.00  0.00     0.015 C 
HETATM    3  C3  UNL     1      -9.261   7.776  15.954  1.00  0.00     0.289 C 
HETATM    4  O1  UNL     1     -10.256   8.448  16.153  1.00  0.00    -0.260 OA
HETATM    5  O2  UNL     1      -8.096   7.860  16.651  1.00  0.00    -0.311 OA
HETATM    6  C4  UNL     1      -7.080   7.063  16.014  1.00  0.00     0.142 C 
HETATM    7  C5  UNL     1      -6.205   7.986  15.174  1.00  0.00     0.039 C 
HETATM    8  C6  UNL     1      -5.153   7.291  14.297  1.00  0.00     0.006 C 
HETATM    9  C7  UNL     1      -5.678   6.019  13.580  1.00  0.00    -0.027 A 
HETATM   10  C8  UNL     1      -4.601   5.283  12.752  1.00  0.00     0.011 C 
HETATM   11  C9  UNL     1      -3.231   5.134  13.428  1.00  0.00     0.011 C 
HETATM   12  C10 UNL     1      -2.722   6.486  13.956  1.00  0.00    -0.032 C 
HETATM   13  C11 UNL     1      -2.526   7.441  12.744  1.00  0.00     0.016 C 
HETATM   14  C12 UNL     1      -1.416   6.478  14.814  1.00  0.00    -0.002 C 
HETATM   15  C21 UNL     1      -1.586   7.731  15.728  1.00  0.00     0.006 C 
HETATM   16  C22 UNL     1      -3.052   8.194  15.606  1.00  0.00     0.011 C 
HETATM   17  C23 UNL     1      -3.793   6.987  15.011  1.00  0.00    -0.032 C 
HETATM   18  C24 UNL     1      -4.036   5.985  16.187  1.00  0.00     0.016 C 
HETATM   19  C25 UNL     1      -6.960   6.111  12.788  1.00  0.00     0.022 A 
HETATM   20  C26 UNL     1      -7.004   5.352  14.097  1.00  0.00    -0.021 A 
HETATM   21  C30 UNL     1      -7.820   5.994  15.228  1.00  0.00     0.063 C 
ENDROOT
BRANCH  14  22
HETATM   22  C13 UNL     1       0.020   6.346  14.216  1.00  0.00    -0.014 C 
HETATM   23  C14 UNL     1       1.078   7.346  14.707  1.00  0.00     0.010 C 
BRANCH  22  24
HETATM   24  C15 UNL     1       0.070   6.304  12.671  1.00  0.00     0.008 C 
BRANCH  24  25
HETATM   25  C16 UNL     1       0.452   4.960  12.035  1.00  0.00     0.028 C 
BRANCH  25  26
HETATM   26  C17 UNL     1       1.672   5.038  11.160  1.00  0.00    -0.022 C 
HETATM   27  C18 UNL     1       1.927   5.924  10.173  1.00  0.00    -0.064 C 
HETATM   28  C19 UNL     1       0.999   7.049   9.796  1.00  0.00     0.045 C 
BRANCH  27  29
HETATM   29  C20 UNL     1       3.181   5.883   9.324  1.00  0.00     0.197 C 
BRANCH  29  30
HETATM   30  O3  UNL     1       4.249   5.211   9.975  1.00  0.00    -0.397 OA
HETATM   31  H29 UNL     1       4.435   5.717  10.784  1.00  0.00     0.209 HD
ENDBRANCH  29  30
ENDBRANCH  27  29
ENDBRANCH  25  26
ENDBRANCH  24  25
ENDBRANCH  22  24
ENDBRANCH  14  22
BRANCH  20  32
HETATM   32  C27 UNL     1      -7.063   3.817  14.118  1.00  0.00     0.021 C 
BRANCH  32  33
HETATM   33  C28 UNL     1      -7.748   3.183  12.909  1.00  0.00     0.111 C 
BRANCH  33  34
HETATM   34  C29 UNL     1      -6.881   2.283  12.073  1.00  0.00     0.139 C 
HETATM   35  O4  UNL     1      -5.982   2.655  11.337  1.00  0.00    -0.650 OA
BRANCH  34  36
HETATM   36  O5  UNL     1      -7.104   0.970  12.259  1.00  0.00    -0.776 OA
HETATM   37  H43 UNL     1      -6.430   0.534  11.694  1.00  0.00     0.167 HD
ENDBRANCH  34  36
ENDBRANCH  33  34
ENDBRANCH  32  33
ENDBRANCH  20  32
TORSDOF 10
ENDMDL
MODEL 7
REMARK minimizedAffinity -8.42169952
REMARK  10 active torsions:
REMARK  status: ('A' for Active; 'I' for Inactive)
REMARK    1  A    between atoms: C12_14  and  C13_15 
REMARK    2  A    between atoms: C13_15  and  C15_17 
REMARK    3  A    between atoms: C15_17  and  C16_18 
REMARK    4  A    between atoms: C16_18  and  C17_19 
REMARK    5  A    between atoms: C18_20  and  C20_22 
REMARK    6  A    between atoms: C20_22  and  O3_23 
REMARK    7  A    between atoms: C26_29  and  C27_30 
REMARK    8  A    between atoms: C27_30  and  C28_31 
REMARK    9  A    between atoms: C28_31  and  C29_32 
REMARK   10  A    between atoms: C29_32  and  O5_34 
ROOT
HETATM    1  C1  UNL     1       4.115   7.532  12.496  1.00  0.00     0.025 C 
HETATM    2  C2  UNL     1       3.086   8.385  12.573  1.00  0.00     0.015 C 
HETATM    3  C3  UNL     1       3.220   9.669  13.302  1.00  0.00     0.289 C 
HETATM    4  O1  UNL     1       4.251  10.173  13.705  1.00  0.00    -0.260 OA
HETATM    5  O2  UNL     1       1.974  10.198  13.436  1.00  0.00    -0.311 OA
HETATM    6  C4  UNL     1       0.983   9.239  13.023  1.00  0.00     0.142 C 
HETATM    7  C5  UNL     1       0.420   8.566  14.270  1.00  0.00     0.039 C 
HETATM    8  C6  UNL     1      -0.548   7.401  14.018  1.00  0.00     0.006 C 
HETATM    9  C7  UNL     1      -0.098   6.448  12.878  1.00  0.00    -0.027 A 
HETATM   10  C8  UNL     1      -1.106   5.315  12.581  1.00  0.00     0.011 C 
HETATM   11  C9  UNL     1      -2.582   5.734  12.538  1.00  0.00     0.011 C 
HETATM   12  C10 UNL     1      -2.970   6.530  13.795  1.00  0.00    -0.032 C 
HETATM   13  C11 UNL     1      -2.800   5.602  15.031  1.00  0.00     0.016 C 
HETATM   14  C12 UNL     1      -4.396   7.169  13.829  1.00  0.00    -0.002 C 
HETATM   15  C21 UNL     1      -4.208   8.399  14.771  1.00  0.00     0.006 C 
HETATM   16  C22 UNL     1      -2.693   8.605  14.964  1.00  0.00     0.011 C 
HETATM   17  C23 UNL     1      -2.044   7.816  13.815  1.00  0.00    -0.032 C 
HETATM   18  C24 UNL     1      -2.169   8.703  12.534  1.00  0.00     0.016 C 
HETATM   19  C25 UNL     1       1.305   5.891  12.912  1.00  0.00     0.022 A 
HETATM   20  C26 UNL     1       0.999   6.943  11.868  1.00  0.00    -0.021 A 
HETATM   21  C30 UNL     1       1.685   8.304  12.054  1.00  0.00     0.063 C 
ENDROOT
BRANCH  14  22
HETATM   22  C13 UNL     1      -5.704   6.368  14.120  1.00  0.00    -0.014 C 
HETATM   23  C14 UNL     1      -6.112   6.203  15.592  1.00  0.00     0.010 C 
BRANCH  22  24
HETATM   24  C15 UNL     1      -5.772   4.981  13.439  1.00  0.00     0.008 C 
BRANCH  24  25
HETATM   25  C16 UNL     1      -7.065   4.657  12.678  1.00  0.00     0.028 C 
BRANCH  25  26
HETATM   26  C17 UNL     1      -8.280   5.335  13.246  1.00  0.00    -0.022 C 
HETATM   27  C18 UNL     1      -9.238   6.013  12.578  1.00  0.00    -0.064 C 
HETATM   28  C19 UNL     1      -9.260   6.176  11.081  1.00  0.00     0.045 C 
BRANCH  27  29
HETATM   29  C20 UNL     1     -10.404   6.695  13.264  1.00  0.00     0.197 C 
BRANCH  29  30
HETATM   30  O3  UNL     1     -10.361   6.544  14.675  1.00  0.00    -0.397 OA
HETATM   31  H29 UNL     1     -10.411   5.590  14.848  1.00  0.00     0.209 HD
ENDBRANCH  29  30
ENDBRANCH  27  29
ENDBRANCH  25  26
ENDBRANCH  24  25
ENDBRANCH  22  24
ENDBRANCH  14  22
BRANCH  20  32
HETATM   32  C27 UNL     1       0.824   6.562  10.390  1.00  0.00     0.021 C 
BRANCH  32  33
HETATM   33  C28 UNL     1       2.035   6.850   9.504  1.00  0.00     0.111 C 
BRANCH  33  34
HETATM   34  C29 UNL     1       2.882   5.657   9.158  1.00  0.00     0.139 C 
HETATM   35  O4  UNL     1       3.151   5.287   8.027  1.00  0.00    -0.650 OA
BRANCH  34  36
HETATM   36  O5  UNL     1       3.427   5.038  10.220  1.00  0.00    -0.776 OA
HETATM   37  H43 UNL     1       3.982   4.333   9.823  1.00  0.00     0.167 HD
ENDBRANCH  34  36
ENDBRANCH  33  34
ENDBRANCH  32  33
ENDBRANCH  20  32
TORSDOF 10
ENDMDL
MODEL 8
REMARK minimizedAffinity -8.36244392
REMARK  10 active torsions:
REMARK  status: ('A' for Active; 'I' for Inactive)
REMARK    1  A    between atoms: C12_14  and  C13_15 
REMARK    2  A    between atoms: C13_15  and  C15_17 
REMARK    3  A    between atoms: C15_17  and  C16_18 
REMARK    4  A    between atoms: C16_18  and  C17_19 
REMARK    5  A    between atoms: C18_20  and  C20_22 
REMARK    6  A    between atoms: C20_22  and  O3_23 
REMARK    7  A    between atoms: C26_29  and  C27_30 
REMARK    8  A    between atoms: C27_30  and  C28_31 
REMARK    9  A    between atoms: C28_31  and  C29_32 
REMARK   10  A    between atoms: C29_32  and  O5_34 
ROOT
HETATM    1  C1  UNL     1       3.533   7.505   9.284  1.00  0.00     0.025 C 
HETATM    2  C2  UNL     1       3.030   6.501  10.011  1.00  0.00     0.015 C 
HETATM    3  C3  UNL     1       2.909   5.138   9.440  1.00  0.00     0.289 C 
HETATM    4  O1  UNL     1       3.408   4.736   8.405  1.00  0.00    -0.260 OA
HETATM    5  O2  UNL     1       2.144   4.401  10.289  1.00  0.00    -0.311 OA
HETATM    6  C4  UNL     1       1.565   5.251  11.296  1.00  0.00     0.142 C 
HETATM    7  C5  UNL     1       0.133   5.572  10.885  1.00  0.00     0.039 C 
HETATM    8  C6  UNL     1      -0.600   6.595  11.766  1.00  0.00     0.006 C 
HETATM    9  C7  UNL     1       0.275   7.810  12.175  1.00  0.00    -0.027 A 
HETATM   10  C8  UNL     1      -0.442   8.803  13.117  1.00  0.00     0.011 C 
HETATM   11  C9  UNL     1      -1.255   8.170  14.254  1.00  0.00     0.011 C 
HETATM   12  C10 UNL     1      -2.215   7.095  13.719  1.00  0.00    -0.032 C 
HETATM   13  C11 UNL     1      -3.233   7.781  12.764  1.00  0.00     0.016 C 
HETATM   14  C12 UNL     1      -2.998   6.243  14.771  1.00  0.00    -0.002 C 
HETATM   15  C21 UNL     1      -3.250   4.900  14.017  1.00  0.00     0.006 C 
HETATM   16  C22 UNL     1      -2.362   4.904  12.756  1.00  0.00     0.011 C 
HETATM   17  C23 UNL     1      -1.312   5.994  13.025  1.00  0.00    -0.032 C 
HETATM   18  C24 UNL     1      -0.243   5.363  13.975  1.00  0.00     0.016 C 
HETATM   19  C25 UNL     1       1.014   8.565  11.097  1.00  0.00     0.022 A 
HETATM   20  C26 UNL     1       1.836   7.700  12.028  1.00  0.00    -0.021 A 
HETATM   21  C30 UNL     1       2.484   6.456  11.404  1.00  0.00     0.063 C 
ENDROOT
BRANCH  14  22
HETATM   22  C13 UNL     1      -4.250   6.754  15.550  1.00  0.00    -0.014 C 
HETATM   23  C14 UNL     1      -5.474   5.826  15.594  1.00  0.00     0.010 C 
BRANCH  22  24
HETATM   24  C15 UNL     1      -4.726   8.168  15.143  1.00  0.00     0.008 C 
BRANCH  24  25
HETATM   25  C16 UNL     1      -6.162   8.543  15.533  1.00  0.00     0.028 C 
BRANCH  25  26
HETATM   26  C17 UNL     1      -7.208   7.822  14.728  1.00  0.00    -0.022 C 
HETATM   27  C18 UNL     1      -8.484   7.557  15.078  1.00  0.00    -0.064 C 
HETATM   28  C19 UNL     1      -9.105   7.992  16.380  1.00  0.00     0.045 C 
BRANCH  27  29
HETATM   29  C20 UNL     1      -9.444   6.784  14.196  1.00  0.00     0.197 C 
BRANCH  29  30
HETATM   30  O3  UNL     1     -10.710   6.600  14.812  1.00  0.00    -0.397 OA
HETATM   31  H29 UNL     1     -10.546   6.087  15.620  1.00  0.00     0.209 HD
ENDBRANCH  29  30
ENDBRANCH  27  29
ENDBRANCH  25  26
ENDBRANCH  24  25
ENDBRANCH  22  24
ENDBRANCH  14  22
BRANCH  20  32
HETATM   32  C27 UNL     1       2.697   8.328  13.135  1.00  0.00     0.021 C 
BRANCH  32  33
HETATM   33  C28 UNL     1       2.638   7.609  14.482  1.00  0.00     0.111 C 
BRANCH  33  34
HETATM   34  C29 UNL     1       2.843   8.482  15.689  1.00  0.00     0.139 C 
HETATM   35  O4  UNL     1       3.758   9.274  15.839  1.00  0.00    -0.650 OA
BRANCH  34  36
HETATM   36  O5  UNL     1       1.863   8.399  16.605  1.00  0.00    -0.776 OA
HETATM   37  H43 UNL     1       2.118   9.059  17.284  1.00  0.00     0.167 HD
ENDBRANCH  34  36
ENDBRANCH  33  34
ENDBRANCH  32  33
ENDBRANCH  20  32
TORSDOF 10
ENDMDL
MODEL 9
REMARK minimizedAffinity -8.32525921
REMARK  10 active torsions:
REMARK  status: ('A' for Active; 'I' for Inactive)
REMARK    1  A    between atoms: C12_14  and  C13_15 
REMARK    2  A    between atoms: C13_15  and  C15_17 
REMARK    3  A    between atoms: C15_17  and  C16_18 
REMARK    4  A    between atoms: C16_18  and  C17_19 
REMARK    5  A    between atoms: C18_20  and  C20_22 
REMARK    6  A    between atoms: C20_22  and  O3_23 
REMARK    7  A    between atoms: C26_29  and  C27_30 
REMARK    8  A    between atoms: C27_30  and  C28_31 
REMARK    9  A    between atoms: C28_31  and  C29_32 
REMARK   10  A    between atoms: C29_32  and  O5_34 
ROOT
HETATM    1  C1  UNL     1       4.109   7.001  11.834  1.00  0.00     0.025 C 
HETATM    2  C2  UNL     1       3.284   7.998  12.176  1.00  0.00     0.015 C 
HETATM    3  C3  UNL     1       3.739   9.080  13.081  1.00  0.00     0.289 C 
HETATM    4  O1  UNL     1       4.884   9.305  13.428  1.00  0.00    -0.260 OA
HETATM    5  O2  UNL     1       2.644   9.794  13.454  1.00  0.00    -0.311 OA
HETATM    6  C4  UNL     1       1.446   9.124  13.018  1.00  0.00     0.142 C 
HETATM    7  C5  UNL     1       0.875   8.348  14.199  1.00  0.00     0.039 C 
HETATM    8  C6  UNL     1      -0.327   7.445  13.884  1.00  0.00     0.006 C 
HETATM    9  C7  UNL     1      -0.183   6.651  12.558  1.00  0.00    -0.027 A 
HETATM   10  C8  UNL     1      -1.422   5.795  12.209  1.00  0.00     0.011 C 
HETATM   11  C9  UNL     1      -2.780   6.478  12.419  1.00  0.00     0.011 C 
HETATM   12  C10 UNL     1      -2.884   7.086  13.827  1.00  0.00    -0.032 C 
HETATM   13  C11 UNL     1      -2.793   5.932  14.866  1.00  0.00     0.016 C 
HETATM   14  C12 UNL     1      -4.144   7.958  14.143  1.00  0.00    -0.002 C 
HETATM   15  C21 UNL     1      -3.627   8.939  15.241  1.00  0.00     0.006 C 
HETATM   16  C22 UNL     1      -2.090   8.826  15.273  1.00  0.00     0.011 C 
HETATM   17  C23 UNL     1      -1.721   8.156  13.940  1.00  0.00    -0.032 C 
HETATM   18  C24 UNL     1      -1.780   9.271  12.846  1.00  0.00     0.016 C 
HETATM   19  C25 UNL     1       1.076   5.852  12.326  1.00  0.00     0.022 A 
HETATM   20  C26 UNL     1       0.894   7.115  11.512  1.00  0.00    -0.021 A 
HETATM   21  C30 UNL     1       1.854   8.271  11.829  1.00  0.00     0.063 C 
ENDROOT
BRANCH  14  22
HETATM   22  C13 UNL     1      -5.554   7.369  14.460  1.00  0.00    -0.014 C 
HETATM   23  C14 UNL     1      -5.739   6.691  15.827  1.00  0.00     0.010 C 
BRANCH  22  24
HETATM   24  C15 UNL     1      -6.117   6.427  13.371  1.00  0.00     0.008 C 
BRANCH  24  25
HETATM   25  C16 UNL     1      -6.121   4.928  13.699  1.00  0.00     0.028 C 
BRANCH  25  26
HETATM   26  C17 UNL     1      -6.220   4.050  12.483  1.00  0.00    -0.022 C 
HETATM   27  C18 UNL     1      -5.258   3.271  11.944  1.00  0.00    -0.064 C 
HETATM   28  C19 UNL     1      -3.875   3.125  12.523  1.00  0.00     0.045 C 
BRANCH  27  29
HETATM   29  C20 UNL     1      -5.461   2.453  10.685  1.00  0.00     0.197 C 
BRANCH  29  30
HETATM   30  O3  UNL     1      -5.747   1.092  10.969  1.00  0.00    -0.397 OA
HETATM   31  H29 UNL     1      -4.974   0.746  11.445  1.00  0.00     0.209 HD
ENDBRANCH  29  30
ENDBRANCH  27  29
ENDBRANCH  25  26
ENDBRANCH  24  25
ENDBRANCH  22  24
ENDBRANCH  14  22
BRANCH  20  32
HETATM   32  C27 UNL     1       0.513   7.049  10.026  1.00  0.00     0.021 C 
BRANCH  32  33
HETATM   33  C28 UNL     1       1.006   8.224   9.183  1.00  0.00     0.111 C 
BRANCH  33  34
HETATM   34  C29 UNL     1       2.077   7.894   8.180  1.00  0.00     0.139 C 
HETATM   35  O4  UNL     1       2.703   8.710   7.524  1.00  0.00    -0.650 OA
BRANCH  34  36
HETATM   36  O5  UNL     1       2.382   6.588   8.105  1.00  0.00    -0.776 OA
HETATM   37  H43 UNL     1       3.122   6.555   7.461  1.00  0.00     0.167 HD
ENDBRANCH  34  36
ENDBRANCH  33  34
ENDBRANCH  32  33
ENDBRANCH  20  32
TORSDOF 10
ENDMDL
