MODEL 1
REMARK minimizedAffinity -11.3408146
REMARK CNNscore 0.341328472
REMARK CNNaffinity 7.86689329
REMARK  7 active torsions:
REMARK  status: ('A' for Active; 'I' for Inactive)
REMARK    1  A    between atoms: C2_2  and  C3_3 
REMARK    2  A    between atoms: C9_10  and  O1_11 
REMARK    3  A    between atoms: C18_22  and  C19_23 
REMARK    4  A    between atoms: C33_39  and  C34_40 
REMARK    5  A    between atoms: C34_40  and  O2_41 
REMARK    6  A    between atoms: C35_42  and  C38_45 
REMARK    7  A    between atoms: C39_46  and  O3_47 
ROOT
HETATM    1  C19 UNL     1      -1.106  50.795 -19.868  1.00  0.00    -0.003 C 
HETATM    2  C20 UNL     1      -0.596  50.527 -21.089  1.00  0.00     0.102 C 
HETATM    3  N3  UNL     1      -1.361  50.202 -22.192  1.00  0.00    -0.349 N 
HETATM    4  C21 UNL     1      -1.234  50.847 -23.454  1.00  0.00     0.041 A 
HETATM    5  C22 UNL     1      -0.117  51.495 -23.957  1.00  0.00     0.030 A 
HETATM    6  C23 UNL     1      -0.193  52.106 -25.207  1.00  0.00     0.002 A 
HETATM    7  C24 UNL     1      -1.379  52.070 -25.949  1.00  0.00     0.001 A 
HETATM    8  C25 UNL     1      -2.503  51.408 -25.451  1.00  0.00     0.010 A 
HETATM    9  C26 UNL     1      -2.417  50.805 -24.204  1.00  0.00    -0.018 A 
HETATM   10  C27 UNL     1      -3.451  50.020 -23.446  1.00  0.00     0.041 C 
HETATM   11  C28 UNL     1      -3.605  48.614 -24.036  1.00  0.00     0.046 C 
HETATM   12  C29 UNL     1      -4.836  48.068 -23.336  1.00  0.00     0.239 C 
HETATM   13  N4  UNL     1      -5.784  49.280 -23.237  1.00  0.00    -0.062 N 
HETATM   14  C30 UNL     1      -6.851  49.180 -24.323  1.00  0.00     0.273 C 
HETATM   15  C31 UNL     1      -6.478  49.299 -21.880  1.00  0.00     0.271 C 
HETATM   16  C32 UNL     1      -5.643  49.865 -20.757  1.00  0.00    -0.051 C 
HETATM   17  C33 UNL     1      -5.657  49.336 -19.518  1.00  0.00     0.004 C 
HETATM   18  C35 UNL     1      -4.868  51.139 -21.056  1.00  0.00     0.027 C 
HETATM   19  C36 UNL     1      -5.233  51.630 -22.463  1.00  0.00     0.044 C 
HETATM   20  C37 UNL     1      -4.894  50.548 -23.480  1.00  0.00     0.206 C 
HETATM   21  C38 UNL     1      -3.328  51.034 -21.039  1.00  0.00     0.052 C 
HETATM   22  C39 UNL     1      -2.623  50.802 -19.677  1.00  0.00     0.160 C 
HETATM   23  C40 UNL     1      -2.812  49.976 -22.029  1.00  0.00     0.112 C 
ENDROOT
BRANCH   1  24
HETATM   24  C18 UNL     1      -0.212  51.182 -18.774  1.00  0.00    -0.016 A 
HETATM   25  C3  UNL     1       0.443  52.500 -18.633  1.00  0.00    -0.032 A 
HETATM   26  C4  UNL     1       1.250  52.702 -17.571  1.00  0.00     0.099 A 
HETATM   27  N1  UNL     1       1.480  51.760 -16.573  1.00  0.00    -0.354 N 
HETATM   28  C5  UNL     1       2.569  51.952 -15.586  1.00  0.00     0.133 C 
HETATM   29  C16 UNL     1       0.846  50.501 -16.650  1.00  0.00     0.062 A 
HETATM   30  C6  UNL     1       2.298  51.204 -14.272  1.00  0.00     0.062 C 
HETATM   31  C7  UNL     1       1.770  49.821 -14.494  1.00  0.00    -0.012 A 
HETATM   32  C8  UNL     1       1.814  48.721 -13.735  1.00  0.00     0.033 A 
HETATM   33  C15 UNL     1       1.012  49.561 -15.698  1.00  0.00     0.067 A 
HETATM   34  C9  UNL     1       2.345  48.336 -12.459  1.00  0.00     0.081 A 
HETATM   35  C14 UNL     1       0.989  47.799 -14.545  1.00  0.00     0.046 A 
HETATM   36  C11 UNL     1       2.074  47.091 -12.017  1.00  0.00     0.038 A 
HETATM   37  C12 UNL     1       1.275  46.153 -12.795  1.00  0.00     0.005 A 
HETATM   38  C13 UNL     1       0.755  46.450 -13.996  1.00  0.00     0.030 A 
HETATM   39  N2  UNL     1       0.529  48.270 -15.663  1.00  0.00    -0.353 N 
ATOM     40  H2  UNL     1      -0.052  47.796 -16.354  1.00  0.00     0.166 HD
HETATM   41  C17 UNL     1      -0.006  50.257 -17.809  1.00  0.00     0.044 A 
BRANCH  25  42
HETATM   42  C2  UNL     1       0.226  53.597 -19.648  1.00  0.00     0.036 C 
HETATM   43  C1  UNL     1       1.366  53.730 -20.650  1.00  0.00     0.010 C 
ENDBRANCH  25  42
BRANCH  34  44
HETATM   44  O1  UNL     1       3.068  49.314 -11.819  1.00  0.00    -0.355 OA
HETATM   45  C10 UNL     1       3.161  50.587 -12.467  1.00  0.00     0.210 C 
ENDBRANCH  34  44
ENDBRANCH   1  24
BRANCH  22  46
HETATM   46  O3  UNL     1      -3.087  51.817 -18.791  1.00  0.00    -0.390 OA
HETATM   47  H42 UNL     1      -2.317  52.248 -18.387  1.00  0.00     0.210 HD
ENDBRANCH  22  46
BRANCH  17  48
HETATM   48  C34 UNL     1      -6.402  48.111 -19.093  1.00  0.00     0.191 C 
BRANCH  48  49
HETATM   49  O2  UNL     1      -6.669  48.262 -17.700  1.00  0.00    -0.397 OA
HETATM   50  H35 UNL     1      -7.272  47.532 -17.456  1.00  0.00     0.209 HD
ENDBRANCH  48  49
ENDBRANCH  17  48
TORSDOF 7
ENDMDL
MODEL 2
REMARK minimizedAffinity -10.055398
REMARK CNNscore 0.239552826
REMARK CNNaffinity 7.5283761
REMARK  7 active torsions:
REMARK  status: ('A' for Active; 'I' for Inactive)
REMARK    1  A    between atoms: C2_2  and  C3_3 
REMARK    2  A    between atoms: C9_10  and  O1_11 
REMARK    3  A    between atoms: C18_22  and  C19_23 
REMARK    4  A    between atoms: C33_39  and  C34_40 
REMARK    5  A    between atoms: C34_40  and  O2_41 
REMARK    6  A    between atoms: C35_42  and  C38_45 
REMARK    7  A    between atoms: C39_46  and  O3_47 
ROOT
HETATM    1  C19 UNL     1      -1.137  50.411 -15.760  1.00  0.00    -0.003 C 
HETATM    2  C20 UNL     1      -2.237  50.969 -15.214  1.00  0.00     0.102 C 
HETATM    3  N3  UNL     1      -2.907  50.452 -14.122  1.00  0.00    -0.349 N 
HETATM    4  C21 UNL     1      -3.250  51.220 -12.975  1.00  0.00     0.041 A 
HETATM    5  C22 UNL     1      -3.439  52.592 -12.907  1.00  0.00     0.030 A 
HETATM    6  C23 UNL     1      -3.734  53.176 -11.677  1.00  0.00     0.002 A 
HETATM    7  C24 UNL     1      -3.840  52.394 -10.522  1.00  0.00     0.001 A 
HETATM    8  C25 UNL     1      -3.664  51.010 -10.587  1.00  0.00     0.010 A 
HETATM    9  C26 UNL     1      -3.367  50.439 -11.817  1.00  0.00    -0.018 A 
HETATM   10  C27 UNL     1      -3.148  48.995 -12.174  1.00  0.00     0.041 C 
HETATM   11  C28 UNL     1      -4.482  48.241 -12.227  1.00  0.00     0.046 C 
HETATM   12  C29 UNL     1      -4.064  46.787 -12.342  1.00  0.00     0.239 C 
HETATM   13  N4  UNL     1      -2.824  46.677 -11.431  1.00  0.00    -0.062 N 
HETATM   14  C30 UNL     1      -3.225  46.039 -10.104  1.00  0.00     0.273 C 
HETATM   15  C31 UNL     1      -1.763  45.800 -12.085  1.00  0.00     0.271 C 
HETATM   16  C32 UNL     1      -0.928  46.501 -13.130  1.00  0.00    -0.051 C 
HETATM   17  C33 UNL     1      -0.551  45.893 -14.271  1.00  0.00     0.004 C 
HETATM   18  C35 UNL     1      -0.429  47.896 -12.783  1.00  0.00     0.027 C 
HETATM   19  C36 UNL     1      -0.818  48.223 -11.335  1.00  0.00     0.044 C 
HETATM   20  C37 UNL     1      -2.332  48.145 -11.188  1.00  0.00     0.206 C 
HETATM   21  C38 UNL     1      -0.980  49.060 -13.633  1.00  0.00     0.052 C 
HETATM   22  C39 UNL     1      -0.537  49.159 -15.117  1.00  0.00     0.160 C 
HETATM   23  C40 UNL     1      -2.515  49.131 -13.588  1.00  0.00     0.112 C 
ENDROOT
BRANCH   1  24
HETATM   24  C18 UNL     1      -0.468  51.067 -16.885  1.00  0.00    -0.016 A 
HETATM   25  C3  UNL     1       0.684  51.987 -16.774  1.00  0.00    -0.032 A 
HETATM   26  C4  UNL     1       1.185  52.522 -17.908  1.00  0.00     0.099 A 
HETATM   27  N1  UNL     1       0.712  52.236 -19.184  1.00  0.00    -0.354 N 
HETATM   28  C5  UNL     1       1.133  53.050 -20.349  1.00  0.00     0.133 C 
HETATM   29  C16 UNL     1      -0.364  51.334 -19.337  1.00  0.00     0.062 A 
HETATM   30  C6  UNL     1       1.035  52.269 -21.667  1.00  0.00     0.062 C 
HETATM   31  C7  UNL     1      -0.227  51.470 -21.772  1.00  0.00    -0.012 A 
HETATM   32  C8  UNL     1      -0.914  51.030 -22.831  1.00  0.00     0.033 A 
HETATM   33  C15 UNL     1      -0.846  51.001 -20.551  1.00  0.00     0.067 A 
HETATM   34  C9  UNL     1      -0.815  51.100 -24.261  1.00  0.00     0.081 A 
HETATM   35  C14 UNL     1      -1.959  50.225 -22.162  1.00  0.00     0.046 A 
HETATM   36  C11 UNL     1      -1.718  50.409 -24.986  1.00  0.00     0.038 A 
HETATM   37  C12 UNL     1      -2.767  49.615 -24.358  1.00  0.00     0.005 A 
HETATM   38  C13 UNL     1      -2.916  49.514 -23.029  1.00  0.00     0.030 A 
HETATM   39  N2  UNL     1      -1.926  50.204 -20.865  1.00  0.00    -0.353 N 
ATOM     40  H2  UNL     1      -2.553  49.713 -20.227  1.00  0.00     0.166 HD
HETATM   41  C17 UNL     1      -0.936  50.772 -18.119  1.00  0.00     0.044 A 
BRANCH  25  42
HETATM   42  C2  UNL     1       1.289  52.330 -15.434  1.00  0.00     0.036 C 
HETATM   43  C1  UNL     1       2.776  52.013 -15.341  1.00  0.00     0.010 C 
ENDBRANCH  25  42
BRANCH  34  44
HETATM   44  O1  UNL     1       0.225  51.868 -24.727  1.00  0.00    -0.355 OA
HETATM   45  C10 UNL     1      -0.108  53.127 -25.318  1.00  0.00     0.210 C 
ENDBRANCH  34  44
ENDBRANCH   1  24
BRANCH  22  46
HETATM   46  O3  UNL     1       0.887  49.131 -15.129  1.00  0.00    -0.390 OA
HETATM   47  H42 UNL     1       1.205  49.884 -15.653  1.00  0.00     0.210 HD
ENDBRANCH  22  46
BRANCH  17  48
HETATM   48  C34 UNL     1      -0.947  44.519 -14.707  1.00  0.00     0.191 C 
BRANCH  48  49
HETATM   49  O2  UNL     1       0.177  43.973 -15.395  1.00  0.00    -0.397 OA
HETATM   50  H35 UNL     1      -0.032  43.031 -15.557  1.00  0.00     0.209 HD
ENDBRANCH  48  49
ENDBRANCH  17  48
TORSDOF 7
ENDMDL
MODEL 3
REMARK minimizedAffinity -10.3613091
REMARK CNNscore 0.210356608
REMARK CNNaffinity 6.46803045
REMARK  7 active torsions:
REMARK  status: ('A' for Active; 'I' for Inactive)
REMARK    1  A    between atoms: C2_2  and  C3_3 
REMARK    2  A    between atoms: C9_10  and  O1_11 
REMARK    3  A    between atoms: C18_22  and  C19_23 
REMARK    4  A    between atoms: C33_39  and  C34_40 
REMARK    5  A    between atoms: C34_40  and  O2_41 
REMARK    6  A    between atoms: C35_42  and  C38_45 
REMARK    7  A    between atoms: C39_46  and  O3_47 
ROOT
HETATM    1  C19 UNL     1     -10.759  46.395 -27.956  1.00  0.00    -0.003 C 
HETATM    2  C20 UNL     1      -9.527  46.118 -27.480  1.00  0.00     0.102 C 
HETATM    3  N3  UNL     1      -8.375  46.165 -28.242  1.00  0.00    -0.349 N 
HETATM    4  C21 UNL     1      -7.204  46.873 -27.851  1.00  0.00     0.041 A 
HETATM    5  C22 UNL     1      -6.808  47.197 -26.564  1.00  0.00     0.030 A 
HETATM    6  C23 UNL     1      -5.640  47.934 -26.378  1.00  0.00     0.002 A 
HETATM    7  C24 UNL     1      -4.873  48.345 -27.474  1.00  0.00     0.001 A 
HETATM    8  C25 UNL     1      -5.261  48.010 -28.773  1.00  0.00     0.010 A 
HETATM    9  C26 UNL     1      -6.428  47.277 -28.946  1.00  0.00    -0.018 A 
HETATM   10  C27 UNL     1      -7.061  46.770 -30.212  1.00  0.00     0.041 C 
HETATM   11  C28 UNL     1      -6.302  45.552 -30.748  1.00  0.00     0.046 C 
HETATM   12  C29 UNL     1      -6.902  45.337 -32.126  1.00  0.00     0.239 C 
HETATM   13  N4  UNL     1      -7.126  46.763 -32.667  1.00  0.00    -0.062 N 
HETATM   14  C30 UNL     1      -6.012  47.114 -33.648  1.00  0.00     0.273 C 
HETATM   15  C31 UNL     1      -8.459  46.847 -33.402  1.00  0.00     0.271 C 
HETATM   16  C32 UNL     1      -9.661  47.004 -32.502  1.00  0.00    -0.051 C 
HETATM   17  C33 UNL     1     -10.826  46.374 -32.748  1.00  0.00     0.004 C 
HETATM   18  C35 UNL     1      -9.537  48.003 -31.362  1.00  0.00     0.027 C 
HETATM   19  C36 UNL     1      -8.191  48.732 -31.479  1.00  0.00     0.044 C 
HETATM   20  C37 UNL     1      -7.058  47.715 -31.423  1.00  0.00     0.206 C 
HETATM   21  C38 UNL     1      -9.575  47.430 -29.930  1.00  0.00     0.052 C 
HETATM   22  C39 UNL     1     -10.915  46.847 -29.409  1.00  0.00     0.160 C 
HETATM   23  C40 UNL     1      -8.476  46.379 -29.700  1.00  0.00     0.112 C 
ENDROOT
BRANCH   1  24
HETATM   24  C18 UNL     1     -11.912  46.368 -27.053  1.00  0.00    -0.016 A 
HETATM   25  C3  UNL     1     -11.942  46.941 -25.690  1.00  0.00    -0.032 A 
HETATM   26  C4  UNL     1     -13.080  46.826 -24.974  1.00  0.00     0.099 A 
HETATM   27  N1  UNL     1     -14.247  46.236 -25.448  1.00  0.00    -0.354 N 
HETATM   28  C5  UNL     1     -15.363  45.916 -24.528  1.00  0.00     0.133 C 
HETATM   29  C16 UNL     1     -14.273  45.709 -26.759  1.00  0.00     0.062 A 
HETATM   30  C6  UNL     1     -16.716  45.864 -25.253  1.00  0.00     0.062 C 
HETATM   31  C7  UNL     1     -16.641  45.144 -26.563  1.00  0.00    -0.012 A 
HETATM   32  C8  UNL     1     -17.570  44.500 -27.277  1.00  0.00     0.033 A 
HETATM   33  C15 UNL     1     -15.383  45.149 -27.279  1.00  0.00     0.067 A 
HETATM   34  C9  UNL     1     -18.966  44.188 -27.161  1.00  0.00     0.081 A 
HETATM   35  C14 UNL     1     -16.794  44.161 -28.490  1.00  0.00     0.046 A 
HETATM   36  C11 UNL     1     -19.556  43.563 -28.201  1.00  0.00     0.038 A 
HETATM   37  C12 UNL     1     -18.819  43.205 -29.406  1.00  0.00     0.005 A 
HETATM   38  C13 UNL     1     -17.513  43.464 -29.573  1.00  0.00     0.030 A 
HETATM   39  N2  UNL     1     -15.550  44.528 -28.498  1.00  0.00    -0.353 N 
ATOM     40  H2  UNL     1     -14.857  44.389 -29.234  1.00  0.00     0.166 HD
HETATM   41  C17 UNL     1     -13.039  45.797 -27.533  1.00  0.00     0.044 A 
BRANCH  25  42
HETATM   42  C2  UNL     1     -10.735  47.632 -25.102  1.00  0.00     0.036 C 
HETATM   43  C1  UNL     1     -10.150  46.909 -23.895  1.00  0.00     0.010 C 
ENDBRANCH  25  42
BRANCH  34  44
HETATM   44  O1  UNL     1     -19.549  44.590 -25.984  1.00  0.00    -0.355 OA
HETATM   45  C10 UNL     1     -18.739  45.350 -25.082  1.00  0.00     0.210 C 
ENDBRANCH  34  44
ENDBRANCH   1  24
BRANCH  22  46
HETATM   46  O3  UNL     1     -11.907  47.852 -29.596  1.00  0.00    -0.390 OA
HETATM   47  H42 UNL     1     -12.377  47.980 -28.757  1.00  0.00     0.210 HD
ENDBRANCH  22  46
BRANCH  17  48
HETATM   48  C34 UNL     1     -11.082  45.397 -33.851  1.00  0.00     0.191 C 
BRANCH  48  49
HETATM   49  O2  UNL     1     -12.474  45.482 -34.152  1.00  0.00    -0.397 OA
HETATM   50  H35 UNL     1     -12.612  44.949 -34.961  1.00  0.00     0.209 HD
ENDBRANCH  48  49
ENDBRANCH  17  48
TORSDOF 7
ENDMDL
MODEL 4
REMARK minimizedAffinity -10.7989035
REMARK CNNscore 0.198993191
REMARK CNNaffinity 7.49112177
REMARK  7 active torsions:
REMARK  status: ('A' for Active; 'I' for Inactive)
REMARK    1  A    between atoms: C2_2  and  C3_3 
REMARK    2  A    between atoms: C9_10  and  O1_11 
REMARK    3  A    between atoms: C18_22  and  C19_23 
REMARK    4  A    between atoms: C33_39  and  C34_40 
REMARK    5  A    between atoms: C34_40  and  O2_41 
REMARK    6  A    between atoms: C35_42  and  C38_45 
REMARK    7  A    between atoms: C39_46  and  O3_47 
ROOT
HETATM    1  C19 UNL     1      -0.043  50.609 -16.080  1.00  0.00    -0.003 C 
HETATM    2  C20 UNL     1       0.893  49.817 -15.517  1.00  0.00     0.102 C 
HETATM    3  N3  UNL     1       0.724  49.149 -14.320  1.00  0.00    -0.349 N 
HETATM    4  C21 UNL     1       0.977  47.759 -14.153  1.00  0.00     0.041 A 
HETATM    5  C22 UNL     1       1.834  46.965 -14.899  1.00  0.00     0.030 A 
HETATM    6  C23 UNL     1       1.923  45.605 -14.611  1.00  0.00     0.002 A 
HETATM    7  C24 UNL     1       1.159  45.042 -13.582  1.00  0.00     0.001 A 
HETATM    8  C25 UNL     1       0.304  45.839 -12.819  1.00  0.00     0.010 A 
HETATM    9  C26 UNL     1       0.222  47.193 -13.117  1.00  0.00    -0.018 A 
HETATM   10  C27 UNL     1      -0.591  48.270 -12.455  1.00  0.00     0.041 C 
HETATM   11  C28 UNL     1       0.035  48.677 -11.116  1.00  0.00     0.046 C 
HETATM   12  C29 UNL     1      -1.023  49.562 -10.483  1.00  0.00     0.239 C 
HETATM   13  N4  UNL     1      -2.357  48.887 -10.863  1.00  0.00    -0.062 N 
HETATM   14  C30 UNL     1      -2.881  48.092  -9.671  1.00  0.00     0.273 C 
HETATM   15  C31 UNL     1      -3.394  49.939 -11.235  1.00  0.00     0.271 C 
HETATM   16  C32 UNL     1      -3.268  50.474 -12.642  1.00  0.00    -0.051 C 
HETATM   17  C33 UNL     1      -3.465  51.775 -12.933  1.00  0.00     0.004 C 
HETATM   18  C35 UNL     1      -3.024  49.453 -13.742  1.00  0.00     0.027 C 
HETATM   19  C36 UNL     1      -3.083  48.042 -13.140  1.00  0.00     0.044 C 
HETATM   20  C37 UNL     1      -2.029  47.914 -12.048  1.00  0.00     0.206 C 
HETATM   21  C38 UNL     1      -1.668  49.534 -14.474  1.00  0.00     0.052 C 
HETATM   22  C39 UNL     1      -1.408  50.750 -15.403  1.00  0.00     0.160 C 
HETATM   23  C40 UNL     1      -0.480  49.413 -13.505  1.00  0.00     0.112 C 
ENDROOT
BRANCH   1  24
HETATM   24  C18 UNL     1       0.214  51.231 -17.380  1.00  0.00    -0.016 A 
HETATM   25  C3  UNL     1       1.158  52.344 -17.622  1.00  0.00    -0.032 A 
HETATM   26  C4  UNL     1       1.277  52.818 -18.879  1.00  0.00     0.099 A 
HETATM   27  N1  UNL     1       0.598  52.303 -19.978  1.00  0.00    -0.354 N 
HETATM   28  C5  UNL     1       0.578  53.031 -21.268  1.00  0.00     0.133 C 
HETATM   29  C16 UNL     1      -0.286  51.216 -19.798  1.00  0.00     0.062 A 
HETATM   30  C6  UNL     1       0.345  52.092 -22.461  1.00  0.00     0.062 C 
HETATM   31  C7  UNL     1      -0.725  51.080 -22.196  1.00  0.00    -0.012 A 
HETATM   32  C8  UNL     1      -1.531  50.403 -23.022  1.00  0.00     0.033 A 
HETATM   33  C15 UNL     1      -0.951  50.661 -20.830  1.00  0.00     0.067 A 
HETATM   34  C9  UNL     1      -1.769  50.317 -24.434  1.00  0.00     0.081 A 
HETATM   35  C14 UNL     1      -2.221  49.515 -22.060  1.00  0.00     0.046 A 
HETATM   36  C11 UNL     1      -2.657  49.397 -24.865  1.00  0.00     0.038 A 
HETATM   37  C12 UNL     1      -3.363  48.515 -23.943  1.00  0.00     0.005 A 
HETATM   38  C13 UNL     1      -3.188  48.550 -22.614  1.00  0.00     0.030 A 
HETATM   39  N2  UNL     1      -1.896  49.656 -20.812  1.00  0.00    -0.353 N 
ATOM     40  H2  UNL     1      -2.255  49.144 -20.006  1.00  0.00     0.166 HD
HETATM   41  C17 UNL     1      -0.450  50.713 -18.438  1.00  0.00     0.044 A 
BRANCH  25  42
HETATM   42  C2  UNL     1       1.966  52.945 -16.497  1.00  0.00     0.036 C 
HETATM   43  C1  UNL     1       3.421  52.492 -16.487  1.00  0.00     0.010 C 
ENDBRANCH  25  42
BRANCH  34  44
HETATM   44  O1  UNL     1      -1.032  51.192 -25.195  1.00  0.00    -0.355 OA
HETATM   45  C10 UNL     1      -0.802  50.834 -26.561  1.00  0.00     0.210 C 
ENDBRANCH  34  44
ENDBRANCH   1  24
BRANCH  22  46
HETATM   46  O3  UNL     1      -2.499  50.818 -16.316  1.00  0.00    -0.390 OA
HETATM   47  H42 UNL     1      -2.143  50.870 -17.217  1.00  0.00     0.210 HD
ENDBRANCH  22  46
BRANCH  17  48
HETATM   48  C34 UNL     1      -3.744  52.864 -11.948  1.00  0.00     0.191 C 
BRANCH  48  49
HETATM   49  O2  UNL     1      -4.218  53.979 -12.701  1.00  0.00    -0.397 OA
HETATM   50  H35 UNL     1      -4.529  54.638 -12.048  1.00  0.00     0.209 HD
ENDBRANCH  48  49
ENDBRANCH  17  48
TORSDOF 7
ENDMDL
MODEL 5
REMARK minimizedAffinity -8.99043179
REMARK CNNscore 0.176943064
REMARK CNNaffinity 6.36093378
REMARK  7 active torsions:
REMARK  status: ('A' for Active; 'I' for Inactive)
REMARK    1  A    between atoms: C2_2  and  C3_3 
REMARK    2  A    between atoms: C9_10  and  O1_11 
REMARK    3  A    between atoms: C18_22  and  C19_23 
REMARK    4  A    between atoms: C33_39  and  C34_40 
REMARK    5  A    between atoms: C34_40  and  O2_41 
REMARK    6  A    between atoms: C35_42  and  C38_45 
REMARK    7  A    between atoms: C39_46  and  O3_47 
ROOT
HETATM    1  C19 UNL     1      -8.308  46.635 -25.131  1.00  0.00    -0.003 C 
HETATM    2  C20 UNL     1      -7.516  47.573 -25.691  1.00  0.00     0.102 C 
HETATM    3  N3  UNL     1      -6.567  48.299 -24.998  1.00  0.00    -0.349 N 
HETATM    4  C21 UNL     1      -5.215  48.432 -25.422  1.00  0.00     0.041 A 
HETATM    5  C22 UNL     1      -4.726  48.324 -26.713  1.00  0.00     0.030 A 
HETATM    6  C23 UNL     1      -3.355  48.447 -26.932  1.00  0.00     0.002 A 
HETATM    7  C24 UNL     1      -2.479  48.676 -25.865  1.00  0.00     0.001 A 
HETATM    8  C25 UNL     1      -2.969  48.798 -24.563  1.00  0.00     0.010 A 
HETATM    9  C26 UNL     1      -4.337  48.671 -24.357  1.00  0.00    -0.018 A 
HETATM   10  C27 UNL     1      -5.126  48.775 -23.081  1.00  0.00     0.041 C 
HETATM   11  C28 UNL     1      -5.269  50.239 -22.650  1.00  0.00     0.046 C 
HETATM   12  C29 UNL     1      -5.851  50.142 -21.251  1.00  0.00     0.239 C 
HETATM   13  N4  UNL     1      -5.140  48.923 -20.630  1.00  0.00    -0.062 N 
HETATM   14  C30 UNL     1      -4.030  49.403 -19.700  1.00  0.00     0.273 C 
HETATM   15  C31 UNL     1      -6.126  48.095 -19.815  1.00  0.00     0.271 C 
HETATM   16  C32 UNL     1      -6.992  47.167 -20.634  1.00  0.00    -0.051 C 
HETATM   17  C33 UNL     1      -8.293  46.966 -20.350  1.00  0.00     0.004 C 
HETATM   18  C35 UNL     1      -6.297  46.372 -21.729  1.00  0.00     0.027 C 
HETATM   19  C36 UNL     1      -4.786  46.633 -21.658  1.00  0.00     0.044 C 
HETATM   20  C37 UNL     1      -4.521  48.123 -21.828  1.00  0.00     0.206 C 
HETATM   21  C38 UNL     1      -6.705  46.694 -23.182  1.00  0.00     0.052 C 
HETATM   22  C39 UNL     1      -8.128  46.292 -23.651  1.00  0.00     0.160 C 
HETATM   23  C40 UNL     1      -6.491  48.177 -23.527  1.00  0.00     0.112 C 
ENDROOT
BRANCH   1  24
HETATM   24  C18 UNL     1      -9.248  45.883 -25.964  1.00  0.00    -0.016 A 
HETATM   25  C3  UNL     1     -10.700  45.757 -25.713  1.00  0.00    -0.032 A 
HETATM   26  C4  UNL     1     -11.434  45.017 -26.570  1.00  0.00     0.099 A 
HETATM   27  N1  UNL     1     -10.922  44.391 -27.702  1.00  0.00    -0.354 N 
HETATM   28  C5  UNL     1     -11.725  43.392 -28.444  1.00  0.00     0.133 C 
HETATM   29  C16 UNL     1      -9.547  44.516 -27.998  1.00  0.00     0.062 A 
HETATM   30  C6  UNL     1     -11.297  43.281 -29.915  1.00  0.00     0.062 C 
HETATM   31  C7  UNL     1      -9.809  43.271 -30.083  1.00  0.00    -0.012 A 
HETATM   32  C8  UNL     1      -9.028  42.774 -31.048  1.00  0.00     0.033 A 
HETATM   33  C15 UNL     1      -9.002  43.953 -29.095  1.00  0.00     0.067 A 
HETATM   34  C9  UNL     1      -9.194  42.058 -32.280  1.00  0.00     0.081 A 
HETATM   35  C14 UNL     1      -7.702  43.246 -30.593  1.00  0.00     0.046 A 
HETATM   36  C11 UNL     1      -8.090  41.818 -33.019  1.00  0.00     0.038 A 
HETATM   37  C12 UNL     1      -6.767  42.259 -32.594  1.00  0.00     0.005 A 
HETATM   38  C13 UNL     1      -6.546  42.927 -31.452  1.00  0.00     0.030 A 
HETATM   39  N2  UNL     1      -7.679  43.917 -29.484  1.00  0.00    -0.353 N 
ATOM     40  H2  UNL     1      -6.873  44.324 -29.009  1.00  0.00     0.166 HD
HETATM   41  C17 UNL     1      -8.734  45.287 -27.064  1.00  0.00     0.044 A 
BRANCH  25  42
HETATM   42  C2  UNL     1     -11.353  46.430 -24.529  1.00  0.00     0.036 C 
HETATM   43  C1  UNL     1     -12.829  46.737 -24.745  1.00  0.00     0.010 C 
ENDBRANCH  25  42
BRANCH  34  44
HETATM   44  O1  UNL     1     -10.491  41.711 -32.573  1.00  0.00    -0.355 OA
HETATM   45  C10 UNL     1     -10.882  40.362 -32.302  1.00  0.00     0.210 C 
ENDBRANCH  34  44
ENDBRANCH   1  24
BRANCH  22  46
HETATM   46  O3  UNL     1      -8.287  44.907 -23.358  1.00  0.00    -0.390 OA
HETATM   47  H42 UNL     1      -8.593  44.456 -24.161  1.00  0.00     0.210 HD
ENDBRANCH  22  46
BRANCH  17  48
HETATM   48  C34 UNL     1      -9.077  47.659 -19.281  1.00  0.00     0.191 C 
BRANCH  48  49
HETATM   49  O2  UNL     1     -10.336  47.998 -19.859  1.00  0.00    -0.397 OA
HETATM   50  H35 UNL     1     -10.895  48.324 -19.125  1.00  0.00     0.209 HD
ENDBRANCH  48  49
ENDBRANCH  17  48
TORSDOF 7
ENDMDL
MODEL 6
REMARK minimizedAffinity -10.1395254
REMARK CNNscore 0.160710484
REMARK CNNaffinity 7.27655935
REMARK  7 active torsions:
REMARK  status: ('A' for Active; 'I' for Inactive)
REMARK    1  A    between atoms: C2_2  and  C3_3 
REMARK    2  A    between atoms: C9_10  and  O1_11 
REMARK    3  A    between atoms: C18_22  and  C19_23 
REMARK    4  A    between atoms: C33_39  and  C34_40 
REMARK    5  A    between atoms: C34_40  and  O2_41 
REMARK    6  A    between atoms: C35_42  and  C38_45 
REMARK    7  A    between atoms: C39_46  and  O3_47 
ROOT
HETATM    1  C19 UNL     1      -0.484  50.221 -14.367  1.00  0.00    -0.003 C 
HETATM    2  C20 UNL     1      -1.526  50.391 -13.527  1.00  0.00     0.102 C 
HETATM    3  N3  UNL     1      -1.408  50.855 -12.231  1.00  0.00    -0.349 N 
HETATM    4  C21 UNL     1      -2.183  51.926 -11.706  1.00  0.00     0.041 A 
HETATM    5  C22 UNL     1      -3.430  52.350 -12.136  1.00  0.00     0.030 A 
HETATM    6  C23 UNL     1      -4.023  53.450 -11.520  1.00  0.00     0.002 A 
HETATM    7  C24 UNL     1      -3.371  54.122 -10.479  1.00  0.00     0.001 A 
HETATM    8  C25 UNL     1      -2.121  53.690 -10.033  1.00  0.00     0.010 A 
HETATM    9  C26 UNL     1      -1.539  52.595 -10.657  1.00  0.00    -0.018 A 
HETATM   10  C27 UNL     1      -0.228  51.915 -10.371  1.00  0.00     0.041 C 
HETATM   11  C28 UNL     1      -0.328  51.053  -9.108  1.00  0.00     0.046 C 
HETATM   12  C29 UNL     1       1.112  50.660  -8.832  1.00  0.00     0.239 C 
HETATM   13  N4  UNL     1       1.923  51.922  -9.187  1.00  0.00    -0.062 N 
HETATM   14  C30 UNL     1       2.300  52.659  -7.905  1.00  0.00     0.273 C 
HETATM   15  C31 UNL     1       3.205  51.539  -9.917  1.00  0.00     0.271 C 
HETATM   16  C32 UNL     1       3.024  51.246 -11.387  1.00  0.00    -0.051 C 
HETATM   17  C33 UNL     1       3.686  50.248 -12.005  1.00  0.00     0.004 C 
HETATM   18  C35 UNL     1       2.147  52.208 -12.173  1.00  0.00     0.027 C 
HETATM   19  C36 UNL     1       1.729  53.368 -11.259  1.00  0.00     0.044 C 
HETATM   20  C37 UNL     1       0.974  52.818 -10.056  1.00  0.00     0.206 C 
HETATM   21  C38 UNL     1       0.832  51.637 -12.745  1.00  0.00     0.052 C 
HETATM   22  C39 UNL     1       0.921  50.610 -13.904  1.00  0.00     0.160 C 
HETATM   23  C40 UNL     1      -0.064  51.040 -11.646  1.00  0.00     0.112 C 
ENDROOT
BRANCH   1  24
HETATM   24  C18 UNL     1      -0.721  49.774 -15.741  1.00  0.00    -0.016 A 
HETATM   25  C3  UNL     1      -1.384  48.508 -16.125  1.00  0.00    -0.032 A 
HETATM   26  C4  UNL     1      -1.519  48.232 -17.439  1.00  0.00     0.099 A 
HETATM   27  N1  UNL     1      -1.110  49.079 -18.464  1.00  0.00    -0.354 N 
HETATM   28  C5  UNL     1      -1.054  48.601 -19.865  1.00  0.00     0.133 C 
HETATM   29  C16 UNL     1      -0.506  50.314 -18.141  1.00  0.00     0.062 A 
HETATM   30  C6  UNL     1      -1.189  49.750 -20.875  1.00  0.00     0.062 C 
HETATM   31  C7  UNL     1      -0.377  50.950 -20.496  1.00  0.00    -0.012 A 
HETATM   32  C8  UNL     1       0.143  51.938 -21.230  1.00  0.00     0.033 A 
HETATM   33  C15 UNL     1      -0.114  51.184 -19.093  1.00  0.00     0.067 A 
HETATM   34  C9  UNL     1       0.198  52.313 -22.614  1.00  0.00     0.081 A 
HETATM   35  C14 UNL     1       0.695  52.806 -20.166  1.00  0.00     0.046 A 
HETATM   36  C11 UNL     1       0.781  53.490 -22.922  1.00  0.00     0.038 A 
HETATM   37  C12 UNL     1       1.344  54.362 -21.900  1.00  0.00     0.005 A 
HETATM   38  C13 UNL     1       1.330  54.067 -20.591  1.00  0.00     0.030 A 
HETATM   39  N2  UNL     1       0.552  52.383 -18.948  1.00  0.00    -0.353 N 
ATOM     40  H2  UNL     1       0.860  52.832 -18.085  1.00  0.00     0.166 HD
HETATM   41  C17 UNL     1      -0.324  50.613 -16.725  1.00  0.00     0.044 A 
BRANCH  25  42
HETATM   42  C2  UNL     1      -1.893  47.542 -15.083  1.00  0.00     0.036 C 
HETATM   43  C1  UNL     1      -0.833  46.562 -14.596  1.00  0.00     0.010 C 
ENDBRANCH  25  42
BRANCH  34  44
HETATM   44  O1  UNL     1      -0.380  51.412 -23.476  1.00  0.00    -0.355 OA
HETATM   45  C10 UNL     1       0.011  51.481 -24.850  1.00  0.00     0.210 C 
ENDBRANCH  34  44
ENDBRANCH   1  24
BRANCH  22  46
HETATM   46  O3  UNL     1       1.721  51.201 -14.924  1.00  0.00    -0.390 OA
HETATM   47  H42 UNL     1       1.240  51.141 -15.764  1.00  0.00     0.210 HD
ENDBRANCH  22  46
BRANCH  17  48
HETATM   48  C34 UNL     1       4.598  49.261 -11.350  1.00  0.00     0.191 C 
BRANCH  48  49
HETATM   49  O2  UNL     1       5.925  49.751 -11.537  1.00  0.00    -0.397 OA
HETATM   50  H35 UNL     1       6.506  49.182 -10.993  1.00  0.00     0.209 HD
ENDBRANCH  48  49
ENDBRANCH  17  48
TORSDOF 7
ENDMDL
MODEL 7
REMARK minimizedAffinity -11.5812387
REMARK CNNscore 0.152268782
REMARK CNNaffinity 7.26687479
REMARK  7 active torsions:
REMARK  status: ('A' for Active; 'I' for Inactive)
REMARK    1  A    between atoms: C2_2  and  C3_3 
REMARK    2  A    between atoms: C9_10  and  O1_11 
REMARK    3  A    between atoms: C18_22  and  C19_23 
REMARK    4  A    between atoms: C33_39  and  C34_40 
REMARK    5  A    between atoms: C34_40  and  O2_41 
REMARK    6  A    between atoms: C35_42  and  C38_45 
REMARK    7  A    between atoms: C39_46  and  O3_47 
ROOT
HETATM    1  C19 UNL     1      -0.358  51.214 -19.640  1.00  0.00    -0.003 C 
HETATM    2  C20 UNL     1       0.194  52.127 -18.814  1.00  0.00     0.102 C 
HETATM    3  N3  UNL     1       0.234  52.001 -17.439  1.00  0.00    -0.349 N 
HETATM    4  C21 UNL     1       1.422  52.155 -16.670  1.00  0.00     0.041 A 
HETATM    5  C22 UNL     1       2.552  52.884 -17.007  1.00  0.00     0.030 A 
HETATM    6  C23 UNL     1       3.641  52.887 -16.138  1.00  0.00     0.002 A 
HETATM    7  C24 UNL     1       3.600  52.166 -14.939  1.00  0.00     0.001 A 
HETATM    8  C25 UNL     1       2.459  51.441 -14.589  1.00  0.00     0.010 A 
HETATM    9  C26 UNL     1       1.381  51.443 -15.464  1.00  0.00    -0.018 A 
HETATM   10  C27 UNL     1       0.041  50.774 -15.333  1.00  0.00     0.041 C 
HETATM   11  C28 UNL     1      -0.851  51.536 -14.346  1.00  0.00     0.046 C 
HETATM   12  C29 UNL     1      -2.033  50.605 -14.144  1.00  0.00     0.239 C 
HETATM   13  N4  UNL     1      -1.407  49.196 -14.130  1.00  0.00    -0.062 N 
HETATM   14  C30 UNL     1      -1.290  48.707 -12.690  1.00  0.00     0.273 C 
HETATM   15  C31 UNL     1      -2.287  48.219 -14.901  1.00  0.00     0.271 C 
HETATM   16  C32 UNL     1      -2.120  48.274 -16.401  1.00  0.00    -0.051 C 
HETATM   17  C33 UNL     1      -3.166  48.159 -17.242  1.00  0.00     0.004 C 
HETATM   18  C35 UNL     1      -0.695  48.348 -16.928  1.00  0.00     0.027 C 
HETATM   19  C36 UNL     1       0.282  48.225 -15.752  1.00  0.00     0.044 C 
HETATM   20  C37 UNL     1       0.022  49.350 -14.757  1.00  0.00     0.206 C 
HETATM   21  C38 UNL     1      -0.295  49.643 -17.666  1.00  0.00     0.052 C 
HETATM   22  C39 UNL     1      -0.932  49.924 -19.052  1.00  0.00     0.160 C 
HETATM   23  C40 UNL     1      -0.493  50.891 -16.789  1.00  0.00     0.112 C 
ENDROOT
BRANCH   1  24
HETATM   24  C18 UNL     1      -0.303  51.416 -21.089  1.00  0.00    -0.016 A 
HETATM   25  C3  UNL     1       0.714  52.221 -21.801  1.00  0.00    -0.032 A 
HETATM   26  C4  UNL     1       0.624  52.321 -23.144  1.00  0.00     0.099 A 
HETATM   27  N1  UNL     1      -0.343  51.682 -23.913  1.00  0.00    -0.354 N 
HETATM   28  C5  UNL     1      -0.537  52.041 -25.338  1.00  0.00     0.133 C 
HETATM   29  C16 UNL     1      -1.311  50.873 -23.277  1.00  0.00     0.062 A 
HETATM   30  C6  UNL     1      -1.153  50.889 -26.147  1.00  0.00     0.062 C 
HETATM   31  C7  UNL     1      -2.272  50.209 -25.422  1.00  0.00    -0.012 A 
HETATM   32  C8  UNL     1      -3.324  49.513 -25.865  1.00  0.00     0.033 A 
HETATM   33  C15 UNL     1      -2.254  50.211 -23.975  1.00  0.00     0.067 A 
HETATM   34  C9  UNL     1      -3.871  49.113 -27.130  1.00  0.00     0.081 A 
HETATM   35  C14 UNL     1      -3.908  49.057 -24.585  1.00  0.00     0.046 A 
HETATM   36  C11 UNL     1      -4.952  48.305 -27.117  1.00  0.00     0.038 A 
HETATM   37  C12 UNL     1      -5.558  47.847 -25.874  1.00  0.00     0.005 A 
HETATM   38  C13 UNL     1      -5.097  48.190 -24.661  1.00  0.00     0.030 A 
HETATM   39  N2  UNL     1      -3.304  49.450 -23.506  1.00  0.00    -0.353 N 
ATOM     40  H2  UNL     1      -3.549  49.245 -22.537  1.00  0.00     0.166 HD
HETATM   41  C17 UNL     1      -1.245  50.782 -21.822  1.00  0.00     0.044 A 
BRANCH  25  42
HETATM   42  C2  UNL     1       1.822  52.923 -21.054  1.00  0.00     0.036 C 
HETATM   43  C1  UNL     1       1.829  54.433 -21.257  1.00  0.00     0.010 C 
ENDBRANCH  25  42
BRANCH  34  44
HETATM   44  O1  UNL     1      -3.200  49.599 -28.226  1.00  0.00    -0.355 OA
HETATM   45  C10 UNL     1      -3.334  50.996 -28.506  1.00  0.00     0.210 C 
ENDBRANCH  34  44
ENDBRANCH   1  24
BRANCH  22  46
HETATM   46  O3  UNL     1      -0.702  48.772 -19.858  1.00  0.00    -0.390 OA
HETATM   47  H42 UNL     1      -0.307  49.057 -20.697  1.00  0.00     0.210 HD
ENDBRANCH  22  46
BRANCH  17  48
HETATM   48  C34 UNL     1      -4.604  48.048 -16.847  1.00  0.00     0.191 C 
BRANCH  48  49
HETATM   49  O2  UNL     1      -5.350  48.761 -17.831  1.00  0.00    -0.397 OA
HETATM   50  H35 UNL     1      -6.293  48.572 -17.650  1.00  0.00     0.209 HD
ENDBRANCH  48  49
ENDBRANCH  17  48
TORSDOF 7
ENDMDL
MODEL 8
REMARK minimizedAffinity -10.7986765
REMARK CNNscore 0.15201731
REMARK CNNaffinity 7.34943628
REMARK  7 active torsions:
REMARK  status: ('A' for Active; 'I' for Inactive)
REMARK    1  A    between atoms: C2_2  and  C3_3 
REMARK    2  A    between atoms: C9_10  and  O1_11 
REMARK    3  A    between atoms: C18_22  and  C19_23 
REMARK    4  A    between atoms: C33_39  and  C34_40 
REMARK    5  A    between atoms: C34_40  and  O2_41 
REMARK    6  A    between atoms: C35_42  and  C38_45 
REMARK    7  A    between atoms: C39_46  and  O3_47 
ROOT
HETATM    1  C19 UNL     1      -2.768  50.077 -21.767  1.00  0.00    -0.003 C 
HETATM    2  C20 UNL     1      -1.493  50.440 -21.518  1.00  0.00     0.102 C 
HETATM    3  N3  UNL     1      -0.641  50.975 -22.465  1.00  0.00    -0.349 N 
HETATM    4  C21 UNL     1       0.101  52.173 -22.267  1.00  0.00     0.041 A 
HETATM    5  C22 UNL     1       0.500  52.724 -21.060  1.00  0.00     0.030 A 
HETATM    6  C23 UNL     1       1.193  53.933 -21.062  1.00  0.00     0.002 A 
HETATM    7  C24 UNL     1       1.485  54.587 -22.265  1.00  0.00     0.001 A 
HETATM    8  C25 UNL     1       1.096  54.029 -23.484  1.00  0.00     0.010 A 
HETATM    9  C26 UNL     1       0.404  52.826 -23.470  1.00  0.00    -0.018 A 
HETATM   10  C27 UNL     1      -0.111  52.004 -24.619  1.00  0.00     0.041 C 
HETATM   11  C28 UNL     1       1.035  51.254 -25.306  1.00  0.00     0.046 C 
HETATM   12  C29 UNL     1       0.393  50.698 -26.564  1.00  0.00     0.239 C 
HETATM   13  N4  UNL     1      -0.564  51.816 -27.025  1.00  0.00    -0.062 N 
HETATM   14  C30 UNL     1       0.075  52.587 -28.176  1.00  0.00     0.273 C 
HETATM   15  C31 UNL     1      -1.877  51.218 -27.516  1.00  0.00     0.271 C 
HETATM   16  C32 UNL     1      -2.846  50.847 -26.419  1.00  0.00    -0.051 C 
HETATM   17  C33 UNL     1      -3.597  49.730 -26.475  1.00  0.00     0.004 C 
HETATM   18  C35 UNL     1      -3.025  51.857 -25.295  1.00  0.00     0.027 C 
HETATM   19  C36 UNL     1      -2.224  53.123 -25.626  1.00  0.00     0.044 C 
HETATM   20  C37 UNL     1      -0.753  52.763 -25.790  1.00  0.00     0.206 C 
HETATM   21  C38 UNL     1      -2.554  51.422 -23.892  1.00  0.00     0.052 C 
HETATM   22  C39 UNL     1      -3.354  50.312 -23.160  1.00  0.00     0.160 C 
HETATM   23  C40 UNL     1      -1.068  51.026 -23.879  1.00  0.00     0.112 C 
ENDROOT
BRANCH   1  24
HETATM   24  C18 UNL     1      -3.606  49.568 -20.680  1.00  0.00    -0.016 A 
HETATM   25  C3  UNL     1      -3.264  49.621 -19.242  1.00  0.00    -0.032 A 
HETATM   26  C4  UNL     1      -4.139  49.098 -18.357  1.00  0.00     0.099 A 
HETATM   27  N1  UNL     1      -5.366  48.543 -18.705  1.00  0.00    -0.354 N 
HETATM   28  C5  UNL     1      -6.151  47.761 -17.722  1.00  0.00     0.133 C 
HETATM   29  C16 UNL     1      -5.748  48.504 -20.065  1.00  0.00     0.062 A 
HETATM   30  C6  UNL     1      -7.653  47.763 -18.044  1.00  0.00     0.062 C 
HETATM   31  C7  UNL     1      -7.930  47.562 -19.502  1.00  0.00    -0.012 A 
HETATM   32  C8  UNL     1      -8.996  47.074 -20.144  1.00  0.00     0.033 A 
HETATM   33  C15 UNL     1      -6.936  48.001 -20.456  1.00  0.00     0.067 A 
HETATM   34  C9  UNL     1     -10.283  46.538 -19.803  1.00  0.00     0.081 A 
HETATM   35  C14 UNL     1      -8.592  47.296 -21.549  1.00  0.00     0.046 A 
HETATM   36  C11 UNL     1     -11.122  46.231 -20.815  1.00  0.00     0.038 A 
HETATM   37  C12 UNL     1     -10.751  46.428 -22.211  1.00  0.00     0.005 A 
HETATM   38  C13 UNL     1      -9.562  46.919 -22.593  1.00  0.00     0.030 A 
HETATM   39  N2  UNL     1      -7.422  47.824 -21.735  1.00  0.00    -0.353 N 
ATOM     40  H2  UNL     1      -6.967  48.053 -22.618  1.00  0.00     0.166 HD
HETATM   41  C17 UNL     1      -4.798  49.037 -21.035  1.00  0.00     0.044 A 
BRANCH  25  42
HETATM   42  C2  UNL     1      -1.971  50.237 -18.765  1.00  0.00     0.036 C 
HETATM   43  C1  UNL     1      -1.043  49.243 -18.078  1.00  0.00     0.010 C 
ENDBRANCH  25  42
BRANCH  34  44
HETATM   44  O1  UNL     1     -10.516  46.416 -18.455  1.00  0.00    -0.355 OA
HETATM   45  C10 UNL     1     -11.471  47.309 -17.874  1.00  0.00     0.210 C 
ENDBRANCH  34  44
ENDBRANCH   1  24
BRANCH  22  46
HETATM   46  O3  UNL     1      -4.719  50.720 -23.150  1.00  0.00    -0.390 OA
HETATM   47  H42 UNL     1      -5.049  50.663 -22.240  1.00  0.00     0.210 HD
ENDBRANCH  22  46
BRANCH  17  48
HETATM   48  C34 UNL     1      -3.537  48.682 -27.539  1.00  0.00     0.191 C 
BRANCH  48  49
HETATM   49  O2  UNL     1      -4.343  49.154 -28.617  1.00  0.00    -0.397 OA
HETATM   50  H35 UNL     1      -4.192  48.538 -29.362  1.00  0.00     0.209 HD
ENDBRANCH  48  49
ENDBRANCH  17  48
TORSDOF 7
ENDMDL
MODEL 9
REMARK minimizedAffinity -10.4169083
REMARK CNNscore 0.149155214
REMARK CNNaffinity 7.2776742
REMARK  7 active torsions:
REMARK  status: ('A' for Active; 'I' for Inactive)
REMARK    1  A    between atoms: C2_2  and  C3_3 
REMARK    2  A    between atoms: C9_10  and  O1_11 
REMARK    3  A    between atoms: C18_22  and  C19_23 
REMARK    4  A    between atoms: C33_39  and  C34_40 
REMARK    5  A    between atoms: C34_40  and  O2_41 
REMARK    6  A    between atoms: C35_42  and  C38_45 
REMARK    7  A    between atoms: C39_46  and  O3_47 
ROOT
HETATM    1  C19 UNL     1      -1.589  49.557 -20.528  1.00  0.00    -0.003 C 
HETATM    2  C20 UNL     1      -0.373  50.086 -20.783  1.00  0.00     0.102 C 
HETATM    3  N3  UNL     1      -0.053  50.766 -21.941  1.00  0.00    -0.349 N 
HETATM    4  C21 UNL     1       0.566  52.048 -21.954  1.00  0.00     0.041 A 
HETATM    5  C22 UNL     1       1.362  52.606 -20.966  1.00  0.00     0.030 A 
HETATM    6  C23 UNL     1       1.852  53.899 -21.140  1.00  0.00     0.002 A 
HETATM    7  C24 UNL     1       1.548  54.629 -22.295  1.00  0.00     0.001 A 
HETATM    8  C25 UNL     1       0.757  54.066 -23.298  1.00  0.00     0.010 A 
HETATM    9  C26 UNL     1       0.272  52.778 -23.113  1.00  0.00    -0.018 A 
HETATM   10  C27 UNL     1      -0.574  51.934 -24.025  1.00  0.00     0.041 C 
HETATM   11  C28 UNL     1       0.265  51.374 -25.180  1.00  0.00     0.046 C 
HETATM   12  C29 UNL     1      -0.772  50.779 -26.116  1.00  0.00     0.239 C 
HETATM   13  N4  UNL     1      -1.953  51.769 -26.051  1.00  0.00    -0.062 N 
HETATM   14  C30 UNL     1      -1.934  52.661 -27.289  1.00  0.00     0.273 C 
HETATM   15  C31 UNL     1      -3.275  51.012 -26.023  1.00  0.00     0.271 C 
HETATM   16  C32 UNL     1      -3.659  50.473 -24.665  1.00  0.00    -0.051 C 
HETATM   17  C33 UNL     1      -4.236  49.265 -24.513  1.00  0.00     0.004 C 
HETATM   18  C35 UNL     1      -3.472  51.407 -23.480  1.00  0.00     0.027 C 
HETATM   19  C36 UNL     1      -3.025  52.783 -23.991  1.00  0.00     0.044 C 
HETATM   20  C37 UNL     1      -1.722  52.637 -24.766  1.00  0.00     0.206 C 
HETATM   21  C38 UNL     1      -2.420  50.993 -22.430  1.00  0.00     0.052 C 
HETATM   22  C39 UNL     1      -2.718  49.758 -21.540  1.00  0.00     0.160 C 
HETATM   23  C40 UNL     1      -1.026  50.807 -23.052  1.00  0.00     0.112 C 
ENDROOT
BRANCH   1  24
HETATM   24  C18 UNL     1      -1.843  48.899 -19.245  1.00  0.00    -0.016 A 
HETATM   25  C3  UNL     1      -1.412  49.408 -17.925  1.00  0.00    -0.032 A 
HETATM   26  C4  UNL     1      -1.714  48.679 -16.830  1.00  0.00     0.099 A 
HETATM   27  N1  UNL     1      -2.440  47.492 -16.855  1.00  0.00    -0.354 N 
HETATM   28  C5  UNL     1      -2.509  46.620 -15.660  1.00  0.00     0.133 C 
HETATM   29  C16 UNL     1      -2.901  46.989 -18.092  1.00  0.00     0.062 A 
HETATM   30  C6  UNL     1      -3.771  45.746 -15.652  1.00  0.00     0.062 C 
HETATM   31  C7  UNL     1      -4.067  45.147 -16.991  1.00  0.00    -0.012 A 
HETATM   32  C8  UNL     1      -4.738  44.046 -17.343  1.00  0.00     0.033 A 
HETATM   33  C15 UNL     1      -3.630  45.859 -18.173  1.00  0.00     0.067 A 
HETATM   34  C9  UNL     1      -5.436  42.977 -16.688  1.00  0.00     0.081 A 
HETATM   35  C14 UNL     1      -4.715  44.172 -18.817  1.00  0.00     0.046 A 
HETATM   36  C11 UNL     1      -6.072  42.075 -17.465  1.00  0.00     0.038 A 
HETATM   37  C12 UNL     1      -6.059  42.164 -18.919  1.00  0.00     0.005 A 
HETATM   38  C13 UNL     1      -5.421  43.135 -19.590  1.00  0.00     0.030 A 
HETATM   39  N2  UNL     1      -4.086  45.201 -19.296  1.00  0.00    -0.353 N 
ATOM     40  H2  UNL     1      -3.959  45.463 -20.274  1.00  0.00     0.166 HD
HETATM   41  C17 UNL     1      -2.555  47.751 -19.288  1.00  0.00     0.044 A 
BRANCH  25  42
HETATM   42  C2  UNL     1      -0.651  50.705 -17.794  1.00  0.00     0.036 C 
HETATM   43  C1  UNL     1       0.519  50.625 -16.821  1.00  0.00     0.010 C 
ENDBRANCH  25  42
BRANCH  34  44
HETATM   44  O1  UNL     1      -5.384  43.013 -15.315  1.00  0.00    -0.355 OA
HETATM   45  C10 UNL     1      -4.448  42.142 -14.674  1.00  0.00     0.210 C 
ENDBRANCH  34  44
ENDBRANCH   1  24
BRANCH  22  46
HETATM   46  O3  UNL     1      -3.994  49.972 -20.945  1.00  0.00    -0.390 OA
HETATM   47  H42 UNL     1      -3.912  49.838 -19.987  1.00  0.00     0.210 HD
ENDBRANCH  22  46
BRANCH  17  48
HETATM   48  C34 UNL     1      -4.501  48.273 -25.600  1.00  0.00     0.191 C 
BRANCH  48  49
HETATM   49  O2  UNL     1      -5.862  48.453 -25.987  1.00  0.00    -0.397 OA
HETATM   50  H35 UNL     1      -5.994  47.905 -26.787  1.00  0.00     0.209 HD
ENDBRANCH  48  49
ENDBRANCH  17  48
TORSDOF 7
ENDMDL
