MODEL 1
REMARK minimizedAffinity -9.52428341
REMARK  10 active torsions:
REMARK  status: ('A' for Active; 'I' for Inactive)
REMARK    1  A    between atoms: C2_2  and  C3_3 
REMARK    2  A    between atoms: C3_3  and  C5_5 
REMARK    3  A    between atoms: C5_5  and  C6_6 
REMARK    4  A    between atoms: C6_6  and  C8_8 
REMARK    5  A    between atoms: C9_9  and  C11_11 
REMARK    6  A    between atoms: C12_13  and  C13_14 
REMARK    7  A    between atoms: C14_15  and  O2_16 
REMARK    8  A    between atoms: C15_17  and  C16_18 
REMARK    9  A    between atoms: C16_18  and  O3_19 
REMARK   10  A    between atoms: C21_25  and  O5_26 
ROOT
HETATM    1  C13 UNL     1      -3.739  49.639 -26.687  1.00  0.00     0.068 C 
HETATM    2  C14 UNL     1      -3.176  50.593 -27.456  1.00  0.00     0.066 C 
HETATM    3  C15 UNL     1      -2.595  51.884 -26.904  1.00  0.00     0.098 C 
HETATM    4  C22 UNL     1      -3.303  52.181 -25.577  1.00  0.00     0.140 C 
HETATM    5  N1  UNL     1      -3.311  51.029 -24.698  1.00  0.00    -0.352 N 
HETATM    6  C23 UNL     1      -3.456  51.273 -23.274  1.00  0.00     0.152 C 
HETATM    7  C24 UNL     1      -3.689  49.782 -25.192  1.00  0.00     0.254 C 
HETATM    8  O6  UNL     1      -3.921  48.832 -24.452  1.00  0.00    -0.268 OA
ENDROOT
BRANCH   1   9
HETATM    9  C12 UNL     1      -4.402  48.403 -27.255  1.00  0.00     0.163 C 
HETATM   10  O1  UNL     1      -4.791  48.672 -28.609  1.00  0.00    -0.371 OA
HETATM   11  C11 UNL     1      -5.471  47.552 -29.190  1.00  0.00     0.154 C 
HETATM   12  C27 UNL     1      -6.891  47.467 -28.579  1.00  0.00     0.015 C 
HETATM   13  C26 UNL     1      -6.915  47.918 -27.106  1.00  0.00     0.010 C 
HETATM   14  C28 UNL     1      -7.465  46.054 -28.725  1.00  0.00     0.012 C 
HETATM   15  C25 UNL     1      -5.557  47.824 -26.417  1.00  0.00     0.037 C 
BRANCH  11  16
HETATM   16  C9  UNL     1      -5.320  47.684 -30.706  1.00  0.00    -0.058 C 
HETATM   17  C8  UNL     1      -5.239  46.643 -31.563  1.00  0.00    -0.018 C 
HETATM   18  C10 UNL     1      -5.265  49.123 -31.166  1.00  0.00     0.046 C 
BRANCH  17  19
HETATM   19  C6  UNL     1      -5.138  46.681 -33.077  1.00  0.00     0.005 C 
HETATM   20  C7  UNL     1      -3.841  47.394 -33.462  1.00  0.00     0.014 C 
BRANCH  19  21
HETATM   21  C5  UNL     1      -6.412  47.347 -33.644  1.00  0.00     0.012 C 
BRANCH  21  22
HETATM   22  C3  UNL     1      -7.746  46.818 -33.065  1.00  0.00    -0.018 C 
HETATM   23  C4  UNL     1      -8.583  46.081 -34.117  1.00  0.00     0.010 C 
BRANCH  22  24
HETATM   24  C2  UNL     1      -8.572  47.960 -32.427  1.00  0.00    -0.000 C 
HETATM   25  C1  UNL     1      -9.690  47.507 -31.496  1.00  0.00     0.005 C 
ENDBRANCH  22  24
ENDBRANCH  21  22
ENDBRANCH  19  21
ENDBRANCH  17  19
ENDBRANCH  11  16
ENDBRANCH   1   9
BRANCH   2  26
HETATM   26  O2  UNL     1      -3.130  50.458 -28.836  1.00  0.00    -0.364 OA
HETATM   27  H22 UNL     1      -2.903  51.318 -29.240  1.00  0.00     0.217 HD
ENDBRANCH   2  26
BRANCH   3  28
HETATM   28  C16 UNL     1      -1.029  51.862 -26.866  1.00  0.00     0.095 C 
HETATM   29  C17 UNL     1      -0.392  50.614 -26.236  1.00  0.00     0.048 C 
HETATM   30  C18 UNL     1       1.116  50.554 -26.482  1.00  0.00     0.081 C 
HETATM   31  C19 UNL     1       1.760  51.923 -26.525  1.00  0.00     0.129 C 
HETATM   32  O4  UNL     1       2.884  52.074 -27.003  1.00  0.00    -0.298 OA
HETATM   33  C20 UNL     1       1.044  53.061 -25.841  1.00  0.00     0.113 C 
HETATM   34  C21 UNL     1      -0.453  53.120 -26.157  1.00  0.00     0.160 C 
BRANCH  28  35
HETATM   35  O3  UNL     1      -0.577  51.955 -28.245  1.00  0.00    -0.386 OA
HETATM   36  H24 UNL     1      -0.795  51.108 -28.684  1.00  0.00     0.210 HD
ENDBRANCH  28  35
BRANCH  34  37
HETATM   37  O5  UNL     1      -0.723  54.266 -26.973  1.00  0.00    -0.392 OA
HETATM   38  H32 UNL     1      -0.432  54.014 -27.875  1.00  0.00     0.210 HD
ENDBRANCH  34  37
ENDBRANCH   3  28
TORSDOF 10
ENDMDL
MODEL 2
REMARK minimizedAffinity -8.97249603
REMARK  10 active torsions:
REMARK  status: ('A' for Active; 'I' for Inactive)
REMARK    1  A    between atoms: C2_2  and  C3_3 
REMARK    2  A    between atoms: C3_3  and  C5_5 
REMARK    3  A    between atoms: C5_5  and  C6_6 
REMARK    4  A    between atoms: C6_6  and  C8_8 
REMARK    5  A    between atoms: C9_9  and  C11_11 
REMARK    6  A    between atoms: C12_13  and  C13_14 
REMARK    7  A    between atoms: C14_15  and  O2_16 
REMARK    8  A    between atoms: C15_17  and  C16_18 
REMARK    9  A    between atoms: C16_18  and  O3_19 
REMARK   10  A    between atoms: C21_25  and  O5_26 
ROOT
HETATM    1  C13 UNL     1      -1.983  50.622 -20.417  1.00  0.00     0.068 C 
HETATM    2  C14 UNL     1      -1.975  49.450 -21.087  1.00  0.00     0.066 C 
HETATM    3  C15 UNL     1      -2.512  48.150 -20.512  1.00  0.00     0.098 C 
HETATM    4  C22 UNL     1      -2.429  48.247 -18.985  1.00  0.00     0.140 C 
HETATM    5  N1  UNL     1      -3.008  49.480 -18.489  1.00  0.00    -0.352 N 
HETATM    6  C23 UNL     1      -3.472  49.496 -17.113  1.00  0.00     0.152 C 
HETATM    7  C24 UNL     1      -2.667  50.694 -19.082  1.00  0.00     0.254 C 
HETATM    8  O6  UNL     1      -2.953  51.771 -18.569  1.00  0.00    -0.268 OA
ENDROOT
BRANCH   1   9
HETATM    9  C12 UNL     1      -1.357  51.889 -20.959  1.00  0.00     0.163 C 
HETATM   10  O1  UNL     1      -0.756  51.597 -22.228  1.00  0.00    -0.371 OA
HETATM   11  C11 UNL     1      -0.100  52.749 -22.773  1.00  0.00     0.154 C 
HETATM   12  C27 UNL     1       1.204  52.997 -21.977  1.00  0.00     0.015 C 
HETATM   13  C26 UNL     1       1.056  52.618 -20.490  1.00  0.00     0.010 C 
HETATM   14  C28 UNL     1       1.666  54.451 -22.124  1.00  0.00     0.012 C 
HETATM   15  C25 UNL     1      -0.391  52.613 -20.004  1.00  0.00     0.037 C 
BRANCH  11  16
HETATM   16  C9  UNL     1      -0.020  52.534 -24.286  1.00  0.00    -0.058 C 
HETATM   17  C8  UNL     1      -0.017  51.326 -24.890  1.00  0.00    -0.018 C 
HETATM   18  C10 UNL     1       0.061  53.832 -25.056  1.00  0.00     0.046 C 
BRANCH  17  19
HETATM   19  C6  UNL     1       0.010  51.024 -26.377  1.00  0.00     0.005 C 
HETATM   20  C7  UNL     1       1.351  51.488 -26.946  1.00  0.00     0.014 C 
BRANCH  19  21
HETATM   21  C5  UNL     1      -1.217  51.687 -27.042  1.00  0.00     0.012 C 
BRANCH  21  22
HETATM   22  C3  UNL     1      -2.574  51.003 -26.753  1.00  0.00    -0.018 C 
HETATM   23  C4  UNL     1      -3.419  51.792 -25.747  1.00  0.00     0.010 C 
BRANCH  22  24
HETATM   24  C2  UNL     1      -2.376  49.549 -26.262  1.00  0.00    -0.000 C 
HETATM   25  C1  UNL     1      -3.270  48.512 -26.931  1.00  0.00     0.005 C 
ENDBRANCH  22  24
ENDBRANCH  21  22
ENDBRANCH  19  21
ENDBRANCH  17  19
ENDBRANCH  11  16
ENDBRANCH   1   9
BRANCH   2  26
HETATM   26  O2  UNL     1      -1.425  49.363 -22.357  1.00  0.00    -0.364 OA
HETATM   27  H22 UNL     1      -1.299  48.422 -22.592  1.00  0.00     0.217 HD
ENDBRANCH   2  26
BRANCH   3  28
HETATM   28  C16 UNL     1      -3.910  47.771 -21.109  1.00  0.00     0.095 C 
HETATM   29  C17 UNL     1      -4.227  46.269 -21.171  1.00  0.00     0.048 C 
HETATM   30  C18 UNL     1      -5.695  46.007 -21.509  1.00  0.00     0.081 C 
HETATM   31  C19 UNL     1      -6.282  47.051 -22.434  1.00  0.00     0.129 C 
HETATM   32  O4  UNL     1      -7.501  47.163 -22.562  1.00  0.00    -0.298 OA
HETATM   33  C20 UNL     1      -5.331  47.848 -23.292  1.00  0.00     0.113 C 
HETATM   34  C21 UNL     1      -4.114  48.376 -22.526  1.00  0.00     0.160 C 
BRANCH  28  35
HETATM   35  O3  UNL     1      -4.910  48.411 -20.269  1.00  0.00    -0.386 OA
HETATM   36  H24 UNL     1      -4.910  47.948 -19.406  1.00  0.00     0.210 HD
ENDBRANCH  28  35
BRANCH  34  37
HETATM   37  O5  UNL     1      -4.210  49.801 -22.404  1.00  0.00    -0.392 OA
HETATM   38  H32 UNL     1      -4.862  49.954 -21.688  1.00  0.00     0.210 HD
ENDBRANCH  34  37
ENDBRANCH   3  28
TORSDOF 10
ENDMDL
MODEL 3
REMARK minimizedAffinity -8.95351791
REMARK  10 active torsions:
REMARK  status: ('A' for Active; 'I' for Inactive)
REMARK    1  A    between atoms: C2_2  and  C3_3 
REMARK    2  A    between atoms: C3_3  and  C5_5 
REMARK    3  A    between atoms: C5_5  and  C6_6 
REMARK    4  A    between atoms: C6_6  and  C8_8 
REMARK    5  A    between atoms: C9_9  and  C11_11 
REMARK    6  A    between atoms: C12_13  and  C13_14 
REMARK    7  A    between atoms: C14_15  and  O2_16 
REMARK    8  A    between atoms: C15_17  and  C16_18 
REMARK    9  A    between atoms: C16_18  and  O3_19 
REMARK   10  A    between atoms: C21_25  and  O5_26 
ROOT
HETATM    1  C13 UNL     1      -4.327  49.251 -21.551  1.00  0.00     0.068 C 
HETATM    2  C14 UNL     1      -3.630  48.728 -22.581  1.00  0.00     0.066 C 
HETATM    3  C15 UNL     1      -4.225  48.470 -23.954  1.00  0.00     0.098 C 
HETATM    4  C22 UNL     1      -5.736  48.278 -23.777  1.00  0.00     0.140 C 
HETATM    5  N1  UNL     1      -6.327  49.341 -22.988  1.00  0.00    -0.352 N 
HETATM    6  C23 UNL     1      -7.746  49.594 -23.161  1.00  0.00     0.152 C 
HETATM    7  C24 UNL     1      -5.733  49.726 -21.788  1.00  0.00     0.254 C 
HETATM    8  O6  UNL     1      -6.304  50.456 -20.985  1.00  0.00    -0.268 OA
ENDROOT
BRANCH   1   9
HETATM    9  C12 UNL     1      -3.753  49.413 -20.160  1.00  0.00     0.163 C 
HETATM   10  O1  UNL     1      -2.399  49.873 -20.273  1.00  0.00    -0.371 OA
HETATM   11  C11 UNL     1      -1.781  49.999 -18.987  1.00  0.00     0.154 C 
HETATM   12  C27 UNL     1      -1.474  48.581 -18.446  1.00  0.00     0.015 C 
HETATM   13  C26 UNL     1      -2.539  47.554 -18.878  1.00  0.00     0.010 C 
HETATM   14  C28 UNL     1      -1.323  48.599 -16.921  1.00  0.00     0.012 C 
HETATM   15  C25 UNL     1      -3.881  48.183 -19.242  1.00  0.00     0.037 C 
BRANCH  11  16
HETATM   16  C9  UNL     1      -0.634  50.999 -19.147  1.00  0.00    -0.058 C 
HETATM   17  C8  UNL     1      -0.272  51.570 -20.316  1.00  0.00    -0.018 C 
HETATM   18  C10 UNL     1       0.073  51.291 -17.843  1.00  0.00     0.046 C 
BRANCH  17  19
HETATM   19  C6  UNL     1       0.813  52.604 -20.555  1.00  0.00     0.005 C 
HETATM   20  C7  UNL     1       0.306  53.965 -20.076  1.00  0.00     0.014 C 
BRANCH  19  21
HETATM   21  C5  UNL     1       1.211  52.573 -22.048  1.00  0.00     0.012 C 
BRANCH  21  22
HETATM   22  C3  UNL     1       0.031  52.632 -23.046  1.00  0.00    -0.018 C 
HETATM   23  C4  UNL     1      -0.575  51.249 -23.311  1.00  0.00     0.010 C 
BRANCH  22  24
HETATM   24  C2  UNL     1       0.457  53.293 -24.379  1.00  0.00    -0.000 C 
HETATM   25  C1  UNL     1       0.929  52.327 -25.459  1.00  0.00     0.005 C 
ENDBRANCH  22  24
ENDBRANCH  21  22
ENDBRANCH  19  21
ENDBRANCH  17  19
ENDBRANCH  11  16
ENDBRANCH   1   9
BRANCH   2  26
HETATM   26  O2  UNL     1      -2.304  48.353 -22.422  1.00  0.00    -0.364 OA
HETATM   27  H22 UNL     1      -2.031  47.798 -23.179  1.00  0.00     0.217 HD
ENDBRANCH   2  26
BRANCH   3  28
HETATM   28  C16 UNL     1      -3.780  49.542 -25.005  1.00  0.00     0.095 C 
HETATM   29  C17 UNL     1      -2.354  49.388 -25.557  1.00  0.00     0.048 C 
HETATM   30  C18 UNL     1      -2.102  50.302 -26.757  1.00  0.00     0.081 C 
HETATM   31  C19 UNL     1      -2.856  51.611 -26.668  1.00  0.00     0.129 C 
HETATM   32  O4  UNL     1      -3.006  52.318 -27.665  1.00  0.00    -0.298 OA
HETATM   33  C20 UNL     1      -3.290  52.084 -25.304  1.00  0.00     0.113 C 
HETATM   34  C21 UNL     1      -3.941  50.988 -24.456  1.00  0.00     0.160 C 
BRANCH  28  35
HETATM   35  O3  UNL     1      -4.710  49.448 -26.119  1.00  0.00    -0.386 OA
HETATM   36  H24 UNL     1      -4.530  48.604 -26.581  1.00  0.00     0.210 HD
ENDBRANCH  28  35
BRANCH  34  37
HETATM   37  O5  UNL     1      -5.339  51.266 -24.309  1.00  0.00    -0.392 OA
HETATM   38  H32 UNL     1      -5.745  50.999 -25.160  1.00  0.00     0.210 HD
ENDBRANCH  34  37
ENDBRANCH   3  28
TORSDOF 10
ENDMDL
MODEL 4
REMARK minimizedAffinity -8.94667625
REMARK  10 active torsions:
REMARK  status: ('A' for Active; 'I' for Inactive)
REMARK    1  A    between atoms: C2_2  and  C3_3 
REMARK    2  A    between atoms: C3_3  and  C5_5 
REMARK    3  A    between atoms: C5_5  and  C6_6 
REMARK    4  A    between atoms: C6_6  and  C8_8 
REMARK    5  A    between atoms: C9_9  and  C11_11 
REMARK    6  A    between atoms: C12_13  and  C13_14 
REMARK    7  A    between atoms: C14_15  and  O2_16 
REMARK    8  A    between atoms: C15_17  and  C16_18 
REMARK    9  A    between atoms: C16_18  and  O3_19 
REMARK   10  A    between atoms: C21_25  and  O5_26 
ROOT
HETATM    1  C13 UNL     1      -3.266  49.557 -24.376  1.00  0.00     0.068 C 
HETATM    2  C14 UNL     1      -3.157  50.678 -25.119  1.00  0.00     0.066 C 
HETATM    3  C15 UNL     1      -2.222  51.825 -24.778  1.00  0.00     0.098 C 
HETATM    4  C22 UNL     1      -1.977  51.791 -23.265  1.00  0.00     0.140 C 
HETATM    5  N1  UNL     1      -1.599  50.469 -22.807  1.00  0.00    -0.352 N 
HETATM    6  C23 UNL     1      -0.852  50.378 -21.565  1.00  0.00     0.152 C 
HETATM    7  C24 UNL     1      -2.333  49.357 -23.215  1.00  0.00     0.254 C 
HETATM    8  O6  UNL     1      -2.192  48.257 -22.691  1.00  0.00    -0.268 OA
ENDROOT
BRANCH   1   9
HETATM    9  C12 UNL     1      -4.271  48.464 -24.669  1.00  0.00     0.163 C 
HETATM   10  O1  UNL     1      -4.853  48.709 -25.957  1.00  0.00    -0.371 OA
HETATM   11  C11 UNL     1      -5.852  47.733 -26.273  1.00  0.00     0.154 C 
HETATM   12  C27 UNL     1      -7.111  48.020 -25.419  1.00  0.00     0.015 C 
HETATM   13  C26 UNL     1      -6.750  48.577 -24.027  1.00  0.00     0.010 C 
HETATM   14  C28 UNL     1      -7.984  46.767 -25.293  1.00  0.00     0.012 C 
HETATM   15  C25 UNL     1      -5.333  48.229 -23.580  1.00  0.00     0.037 C 
BRANCH  11  16
HETATM   16  C9  UNL     1      -5.977  47.710 -27.798  1.00  0.00    -0.058 C 
HETATM   17  C8  UNL     1      -6.989  47.126 -28.476  1.00  0.00    -0.018 C 
HETATM   18  C10 UNL     1      -4.833  48.415 -28.489  1.00  0.00     0.046 C 
BRANCH  17  19
HETATM   19  C6  UNL     1      -7.218  47.099 -29.976  1.00  0.00     0.005 C 
HETATM   20  C7  UNL     1      -8.686  46.764 -30.240  1.00  0.00     0.014 C 
BRANCH  19  21
HETATM   21  C5  UNL     1      -6.222  46.104 -30.614  1.00  0.00     0.012 C 
BRANCH  21  22
HETATM   22  C3  UNL     1      -5.284  46.707 -31.686  1.00  0.00    -0.018 C 
HETATM   23  C4  UNL     1      -6.050  47.188 -32.923  1.00  0.00     0.010 C 
BRANCH  22  24
HETATM   24  C2  UNL     1      -4.182  45.701 -32.096  1.00  0.00    -0.000 C 
HETATM   25  C1  UNL     1      -4.684  44.317 -32.489  1.00  0.00     0.005 C 
ENDBRANCH  22  24
ENDBRANCH  21  22
ENDBRANCH  19  21
ENDBRANCH  17  19
ENDBRANCH  11  16
ENDBRANCH   1   9
BRANCH   2  26
HETATM   26  O2  UNL     1      -3.945  50.861 -26.246  1.00  0.00    -0.364 OA
HETATM   27  H22 UNL     1      -3.902  51.798 -26.523  1.00  0.00     0.217 HD
ENDBRANCH   2  26
BRANCH   3  28
HETATM   28  C16 UNL     1      -0.946  51.841 -25.687  1.00  0.00     0.095 C 
HETATM   29  C17 UNL     1       0.391  52.058 -24.962  1.00  0.00     0.048 C 
HETATM   30  C18 UNL     1       1.589  51.793 -25.875  1.00  0.00     0.081 C 
HETATM   31  C19 UNL     1       1.320  52.159 -27.319  1.00  0.00     0.129 C 
HETATM   32  O4  UNL     1       2.047  51.739 -28.219  1.00  0.00    -0.298 OA
HETATM   33  C20 UNL     1       0.229  53.162 -27.601  1.00  0.00     0.113 C 
HETATM   34  C21 UNL     1      -1.064  52.891 -26.827  1.00  0.00     0.160 C 
BRANCH  28  35
HETATM   35  O3  UNL     1      -0.894  50.550 -26.356  1.00  0.00    -0.386 OA
HETATM   36  H24 UNL     1      -0.670  49.878 -25.680  1.00  0.00     0.210 HD
ENDBRANCH  28  35
BRANCH  34  37
HETATM   37  O5  UNL     1      -2.084  52.461 -27.737  1.00  0.00    -0.392 OA
HETATM   38  H32 UNL     1      -1.876  51.523 -27.932  1.00  0.00     0.210 HD
ENDBRANCH  34  37
ENDBRANCH   3  28
TORSDOF 10
ENDMDL
MODEL 5
REMARK minimizedAffinity -8.89586067
REMARK  10 active torsions:
REMARK  status: ('A' for Active; 'I' for Inactive)
REMARK    1  A    between atoms: C2_2  and  C3_3 
REMARK    2  A    between atoms: C3_3  and  C5_5 
REMARK    3  A    between atoms: C5_5  and  C6_6 
REMARK    4  A    between atoms: C6_6  and  C8_8 
REMARK    5  A    between atoms: C9_9  and  C11_11 
REMARK    6  A    between atoms: C12_13  and  C13_14 
REMARK    7  A    between atoms: C14_15  and  O2_16 
REMARK    8  A    between atoms: C15_17  and  C16_18 
REMARK    9  A    between atoms: C16_18  and  O3_19 
REMARK   10  A    between atoms: C21_25  and  O5_26 
ROOT
HETATM    1  C13 UNL     1      -3.050  50.016 -23.820  1.00  0.00     0.068 C 
HETATM    2  C14 UNL     1      -2.992  51.050 -24.685  1.00  0.00     0.066 C 
HETATM    3  C15 UNL     1      -1.952  52.155 -24.607  1.00  0.00     0.098 C 
HETATM    4  C22 UNL     1      -1.484  52.249 -23.151  1.00  0.00     0.140 C 
HETATM    5  N1  UNL     1      -1.115  50.953 -22.616  1.00  0.00    -0.352 N 
HETATM    6  C23 UNL     1      -0.195  50.929 -21.492  1.00  0.00     0.152 C 
HETATM    7  C24 UNL     1      -1.964  49.863 -22.793  1.00  0.00     0.254 C 
HETATM    8  O6  UNL     1      -1.808  48.811 -22.181  1.00  0.00    -0.268 OA
ENDROOT
BRANCH   1   9
HETATM    9  C12 UNL     1      -4.148  48.975 -23.847  1.00  0.00     0.163 C 
HETATM   10  O1  UNL     1      -4.777  49.005 -25.135  1.00  0.00    -0.371 OA
HETATM   11  C11 UNL     1      -5.863  48.073 -25.208  1.00  0.00     0.154 C 
HETATM   12  C27 UNL     1      -7.049  48.630 -24.385  1.00  0.00     0.015 C 
HETATM   13  C26 UNL     1      -6.574  49.421 -23.150  1.00  0.00     0.010 C 
HETATM   14  C28 UNL     1      -8.005  47.505 -23.974  1.00  0.00     0.012 C 
HETATM   15  C25 UNL     1      -5.166  49.053 -22.694  1.00  0.00     0.037 C 
BRANCH  11  16
HETATM   16  C9  UNL     1      -6.070  47.755 -26.691  1.00  0.00    -0.058 C 
HETATM   17  C8  UNL     1      -7.182  47.187 -27.205  1.00  0.00    -0.018 C 
HETATM   18  C10 UNL     1      -4.884  48.143 -27.543  1.00  0.00     0.046 C 
BRANCH  17  19
HETATM   19  C6  UNL     1      -7.491  46.885 -28.660  1.00  0.00     0.005 C 
HETATM   20  C7  UNL     1      -6.981  45.480 -28.986  1.00  0.00     0.014 C 
BRANCH  19  21
HETATM   21  C5  UNL     1      -6.877  47.995 -29.542  1.00  0.00     0.012 C 
BRANCH  21  22
HETATM   22  C3  UNL     1      -6.836  47.687 -31.057  1.00  0.00    -0.018 C 
HETATM   23  C4  UNL     1      -5.478  48.029 -31.682  1.00  0.00     0.010 C 
BRANCH  22  24
HETATM   24  C2  UNL     1      -7.971  48.421 -31.809  1.00  0.00    -0.000 C 
HETATM   25  C1  UNL     1      -8.667  49.521 -31.016  1.00  0.00     0.005 C 
ENDBRANCH  22  24
ENDBRANCH  21  22
ENDBRANCH  19  21
ENDBRANCH  17  19
ENDBRANCH  11  16
ENDBRANCH   1   9
BRANCH   2  26
HETATM   26  O2  UNL     1      -3.931  51.180 -25.698  1.00  0.00    -0.364 OA
HETATM   27  H22 UNL     1      -3.877  52.080 -26.076  1.00  0.00     0.217 HD
ENDBRANCH   2  26
BRANCH   3  28
HETATM   28  C16 UNL     1      -0.831  51.991 -25.688  1.00  0.00     0.095 C 
HETATM   29  C17 UNL     1       0.611  52.182 -25.192  1.00  0.00     0.048 C 
HETATM   30  C18 UNL     1       1.639  51.745 -26.237  1.00  0.00     0.081 C 
HETATM   31  C19 UNL     1       1.175  51.989 -27.656  1.00  0.00     0.129 C 
HETATM   32  O4  UNL     1       1.732  51.432 -28.603  1.00  0.00    -0.298 OA
HETATM   33  C20 UNL     1       0.112  53.034 -27.882  1.00  0.00     0.113 C 
HETATM   34  C21 UNL     1      -1.062  52.932 -26.904  1.00  0.00     0.160 C 
BRANCH  28  35
HETATM   35  O3  UNL     1      -0.953  50.642 -26.217  1.00  0.00    -0.386 OA
HETATM   36  H24 UNL     1      -0.668  50.023 -25.513  1.00  0.00     0.210 HD
ENDBRANCH  28  35
BRANCH  34  37
HETATM   37  O5  UNL     1      -2.230  52.491 -27.606  1.00  0.00    -0.392 OA
HETATM   38  H32 UNL     1      -2.108  51.525 -27.728  1.00  0.00     0.210 HD
ENDBRANCH  34  37
ENDBRANCH   3  28
TORSDOF 10
ENDMDL
MODEL 6
REMARK minimizedAffinity -8.77658939
REMARK  10 active torsions:
REMARK  status: ('A' for Active; 'I' for Inactive)
REMARK    1  A    between atoms: C2_2  and  C3_3 
REMARK    2  A    between atoms: C3_3  and  C5_5 
REMARK    3  A    between atoms: C5_5  and  C6_6 
REMARK    4  A    between atoms: C6_6  and  C8_8 
REMARK    5  A    between atoms: C9_9  and  C11_11 
REMARK    6  A    between atoms: C12_13  and  C13_14 
REMARK    7  A    between atoms: C14_15  and  O2_16 
REMARK    8  A    between atoms: C15_17  and  C16_18 
REMARK    9  A    between atoms: C16_18  and  O3_19 
REMARK   10  A    between atoms: C21_25  and  O5_26 
ROOT
HETATM    1  C13 UNL     1      -2.628  49.809 -23.586  1.00  0.00     0.068 C 
HETATM    2  C14 UNL     1      -2.741  50.705 -24.588  1.00  0.00     0.066 C 
HETATM    3  C15 UNL     1      -1.940  51.994 -24.657  1.00  0.00     0.098 C 
HETATM    4  C22 UNL     1      -1.552  52.377 -23.225  1.00  0.00     0.140 C 
HETATM    5  N1  UNL     1      -0.958  51.265 -22.509  1.00  0.00    -0.352 N 
HETATM    6  C23 UNL     1      -0.093  51.578 -21.385  1.00  0.00     0.152 C 
HETATM    7  C24 UNL     1      -1.572  50.015 -22.538  1.00  0.00     0.254 C 
HETATM    8  O6  UNL     1      -1.236  49.109 -21.782  1.00  0.00    -0.268 OA
ENDROOT
BRANCH   1   9
HETATM    9  C12 UNL     1      -3.500  48.577 -23.476  1.00  0.00     0.163 C 
HETATM   10  O1  UNL     1      -4.845  48.933 -23.825  1.00  0.00    -0.371 OA
HETATM   11  C11 UNL     1      -5.733  47.817 -23.691  1.00  0.00     0.154 C 
HETATM   12  C27 UNL     1      -5.973  47.554 -22.185  1.00  0.00     0.015 C 
HETATM   13  C26 UNL     1      -4.723  47.865 -21.337  1.00  0.00     0.010 C 
HETATM   14  C28 UNL     1      -6.445  46.116 -21.949  1.00  0.00     0.012 C 
HETATM   15  C25 UNL     1      -3.422  47.826 -22.133  1.00  0.00     0.037 C 
BRANCH  11  16
HETATM   16  C9  UNL     1      -6.933  48.100 -24.598  1.00  0.00    -0.058 C 
HETATM   17  C8  UNL     1      -7.127  47.538 -25.811  1.00  0.00    -0.018 C 
HETATM   18  C10 UNL     1      -7.900  49.092 -23.995  1.00  0.00     0.046 C 
BRANCH  17  19
HETATM   19  C6  UNL     1      -8.306  47.721 -26.749  1.00  0.00     0.005 C 
HETATM   20  C7  UNL     1      -9.260  46.539 -26.571  1.00  0.00     0.014 C 
BRANCH  19  21
HETATM   21  C5  UNL     1      -7.775  47.888 -28.190  1.00  0.00     0.012 C 
BRANCH  21  22
HETATM   22  C3  UNL     1      -6.511  47.063 -28.527  1.00  0.00    -0.018 C 
HETATM   23  C4  UNL     1      -5.345  47.948 -28.982  1.00  0.00     0.010 C 
BRANCH  22  24
HETATM   24  C2  UNL     1      -6.812  45.985 -29.594  1.00  0.00    -0.000 C 
HETATM   25  C1  UNL     1      -7.231  44.627 -29.042  1.00  0.00     0.005 C 
ENDBRANCH  22  24
ENDBRANCH  21  22
ENDBRANCH  19  21
ENDBRANCH  17  19
ENDBRANCH  11  16
ENDBRANCH   1   9
BRANCH   2  26
HETATM   26  O2  UNL     1      -3.649  50.507 -25.618  1.00  0.00    -0.364 OA
HETATM   27  H22 UNL     1      -3.758  51.340 -26.119  1.00  0.00     0.217 HD
ENDBRANCH   2  26
BRANCH   3  28
HETATM   28  C16 UNL     1      -0.769  51.909 -25.695  1.00  0.00     0.095 C 
HETATM   29  C17 UNL     1       0.631  52.239 -25.154  1.00  0.00     0.048 C 
HETATM   30  C18 UNL     1       1.731  51.875 -26.151  1.00  0.00     0.081 C 
HETATM   31  C19 UNL     1       1.301  52.046 -27.591  1.00  0.00     0.129 C 
HETATM   32  O4  UNL     1       1.939  51.523 -28.504  1.00  0.00    -0.298 OA
HETATM   33  C20 UNL     1       0.158  52.987 -27.879  1.00  0.00     0.113 C 
HETATM   34  C21 UNL     1      -1.038  52.800 -26.940  1.00  0.00     0.160 C 
BRANCH  28  35
HETATM   35  O3  UNL     1      -0.751  50.544 -26.195  1.00  0.00    -0.386 OA
HETATM   36  H24 UNL     1      -0.438  49.968 -25.467  1.00  0.00     0.210 HD
ENDBRANCH  28  35
BRANCH  34  37
HETATM   37  O5  UNL     1      -2.136  52.241 -27.671  1.00  0.00    -0.392 OA
HETATM   38  H32 UNL     1      -1.923  51.289 -27.766  1.00  0.00     0.210 HD
ENDBRANCH  34  37
ENDBRANCH   3  28
TORSDOF 10
ENDMDL
MODEL 7
REMARK minimizedAffinity -8.5938282
REMARK  10 active torsions:
REMARK  status: ('A' for Active; 'I' for Inactive)
REMARK    1  A    between atoms: C2_2  and  C3_3 
REMARK    2  A    between atoms: C3_3  and  C5_5 
REMARK    3  A    between atoms: C5_5  and  C6_6 
REMARK    4  A    between atoms: C6_6  and  C8_8 
REMARK    5  A    between atoms: C9_9  and  C11_11 
REMARK    6  A    between atoms: C12_13  and  C13_14 
REMARK    7  A    between atoms: C14_15  and  O2_16 
REMARK    8  A    between atoms: C15_17  and  C16_18 
REMARK    9  A    between atoms: C16_18  and  O3_19 
REMARK   10  A    between atoms: C21_25  and  O5_26 
ROOT
HETATM    1  C13 UNL     1      -2.695  50.473 -21.288  1.00  0.00     0.068 C 
HETATM    2  C14 UNL     1      -3.572  50.974 -22.183  1.00  0.00     0.066 C 
HETATM    3  C15 UNL     1      -3.162  51.806 -23.386  1.00  0.00     0.098 C 
HETATM    4  C22 UNL     1      -1.824  52.475 -23.054  1.00  0.00     0.140 C 
HETATM    5  N1  UNL     1      -0.855  51.523 -22.545  1.00  0.00    -0.352 N 
HETATM    6  C23 UNL     1       0.551  51.863 -22.678  1.00  0.00     0.152 C 
HETATM    7  C24 UNL     1      -1.223  50.628 -21.544  1.00  0.00     0.254 C 
HETATM    8  O6  UNL     1      -0.395  49.961 -20.932  1.00  0.00    -0.268 OA
ENDROOT
BRANCH   1   9
HETATM    9  C12 UNL     1      -3.120  49.729 -20.041  1.00  0.00     0.163 C 
HETATM   10  O1  UNL     1      -2.058  49.801 -19.079  1.00  0.00    -0.371 OA
HETATM   11  C11 UNL     1      -2.380  49.070 -17.889  1.00  0.00     0.154 C 
HETATM   12  C27 UNL     1      -2.278  47.557 -18.197  1.00  0.00     0.015 C 
HETATM   13  C26 UNL     1      -2.704  47.230 -19.642  1.00  0.00     0.010 C 
HETATM   14  C28 UNL     1      -3.095  46.738 -17.192  1.00  0.00     0.012 C 
HETATM   15  C25 UNL     1      -3.613  48.287 -20.263  1.00  0.00     0.037 C 
BRANCH  11  16
HETATM   16  C9  UNL     1      -1.525  49.661 -16.766  1.00  0.00    -0.058 C 
HETATM   17  C8  UNL     1      -0.201  49.442 -16.615  1.00  0.00    -0.018 C 
HETATM   18  C10 UNL     1      -2.322  50.528 -15.819  1.00  0.00     0.046 C 
BRANCH  17  19
HETATM   19  C6  UNL     1       0.730  50.024 -15.566  1.00  0.00     0.005 C 
HETATM   20  C7  UNL     1       0.526  49.262 -14.256  1.00  0.00     0.014 C 
BRANCH  19  21
HETATM   21  C5  UNL     1       0.469  51.543 -15.456  1.00  0.00     0.012 C 
BRANCH  21  22
HETATM   22  C3  UNL     1       1.617  52.447 -15.964  1.00  0.00    -0.018 C 
HETATM   23  C4  UNL     1       1.677  52.503 -17.494  1.00  0.00     0.010 C 
BRANCH  22  24
HETATM   24  C2  UNL     1       2.981  51.997 -15.391  1.00  0.00    -0.000 C 
HETATM   25  C1  UNL     1       4.197  52.420 -16.206  1.00  0.00     0.005 C 
ENDBRANCH  22  24
ENDBRANCH  21  22
ENDBRANCH  19  21
ENDBRANCH  17  19
ENDBRANCH  11  16
ENDBRANCH   1   9
BRANCH   2  26
HETATM   26  O2  UNL     1      -4.936  50.781 -22.024  1.00  0.00    -0.364 OA
HETATM   27  H22 UNL     1      -5.421  51.387 -22.617  1.00  0.00     0.217 HD
ENDBRANCH   2  26
BRANCH   3  28
HETATM   28  C16 UNL     1      -3.217  50.987 -24.720  1.00  0.00     0.095 C 
HETATM   29  C17 UNL     1      -2.782  49.517 -24.623  1.00  0.00     0.048 C 
HETATM   30  C18 UNL     1      -3.120  48.734 -25.892  1.00  0.00     0.081 C 
HETATM   31  C19 UNL     1      -3.032  49.578 -27.145  1.00  0.00     0.129 C 
HETATM   32  O4  UNL     1      -3.553  49.200 -28.194  1.00  0.00    -0.298 OA
HETATM   33  C20 UNL     1      -2.174  50.817 -27.102  1.00  0.00     0.113 C 
HETATM   34  C21 UNL     1      -2.395  51.670 -25.849  1.00  0.00     0.160 C 
BRANCH  28  35
HETATM   35  O3  UNL     1      -4.598  51.022 -25.175  1.00  0.00    -0.386 OA
HETATM   36  H24 UNL     1      -5.124  50.470 -24.560  1.00  0.00     0.210 HD
ENDBRANCH  28  35
BRANCH  34  37
HETATM   37  O5  UNL     1      -3.048  52.892 -26.213  1.00  0.00    -0.392 OA
HETATM   38  H32 UNL     1      -3.989  52.651 -26.346  1.00  0.00     0.210 HD
ENDBRANCH  34  37
ENDBRANCH   3  28
TORSDOF 10
ENDMDL
MODEL 8
REMARK minimizedAffinity -8.55441952
REMARK  10 active torsions:
REMARK  status: ('A' for Active; 'I' for Inactive)
REMARK    1  A    between atoms: C2_2  and  C3_3 
REMARK    2  A    between atoms: C3_3  and  C5_5 
REMARK    3  A    between atoms: C5_5  and  C6_6 
REMARK    4  A    between atoms: C6_6  and  C8_8 
REMARK    5  A    between atoms: C9_9  and  C11_11 
REMARK    6  A    between atoms: C12_13  and  C13_14 
REMARK    7  A    between atoms: C14_15  and  O2_16 
REMARK    8  A    between atoms: C15_17  and  C16_18 
REMARK    9  A    between atoms: C16_18  and  O3_19 
REMARK   10  A    between atoms: C21_25  and  O5_26 
ROOT
HETATM    1  C13 UNL     1      -3.460  49.894 -23.402  1.00  0.00     0.068 C 
HETATM    2  C14 UNL     1      -3.369  51.068 -24.061  1.00  0.00     0.066 C 
HETATM    3  C15 UNL     1      -2.233  52.056 -23.864  1.00  0.00     0.098 C 
HETATM    4  C22 UNL     1      -1.661  51.833 -22.460  1.00  0.00     0.140 C 
HETATM    5  N1  UNL     1      -1.373  50.434 -22.209  1.00  0.00    -0.352 N 
HETATM    6  C23 UNL     1      -0.386  50.125 -21.190  1.00  0.00     0.152 C 
HETATM    7  C24 UNL     1      -2.326  49.464 -22.516  1.00  0.00     0.254 C 
HETATM    8  O6  UNL     1      -2.223  48.306 -22.126  1.00  0.00    -0.268 OA
ENDROOT
BRANCH   1   9
HETATM    9  C12 UNL     1      -4.645  48.961 -23.533  1.00  0.00     0.163 C 
HETATM   10  O1  UNL     1      -5.070  48.948 -24.903  1.00  0.00    -0.371 OA
HETATM   11  C11 UNL     1      -6.224  48.119 -25.083  1.00  0.00     0.154 C 
HETATM   12  C27 UNL     1      -7.454  48.849 -24.493  1.00  0.00     0.015 C 
HETATM   13  C26 UNL     1      -7.088  49.690 -23.254  1.00  0.00     0.010 C 
HETATM   14  C28 UNL     1      -8.574  47.857 -24.165  1.00  0.00     0.012 C 
HETATM   15  C25 UNL     1      -5.809  49.228 -22.560  1.00  0.00     0.037 C 
BRANCH  11  16
HETATM   16  C9  UNL     1      -6.241  47.704 -26.556  1.00  0.00    -0.058 C 
HETATM   17  C8  UNL     1      -7.265  47.064 -27.161  1.00  0.00    -0.018 C 
HETATM   18  C10 UNL     1      -4.973  48.085 -27.285  1.00  0.00     0.046 C 
BRANCH  17  19
HETATM   19  C6  UNL     1      -7.386  46.662 -28.620  1.00  0.00     0.005 C 
HETATM   20  C7  UNL     1      -7.316  45.137 -28.714  1.00  0.00     0.014 C 
BRANCH  19  21
HETATM   21  C5  UNL     1      -6.292  47.392 -29.431  1.00  0.00     0.012 C 
BRANCH  21  22
HETATM   22  C3  UNL     1      -6.574  47.527 -30.945  1.00  0.00    -0.018 C 
HETATM   23  C4  UNL     1      -5.343  48.005 -31.724  1.00  0.00     0.010 C 
BRANCH  22  24
HETATM   24  C2  UNL     1      -7.773  48.467 -31.211  1.00  0.00    -0.000 C 
HETATM   25  C1  UNL     1      -8.873  47.881 -32.089  1.00  0.00     0.005 C 
ENDBRANCH  22  24
ENDBRANCH  21  22
ENDBRANCH  19  21
ENDBRANCH  17  19
ENDBRANCH  11  16
ENDBRANCH   1   9
BRANCH   2  26
HETATM   26  O2  UNL     1      -4.358  51.461 -24.950  1.00  0.00    -0.364 OA
HETATM   27  H22 UNL     1      -4.251  52.410 -25.157  1.00  0.00     0.217 HD
ENDBRANCH   2  26
BRANCH   3  28
HETATM   28  C16 UNL     1      -1.205  52.022 -25.046  1.00  0.00     0.095 C 
HETATM   29  C17 UNL     1      -1.056  50.673 -25.766  1.00  0.00     0.048 C 
HETATM   30  C18 UNL     1      -0.247  50.798 -27.057  1.00  0.00     0.081 C 
HETATM   31  C19 UNL     1       0.832  51.856 -26.975  1.00  0.00     0.129 C 
HETATM   32  O4  UNL     1       1.364  52.291 -27.996  1.00  0.00    -0.298 OA
HETATM   33  C20 UNL     1       1.329  52.252 -25.607  1.00  0.00     0.113 C 
HETATM   34  C21 UNL     1       0.205  52.498 -24.596  1.00  0.00     0.160 C 
BRANCH  28  35
HETATM   35  O3  UNL     1      -1.653  53.007 -26.017  1.00  0.00    -0.386 OA
HETATM   36  H24 UNL     1      -2.471  52.662 -26.431  1.00  0.00     0.210 HD
ENDBRANCH  28  35
BRANCH  34  37
HETATM   37  O5  UNL     1       0.137  53.896 -24.290  1.00  0.00    -0.392 OA
HETATM   38  H32 UNL     1      -0.316  54.306 -25.057  1.00  0.00     0.210 HD
ENDBRANCH  34  37
ENDBRANCH   3  28
TORSDOF 10
ENDMDL
MODEL 9
REMARK minimizedAffinity -8.53393459
REMARK  10 active torsions:
REMARK  status: ('A' for Active; 'I' for Inactive)
REMARK    1  A    between atoms: C2_2  and  C3_3 
REMARK    2  A    between atoms: C3_3  and  C5_5 
REMARK    3  A    between atoms: C5_5  and  C6_6 
REMARK    4  A    between atoms: C6_6  and  C8_8 
REMARK    5  A    between atoms: C9_9  and  C11_11 
REMARK    6  A    between atoms: C12_13  and  C13_14 
REMARK    7  A    between atoms: C14_15  and  O2_16 
REMARK    8  A    between atoms: C15_17  and  C16_18 
REMARK    9  A    between atoms: C16_18  and  O3_19 
REMARK   10  A    between atoms: C21_25  and  O5_26 
ROOT
HETATM    1  C13 UNL     1      -4.308  50.235 -21.943  1.00  0.00     0.068 C 
HETATM    2  C14 UNL     1      -5.631  50.185 -21.680  1.00  0.00     0.066 C 
HETATM    3  C15 UNL     1      -6.641  49.498 -22.582  1.00  0.00     0.098 C 
HETATM    4  C22 UNL     1      -6.064  49.484 -24.002  1.00  0.00     0.140 C 
HETATM    5  N1  UNL     1      -4.703  48.983 -24.028  1.00  0.00    -0.352 N 
HETATM    6  C23 UNL     1      -4.217  48.429 -25.279  1.00  0.00     0.152 C 
HETATM    7  C24 UNL     1      -3.768  49.469 -23.117  1.00  0.00     0.254 C 
HETATM    8  O6  UNL     1      -2.568  49.245 -23.236  1.00  0.00    -0.268 OA
ENDROOT
BRANCH   1   9
HETATM    9  C12 UNL     1      -3.324  51.005 -21.090  1.00  0.00     0.163 C 
HETATM   10  O1  UNL     1      -2.103  51.161 -21.826  1.00  0.00    -0.371 OA
HETATM   11  C11 UNL     1      -1.109  51.842 -21.051  1.00  0.00     0.154 C 
HETATM   12  C27 UNL     1      -0.576  50.872 -19.969  1.00  0.00     0.015 C 
HETATM   13  C26 UNL     1      -1.673  49.917 -19.457  1.00  0.00     0.010 C 
HETATM   14  C28 UNL     1       0.059  51.643 -18.807  1.00  0.00     0.012 C 
HETATM   15  C25 UNL     1      -3.089  50.443 -19.675  1.00  0.00     0.037 C 
BRANCH  11  16
HETATM   16  C9  UNL     1      -0.124  52.462 -22.045  1.00  0.00    -0.058 C 
HETATM   17  C8  UNL     1      -0.125  52.224 -23.375  1.00  0.00    -0.018 C 
HETATM   18  C10 UNL     1       0.874  53.383 -21.383  1.00  0.00     0.046 C 
BRANCH  17  19
HETATM   19  C6  UNL     1       0.776  52.830 -24.435  1.00  0.00     0.005 C 
HETATM   20  C7  UNL     1       0.102  54.085 -24.990  1.00  0.00     0.014 C 
BRANCH  19  21
HETATM   21  C5  UNL     1       1.082  51.757 -25.503  1.00  0.00     0.012 C 
BRANCH  21  22
HETATM   22  C3  UNL     1       0.189  51.809 -26.764  1.00  0.00    -0.018 C 
HETATM   23  C4  UNL     1      -0.879  50.708 -26.766  1.00  0.00     0.010 C 
BRANCH  22  24
HETATM   24  C2  UNL     1       1.037  51.733 -28.056  1.00  0.00    -0.000 C 
HETATM   25  C1  UNL     1       2.545  51.770 -27.842  1.00  0.00     0.005 C 
ENDBRANCH  22  24
ENDBRANCH  21  22
ENDBRANCH  19  21
ENDBRANCH  17  19
ENDBRANCH  11  16
ENDBRANCH   1   9
BRANCH   2  26
HETATM   26  O2  UNL     1      -6.156  50.812 -20.560  1.00  0.00    -0.364 OA
HETATM   27  H22 UNL     1      -7.128  50.869 -20.645  1.00  0.00     0.217 HD
ENDBRANCH   2  26
BRANCH   3  28
HETATM   28  C16 UNL     1      -7.105  48.116 -22.008  1.00  0.00     0.095 C 
HETATM   29  C17 UNL     1      -8.463  48.110 -21.289  1.00  0.00     0.048 C 
HETATM   30  C18 UNL     1      -8.954  46.691 -21.002  1.00  0.00     0.081 C 
HETATM   31  C19 UNL     1      -7.826  45.723 -20.722  1.00  0.00     0.129 C 
HETATM   32  O4  UNL     1      -8.014  44.507 -20.771  1.00  0.00    -0.298 OA
HETATM   33  C20 UNL     1      -6.512  46.290 -20.246  1.00  0.00     0.113 C 
HETATM   34  C21 UNL     1      -6.041  47.502 -21.055  1.00  0.00     0.160 C 
BRANCH  28  35
HETATM   35  O3  UNL     1      -7.186  47.201 -23.135  1.00  0.00    -0.386 OA
HETATM   36  H24 UNL     1      -7.950  47.475 -23.683  1.00  0.00     0.210 HD
ENDBRANCH  28  35
BRANCH  34  37
HETATM   37  O5  UNL     1      -4.891  47.141 -21.829  1.00  0.00    -0.392 OA
HETATM   38  H32 UNL     1      -5.242  46.633 -22.591  1.00  0.00     0.210 HD
ENDBRANCH  34  37
ENDBRANCH   3  28
TORSDOF 10
ENDMDL
