MODEL 1
REMARK minimizedAffinity -8.51590824
REMARK  11 active torsions:
REMARK  status: ('A' for Active; 'I' for Inactive)
REMARK    1  A    between atoms: C4_4  and  C5_5 
REMARK    2  A    between atoms: C5_5  and  O2_7 
REMARK    3  A    between atoms: O2_7  and  C6_8 
REMARK    4  A    between atoms: C6_8  and  C7_9 
REMARK    5  A    between atoms: C17_19  and  O3_21 
REMARK    6  A    between atoms: C19_22  and  C20_23 
REMARK    7  A    between atoms: C20_23  and  C21_24 
REMARK    8  A    between atoms: C21_24  and  C22_25 
REMARK    9  A    between atoms: C22_25  and  C24_27 
REMARK   10  A    between atoms: C24_27  and  C25_28 
REMARK   11  A    between atoms: C25_28  and  O4_29 
ROOT
HETATM    1  C7  UNL     1       0.381  52.720 -24.710  1.00  0.00    -0.018 C 
HETATM    2  C8  UNL     1       0.119  54.240 -24.808  1.00  0.00     0.018 C 
HETATM    3  C9  UNL     1       1.341  52.340 -25.865  1.00  0.00     0.012 C 
HETATM    4  C10 UNL     1       1.242  50.868 -26.215  1.00  0.00     0.002 C 
HETATM    5  C11 UNL     1      -0.123  50.533 -26.809  1.00  0.00     0.010 C 
HETATM    6  C12 UNL     1      -1.358  51.218 -26.124  1.00  0.00    -0.033 C 
HETATM    7  C13 UNL     1      -1.848  52.359 -27.056  1.00  0.00     0.016 C 
HETATM    8  C14 UNL     1      -0.928  51.822 -24.738  1.00  0.00     0.004 C 
HETATM    9  C15 UNL     1      -2.118  52.472 -24.000  1.00  0.00     0.009 C 
HETATM   10  C16 UNL     1      -3.445  51.727 -24.150  1.00  0.00     0.038 C 
HETATM   11  C17 UNL     1      -3.280  50.257 -24.534  1.00  0.00     0.059 C 
HETATM   12  C18 UNL     1      -4.645  49.556 -24.456  1.00  0.00     0.046 C 
HETATM   13  C19 UNL     1      -2.515  50.099 -25.909  1.00  0.00     0.028 C 
ENDROOT
BRANCH   1  14
HETATM   14  C6  UNL     1       1.091  52.466 -23.338  1.00  0.00     0.188 C 
BRANCH  14  15
HETATM   15  O2  UNL     1       0.406  53.145 -22.273  1.00  0.00    -0.317 OA
BRANCH  15  16
HETATM   16  C5  UNL     1       1.225  53.822 -21.428  1.00  0.00     0.283 C 
HETATM   17  O1  UNL     1       1.957  54.748 -21.725  1.00  0.00    -0.260 OA
BRANCH  16  18
HETATM   18  C4  UNL     1       1.039  53.239 -20.076  1.00  0.00     0.084 C 
HETATM   19  C2  UNL     1       0.086  52.363 -19.700  1.00  0.00    -0.082 C 
HETATM   20  C1  UNL     1      -1.027  51.842 -20.568  1.00  0.00     0.043 C 
HETATM   21  C3  UNL     1       0.076  51.816 -18.297  1.00  0.00     0.043 C 
ENDBRANCH  16  18
ENDBRANCH  15  16
ENDBRANCH  14  15
ENDBRANCH   1  14
BRANCH  13  22
HETATM   22  C20 UNL     1      -3.494  49.922 -27.113  1.00  0.00     0.009 C 
BRANCH  22  23
HETATM   23  C21 UNL     1      -3.882  48.485 -27.509  1.00  0.00     0.005 C 
BRANCH  23  24
HETATM   24  C22 UNL     1      -5.261  48.290 -28.189  1.00  0.00    -0.017 C 
HETATM   25  C23 UNL     1      -6.226  47.495 -27.302  1.00  0.00     0.010 C 
BRANCH  24  26
HETATM   26  C24 UNL     1      -5.142  47.683 -29.599  1.00  0.00     0.030 C 
BRANCH  26  27
HETATM   27  C25 UNL     1      -5.505  48.636 -30.738  1.00  0.00     0.164 C 
BRANCH  27  28
HETATM   28  O4  UNL     1      -4.622  49.747 -30.786  1.00  0.00    -0.401 OA
HETATM   29  H44 UNL     1      -3.713  49.402 -30.822  1.00  0.00     0.209 HD
ENDBRANCH  27  28
ENDBRANCH  26  27
ENDBRANCH  24  26
ENDBRANCH  23  24
ENDBRANCH  22  23
ENDBRANCH  13  22
BRANCH  11  30
HETATM   30  O3  UNL     1      -2.474  49.617 -23.525  1.00  0.00    -0.390 OA
HETATM   31  H30 UNL     1      -2.915  49.731 -22.666  1.00  0.00     0.210 HD
ENDBRANCH  11  30
TORSDOF 11
ENDMDL
MODEL 2
REMARK minimizedAffinity -8.08185959
REMARK  11 active torsions:
REMARK  status: ('A' for Active; 'I' for Inactive)
REMARK    1  A    between atoms: C4_4  and  C5_5 
REMARK    2  A    between atoms: C5_5  and  O2_7 
REMARK    3  A    between atoms: O2_7  and  C6_8 
REMARK    4  A    between atoms: C6_8  and  C7_9 
REMARK    5  A    between atoms: C17_19  and  O3_21 
REMARK    6  A    between atoms: C19_22  and  C20_23 
REMARK    7  A    between atoms: C20_23  and  C21_24 
REMARK    8  A    between atoms: C21_24  and  C22_25 
REMARK    9  A    between atoms: C22_25  and  C24_27 
REMARK   10  A    between atoms: C24_27  and  C25_28 
REMARK   11  A    between atoms: C25_28  and  O4_29 
ROOT
HETATM    1  C7  UNL     1      -4.468  49.388 -23.960  1.00  0.00    -0.018 C 
HETATM    2  C8  UNL     1      -5.754  50.206 -23.703  1.00  0.00     0.018 C 
HETATM    3  C9  UNL     1      -4.136  48.622 -22.655  1.00  0.00     0.012 C 
HETATM    4  C10 UNL     1      -2.669  48.244 -22.584  1.00  0.00     0.002 C 
HETATM    5  C11 UNL     1      -1.787  49.482 -22.462  1.00  0.00     0.010 C 
HETATM    6  C12 UNL     1      -2.194  50.708 -23.353  1.00  0.00    -0.033 C 
HETATM    7  C13 UNL     1      -2.856  51.769 -22.431  1.00  0.00     0.016 C 
HETATM    8  C14 UNL     1      -3.225  50.249 -24.447  1.00  0.00     0.004 C 
HETATM    9  C15 UNL     1      -3.629  51.411 -25.381  1.00  0.00     0.009 C 
HETATM   10  C16 UNL     1      -2.491  52.370 -25.733  1.00  0.00     0.038 C 
HETATM   11  C17 UNL     1      -1.102  51.761 -25.554  1.00  0.00     0.059 C 
HETATM   12  C18 UNL     1      -0.048  52.724 -26.125  1.00  0.00     0.046 C 
HETATM   13  C19 UNL     1      -0.858  51.300 -24.061  1.00  0.00     0.028 C 
ENDROOT
BRANCH   1  14
HETATM   14  C6  UNL     1      -4.797  48.363 -25.097  1.00  0.00     0.188 C 
BRANCH  14  15
HETATM   15  O2  UNL     1      -3.691  48.232 -26.005  1.00  0.00    -0.317 OA
BRANCH  15  16
HETATM   16  C5  UNL     1      -4.001  48.504 -27.299  1.00  0.00     0.283 C 
HETATM   17  O1  UNL     1      -3.293  49.085 -28.102  1.00  0.00    -0.260 OA
BRANCH  16  18
HETATM   18  C4  UNL     1      -5.348  47.936 -27.556  1.00  0.00     0.084 C 
HETATM   19  C2  UNL     1      -5.927  47.748 -28.758  1.00  0.00    -0.082 C 
HETATM   20  C1  UNL     1      -5.346  48.136 -30.090  1.00  0.00     0.043 C 
HETATM   21  C3  UNL     1      -7.283  47.096 -28.848  1.00  0.00     0.043 C 
ENDBRANCH  16  18
ENDBRANCH  15  16
ENDBRANCH  14  15
ENDBRANCH   1  14
BRANCH  13  22
HETATM   22  C20 UNL     1      -0.090  52.375 -23.228  1.00  0.00     0.009 C 
BRANCH  22  23
HETATM   23  C21 UNL     1       0.357  51.988 -21.806  1.00  0.00     0.005 C 
BRANCH  23  24
HETATM   24  C22 UNL     1       0.178  53.054 -20.696  1.00  0.00    -0.017 C 
HETATM   25  C23 UNL     1       1.223  54.169 -20.802  1.00  0.00     0.010 C 
BRANCH  24  26
HETATM   26  C24 UNL     1       0.136  52.435 -19.286  1.00  0.00     0.030 C 
BRANCH  26  27
HETATM   27  C25 UNL     1       1.393  52.667 -18.449  1.00  0.00     0.164 C 
BRANCH  27  28
HETATM   28  O4  UNL     1       1.071  53.138 -17.148  1.00  0.00    -0.401 OA
HETATM   29  H44 UNL     1       0.433  52.517 -16.757  1.00  0.00     0.209 HD
ENDBRANCH  27  28
ENDBRANCH  26  27
ENDBRANCH  24  26
ENDBRANCH  23  24
ENDBRANCH  22  23
ENDBRANCH  13  22
BRANCH  11  30
HETATM   30  O3  UNL     1      -1.017  50.584 -26.380  1.00  0.00    -0.390 OA
HETATM   31  H30 UNL     1      -1.195  50.844 -27.300  1.00  0.00     0.210 HD
ENDBRANCH  11  30
TORSDOF 11
ENDMDL
MODEL 3
REMARK minimizedAffinity -7.98944139
REMARK  11 active torsions:
REMARK  status: ('A' for Active; 'I' for Inactive)
REMARK    1  A    between atoms: C4_4  and  C5_5 
REMARK    2  A    between atoms: C5_5  and  O2_7 
REMARK    3  A    between atoms: O2_7  and  C6_8 
REMARK    4  A    between atoms: C6_8  and  C7_9 
REMARK    5  A    between atoms: C17_19  and  O3_21 
REMARK    6  A    between atoms: C19_22  and  C20_23 
REMARK    7  A    between atoms: C20_23  and  C21_24 
REMARK    8  A    between atoms: C21_24  and  C22_25 
REMARK    9  A    between atoms: C22_25  and  C24_27 
REMARK   10  A    between atoms: C24_27  and  C25_28 
REMARK   11  A    between atoms: C25_28  and  O4_29 
ROOT
HETATM    1  C7  UNL     1      -2.012  51.441 -23.154  1.00  0.00    -0.018 C 
HETATM    2  C8  UNL     1      -0.824  50.710 -22.489  1.00  0.00     0.018 C 
HETATM    3  C9  UNL     1      -3.036  51.772 -22.039  1.00  0.00     0.012 C 
HETATM    4  C10 UNL     1      -4.430  51.974 -22.599  1.00  0.00     0.002 C 
HETATM    5  C11 UNL     1      -4.988  50.674 -23.170  1.00  0.00     0.010 C 
HETATM    6  C12 UNL     1      -3.980  49.793 -23.988  1.00  0.00    -0.033 C 
HETATM    7  C13 UNL     1      -3.574  48.584 -23.103  1.00  0.00     0.016 C 
HETATM    8  C14 UNL     1      -2.701  50.638 -24.339  1.00  0.00     0.004 C 
HETATM    9  C15 UNL     1      -1.691  49.831 -25.183  1.00  0.00     0.009 C 
HETATM   10  C16 UNL     1      -2.326  48.906 -26.223  1.00  0.00     0.038 C 
HETATM   11  C17 UNL     1      -3.750  49.305 -26.607  1.00  0.00     0.059 C 
HETATM   12  C18 UNL     1      -4.214  48.447 -27.795  1.00  0.00     0.046 C 
HETATM   13  C19 UNL     1      -4.712  49.301 -25.352  1.00  0.00     0.028 C 
ENDROOT
BRANCH   1  14
HETATM   14  C6  UNL     1      -1.451  52.771 -23.759  1.00  0.00     0.188 C 
BRANCH  14  15
HETATM   15  O2  UNL     1      -0.014  52.761 -23.773  1.00  0.00    -0.317 OA
BRANCH  15  16
HETATM   16  C5  UNL     1       0.538  53.614 -24.675  1.00  0.00     0.283 C 
HETATM   17  O1  UNL     1       1.202  54.601 -24.417  1.00  0.00    -0.260 OA
BRANCH  16  18
HETATM   18  C4  UNL     1       0.201  53.101 -26.027  1.00  0.00     0.084 C 
HETATM   19  C2  UNL     1       0.872  52.162 -26.721  1.00  0.00    -0.082 C 
HETATM   20  C1  UNL     1       2.141  51.480 -26.288  1.00  0.00     0.043 C 
HETATM   21  C3  UNL     1       0.358  51.705 -28.062  1.00  0.00     0.043 C 
ENDBRANCH  16  18
ENDBRANCH  15  16
ENDBRANCH  14  15
ENDBRANCH   1  14
BRANCH  13  22
HETATM   22  C20 UNL     1      -5.514  47.967 -25.226  1.00  0.00     0.009 C 
BRANCH  22  23
HETATM   23  C21 UNL     1      -6.973  48.057 -24.741  1.00  0.00     0.005 C 
BRANCH  23  24
HETATM   24  C22 UNL     1      -8.026  47.227 -25.517  1.00  0.00    -0.017 C 
HETATM   25  C23 UNL     1      -7.668  47.095 -27.000  1.00  0.00     0.010 C 
BRANCH  24  26
HETATM   26  C24 UNL     1      -9.459  47.754 -25.313  1.00  0.00     0.030 C 
BRANCH  26  27
HETATM   27  C25 UNL     1      -9.930  48.750 -26.372  1.00  0.00     0.164 C 
BRANCH  27  28
HETATM   28  O4  UNL     1      -9.628  50.087 -25.999  1.00  0.00    -0.401 OA
HETATM   29  H44 UNL     1      -8.678  50.131 -25.797  1.00  0.00     0.209 HD
ENDBRANCH  27  28
ENDBRANCH  26  27
ENDBRANCH  24  26
ENDBRANCH  23  24
ENDBRANCH  22  23
ENDBRANCH  13  22
BRANCH  11  30
HETATM   30  O3  UNL     1      -3.718  50.654 -27.112  1.00  0.00    -0.390 OA
HETATM   31  H30 UNL     1      -3.106  50.682 -27.867  1.00  0.00     0.210 HD
ENDBRANCH  11  30
TORSDOF 11
ENDMDL
MODEL 4
REMARK minimizedAffinity -7.94186115
REMARK  11 active torsions:
REMARK  status: ('A' for Active; 'I' for Inactive)
REMARK    1  A    between atoms: C4_4  and  C5_5 
REMARK    2  A    between atoms: C5_5  and  O2_7 
REMARK    3  A    between atoms: O2_7  and  C6_8 
REMARK    4  A    between atoms: C6_8  and  C7_9 
REMARK    5  A    between atoms: C17_19  and  O3_21 
REMARK    6  A    between atoms: C19_22  and  C20_23 
REMARK    7  A    between atoms: C20_23  and  C21_24 
REMARK    8  A    between atoms: C21_24  and  C22_25 
REMARK    9  A    between atoms: C22_25  and  C24_27 
REMARK   10  A    between atoms: C24_27  and  C25_28 
REMARK   11  A    between atoms: C25_28  and  O4_29 
ROOT
HETATM    1  C7  UNL     1      -3.746  50.229 -21.608  1.00  0.00    -0.018 C 
HETATM    2  C8  UNL     1      -3.730  48.699 -21.830  1.00  0.00     0.018 C 
HETATM    3  C9  UNL     1      -4.643  50.849 -22.709  1.00  0.00     0.012 C 
HETATM    4  C10 UNL     1      -4.313  52.310 -22.944  1.00  0.00     0.002 C 
HETATM    5  C11 UNL     1      -2.918  52.471 -23.539  1.00  0.00     0.010 C 
HETATM    6  C12 UNL     1      -1.802  51.547 -22.936  1.00  0.00    -0.033 C 
HETATM    7  C13 UNL     1      -1.507  50.421 -23.964  1.00  0.00     0.016 C 
HETATM    8  C14 UNL     1      -2.311  50.908 -21.593  1.00  0.00     0.004 C 
HETATM    9  C15 UNL     1      -1.234  50.020 -20.932  1.00  0.00     0.009 C 
HETATM   10  C16 UNL     1       0.194  50.556 -21.051  1.00  0.00     0.038 C 
HETATM   11  C17 UNL     1       0.262  52.059 -21.315  1.00  0.00     0.059 C 
HETATM   12  C18 UNL     1       1.722  52.527 -21.211  1.00  0.00     0.046 C 
HETATM   13  C19 UNL     1      -0.479  52.446 -22.658  1.00  0.00     0.028 C 
ENDROOT
BRANCH   1  14
HETATM   14  C6  UNL     1      -4.395  50.481 -20.205  1.00  0.00     0.188 C 
BRANCH  14  15
HETATM   15  O2  UNL     1      -3.507  51.226 -19.356  1.00  0.00    -0.317 OA
BRANCH  15  16
HETATM   16  C5  UNL     1      -3.204  50.603 -18.188  1.00  0.00     0.283 C 
HETATM   17  O1  UNL     1      -3.826  49.689 -17.678  1.00  0.00    -0.260 OA
BRANCH  16  18
HETATM   18  C4  UNL     1      -1.962  51.228 -17.667  1.00  0.00     0.084 C 
HETATM   19  C2  UNL     1      -0.813  50.598 -17.357  1.00  0.00    -0.082 C 
HETATM   20  C1  UNL     1      -0.573  49.114 -17.419  1.00  0.00     0.043 C 
HETATM   21  C3  UNL     1       0.383  51.392 -16.898  1.00  0.00     0.043 C 
ENDBRANCH  16  18
ENDBRANCH  15  16
ENDBRANCH  14  15
ENDBRANCH   1  14
BRANCH  13  22
HETATM   22  C20 UNL     1       0.505  52.564 -23.864  1.00  0.00     0.009 C 
BRANCH  22  23
HETATM   23  C21 UNL     1       0.077  53.448 -25.049  1.00  0.00     0.005 C 
BRANCH  23  24
HETATM   24  C22 UNL     1       0.506  52.986 -26.465  1.00  0.00    -0.017 C 
HETATM   25  C23 UNL     1      -0.574  53.279 -27.512  1.00  0.00     0.010 C 
BRANCH  24  26
HETATM   26  C24 UNL     1       0.952  51.513 -26.494  1.00  0.00     0.030 C 
BRANCH  26  27
HETATM   27  C25 UNL     1       2.461  51.299 -26.381  1.00  0.00     0.164 C 
BRANCH  27  28
HETATM   28  O4  UNL     1       3.166  52.045 -27.363  1.00  0.00    -0.401 OA
HETATM   29  H44 UNL     1       2.882  52.972 -27.291  1.00  0.00     0.209 HD
ENDBRANCH  27  28
ENDBRANCH  26  27
ENDBRANCH  24  26
ENDBRANCH  23  24
ENDBRANCH  22  23
ENDBRANCH  13  22
BRANCH  11  30
HETATM   30  O3  UNL     1      -0.423  52.735 -20.243  1.00  0.00    -0.390 OA
HETATM   31  H30 UNL     1       0.001  52.484 -19.405  1.00  0.00     0.210 HD
ENDBRANCH  11  30
TORSDOF 11
ENDMDL
MODEL 5
REMARK minimizedAffinity -7.82970047
REMARK  11 active torsions:
REMARK  status: ('A' for Active; 'I' for Inactive)
REMARK    1  A    between atoms: C4_4  and  C5_5 
REMARK    2  A    between atoms: C5_5  and  O2_7 
REMARK    3  A    between atoms: O2_7  and  C6_8 
REMARK    4  A    between atoms: C6_8  and  C7_9 
REMARK    5  A    between atoms: C17_19  and  O3_21 
REMARK    6  A    between atoms: C19_22  and  C20_23 
REMARK    7  A    between atoms: C20_23  and  C21_24 
REMARK    8  A    between atoms: C21_24  and  C22_25 
REMARK    9  A    between atoms: C22_25  and  C24_27 
REMARK   10  A    between atoms: C24_27  and  C25_28 
REMARK   11  A    between atoms: C25_28  and  O4_29 
ROOT
HETATM    1  C7  UNL     1      -2.266  50.867 -21.922  1.00  0.00    -0.018 C 
HETATM    2  C8  UNL     1      -1.043  50.066 -21.419  1.00  0.00     0.018 C 
HETATM    3  C9  UNL     1      -3.209  51.082 -20.713  1.00  0.00     0.012 C 
HETATM    4  C10 UNL     1      -4.635  51.347 -21.154  1.00  0.00     0.002 C 
HETATM    5  C11 UNL     1      -5.243  50.116 -21.820  1.00  0.00     0.010 C 
HETATM    6  C12 UNL     1      -4.301  49.324 -22.793  1.00  0.00    -0.033 C 
HETATM    7  C13 UNL     1      -3.850  48.026 -22.069  1.00  0.00     0.016 C 
HETATM    8  C14 UNL     1      -3.039  50.197 -23.136  1.00  0.00     0.004 C 
HETATM    9  C15 UNL     1      -2.096  49.480 -24.127  1.00  0.00     0.009 C 
HETATM   10  C16 UNL     1      -2.808  48.673 -25.214  1.00  0.00     0.038 C 
HETATM   11  C17 UNL     1      -4.250  49.116 -25.457  1.00  0.00     0.059 C 
HETATM   12  C18 UNL     1      -4.801  48.390 -26.696  1.00  0.00     0.046 C 
HETATM   13  C19 UNL     1      -5.126  48.982 -24.149  1.00  0.00     0.028 C 
ENDROOT
BRANCH   1  14
HETATM   14  C6  UNL     1      -1.732  52.253 -22.419  1.00  0.00     0.188 C 
BRANCH  14  15
HETATM   15  O2  UNL     1      -0.484  52.101 -23.116  1.00  0.00    -0.317 OA
BRANCH  15  16
HETATM   16  C5  UNL     1      -0.463  52.673 -24.348  1.00  0.00     0.283 C 
HETATM   17  O1  UNL     1      -1.356  53.330 -24.850  1.00  0.00    -0.260 OA
BRANCH  16  18
HETATM   18  C4  UNL     1       0.860  52.369 -24.950  1.00  0.00     0.084 C 
HETATM   19  C2  UNL     1       1.097  51.582 -26.017  1.00  0.00    -0.082 C 
HETATM   20  C1  UNL     1       0.067  50.797 -26.783  1.00  0.00     0.043 C 
HETATM   21  C3  UNL     1       2.500  51.429 -26.544  1.00  0.00     0.043 C 
ENDBRANCH  16  18
ENDBRANCH  15  16
ENDBRANCH  14  15
ENDBRANCH   1  14
BRANCH  13  22
HETATM   22  C20 UNL     1      -5.933  47.645 -24.111  1.00  0.00     0.009 C 
BRANCH  22  23
HETATM   23  C21 UNL     1      -7.215  47.563 -24.959  1.00  0.00     0.005 C 
BRANCH  23  24
HETATM   24  C22 UNL     1      -8.562  47.496 -24.196  1.00  0.00    -0.017 C 
HETATM   25  C23 UNL     1      -8.761  46.141 -23.509  1.00  0.00     0.010 C 
BRANCH  24  26
HETATM   26  C24 UNL     1      -9.762  47.874 -25.084  1.00  0.00     0.030 C 
BRANCH  26  27
HETATM   27  C25 UNL     1      -9.417  48.756 -26.283  1.00  0.00     0.164 C 
BRANCH  27  28
HETATM   28  O4  UNL     1      -9.754  50.115 -26.042  1.00  0.00    -0.401 OA
HETATM   29  H44 UNL     1      -9.330  50.382 -25.208  1.00  0.00     0.209 HD
ENDBRANCH  27  28
ENDBRANCH  26  27
ENDBRANCH  24  26
ENDBRANCH  23  24
ENDBRANCH  22  23
ENDBRANCH  13  22
BRANCH  11  30
HETATM   30  O3  UNL     1      -4.237  50.511 -25.818  1.00  0.00    -0.390 OA
HETATM   31  H30 UNL     1      -3.676  50.617 -26.605  1.00  0.00     0.210 HD
ENDBRANCH  11  30
TORSDOF 11
ENDMDL
MODEL 6
REMARK minimizedAffinity -7.68011618
REMARK  11 active torsions:
REMARK  status: ('A' for Active; 'I' for Inactive)
REMARK    1  A    between atoms: C4_4  and  C5_5 
REMARK    2  A    between atoms: C5_5  and  O2_7 
REMARK    3  A    between atoms: O2_7  and  C6_8 
REMARK    4  A    between atoms: C6_8  and  C7_9 
REMARK    5  A    between atoms: C17_19  and  O3_21 
REMARK    6  A    between atoms: C19_22  and  C20_23 
REMARK    7  A    between atoms: C20_23  and  C21_24 
REMARK    8  A    between atoms: C21_24  and  C22_25 
REMARK    9  A    between atoms: C22_25  and  C24_27 
REMARK   10  A    between atoms: C24_27  and  C25_28 
REMARK   11  A    between atoms: C25_28  and  O4_29 
ROOT
HETATM    1  C7  UNL     1      -2.389  51.100 -24.500  1.00  0.00    -0.018 C 
HETATM    2  C8  UNL     1      -2.836  52.514 -24.061  1.00  0.00     0.018 C 
HETATM    3  C9  UNL     1      -2.994  50.837 -25.902  1.00  0.00     0.012 C 
HETATM    4  C10 UNL     1      -3.102  49.354 -26.196  1.00  0.00     0.002 C 
HETATM    5  C11 UNL     1      -4.117  48.682 -25.277  1.00  0.00     0.010 C 
HETATM    6  C12 UNL     1      -4.096  49.140 -23.776  1.00  0.00    -0.033 C 
HETATM    7  C13 UNL     1      -5.323  50.063 -23.542  1.00  0.00     0.016 C 
HETATM    8  C14 UNL     1      -2.775  49.942 -23.486  1.00  0.00     0.004 C 
HETATM    9  C15 UNL     1      -2.682  50.382 -22.008  1.00  0.00     0.009 C 
HETATM   10  C16 UNL     1      -3.211  49.357 -21.004  1.00  0.00     0.038 C 
HETATM   11  C17 UNL     1      -3.248  47.930 -21.549  1.00  0.00     0.059 C 
HETATM   12  C18 UNL     1      -3.594  46.960 -20.408  1.00  0.00     0.046 C 
HETATM   13  C19 UNL     1      -4.166  47.822 -22.831  1.00  0.00     0.028 C 
ENDROOT
BRANCH   1  14
HETATM   14  C6  UNL     1      -0.827  51.126 -24.604  1.00  0.00     0.188 C 
BRANCH  14  15
HETATM   15  O2  UNL     1      -0.283  52.243 -23.881  1.00  0.00    -0.317 OA
BRANCH  15  16
HETATM   16  C5  UNL     1       0.482  53.073 -24.635  1.00  0.00     0.283 C 
HETATM   17  O1  UNL     1       1.225  53.943 -24.218  1.00  0.00    -0.260 OA
BRANCH  16  18
HETATM   18  C4  UNL     1       0.262  52.703 -26.056  1.00  0.00     0.084 C 
HETATM   19  C2  UNL     1       1.099  51.999 -26.843  1.00  0.00    -0.082 C 
HETATM   20  C1  UNL     1       2.463  51.495 -26.456  1.00  0.00     0.043 C 
HETATM   21  C3  UNL     1       0.695  51.651 -28.252  1.00  0.00     0.043 C 
ENDBRANCH  16  18
ENDBRANCH  15  16
ENDBRANCH  14  15
ENDBRANCH   1  14
BRANCH  13  22
HETATM   22  C20 UNL     1      -5.609  47.333 -22.486  1.00  0.00     0.009 C 
BRANCH  22  23
HETATM   23  C21 UNL     1      -6.776  48.292 -22.782  1.00  0.00     0.005 C 
BRANCH  23  24
HETATM   24  C22 UNL     1      -7.940  47.742 -23.644  1.00  0.00    -0.017 C 
HETATM   25  C23 UNL     1      -7.912  46.212 -23.729  1.00  0.00     0.010 C 
BRANCH  24  26
HETATM   26  C24 UNL     1      -8.002  48.396 -25.037  1.00  0.00     0.030 C 
BRANCH  26  27
HETATM   27  C25 UNL     1      -9.414  48.684 -25.546  1.00  0.00     0.164 C 
BRANCH  27  28
HETATM   28  O4  UNL     1      -9.547  50.031 -25.973  1.00  0.00    -0.401 OA
HETATM   29  H44 UNL     1      -8.841  50.209 -26.618  1.00  0.00     0.209 HD
ENDBRANCH  27  28
ENDBRANCH  26  27
ENDBRANCH  24  26
ENDBRANCH  23  24
ENDBRANCH  22  23
ENDBRANCH  13  22
BRANCH  11  30
HETATM   30  O3  UNL     1      -1.912  47.569 -21.952  1.00  0.00    -0.390 OA
HETATM   31  H30 UNL     1      -1.326  47.660 -21.181  1.00  0.00     0.210 HD
ENDBRANCH  11  30
TORSDOF 11
ENDMDL
MODEL 7
REMARK minimizedAffinity -7.59153986
REMARK  11 active torsions:
REMARK  status: ('A' for Active; 'I' for Inactive)
REMARK    1  A    between atoms: C4_4  and  C5_5 
REMARK    2  A    between atoms: C5_5  and  O2_7 
REMARK    3  A    between atoms: O2_7  and  C6_8 
REMARK    4  A    between atoms: C6_8  and  C7_9 
REMARK    5  A    between atoms: C17_19  and  O3_21 
REMARK    6  A    between atoms: C19_22  and  C20_23 
REMARK    7  A    between atoms: C20_23  and  C21_24 
REMARK    8  A    between atoms: C21_24  and  C22_25 
REMARK    9  A    between atoms: C22_25  and  C24_27 
REMARK   10  A    between atoms: C24_27  and  C25_28 
REMARK   11  A    between atoms: C25_28  and  O4_29 
ROOT
HETATM    1  C7  UNL     1      -1.019  50.748 -20.640  1.00  0.00    -0.018 C 
HETATM    2  C8  UNL     1      -0.169  51.827 -21.350  1.00  0.00     0.018 C 
HETATM    3  C9  UNL     1      -0.178  49.447 -20.601  1.00  0.00     0.012 C 
HETATM    4  C10 UNL     1      -1.053  48.219 -20.447  1.00  0.00     0.002 C 
HETATM    5  C11 UNL     1      -1.921  48.002 -21.683  1.00  0.00     0.010 C 
HETATM    6  C12 UNL     1      -2.557  49.292 -22.312  1.00  0.00    -0.033 C 
HETATM    7  C13 UNL     1      -1.768  49.631 -23.605  1.00  0.00     0.016 C 
HETATM    8  C14 UNL     1      -2.440  50.488 -21.298  1.00  0.00     0.004 C 
HETATM    9  C15 UNL     1      -3.090  51.776 -21.851  1.00  0.00     0.009 C 
HETATM   10  C16 UNL     1      -4.376  51.549 -22.647  1.00  0.00     0.038 C 
HETATM   11  C17 UNL     1      -5.063  50.221 -22.332  1.00  0.00     0.059 C 
HETATM   12  C18 UNL     1      -6.436  50.185 -23.023  1.00  0.00     0.046 C 
HETATM   13  C19 UNL     1      -4.118  48.992 -22.640  1.00  0.00     0.028 C 
ENDROOT
BRANCH   1  14
HETATM   14  C6  UNL     1      -1.268  51.251 -19.178  1.00  0.00     0.188 C 
BRANCH  14  15
HETATM   15  O2  UNL     1      -0.194  50.855 -18.310  1.00  0.00    -0.317 OA
BRANCH  15  16
HETATM   16  C5  UNL     1       0.494  51.893 -17.768  1.00  0.00     0.283 C 
HETATM   17  O1  UNL     1       0.609  53.007 -18.247  1.00  0.00    -0.260 OA
BRANCH  16  18
HETATM   18  C4  UNL     1       1.052  51.423 -16.476  1.00  0.00     0.084 C 
HETATM   19  C2  UNL     1       2.211  51.812 -15.910  1.00  0.00    -0.082 C 
HETATM   20  C1  UNL     1       3.211  52.764 -16.508  1.00  0.00     0.043 C 
HETATM   21  C3  UNL     1       2.604  51.283 -14.555  1.00  0.00     0.043 C 
ENDBRANCH  16  18
ENDBRANCH  15  16
ENDBRANCH  14  15
ENDBRANCH   1  14
BRANCH  13  22
HETATM   22  C20 UNL     1      -4.390  48.374 -24.049  1.00  0.00     0.009 C 
BRANCH  22  23
HETATM   23  C21 UNL     1      -3.849  49.133 -25.275  1.00  0.00     0.005 C 
BRANCH  23  24
HETATM   24  C22 UNL     1      -4.087  48.488 -26.664  1.00  0.00    -0.017 C 
HETATM   25  C23 UNL     1      -3.691  49.431 -27.805  1.00  0.00     0.010 C 
BRANCH  24  26
HETATM   26  C24 UNL     1      -5.523  47.956 -26.828  1.00  0.00     0.030 C 
BRANCH  26  27
HETATM   27  C25 UNL     1      -5.964  47.742 -28.275  1.00  0.00     0.164 C 
BRANCH  27  28
HETATM   28  O4  UNL     1      -7.106  48.525 -28.591  1.00  0.00    -0.401 OA
HETATM   29  H44 UNL     1      -6.904  49.448 -28.363  1.00  0.00     0.209 HD
ENDBRANCH  27  28
ENDBRANCH  26  27
ENDBRANCH  24  26
ENDBRANCH  23  24
ENDBRANCH  22  23
ENDBRANCH  13  22
BRANCH  11  30
HETATM   30  O3  UNL     1      -5.354  50.190 -20.922  1.00  0.00    -0.390 OA
HETATM   31  H30 UNL     1      -5.911  50.958 -20.708  1.00  0.00     0.210 HD
ENDBRANCH  11  30
TORSDOF 11
ENDMDL
MODEL 8
REMARK minimizedAffinity -7.47170782
REMARK  11 active torsions:
REMARK  status: ('A' for Active; 'I' for Inactive)
REMARK    1  A    between atoms: C4_4  and  C5_5 
REMARK    2  A    between atoms: C5_5  and  O2_7 
REMARK    3  A    between atoms: O2_7  and  C6_8 
REMARK    4  A    between atoms: C6_8  and  C7_9 
REMARK    5  A    between atoms: C17_19  and  O3_21 
REMARK    6  A    between atoms: C19_22  and  C20_23 
REMARK    7  A    between atoms: C20_23  and  C21_24 
REMARK    8  A    between atoms: C21_24  and  C22_25 
REMARK    9  A    between atoms: C22_25  and  C24_27 
REMARK   10  A    between atoms: C24_27  and  C25_28 
REMARK   11  A    between atoms: C25_28  and  O4_29 
ROOT
HETATM    1  C7  UNL     1      -3.205  49.803 -25.306  1.00  0.00    -0.018 C 
HETATM    2  C8  UNL     1      -1.951  49.332 -26.078  1.00  0.00     0.018 C 
HETATM    3  C9  UNL     1      -3.476  51.273 -25.716  1.00  0.00     0.012 C 
HETATM    4  C10 UNL     1      -4.294  52.004 -24.670  1.00  0.00     0.002 C 
HETATM    5  C11 UNL     1      -3.506  52.174 -23.374  1.00  0.00     0.010 C 
HETATM    6  C12 UNL     1      -2.657  50.935 -22.919  1.00  0.00    -0.033 C 
HETATM    7  C13 UNL     1      -1.165  51.244 -23.217  1.00  0.00     0.016 C 
HETATM    8  C14 UNL     1      -3.100  49.662 -23.728  1.00  0.00     0.004 C 
HETATM    9  C15 UNL     1      -2.323  48.402 -23.289  1.00  0.00     0.009 C 
HETATM   10  C16 UNL     1      -2.046  48.316 -21.787  1.00  0.00     0.038 C 
HETATM   11  C17 UNL     1      -2.992  49.167 -20.942  1.00  0.00     0.059 C 
HETATM   12  C18 UNL     1      -2.765  48.852 -19.454  1.00  0.00     0.046 C 
HETATM   13  C19 UNL     1      -2.899  50.697 -21.331  1.00  0.00     0.028 C 
ENDROOT
BRANCH   1  14
HETATM   14  C6  UNL     1      -4.396  48.903 -25.776  1.00  0.00     0.188 C 
BRANCH  14  15
HETATM   15  O2  UNL     1      -4.020  48.106 -26.911  1.00  0.00    -0.317 OA
BRANCH  15  16
HETATM   16  C5  UNL     1      -4.633  48.465 -28.069  1.00  0.00     0.283 C 
HETATM   17  O1  UNL     1      -4.196  49.235 -28.904  1.00  0.00    -0.260 OA
BRANCH  16  18
HETATM   18  C4  UNL     1      -5.916  47.722 -28.134  1.00  0.00     0.084 C 
HETATM   19  C2  UNL     1      -6.378  47.004 -29.177  1.00  0.00    -0.082 C 
HETATM   20  C1  UNL     1      -5.710  46.859 -30.516  1.00  0.00     0.043 C 
HETATM   21  C3  UNL     1      -7.679  46.252 -29.057  1.00  0.00     0.043 C 
ENDBRANCH  16  18
ENDBRANCH  15  16
ENDBRANCH  14  15
ENDBRANCH   1  14
BRANCH  13  22
HETATM   22  C20 UNL     1      -1.938  51.490 -20.390  1.00  0.00     0.009 C 
BRANCH  22  23
HETATM   23  C21 UNL     1      -0.434  51.177 -20.481  1.00  0.00     0.005 C 
BRANCH  23  24
HETATM   24  C22 UNL     1       0.540  52.212 -19.862  1.00  0.00    -0.017 C 
HETATM   25  C23 UNL     1       0.313  52.379 -18.356  1.00  0.00     0.010 C 
BRANCH  24  26
HETATM   26  C24 UNL     1       0.514  53.562 -20.603  1.00  0.00     0.030 C 
BRANCH  26  27
HETATM   27  C25 UNL     1       1.855  53.993 -21.194  1.00  0.00     0.164 C 
BRANCH  27  28
HETATM   28  O4  UNL     1       1.694  55.048 -22.132  1.00  0.00    -0.401 OA
HETATM   29  H44 UNL     1       1.197  55.760 -21.695  1.00  0.00     0.209 HD
ENDBRANCH  27  28
ENDBRANCH  26  27
ENDBRANCH  24  26
ENDBRANCH  23  24
ENDBRANCH  22  23
ENDBRANCH  13  22
BRANCH  11  30
HETATM   30  O3  UNL     1      -4.341  48.742 -21.211  1.00  0.00    -0.390 OA
HETATM   31  H30 UNL     1      -4.409  47.793 -21.006  1.00  0.00     0.210 HD
ENDBRANCH  11  30
TORSDOF 11
ENDMDL
MODEL 9
REMARK minimizedAffinity -7.46086168
REMARK  11 active torsions:
REMARK  status: ('A' for Active; 'I' for Inactive)
REMARK    1  A    between atoms: C4_4  and  C5_5 
REMARK    2  A    between atoms: C5_5  and  O2_7 
REMARK    3  A    between atoms: O2_7  and  C6_8 
REMARK    4  A    between atoms: C6_8  and  C7_9 
REMARK    5  A    between atoms: C17_19  and  O3_21 
REMARK    6  A    between atoms: C19_22  and  C20_23 
REMARK    7  A    between atoms: C20_23  and  C21_24 
REMARK    8  A    between atoms: C21_24  and  C22_25 
REMARK    9  A    between atoms: C22_25  and  C24_27 
REMARK   10  A    between atoms: C24_27  and  C25_28 
REMARK   11  A    between atoms: C25_28  and  O4_29 
ROOT
HETATM    1  C7  UNL     1      -4.324  49.891 -22.761  1.00  0.00    -0.018 C 
HETATM    2  C8  UNL     1      -4.255  48.388 -23.116  1.00  0.00     0.018 C 
HETATM    3  C9  UNL     1      -5.022  50.615 -23.940  1.00  0.00     0.012 C 
HETATM    4  C10 UNL     1      -4.672  52.089 -23.980  1.00  0.00     0.002 C 
HETATM    5  C11 UNL     1      -3.196  52.295 -24.307  1.00  0.00     0.010 C 
HETATM    6  C12 UNL     1      -2.192  51.313 -23.608  1.00  0.00    -0.033 C 
HETATM    7  C13 UNL     1      -1.713  50.284 -24.668  1.00  0.00     0.016 C 
HETATM    8  C14 UNL     1      -2.919  50.557 -22.436  1.00  0.00     0.004 C 
HETATM    9  C15 UNL     1      -1.963  49.606 -21.684  1.00  0.00     0.009 C 
HETATM   10  C16 UNL     1      -0.542  50.141 -21.505  1.00  0.00     0.038 C 
HETATM   11  C17 UNL     1      -0.444  51.662 -21.615  1.00  0.00     0.059 C 
HETATM   12  C18 UNL     1       0.972  52.109 -21.218  1.00  0.00     0.046 C 
HETATM   13  C19 UNL     1      -0.946  52.175 -23.024  1.00  0.00     0.028 C 
ENDROOT
BRANCH   1  14
HETATM   14  C6  UNL     1      -5.207  50.017 -21.475  1.00  0.00     0.188 C 
BRANCH  14  15
HETATM   15  O2  UNL     1      -6.302  49.087 -21.512  1.00  0.00    -0.317 OA
BRANCH  15  16
HETATM   16  C5  UNL     1      -6.546  48.469 -20.328  1.00  0.00     0.283 C 
HETATM   17  O1  UNL     1      -5.736  48.271 -19.441  1.00  0.00    -0.260 OA
BRANCH  16  18
HETATM   18  C4  UNL     1      -7.985  48.107 -20.310  1.00  0.00     0.084 C 
HETATM   19  C2  UNL     1      -8.896  48.473 -19.388  1.00  0.00    -0.082 C 
HETATM   20  C1  UNL     1      -8.623  49.279 -18.147  1.00  0.00     0.043 C 
HETATM   21  C3  UNL     1     -10.339  48.072 -19.552  1.00  0.00     0.043 C 
ENDBRANCH  16  18
ENDBRANCH  15  16
ENDBRANCH  14  15
ENDBRANCH   1  14
BRANCH  13  22
HETATM   22  C20 UNL     1       0.231  52.396 -24.027  1.00  0.00     0.009 C 
BRANCH  22  23
HETATM   23  C21 UNL     1       0.056  53.486 -25.100  1.00  0.00     0.005 C 
BRANCH  23  24
HETATM   24  C22 UNL     1       0.293  53.069 -26.574  1.00  0.00    -0.017 C 
HETATM   25  C23 UNL     1      -1.016  53.018 -27.369  1.00  0.00     0.010 C 
BRANCH  24  26
HETATM   26  C24 UNL     1       1.092  51.758 -26.694  1.00  0.00     0.030 C 
BRANCH  26  27
HETATM   27  C25 UNL     1       2.075  51.713 -27.862  1.00  0.00     0.164 C 
BRANCH  27  28
HETATM   28  O4  UNL     1       3.399  51.457 -27.417  1.00  0.00    -0.401 OA
HETATM   29  H44 UNL     1       3.378  50.649 -26.875  1.00  0.00     0.209 HD
ENDBRANCH  27  28
ENDBRANCH  26  27
ENDBRANCH  24  26
ENDBRANCH  23  24
ENDBRANCH  22  23
ENDBRANCH  13  22
BRANCH  11  30
HETATM   30  O3  UNL     1      -1.310  52.241 -20.620  1.00  0.00    -0.390 OA
HETATM   31  H30 UNL     1      -1.035  51.912 -19.748  1.00  0.00     0.210 HD
ENDBRANCH  11  30
TORSDOF 11
ENDMDL
