MODEL 1
REMARK minimizedAffinity -8.89713097
REMARK  10 active torsions:
REMARK  status: ('A' for Active; 'I' for Inactive)
REMARK    1  A    between atoms: C2_2  and  C3_3 
REMARK    2  A    between atoms: C5_5  and  C6_6 
REMARK    3  A    between atoms: C6_6  and  C7_7 
REMARK    4  A    between atoms: C13_13  and  C15_15 
REMARK    5  A    between atoms: C15_15  and  O1_16 
REMARK    6  A    between atoms: O1_16  and  C16_17 
REMARK    7  A    between atoms: C17_19  and  C18_20 
REMARK    8  A    between atoms: C18_20  and  O3_21 
REMARK    9  A    between atoms: C19_22  and  O4_23 
REMARK   10  A    between atoms: C20_24  and  O5_25 
ROOT
HETATM    1  C7  UNL     1      -2.633  49.981 -20.552  1.00  0.00     0.025 C 
HETATM    2  C8  UNL     1      -1.242  49.579 -21.002  1.00  0.00    -0.084 C 
HETATM    3  C9  UNL     1      -0.656  48.430 -20.629  1.00  0.00     0.015 C 
HETATM    4  C10 UNL     1      -0.578  50.564 -21.913  1.00  0.00     0.034 C 
HETATM    5  C11 UNL     1      -1.438  50.808 -23.144  1.00  0.00     0.010 C 
HETATM    6  C12 UNL     1      -2.930  51.187 -22.866  1.00  0.00     0.005 C 
HETATM    7  C13 UNL     1      -3.730  51.310 -24.240  1.00  0.00    -0.018 C 
HETATM    8  C14 UNL     1      -5.045  52.109 -24.057  1.00  0.00     0.018 C 
HETATM    9  C21 UNL     1      -4.046  49.902 -24.807  1.00  0.00     0.012 C 
HETATM   10  C22 UNL     1      -4.649  48.929 -23.798  1.00  0.00     0.002 C 
HETATM   11  C23 UNL     1      -3.839  48.830 -22.505  1.00  0.00     0.010 C 
HETATM   12  C24 UNL     1      -3.582  50.200 -21.810  1.00  0.00    -0.032 C 
HETATM   13  C25 UNL     1      -4.934  50.718 -21.252  1.00  0.00     0.016 C 
ENDROOT
BRANCH   7  14
HETATM   14  C15 UNL     1      -2.902  52.095 -25.310  1.00  0.00     0.180 C 
BRANCH  14  15
HETATM   15  O1  UNL     1      -1.742  51.354 -25.711  1.00  0.00    -0.358 OA
BRANCH  15  16
HETATM   16  C16 UNL     1      -1.354  51.670 -27.047  1.00  0.00     0.291 C 
HETATM   17  O2  UNL     1      -0.163  50.956 -27.401  1.00  0.00    -0.348 OA
HETATM   18  C17 UNL     1       0.968  51.704 -26.873  1.00  0.00     0.179 C 
HETATM   19  C19 UNL     1       0.439  53.093 -26.479  1.00  0.00     0.182 C 
HETATM   20  C20 UNL     1      -0.936  53.139 -27.137  1.00  0.00     0.204 C 
BRANCH  18  21
HETATM   21  C18 UNL     1       2.060  51.783 -27.944  1.00  0.00     0.198 C 
BRANCH  21  22
HETATM   22  O3  UNL     1       3.332  51.481 -27.373  1.00  0.00    -0.398 OA
HETATM   23  H27 UNL     1       3.992  51.552 -28.084  1.00  0.00     0.209 HD
ENDBRANCH  21  22
ENDBRANCH  18  21
BRANCH  19  24
HETATM   24  O4  UNL     1       0.319  53.188 -25.054  1.00  0.00    -0.390 OA
HETATM   25  H29 UNL     1      -0.369  52.548 -24.777  1.00  0.00     0.210 HD
ENDBRANCH  19  24
BRANCH  20  26
HETATM   26  O5  UNL     1      -0.820  53.571 -28.500  1.00  0.00    -0.388 OA
HETATM   27  H31 UNL     1      -0.567  52.796 -29.038  1.00  0.00     0.210 HD
ENDBRANCH  20  26
ENDBRANCH  15  16
ENDBRANCH  14  15
ENDBRANCH   7  14
BRANCH   1  28
HETATM   28  C6  UNL     1      -2.574  51.206 -19.584  1.00  0.00     0.037 C 
BRANCH  28  29
HETATM   29  C5  UNL     1      -1.480  51.100 -18.545  1.00  0.00    -0.019 C 
HETATM   30  C3  UNL     1      -0.392  51.876 -18.357  1.00  0.00    -0.067 C 
HETATM   31  C4  UNL     1       0.567  51.531 -17.242  1.00  0.00     0.048 C 
BRANCH  30  32
HETATM   32  C2  UNL     1      -0.087  53.041 -19.178  1.00  0.00    -0.004 C 
HETATM   33  C1  UNL     1       1.054  53.265 -19.844  1.00  0.00     0.012 C 
ENDBRANCH  30  32
ENDBRANCH  28  29
ENDBRANCH   1  28
TORSDOF 10
ENDMDL
MODEL 2
REMARK minimizedAffinity -8.68322659
REMARK  10 active torsions:
REMARK  status: ('A' for Active; 'I' for Inactive)
REMARK    1  A    between atoms: C2_2  and  C3_3 
REMARK    2  A    between atoms: C5_5  and  C6_6 
REMARK    3  A    between atoms: C6_6  and  C7_7 
REMARK    4  A    between atoms: C13_13  and  C15_15 
REMARK    5  A    between atoms: C15_15  and  O1_16 
REMARK    6  A    between atoms: O1_16  and  C16_17 
REMARK    7  A    between atoms: C17_19  and  C18_20 
REMARK    8  A    between atoms: C18_20  and  O3_21 
REMARK    9  A    between atoms: C19_22  and  O4_23 
REMARK   10  A    between atoms: C20_24  and  O5_25 
ROOT
HETATM    1  C7  UNL     1      -2.883  49.613 -21.203  1.00  0.00     0.025 C 
HETATM    2  C8  UNL     1      -3.946  50.631 -21.569  1.00  0.00    -0.084 C 
HETATM    3  C9  UNL     1      -5.101  50.755 -20.895  1.00  0.00     0.015 C 
HETATM    4  C10 UNL     1      -3.595  51.501 -22.734  1.00  0.00     0.034 C 
HETATM    5  C11 UNL     1      -2.287  52.233 -22.472  1.00  0.00     0.010 C 
HETATM    6  C12 UNL     1      -1.083  51.336 -22.033  1.00  0.00     0.005 C 
HETATM    7  C13 UNL     1       0.184  52.244 -21.695  1.00  0.00    -0.018 C 
HETATM    8  C14 UNL     1       1.491  51.413 -21.703  1.00  0.00     0.018 C 
HETATM    9  C21 UNL     1       0.004  52.926 -20.314  1.00  0.00     0.012 C 
HETATM   10  C22 UNL     1      -0.431  51.989 -19.192  1.00  0.00     0.002 C 
HETATM   11  C23 UNL     1      -1.658  51.152 -19.553  1.00  0.00     0.010 C 
HETATM   12  C24 UNL     1      -1.507  50.339 -20.873  1.00  0.00    -0.032 C 
HETATM   13  C25 UNL     1      -0.466  49.215 -20.631  1.00  0.00     0.016 C 
ENDROOT
BRANCH   7  14
HETATM   14  C15 UNL     1       0.384  53.361 -22.771  1.00  0.00     0.180 C 
BRANCH  14  15
HETATM   15  O1  UNL     1      -0.365  53.073 -23.959  1.00  0.00    -0.358 OA
BRANCH  15  16
HETATM   16  C16 UNL     1       0.445  52.433 -24.946  1.00  0.00     0.291 C 
HETATM   17  O2  UNL     1       0.782  53.356 -25.989  1.00  0.00    -0.348 OA
HETATM   18  C17 UNL     1      -0.343  53.402 -26.911  1.00  0.00     0.179 C 
HETATM   19  C19 UNL     1      -1.244  52.202 -26.575  1.00  0.00     0.182 C 
HETATM   20  C20 UNL     1      -0.364  51.352 -25.666  1.00  0.00     0.204 C 
BRANCH  18  21
HETATM   21  C18 UNL     1       0.185  53.345 -28.348  1.00  0.00     0.198 C 
BRANCH  21  22
HETATM   22  O3  UNL     1      -0.024  52.044 -28.897  1.00  0.00    -0.398 OA
HETATM   23  H27 UNL     1       0.333  52.053 -29.801  1.00  0.00     0.209 HD
ENDBRANCH  21  22
ENDBRANCH  18  21
BRANCH  19  24
HETATM   24  O4  UNL     1      -2.413  52.645 -25.874  1.00  0.00    -0.390 OA
HETATM   25  H29 UNL     1      -2.116  53.009 -25.015  1.00  0.00     0.210 HD
ENDBRANCH  19  24
BRANCH  20  26
HETATM   26  O5  UNL     1       0.481  50.498 -26.449  1.00  0.00    -0.388 OA
HETATM   27  H31 UNL     1       1.252  51.022 -26.737  1.00  0.00     0.210 HD
ENDBRANCH  20  26
ENDBRANCH  15  16
ENDBRANCH  14  15
ENDBRANCH   7  14
BRANCH   1  28
HETATM   28  C6  UNL     1      -2.767  48.509 -22.304  1.00  0.00     0.037 C 
BRANCH  28  29
HETATM   29  C5  UNL     1      -4.027  48.341 -23.123  1.00  0.00    -0.019 C 
HETATM   30  C3  UNL     1      -4.213  48.471 -24.454  1.00  0.00    -0.067 C 
HETATM   31  C4  UNL     1      -5.599  48.267 -25.021  1.00  0.00     0.048 C 
BRANCH  30  32
HETATM   32  C2  UNL     1      -3.140  48.799 -25.385  1.00  0.00    -0.004 C 
HETATM   33  C1  UNL     1      -3.109  48.508 -26.693  1.00  0.00     0.012 C 
ENDBRANCH  30  32
ENDBRANCH  28  29
ENDBRANCH   1  28
TORSDOF 10
ENDMDL
MODEL 3
REMARK minimizedAffinity -8.49061203
REMARK  10 active torsions:
REMARK  status: ('A' for Active; 'I' for Inactive)
REMARK    1  A    between atoms: C2_2  and  C3_3 
REMARK    2  A    between atoms: C5_5  and  C6_6 
REMARK    3  A    between atoms: C6_6  and  C7_7 
REMARK    4  A    between atoms: C13_13  and  C15_15 
REMARK    5  A    between atoms: C15_15  and  O1_16 
REMARK    6  A    between atoms: O1_16  and  C16_17 
REMARK    7  A    between atoms: C17_19  and  C18_20 
REMARK    8  A    between atoms: C18_20  and  O3_21 
REMARK    9  A    between atoms: C19_22  and  O4_23 
REMARK   10  A    between atoms: C20_24  and  O5_25 
ROOT
HETATM    1  C7  UNL     1      -5.227  48.764 -22.472  1.00  0.00     0.025 C 
HETATM    2  C8  UNL     1      -6.097  49.986 -22.697  1.00  0.00    -0.084 C 
HETATM    3  C9  UNL     1      -7.347  50.091 -22.219  1.00  0.00     0.015 C 
HETATM    4  C10 UNL     1      -5.440  51.076 -23.483  1.00  0.00     0.034 C 
HETATM    5  C11 UNL     1      -4.149  51.514 -22.805  1.00  0.00     0.010 C 
HETATM    6  C12 UNL     1      -3.146  50.367 -22.451  1.00  0.00     0.005 C 
HETATM    7  C13 UNL     1      -1.896  50.957 -21.657  1.00  0.00    -0.018 C 
HETATM    8  C14 UNL     1      -0.694  49.978 -21.689  1.00  0.00     0.018 C 
HETATM    9  C21 UNL     1      -2.286  51.261 -20.188  1.00  0.00     0.012 C 
HETATM   10  C22 UNL     1      -3.021  50.130 -19.476  1.00  0.00     0.002 C 
HETATM   11  C23 UNL     1      -4.223  49.608 -20.265  1.00  0.00     0.010 C 
HETATM   12  C24 UNL     1      -3.885  49.168 -21.720  1.00  0.00    -0.032 C 
HETATM   13  C25 UNL     1      -3.021  47.881 -21.645  1.00  0.00     0.016 C 
ENDROOT
BRANCH   7  14
HETATM   14  C15 UNL     1      -1.381  52.281 -22.312  1.00  0.00     0.180 C 
BRANCH  14  15
HETATM   15  O1  UNL     1      -0.913  52.049 -23.647  1.00  0.00    -0.358 OA
BRANCH  15  16
HETATM   16  C16 UNL     1      -1.065  53.208 -24.465  1.00  0.00     0.291 C 
HETATM   17  O2  UNL     1      -1.653  52.856 -25.723  1.00  0.00    -0.348 OA
HETATM   18  C17 UNL     1      -0.585  52.364 -26.582  1.00  0.00     0.179 C 
HETATM   19  C19 UNL     1       0.742  52.758 -25.912  1.00  0.00     0.182 C 
HETATM   20  C20 UNL     1       0.309  53.762 -24.849  1.00  0.00     0.204 C 
BRANCH  18  21
HETATM   21  C18 UNL     1      -0.737  52.984 -27.974  1.00  0.00     0.198 C 
BRANCH  21  22
HETATM   22  O3  UNL     1      -1.927  53.769 -28.036  1.00  0.00    -0.398 OA
HETATM   23  H27 UNL     1      -1.985  54.133 -28.936  1.00  0.00     0.209 HD
ENDBRANCH  21  22
ENDBRANCH  18  21
BRANCH  19  24
HETATM   24  O4  UNL     1       1.347  51.610 -25.304  1.00  0.00    -0.390 OA
HETATM   25  H29 UNL     1       0.754  51.318 -24.580  1.00  0.00     0.210 HD
ENDBRANCH  19  24
BRANCH  20  26
HETATM   26  O5  UNL     1       0.207  55.074 -25.418  1.00  0.00    -0.388 OA
HETATM   27  H31 UNL     1      -0.660  55.141 -25.861  1.00  0.00     0.210 HD
ENDBRANCH  20  26
ENDBRANCH  15  16
ENDBRANCH  14  15
ENDBRANCH   7  14
BRANCH   1  28
HETATM   28  C6  UNL     1      -4.993  47.992 -23.811  1.00  0.00     0.037 C 
BRANCH  28  29
HETATM   29  C5  UNL     1      -3.824  48.519 -24.613  1.00  0.00    -0.019 C 
HETATM   30  C3  UNL     1      -3.668  48.607 -25.951  1.00  0.00    -0.067 C 
HETATM   31  C4  UNL     1      -2.374  49.160 -26.500  1.00  0.00     0.048 C 
BRANCH  30  32
HETATM   32  C2  UNL     1      -4.688  48.193 -26.907  1.00  0.00    -0.004 C 
HETATM   33  C1  UNL     1      -4.644  48.359 -28.235  1.00  0.00     0.012 C 
ENDBRANCH  30  32
ENDBRANCH  28  29
ENDBRANCH   1  28
TORSDOF 10
ENDMDL
MODEL 4
REMARK minimizedAffinity -8.46246624
REMARK  10 active torsions:
REMARK  status: ('A' for Active; 'I' for Inactive)
REMARK    1  A    between atoms: C2_2  and  C3_3 
REMARK    2  A    between atoms: C5_5  and  C6_6 
REMARK    3  A    between atoms: C6_6  and  C7_7 
REMARK    4  A    between atoms: C13_13  and  C15_15 
REMARK    5  A    between atoms: C15_15  and  O1_16 
REMARK    6  A    between atoms: O1_16  and  C16_17 
REMARK    7  A    between atoms: C17_19  and  C18_20 
REMARK    8  A    between atoms: C18_20  and  O3_21 
REMARK    9  A    between atoms: C19_22  and  O4_23 
REMARK   10  A    between atoms: C20_24  and  O5_25 
ROOT
HETATM    1  C7  UNL     1      -1.261  51.782 -24.958  1.00  0.00     0.025 C 
HETATM    2  C8  UNL     1      -0.273  52.569 -24.119  1.00  0.00    -0.084 C 
HETATM    3  C9  UNL     1       0.118  53.816 -24.428  1.00  0.00     0.015 C 
HETATM    4  C10 UNL     1       0.219  51.848 -22.904  1.00  0.00     0.034 C 
HETATM    5  C11 UNL     1      -0.951  51.437 -22.023  1.00  0.00     0.010 C 
HETATM    6  C12 UNL     1      -2.098  50.651 -22.741  1.00  0.00     0.005 C 
HETATM    7  C13 UNL     1      -3.296  50.379 -21.725  1.00  0.00    -0.018 C 
HETATM    8  C14 UNL     1      -4.220  49.243 -22.233  1.00  0.00     0.018 C 
HETATM    9  C21 UNL     1      -4.124  51.672 -21.510  1.00  0.00     0.012 C 
HETATM   10  C22 UNL     1      -4.523  52.395 -22.793  1.00  0.00     0.002 C 
HETATM   11  C23 UNL     1      -3.340  52.650 -23.728  1.00  0.00     0.010 C 
HETATM   12  C24 UNL     1      -2.527  51.372 -24.088  1.00  0.00    -0.032 C 
HETATM   13  C25 UNL     1      -3.412  50.478 -24.996  1.00  0.00     0.016 C 
ENDROOT
BRANCH   7  14
HETATM   14  C15 UNL     1      -2.763  49.902 -20.333  1.00  0.00     0.180 C 
BRANCH  14  15
HETATM   15  O1  UNL     1      -1.599  50.643 -19.946  1.00  0.00    -0.358 OA
BRANCH  15  16
HETATM   16  C16 UNL     1      -1.838  51.419 -18.772  1.00  0.00     0.291 C 
HETATM   17  O2  UNL     1      -0.628  52.051 -18.337  1.00  0.00    -0.348 OA
HETATM   18  C17 UNL     1       0.121  51.072 -17.562  1.00  0.00     0.179 C 
HETATM   19  C19 UNL     1      -0.847  49.920 -17.247  1.00  0.00     0.182 C 
HETATM   20  C20 UNL     1      -2.209  50.503 -17.604  1.00  0.00     0.204 C 
BRANCH  18  21
HETATM   21  C18 UNL     1       0.657  51.742 -16.293  1.00  0.00     0.198 C 
BRANCH  21  22
HETATM   22  O3  UNL     1       1.183  53.032 -16.603  1.00  0.00    -0.398 OA
HETATM   23  H27 UNL     1       1.517  53.413 -15.773  1.00  0.00     0.209 HD
ENDBRANCH  21  22
ENDBRANCH  18  21
BRANCH  19  24
HETATM   24  O4  UNL     1      -0.550  48.787 -18.074  1.00  0.00    -0.390 OA
HETATM   25  H29 UNL     1      -0.733  49.048 -19.000  1.00  0.00     0.210 HD
ENDBRANCH  19  24
BRANCH  20  26
HETATM   26  O5  UNL     1      -2.736  51.248 -16.498  1.00  0.00    -0.388 OA
HETATM   27  H31 UNL     1      -2.331  52.135 -16.515  1.00  0.00     0.210 HD
ENDBRANCH  20  26
ENDBRANCH  15  16
ENDBRANCH  14  15
ENDBRANCH   7  14
BRANCH   1  28
HETATM   28  C6  UNL     1      -0.558  50.575 -25.660  1.00  0.00     0.037 C 
BRANCH  28  29
HETATM   29  C5  UNL     1       0.807  50.914 -26.216  1.00  0.00    -0.019 C 
HETATM   30  C3  UNL     1       1.137  51.621 -27.318  1.00  0.00    -0.067 C 
HETATM   31  C4  UNL     1       2.597  51.795 -27.663  1.00  0.00     0.048 C 
BRANCH  30  32
HETATM   32  C2  UNL     1       0.152  52.232 -28.203  1.00  0.00    -0.004 C 
HETATM   33  C1  UNL     1      -0.293  53.494 -28.141  1.00  0.00     0.012 C 
ENDBRANCH  30  32
ENDBRANCH  28  29
ENDBRANCH   1  28
TORSDOF 10
ENDMDL
MODEL 5
REMARK minimizedAffinity -8.37692165
REMARK  10 active torsions:
REMARK  status: ('A' for Active; 'I' for Inactive)
REMARK    1  A    between atoms: C2_2  and  C3_3 
REMARK    2  A    between atoms: C5_5  and  C6_6 
REMARK    3  A    between atoms: C6_6  and  C7_7 
REMARK    4  A    between atoms: C13_13  and  C15_15 
REMARK    5  A    between atoms: C15_15  and  O1_16 
REMARK    6  A    between atoms: O1_16  and  C16_17 
REMARK    7  A    between atoms: C17_19  and  C18_20 
REMARK    8  A    between atoms: C18_20  and  O3_21 
REMARK    9  A    between atoms: C19_22  and  O4_23 
REMARK   10  A    between atoms: C20_24  and  O5_25 
ROOT
HETATM    1  C7  UNL     1      -3.059  48.649 -20.108  1.00  0.00     0.025 C 
HETATM    2  C8  UNL     1      -2.851  47.378 -20.909  1.00  0.00    -0.084 C 
HETATM    3  C9  UNL     1      -3.357  46.191 -20.539  1.00  0.00     0.015 C 
HETATM    4  C10 UNL     1      -2.049  47.559 -22.159  1.00  0.00     0.034 C 
HETATM    5  C11 UNL     1      -2.698  48.603 -23.057  1.00  0.00     0.010 C 
HETATM    6  C12 UNL     1      -3.031  49.971 -22.377  1.00  0.00     0.005 C 
HETATM    7  C13 UNL     1      -3.796  50.922 -23.402  1.00  0.00    -0.018 C 
HETATM    8  C14 UNL     1      -3.740  52.403 -22.949  1.00  0.00     0.018 C 
HETATM    9  C21 UNL     1      -5.274  50.475 -23.552  1.00  0.00     0.012 C 
HETATM   10  C22 UNL     1      -6.003  50.235 -22.234  1.00  0.00     0.002 C 
HETATM   11  C23 UNL     1      -5.242  49.304 -21.290  1.00  0.00     0.010 C 
HETATM   12  C24 UNL     1      -3.780  49.754 -20.995  1.00  0.00    -0.032 C 
HETATM   13  C25 UNL     1      -3.838  51.041 -20.130  1.00  0.00     0.016 C 
ENDROOT
BRANCH   7  14
HETATM   14  C15 UNL     1      -3.128  50.886 -24.817  1.00  0.00     0.180 C 
BRANCH  14  15
HETATM   15  O1  UNL     1      -1.705  51.030 -24.719  1.00  0.00    -0.358 OA
BRANCH  15  16
HETATM   16  C16 UNL     1      -1.306  52.393 -24.862  1.00  0.00     0.291 C 
HETATM   17  O2  UNL     1      -1.815  52.935 -26.087  1.00  0.00    -0.348 OA
HETATM   18  C17 UNL     1      -0.907  52.534 -27.152  1.00  0.00     0.179 C 
HETATM   19  C19 UNL     1       0.372  52.016 -26.475  1.00  0.00     0.182 C 
HETATM   20  C20 UNL     1       0.212  52.479 -25.031  1.00  0.00     0.204 C 
BRANCH  18  21
HETATM   21  C18 UNL     1      -0.635  53.740 -28.057  1.00  0.00     0.198 C 
BRANCH  21  22
HETATM   22  O3  UNL     1      -1.865  54.340 -28.460  1.00  0.00    -0.398 OA
HETATM   23  H27 UNL     1      -1.644  55.091 -29.037  1.00  0.00     0.209 HD
ENDBRANCH  21  22
ENDBRANCH  18  21
BRANCH  19  24
HETATM   24  O4  UNL     1       0.420  50.585 -26.543  1.00  0.00    -0.390 OA
HETATM   25  H29 UNL     1      -0.326  50.243 -26.009  1.00  0.00     0.210 HD
ENDBRANCH  19  24
BRANCH  20  26
HETATM   26  O5  UNL     1       0.683  53.825 -24.887  1.00  0.00    -0.388 OA
HETATM   27  H31 UNL     1      -0.031  54.424 -25.177  1.00  0.00     0.210 HD
ENDBRANCH  20  26
ENDBRANCH  15  16
ENDBRANCH  14  15
ENDBRANCH   7  14
BRANCH   1  28
HETATM   28  C6  UNL     1      -1.716  49.130 -19.467  1.00  0.00     0.037 C 
BRANCH  28  29
HETATM   29  C5  UNL     1      -0.804  49.838 -20.444  1.00  0.00    -0.019 C 
HETATM   30  C3  UNL     1      -0.233  51.058 -20.359  1.00  0.00    -0.067 C 
HETATM   31  C4  UNL     1       0.630  51.541 -21.501  1.00  0.00     0.048 C 
BRANCH  30  32
HETATM   32  C2  UNL     1      -0.403  51.945 -19.215  1.00  0.00    -0.004 C 
HETATM   33  C1  UNL     1       0.186  53.136 -19.041  1.00  0.00     0.012 C 
ENDBRANCH  30  32
ENDBRANCH  28  29
ENDBRANCH   1  28
TORSDOF 10
ENDMDL
MODEL 6
REMARK minimizedAffinity -8.27010441
REMARK  10 active torsions:
REMARK  status: ('A' for Active; 'I' for Inactive)
REMARK    1  A    between atoms: C2_2  and  C3_3 
REMARK    2  A    between atoms: C5_5  and  C6_6 
REMARK    3  A    between atoms: C6_6  and  C7_7 
REMARK    4  A    between atoms: C13_13  and  C15_15 
REMARK    5  A    between atoms: C15_15  and  O1_16 
REMARK    6  A    between atoms: O1_16  and  C16_17 
REMARK    7  A    between atoms: C17_19  and  C18_20 
REMARK    8  A    between atoms: C18_20  and  O3_21 
REMARK    9  A    between atoms: C19_22  and  O4_23 
REMARK   10  A    between atoms: C20_24  and  O5_25 
ROOT
HETATM    1  C7  UNL     1      -3.122  49.881 -19.662  1.00  0.00     0.025 C 
HETATM    2  C8  UNL     1      -2.044  48.815 -19.639  1.00  0.00    -0.084 C 
HETATM    3  C9  UNL     1      -1.892  47.951 -18.623  1.00  0.00     0.015 C 
HETATM    4  C10 UNL     1      -1.171  48.792 -20.854  1.00  0.00     0.034 C 
HETATM    5  C11 UNL     1      -2.014  48.608 -22.108  1.00  0.00     0.010 C 
HETATM    6  C12 UNL     1      -3.212  49.600 -22.271  1.00  0.00     0.005 C 
HETATM    7  C13 UNL     1      -4.062  49.226 -23.567  1.00  0.00    -0.018 C 
HETATM    8  C14 UNL     1      -4.952  50.411 -24.020  1.00  0.00     0.018 C 
HETATM    9  C21 UNL     1      -4.946  47.982 -23.290  1.00  0.00     0.012 C 
HETATM   10  C22 UNL     1      -5.747  48.045 -21.994  1.00  0.00     0.002 C 
HETATM   11  C23 UNL     1      -4.889  48.389 -20.776  1.00  0.00     0.010 C 
HETATM   12  C24 UNL     1      -4.059  49.698 -20.933  1.00  0.00    -0.032 C 
HETATM   13  C25 UNL     1      -5.045  50.896 -20.927  1.00  0.00     0.016 C 
ENDROOT
BRANCH   7  14
HETATM   14  C15 UNL     1      -3.132  48.904 -24.783  1.00  0.00     0.180 C 
BRANCH  14  15
HETATM   15  O1  UNL     1      -2.297  50.025 -25.103  1.00  0.00    -0.358 OA
BRANCH  15  16
HETATM   16  C16 UNL     1      -1.991  50.069 -26.497  1.00  0.00     0.291 C 
HETATM   17  O2  UNL     1      -0.755  50.762 -26.714  1.00  0.00    -0.348 OA
HETATM   18  C17 UNL     1      -1.048  52.188 -26.711  1.00  0.00     0.179 C 
HETATM   19  C19 UNL     1      -2.575  52.329 -26.832  1.00  0.00     0.182 C 
HETATM   20  C20 UNL     1      -3.021  50.927 -27.233  1.00  0.00     0.204 C 
BRANCH  18  21
HETATM   21  C18 UNL     1      -0.312  52.852 -27.878  1.00  0.00     0.198 C 
BRANCH  21  22
HETATM   22  O3  UNL     1      -0.570  54.255 -27.888  1.00  0.00    -0.398 OA
HETATM   23  H27 UNL     1      -0.092  54.631 -28.647  1.00  0.00     0.209 HD
ENDBRANCH  21  22
ENDBRANCH  18  21
BRANCH  19  24
HETATM   24  O4  UNL     1      -3.137  52.694 -25.565  1.00  0.00    -0.390 OA
HETATM   25  H29 UNL     1      -2.982  51.946 -24.952  1.00  0.00     0.210 HD
ENDBRANCH  19  24
BRANCH  20  26
HETATM   26  O5  UNL     1      -2.925  50.763 -28.654  1.00  0.00    -0.388 OA
HETATM   27  H31 UNL     1      -1.997  50.548 -28.867  1.00  0.00     0.210 HD
ENDBRANCH  20  26
ENDBRANCH  15  16
ENDBRANCH  14  15
ENDBRANCH   7  14
BRANCH   1  28
HETATM   28  C6  UNL     1      -2.496  51.309 -19.538  1.00  0.00     0.037 C 
BRANCH  28  29
HETATM   29  C5  UNL     1      -1.424  51.586 -20.568  1.00  0.00    -0.019 C 
HETATM   30  C3  UNL     1      -0.316  52.352 -20.473  1.00  0.00    -0.067 C 
HETATM   31  C4  UNL     1       0.590  52.478 -21.676  1.00  0.00     0.048 C 
BRANCH  30  32
HETATM   32  C2  UNL     1       0.059  53.072 -19.262  1.00  0.00    -0.004 C 
HETATM   33  C1  UNL     1       0.764  52.580 -18.234  1.00  0.00     0.012 C 
ENDBRANCH  30  32
ENDBRANCH  28  29
ENDBRANCH   1  28
TORSDOF 10
ENDMDL
MODEL 7
REMARK minimizedAffinity -8.15139103
REMARK  10 active torsions:
REMARK  status: ('A' for Active; 'I' for Inactive)
REMARK    1  A    between atoms: C2_2  and  C3_3 
REMARK    2  A    between atoms: C5_5  and  C6_6 
REMARK    3  A    between atoms: C6_6  and  C7_7 
REMARK    4  A    between atoms: C13_13  and  C15_15 
REMARK    5  A    between atoms: C15_15  and  O1_16 
REMARK    6  A    between atoms: O1_16  and  C16_17 
REMARK    7  A    between atoms: C17_19  and  C18_20 
REMARK    8  A    between atoms: C18_20  and  O3_21 
REMARK    9  A    between atoms: C19_22  and  O4_23 
REMARK   10  A    between atoms: C20_24  and  O5_25 
ROOT
HETATM    1  C7  UNL     1      -1.389  51.810 -25.114  1.00  0.00     0.025 C 
HETATM    2  C8  UNL     1      -0.305  52.430 -24.254  1.00  0.00    -0.084 C 
HETATM    3  C9  UNL     1       0.116  53.696 -24.409  1.00  0.00     0.015 C 
HETATM    4  C10 UNL     1       0.246  51.521 -23.201  1.00  0.00     0.034 C 
HETATM    5  C11 UNL     1      -0.871  51.022 -22.295  1.00  0.00     0.010 C 
HETATM    6  C12 UNL     1      -2.103  50.390 -23.023  1.00  0.00     0.005 C 
HETATM    7  C13 UNL     1      -3.231  50.009 -21.962  1.00  0.00    -0.018 C 
HETATM    8  C14 UNL     1      -4.241  48.993 -22.553  1.00  0.00     0.018 C 
HETATM    9  C21 UNL     1      -3.982  51.283 -21.494  1.00  0.00     0.012 C 
HETATM   10  C22 UNL     1      -4.445  52.200 -22.621  1.00  0.00     0.002 C 
HETATM   11  C23 UNL     1      -3.327  52.553 -23.603  1.00  0.00     0.010 C 
HETATM   12  C24 UNL     1      -2.601  51.316 -24.211  1.00  0.00    -0.032 C 
HETATM   13  C25 UNL     1      -3.592  50.597 -25.164  1.00  0.00     0.016 C 
ENDROOT
BRANCH   7  14
HETATM   14  C15 UNL     1      -2.615  49.313 -20.704  1.00  0.00     0.180 C 
BRANCH  14  15
HETATM   15  O1  UNL     1      -3.236  49.782 -19.499  1.00  0.00    -0.358 OA
BRANCH  15  16
HETATM   16  C16 UNL     1      -2.727  49.105 -18.350  1.00  0.00     0.291 C 
HETATM   17  O2  UNL     1      -3.340  49.616 -17.160  1.00  0.00    -0.348 OA
HETATM   18  C17 UNL     1      -2.626  50.829 -16.788  1.00  0.00     0.179 C 
HETATM   19  C19 UNL     1      -1.325  50.849 -17.607  1.00  0.00     0.182 C 
HETATM   20  C20 UNL     1      -1.244  49.432 -18.163  1.00  0.00     0.204 C 
BRANCH  18  21
HETATM   21  C18 UNL     1      -2.361  50.811 -15.279  1.00  0.00     0.198 C 
BRANCH  21  22
HETATM   22  O3  UNL     1      -3.460  50.213 -14.594  1.00  0.00    -0.398 OA
HETATM   23  H27 UNL     1      -3.251  50.231 -13.644  1.00  0.00     0.209 HD
ENDBRANCH  21  22
ENDBRANCH  18  21
BRANCH  19  24
HETATM   24  O4  UNL     1      -1.427  51.804 -18.671  1.00  0.00    -0.390 OA
HETATM   25  H29 UNL     1      -2.126  51.486 -19.280  1.00  0.00     0.210 HD
ENDBRANCH  19  24
BRANCH  20  26
HETATM   26  O5  UNL     1      -0.629  48.557 -17.208  1.00  0.00    -0.388 OA
HETATM   27  H31 UNL     1      -1.313  48.287 -16.567  1.00  0.00     0.210 HD
ENDBRANCH  20  26
ENDBRANCH  15  16
ENDBRANCH  14  15
ENDBRANCH   7  14
BRANCH   1  28
HETATM   28  C6  UNL     1      -0.796  50.698 -26.039  1.00  0.00     0.037 C 
BRANCH  28  29
HETATM   29  C5  UNL     1       0.648  50.937 -26.419  1.00  0.00    -0.019 C 
HETATM   30  C3  UNL     1       1.163  51.704 -27.403  1.00  0.00    -0.067 C 
HETATM   31  C4  UNL     1       2.663  51.751 -27.582  1.00  0.00     0.048 C 
BRANCH  30  32
HETATM   32  C2  UNL     1       0.346  52.498 -28.312  1.00  0.00    -0.004 C 
HETATM   33  C1  UNL     1      -0.189  53.699 -28.054  1.00  0.00     0.012 C 
ENDBRANCH  30  32
ENDBRANCH  28  29
ENDBRANCH   1  28
TORSDOF 10
ENDMDL
MODEL 8
REMARK minimizedAffinity -8.14199638
REMARK  10 active torsions:
REMARK  status: ('A' for Active; 'I' for Inactive)
REMARK    1  A    between atoms: C2_2  and  C3_3 
REMARK    2  A    between atoms: C5_5  and  C6_6 
REMARK    3  A    between atoms: C6_6  and  C7_7 
REMARK    4  A    between atoms: C13_13  and  C15_15 
REMARK    5  A    between atoms: C15_15  and  O1_16 
REMARK    6  A    between atoms: O1_16  and  C16_17 
REMARK    7  A    between atoms: C17_19  and  C18_20 
REMARK    8  A    between atoms: C18_20  and  O3_21 
REMARK    9  A    between atoms: C19_22  and  O4_23 
REMARK   10  A    between atoms: C20_24  and  O5_25 
ROOT
HETATM    1  C7  UNL     1      -3.489  49.978 -24.792  1.00  0.00     0.025 C 
HETATM    2  C8  UNL     1      -2.620  51.167 -25.150  1.00  0.00    -0.084 C 
HETATM    3  C9  UNL     1      -3.051  52.184 -25.914  1.00  0.00     0.015 C 
HETATM    4  C10 UNL     1      -1.243  51.125 -24.566  1.00  0.00     0.034 C 
HETATM    5  C11 UNL     1      -1.314  51.012 -23.050  1.00  0.00     0.010 C 
HETATM    6  C12 UNL     1      -2.216  49.858 -22.498  1.00  0.00     0.005 C 
HETATM    7  C13 UNL     1      -2.278  49.924 -20.906  1.00  0.00    -0.018 C 
HETATM    8  C14 UNL     1      -2.758  48.580 -20.304  1.00  0.00     0.018 C 
HETATM    9  C21 UNL     1      -3.220  51.069 -20.451  1.00  0.00     0.012 C 
HETATM   10  C22 UNL     1      -4.577  51.093 -21.148  1.00  0.00     0.002 C 
HETATM   11  C23 UNL     1      -4.468  51.046 -22.672  1.00  0.00     0.010 C 
HETATM   12  C24 UNL     1      -3.632  49.848 -23.213  1.00  0.00    -0.032 C 
HETATM   13  C25 UNL     1      -4.433  48.546 -22.951  1.00  0.00     0.016 C 
ENDROOT
BRANCH   7  14
HETATM   14  C15 UNL     1      -0.862  50.182 -20.293  1.00  0.00     0.180 C 
BRANCH  14  15
HETATM   15  O1  UNL     1      -0.799  49.734 -18.933  1.00  0.00    -0.358 OA
BRANCH  15  16
HETATM   16  C16 UNL     1      -1.195  50.762 -18.024  1.00  0.00     0.291 C 
HETATM   17  O2  UNL     1      -0.083  51.612 -17.720  1.00  0.00    -0.348 OA
HETATM   18  C17 UNL     1       0.694  50.959 -16.676  1.00  0.00     0.179 C 
HETATM   19  C19 UNL     1      -0.184  49.833 -16.107  1.00  0.00     0.182 C 
HETATM   20  C20 UNL     1      -1.564  50.150 -16.671  1.00  0.00     0.204 C 
BRANCH  18  21
HETATM   21  C18 UNL     1       1.071  51.993 -15.611  1.00  0.00     0.198 C 
BRANCH  21  22
HETATM   22  O3  UNL     1       1.465  53.216 -16.231  1.00  0.00    -0.398 OA
HETATM   23  H27 UNL     1       1.702  53.836 -15.521  1.00  0.00     0.209 HD
ENDBRANCH  21  22
ENDBRANCH  18  21
BRANCH  19  24
HETATM   24  O4  UNL     1       0.275  48.561 -16.585  1.00  0.00    -0.390 OA
HETATM   25  H29 UNL     1       0.137  48.548 -17.554  1.00  0.00     0.210 HD
ENDBRANCH  19  24
BRANCH  20  26
HETATM   26  O5  UNL     1      -2.238  51.098 -15.832  1.00  0.00    -0.388 OA
HETATM   27  H31 UNL     1      -1.915  51.988 -16.068  1.00  0.00     0.210 HD
ENDBRANCH  20  26
ENDBRANCH  15  16
ENDBRANCH  14  15
ENDBRANCH   7  14
BRANCH   1  28
HETATM   28  C6  UNL     1      -2.970  48.678 -25.488  1.00  0.00     0.037 C 
BRANCH  28  29
HETATM   29  C5  UNL     1      -3.497  48.497 -26.894  1.00  0.00    -0.019 C 
HETATM   30  C3  UNL     1      -4.737  48.164 -27.312  1.00  0.00    -0.067 C 
HETATM   31  C4  UNL     1      -4.995  48.026 -28.794  1.00  0.00     0.048 C 
BRANCH  30  32
HETATM   32  C2  UNL     1      -5.853  47.929 -26.404  1.00  0.00    -0.004 C 
HETATM   33  C1  UNL     1      -7.055  47.438 -26.736  1.00  0.00     0.012 C 
ENDBRANCH  30  32
ENDBRANCH  28  29
ENDBRANCH   1  28
TORSDOF 10
ENDMDL
MODEL 9
REMARK minimizedAffinity -8.12217045
REMARK  10 active torsions:
REMARK  status: ('A' for Active; 'I' for Inactive)
REMARK    1  A    between atoms: C2_2  and  C3_3 
REMARK    2  A    between atoms: C5_5  and  C6_6 
REMARK    3  A    between atoms: C6_6  and  C7_7 
REMARK    4  A    between atoms: C13_13  and  C15_15 
REMARK    5  A    between atoms: C15_15  and  O1_16 
REMARK    6  A    between atoms: O1_16  and  C16_17 
REMARK    7  A    between atoms: C17_19  and  C18_20 
REMARK    8  A    between atoms: C18_20  and  O3_21 
REMARK    9  A    between atoms: C19_22  and  O4_23 
REMARK   10  A    between atoms: C20_24  and  O5_25 
ROOT
HETATM    1  C7  UNL     1      -2.282  49.041 -19.200  1.00  0.00     0.025 C 
HETATM    2  C8  UNL     1      -2.708  47.697 -19.758  1.00  0.00    -0.084 C 
HETATM    3  C9  UNL     1      -3.616  46.911 -19.158  1.00  0.00     0.015 C 
HETATM    4  C10 UNL     1      -2.044  47.324 -21.046  1.00  0.00     0.034 C 
HETATM    5  C11 UNL     1      -2.296  48.393 -22.100  1.00  0.00     0.010 C 
HETATM    6  C12 UNL     1      -1.956  49.859 -21.674  1.00  0.00     0.005 C 
HETATM    7  C13 UNL     1      -2.366  50.876 -22.832  1.00  0.00    -0.018 C 
HETATM    8  C14 UNL     1      -1.652  52.241 -22.663  1.00  0.00     0.018 C 
HETATM    9  C21 UNL     1      -3.902  51.085 -22.846  1.00  0.00     0.012 C 
HETATM   10  C22 UNL     1      -4.517  51.385 -21.483  1.00  0.00     0.002 C 
HETATM   11  C23 UNL     1      -4.112  50.375 -20.409  1.00  0.00     0.010 C 
HETATM   12  C24 UNL     1      -2.573  50.198 -20.252  1.00  0.00    -0.032 C 
HETATM   13  C25 UNL     1      -1.998  51.502 -19.639  1.00  0.00     0.016 C 
ENDROOT
BRANCH   7  14
HETATM   14  C15 UNL     1      -1.931  50.341 -24.237  1.00  0.00     0.180 C 
BRANCH  14  15
HETATM   15  O1  UNL     1      -0.806  51.071 -24.741  1.00  0.00    -0.358 OA
BRANCH  15  16
HETATM   16  C16 UNL     1      -0.718  50.983 -26.163  1.00  0.00     0.291 C 
HETATM   17  O2  UNL     1       0.593  50.561 -26.556  1.00  0.00    -0.348 OA
HETATM   18  C17 UNL     1       1.449  51.738 -26.555  1.00  0.00     0.179 C 
HETATM   19  C19 UNL     1       0.522  52.963 -26.482  1.00  0.00     0.182 C 
HETATM   20  C20 UNL     1      -0.852  52.376 -26.783  1.00  0.00     0.204 C 
BRANCH  18  21
HETATM   21  C18 UNL     1       2.305  51.736 -27.826  1.00  0.00     0.198 C 
BRANCH  21  22
HETATM   22  O3  UNL     1       3.605  52.252 -27.544  1.00  0.00    -0.398 OA
HETATM   23  H27 UNL     1       4.107  52.239 -28.376  1.00  0.00     0.209 HD
ENDBRANCH  21  22
ENDBRANCH  18  21
BRANCH  19  24
HETATM   24  O4  UNL     1       0.552  53.525 -25.164  1.00  0.00    -0.390 OA
HETATM   25  H29 UNL     1       0.170  52.859 -24.555  1.00  0.00     0.210 HD
ENDBRANCH  19  24
BRANCH  20  26
HETATM   26  O5  UNL     1      -1.062  52.303 -28.200  1.00  0.00    -0.388 OA
HETATM   27  H31 UNL     1      -0.624  51.494 -28.525  1.00  0.00     0.210 HD
ENDBRANCH  20  26
ENDBRANCH  15  16
ENDBRANCH  14  15
ENDBRANCH   7  14
BRANCH   1  28
HETATM   28  C6  UNL     1      -0.800  48.994 -18.705  1.00  0.00     0.037 C 
BRANCH  28  29
HETATM   29  C5  UNL     1      -0.669  48.971 -17.199  1.00  0.00    -0.019 C 
HETATM   30  C3  UNL     1      -0.195  49.917 -16.361  1.00  0.00    -0.067 C 
HETATM   31  C4  UNL     1      -0.154  49.626 -14.879  1.00  0.00     0.048 C 
BRANCH  30  32
HETATM   32  C2  UNL     1       0.283  51.219 -16.810  1.00  0.00    -0.004 C 
HETATM   33  C1  UNL     1       1.516  51.714 -16.637  1.00  0.00     0.012 C 
ENDBRANCH  30  32
ENDBRANCH  28  29
ENDBRANCH   1  28
TORSDOF 10
ENDMDL
