MODEL 1
REMARK minimizedAffinity -6.41993952
REMARK CNNscore 0.511691153
REMARK CNNaffinity 6.67284155
REMARK  11 active torsions:
REMARK  status: ('A' for Active; 'I' for Inactive)
REMARK    1  A    between atoms: C2_2  and  C3_3 
REMARK    2  A    between atoms: C2_2  and  C4_5 
REMARK    3  A    between atoms: C3_3  and  O1_4 
REMARK    4  A    between atoms: C13_14  and  C14_15 
REMARK    5  A    between atoms: C14_15  and  C16_17 
REMARK    6  A    between atoms: C16_17  and  C17_18 
REMARK    7  A    between atoms: C17_18  and  C18_19 
REMARK    8  A    between atoms: C27_28  and  C28_29 
REMARK    9  A    between atoms: C28_29  and  C29_30 
REMARK   10  A    between atoms: C29_30  and  C30_31 
REMARK   11  A    between atoms: C30_31  and  O3_33 
ROOT
HETATM    1  C4  UNL     1       3.400  57.934  -6.084  1.00  0.00     0.025 C 
HETATM    2  C5  UNL     1       1.960  57.373  -6.233  1.00  0.00     0.010 C 
HETATM    3  C6  UNL     1       1.690  56.494  -7.458  1.00  0.00     0.007 C 
HETATM    4  C7  UNL     1       2.899  56.344  -8.377  1.00  0.00     0.004 C 
HETATM    5  C8  UNL     1       4.172  55.924  -7.610  1.00  0.00    -0.027 A 
HETATM    6  C9  UNL     1       5.246  55.303  -8.501  1.00  0.00     0.011 C 
HETATM    7  C10 UNL     1       4.759  54.107  -9.345  1.00  0.00     0.011 C 
HETATM    8  C11 UNL     1       3.231  54.028  -9.532  1.00  0.00    -0.032 C 
HETATM    9  C12 UNL     1       2.626  53.226  -8.342  1.00  0.00     0.016 C 
HETATM   10  C13 UNL     1       2.732  53.372 -10.867  1.00  0.00    -0.002 C 
HETATM   11  C22 UNL     1       1.305  53.980 -11.029  1.00  0.00     0.006 C 
HETATM   12  C23 UNL     1       1.207  55.197 -10.088  1.00  0.00     0.011 C 
HETATM   13  C24 UNL     1       2.659  55.486  -9.667  1.00  0.00    -0.032 C 
HETATM   14  C25 UNL     1       3.278  56.298 -10.863  1.00  0.00     0.016 C 
HETATM   15  C26 UNL     1       4.223  55.449  -6.163  1.00  0.00     0.022 A 
HETATM   16  C27 UNL     1       4.514  56.902  -6.441  1.00  0.00    -0.024 A 
ENDROOT
BRANCH  10  17
HETATM   17  C14 UNL     1       2.731  51.820 -11.032  1.00  0.00    -0.014 C 
HETATM   18  C15 UNL     1       4.150  51.242 -11.039  1.00  0.00     0.010 C 
BRANCH  17  19
HETATM   19  C16 UNL     1       1.988  51.426 -12.340  1.00  0.00     0.008 C 
BRANCH  19  20
HETATM   20  C17 UNL     1       2.905  51.251 -13.555  1.00  0.00     0.028 C 
BRANCH  20  21
HETATM   21  C18 UNL     1       2.227  51.706 -14.820  1.00  0.00    -0.025 C 
HETATM   22  C19 UNL     1       2.811  52.195 -15.932  1.00  0.00    -0.091 C 
HETATM   23  C20 UNL     1       1.982  52.589 -17.125  1.00  0.00     0.042 C 
HETATM   24  C21 UNL     1       4.288  52.418 -16.100  1.00  0.00     0.042 C 
ENDBRANCH  20  21
ENDBRANCH  19  20
ENDBRANCH  17  19
ENDBRANCH  10  17
BRANCH  16  25
HETATM   25  C28 UNL     1       5.948  57.457  -6.473  1.00  0.00     0.021 C 
BRANCH  25  26
HETATM   26  C29 UNL     1       6.902  57.140  -5.324  1.00  0.00     0.111 C 
BRANCH  26  27
HETATM   27  C30 UNL     1       7.431  58.342  -4.590  1.00  0.00     0.139 C 
HETATM   28  O2  UNL     1       8.264  59.150  -4.958  1.00  0.00    -0.650 OA
BRANCH  27  29
HETATM   29  O3  UNL     1       6.884  58.454  -3.362  1.00  0.00    -0.776 OA
HETATM   30  H48 UNL     1       7.321  59.244  -2.979  1.00  0.00     0.167 HD
ENDBRANCH  27  29
ENDBRANCH  26  27
ENDBRANCH  25  26
ENDBRANCH  16  25
BRANCH   1  31
HETATM   31  C2  UNL     1       3.498  58.591  -4.706  1.00  0.00    -0.061 C 
HETATM   32  C1  UNL     1       3.892  59.876  -4.596  1.00  0.00     0.017 C 
BRANCH  31  33
HETATM   33  C3  UNL     1       3.134  57.736  -3.513  1.00  0.00     0.198 C 
BRANCH  33  34
HETATM   34  O1  UNL     1       2.038  58.291  -2.792  1.00  0.00    -0.397 OA
HETATM   35  H5  UNL     1       1.932  57.739  -2.003  1.00  0.00     0.209 HD
ENDBRANCH  33  34
ENDBRANCH  31  33
ENDBRANCH   1  31
TORSDOF 11
ENDMDL
MODEL 2
REMARK minimizedAffinity -6.63793802
REMARK CNNscore 0.48949942
REMARK CNNaffinity 6.68595362
REMARK  11 active torsions:
REMARK  status: ('A' for Active; 'I' for Inactive)
REMARK    1  A    between atoms: C2_2  and  C3_3 
REMARK    2  A    between atoms: C2_2  and  C4_5 
REMARK    3  A    between atoms: C3_3  and  O1_4 
REMARK    4  A    between atoms: C13_14  and  C14_15 
REMARK    5  A    between atoms: C14_15  and  C16_17 
REMARK    6  A    between atoms: C16_17  and  C17_18 
REMARK    7  A    between atoms: C17_18  and  C18_19 
REMARK    8  A    between atoms: C27_28  and  C28_29 
REMARK    9  A    between atoms: C28_29  and  C29_30 
REMARK   10  A    between atoms: C29_30  and  C30_31 
REMARK   11  A    between atoms: C30_31  and  O3_33 
ROOT
HETATM    1  C4  UNL     1      -2.595  52.710 -10.454  1.00  0.00     0.025 C 
HETATM    2  C5  UNL     1      -2.639  54.261 -10.524  1.00  0.00     0.010 C 
HETATM    3  C6  UNL     1      -1.577  55.013  -9.716  1.00  0.00     0.007 C 
HETATM    4  C7  UNL     1      -0.651  54.095  -8.923  1.00  0.00     0.004 C 
HETATM    5  C8  UNL     1      -0.053  52.968  -9.794  1.00  0.00    -0.027 A 
HETATM    6  C9  UNL     1       1.209  52.343  -9.203  1.00  0.00     0.011 C 
HETATM    7  C10 UNL     1       2.324  53.356  -8.868  1.00  0.00     0.011 C 
HETATM    8  C11 UNL     1       1.848  54.815  -8.721  1.00  0.00    -0.032 C 
HETATM    9  C12 UNL     1       1.879  55.491 -10.123  1.00  0.00     0.016 C 
HETATM   10  C13 UNL     1       2.667  55.711  -7.728  1.00  0.00    -0.002 C 
HETATM   11  C22 UNL     1       1.639  56.820  -7.347  1.00  0.00     0.006 C 
HETATM   12  C23 UNL     1       0.241  56.322  -7.763  1.00  0.00     0.011 C 
HETATM   13  C24 UNL     1       0.427  54.821  -8.048  1.00  0.00    -0.032 C 
HETATM   14  C25 UNL     1       0.395  54.129  -6.636  1.00  0.00     0.016 C 
HETATM   15  C26 UNL     1      -0.127  52.884 -11.314  1.00  0.00     0.022 A 
HETATM   16  C27 UNL     1      -1.152  52.122 -10.512  1.00  0.00    -0.024 A 
ENDROOT
BRANCH  10  17
HETATM   17  C14 UNL     1       4.044  56.309  -8.156  1.00  0.00    -0.014 C 
HETATM   18  C15 UNL     1       3.973  57.826  -8.360  1.00  0.00     0.010 C 
BRANCH  17  19
HETATM   19  C16 UNL     1       4.541  55.620  -9.457  1.00  0.00     0.008 C 
BRANCH  19  20
HETATM   20  C17 UNL     1       5.860  54.857  -9.300  1.00  0.00     0.028 C 
BRANCH  20  21
HETATM   21  C18 UNL     1       6.740  55.499  -8.261  1.00  0.00    -0.025 C 
HETATM   22  C19 UNL     1       7.067  55.007  -7.049  1.00  0.00    -0.091 C 
HETATM   23  C20 UNL     1       7.981  55.774  -6.131  1.00  0.00     0.042 C 
HETATM   24  C21 UNL     1       6.565  53.708  -6.484  1.00  0.00     0.042 C 
ENDBRANCH  20  21
ENDBRANCH  19  20
ENDBRANCH  17  19
ENDBRANCH  10  17
BRANCH  16  25
HETATM   25  C28 UNL     1      -1.043  50.605 -10.278  1.00  0.00     0.021 C 
BRANCH  25  26
HETATM   26  C29 UNL     1      -0.422  49.721 -11.356  1.00  0.00     0.111 C 
BRANCH  26  27
HETATM   27  C30 UNL     1      -1.225  49.612 -12.625  1.00  0.00     0.139 C 
HETATM   28  O2  UNL     1      -0.981  50.085 -13.719  1.00  0.00    -0.650 OA
BRANCH  27  29
HETATM   29  O3  UNL     1      -2.359  48.905 -12.435  1.00  0.00    -0.776 OA
HETATM   30  H48 UNL     1      -2.800  48.927 -13.310  1.00  0.00     0.167 HD
ENDBRANCH  27  29
ENDBRANCH  26  27
ENDBRANCH  25  26
ENDBRANCH  16  25
BRANCH   1  31
HETATM   31  C2  UNL     1      -3.590  52.175 -11.486  1.00  0.00    -0.061 C 
HETATM   32  C1  UNL     1      -4.573  51.335 -11.105  1.00  0.00     0.017 C 
BRANCH  31  33
HETATM   33  C3  UNL     1      -3.408  52.636 -12.915  1.00  0.00     0.198 C 
BRANCH  33  34
HETATM   34  O1  UNL     1      -4.300  53.699 -13.235  1.00  0.00    -0.397 OA
HETATM   35  H5  UNL     1      -4.183  53.869 -14.182  1.00  0.00     0.209 HD
ENDBRANCH  33  34
ENDBRANCH  31  33
ENDBRANCH   1  31
TORSDOF 11
ENDMDL
MODEL 3
REMARK minimizedAffinity -6.7922678
REMARK CNNscore 0.265949458
REMARK CNNaffinity 6.12662315
REMARK  11 active torsions:
REMARK  status: ('A' for Active; 'I' for Inactive)
REMARK    1  A    between atoms: C2_2  and  C3_3 
REMARK    2  A    between atoms: C2_2  and  C4_5 
REMARK    3  A    between atoms: C3_3  and  O1_4 
REMARK    4  A    between atoms: C13_14  and  C14_15 
REMARK    5  A    between atoms: C14_15  and  C16_17 
REMARK    6  A    between atoms: C16_17  and  C17_18 
REMARK    7  A    between atoms: C17_18  and  C18_19 
REMARK    8  A    between atoms: C27_28  and  C28_29 
REMARK    9  A    between atoms: C28_29  and  C29_30 
REMARK   10  A    between atoms: C29_30  and  C30_31 
REMARK   11  A    between atoms: C30_31  and  O3_33 
ROOT
HETATM    1  C4  UNL     1       0.159  52.755 -11.841  1.00  0.00     0.025 C 
HETATM    2  C5  UNL     1       1.535  52.039 -11.748  1.00  0.00     0.010 C 
HETATM    3  C6  UNL     1       2.690  52.852 -11.157  1.00  0.00     0.007 C 
HETATM    4  C7  UNL     1       2.303  54.280 -10.785  1.00  0.00     0.004 C 
HETATM    5  C8  UNL     1       1.028  54.336  -9.915  1.00  0.00    -0.027 A 
HETATM    6  C9  UNL     1       0.878  55.639  -9.133  1.00  0.00     0.011 C 
HETATM    7  C10 UNL     1       2.094  55.997  -8.253  1.00  0.00     0.011 C 
HETATM    8  C11 UNL     1       3.407  55.291  -8.648  1.00  0.00    -0.032 C 
HETATM    9  C12 UNL     1       3.477  53.923  -7.906  1.00  0.00     0.016 C 
HETATM   10  C13 UNL     1       4.730  56.078  -8.349  1.00  0.00    -0.002 C 
HETATM   11  C22 UNL     1       5.734  55.446  -9.362  1.00  0.00     0.006 C 
HETATM   12  C23 UNL     1       4.912  54.681 -10.418  1.00  0.00     0.011 C 
HETATM   13  C24 UNL     1       3.465  55.163 -10.213  1.00  0.00    -0.032 C 
HETATM   14  C25 UNL     1       3.383  56.544 -10.962  1.00  0.00     0.016 C 
HETATM   15  C26 UNL     1       0.346  53.142  -9.258  1.00  0.00     0.022 A 
HETATM   16  C27 UNL     1      -0.184  53.615 -10.587  1.00  0.00    -0.024 A 
ENDROOT
BRANCH  10  17
HETATM   17  C14 UNL     1       5.310  56.127  -6.901  1.00  0.00    -0.014 C 
HETATM   18  C15 UNL     1       4.990  57.451  -6.198  1.00  0.00     0.010 C 
BRANCH  17  19
HETATM   19  C16 UNL     1       6.848  55.901  -6.937  1.00  0.00     0.008 C 
BRANCH  19  20
HETATM   20  C17 UNL     1       7.456  55.498  -5.590  1.00  0.00     0.028 C 
BRANCH  20  21
HETATM   21  C18 UNL     1       8.847  56.051  -5.433  1.00  0.00    -0.025 C 
HETATM   22  C19 UNL     1       9.194  57.290  -5.031  1.00  0.00    -0.091 C 
HETATM   23  C20 UNL     1      10.643  57.680  -4.909  1.00  0.00     0.042 C 
HETATM   24  C21 UNL     1       8.225  58.388  -4.694  1.00  0.00     0.042 C 
ENDBRANCH  20  21
ENDBRANCH  19  20
ENDBRANCH  17  19
ENDBRANCH  10  17
BRANCH  16  25
HETATM   25  C28 UNL     1      -1.455  54.477 -10.700  1.00  0.00     0.021 C 
BRANCH  25  26
HETATM   26  C29 UNL     1      -2.742  54.008 -10.027  1.00  0.00     0.111 C 
BRANCH  26  27
HETATM   27  C30 UNL     1      -3.760  53.407 -10.958  1.00  0.00     0.139 C 
HETATM   28  O2  UNL     1      -4.462  52.428 -10.784  1.00  0.00    -0.650 OA
BRANCH  27  29
HETATM   29  O3  UNL     1      -3.826  54.082 -12.125  1.00  0.00    -0.776 OA
HETATM   30  H48 UNL     1      -4.492  53.588 -12.647  1.00  0.00     0.167 HD
ENDBRANCH  27  29
ENDBRANCH  26  27
ENDBRANCH  25  26
ENDBRANCH  16  25
BRANCH   1  31
HETATM   31  C2  UNL     1      -0.878  51.707 -12.252  1.00  0.00    -0.061 C 
HETATM   32  C1  UNL     1      -1.483  51.790 -13.454  1.00  0.00     0.017 C 
BRANCH  31  33
HETATM   33  C3  UNL     1      -1.170  50.606 -11.257  1.00  0.00     0.198 C 
BRANCH  33  34
HETATM   34  O1  UNL     1      -0.854  49.325 -11.794  1.00  0.00    -0.397 OA
HETATM   35  H5  UNL     1      -1.154  48.680 -11.136  1.00  0.00     0.209 HD
ENDBRANCH  33  34
ENDBRANCH  31  33
ENDBRANCH   1  31
TORSDOF 11
ENDMDL
MODEL 4
REMARK minimizedAffinity -6.39016342
REMARK CNNscore 0.245590508
REMARK CNNaffinity 6.39127922
REMARK  11 active torsions:
REMARK  status: ('A' for Active; 'I' for Inactive)
REMARK    1  A    between atoms: C2_2  and  C3_3 
REMARK    2  A    between atoms: C2_2  and  C4_5 
REMARK    3  A    between atoms: C3_3  and  O1_4 
REMARK    4  A    between atoms: C13_14  and  C14_15 
REMARK    5  A    between atoms: C14_15  and  C16_17 
REMARK    6  A    between atoms: C16_17  and  C17_18 
REMARK    7  A    between atoms: C17_18  and  C18_19 
REMARK    8  A    between atoms: C27_28  and  C28_29 
REMARK    9  A    between atoms: C28_29  and  C29_30 
REMARK   10  A    between atoms: C29_30  and  C30_31 
REMARK   11  A    between atoms: C30_31  and  O3_33 
ROOT
HETATM    1  C4  UNL     1       1.021  51.847 -11.767  1.00  0.00     0.025 C 
HETATM    2  C5  UNL     1       2.462  51.463 -11.330  1.00  0.00     0.010 C 
HETATM    3  C6  UNL     1       3.307  52.577 -10.707  1.00  0.00     0.007 C 
HETATM    4  C7  UNL     1       2.595  53.925 -10.652  1.00  0.00     0.004 C 
HETATM    5  C8  UNL     1       1.187  53.821 -10.023  1.00  0.00    -0.027 A 
HETATM    6  C9  UNL     1       0.647  55.154  -9.510  1.00  0.00     0.011 C 
HETATM    7  C10 UNL     1       1.581  55.880  -8.519  1.00  0.00     0.011 C 
HETATM    8  C11 UNL     1       3.053  55.426  -8.568  1.00  0.00    -0.032 C 
HETATM    9  C12 UNL     1       3.233  54.218  -7.602  1.00  0.00     0.016 C 
HETATM   10  C13 UNL     1       4.122  56.513  -8.197  1.00  0.00    -0.002 C 
HETATM   11  C22 UNL     1       5.404  55.982  -8.910  1.00  0.00     0.006 C 
HETATM   12  C23 UNL     1       4.961  54.924  -9.939  1.00  0.00     0.011 C 
HETATM   13  C24 UNL     1       3.437  55.106 -10.058  1.00  0.00    -0.032 C 
HETATM   14  C25 UNL     1       3.245  56.324 -11.034  1.00  0.00     0.016 C 
HETATM   15  C26 UNL     1       0.627  52.607  -9.292  1.00  0.00     0.022 A 
HETATM   16  C27 UNL     1       0.286  52.774 -10.751  1.00  0.00    -0.024 A 
ENDROOT
BRANCH  10  17
HETATM   17  C14 UNL     1       4.390  56.878  -6.703  1.00  0.00    -0.014 C 
HETATM   18  C15 UNL     1       3.373  57.892  -6.168  1.00  0.00     0.010 C 
BRANCH  17  19
HETATM   19  C16 UNL     1       5.833  57.436  -6.544  1.00  0.00     0.008 C 
BRANCH  19  20
HETATM   20  C17 UNL     1       6.169  57.915  -5.128  1.00  0.00     0.028 C 
BRANCH  20  21
HETATM   21  C18 UNL     1       7.543  58.528  -5.072  1.00  0.00    -0.025 C 
HETATM   22  C19 UNL     1       7.886  59.720  -4.546  1.00  0.00    -0.091 C 
HETATM   23  C20 UNL     1       9.320  60.180  -4.554  1.00  0.00     0.042 C 
HETATM   24  C21 UNL     1       6.923  60.700  -3.936  1.00  0.00     0.042 C 
ENDBRANCH  20  21
ENDBRANCH  19  20
ENDBRANCH  17  19
ENDBRANCH  10  17
BRANCH  16  25
HETATM   25  C28 UNL     1      -1.077  53.318 -11.215  1.00  0.00     0.021 C 
BRANCH  25  26
HETATM   26  C29 UNL     1      -2.275  53.242 -10.273  1.00  0.00     0.111 C 
BRANCH  26  27
HETATM   27  C30 UNL     1      -3.597  52.997 -10.949  1.00  0.00     0.139 C 
HETATM   28  O2  UNL     1      -4.390  52.093 -10.758  1.00  0.00    -0.650 OA
BRANCH  27  29
HETATM   29  O3  UNL     1      -3.853  53.926 -11.893  1.00  0.00    -0.776 OA
HETATM   30  H48 UNL     1      -4.712  53.648 -12.273  1.00  0.00     0.167 HD
ENDBRANCH  27  29
ENDBRANCH  26  27
ENDBRANCH  25  26
ENDBRANCH  16  25
BRANCH   1  31
HETATM   31  C2  UNL     1       0.299  50.556 -12.156  1.00  0.00    -0.061 C 
HETATM   32  C1  UNL     1      -0.907  50.269 -11.625  1.00  0.00     0.017 C 
BRANCH  31  33
HETATM   33  C3  UNL     1       0.999  49.651 -13.146  1.00  0.00     0.198 C 
BRANCH  33  34
HETATM   34  O1  UNL     1       0.948  48.290 -12.730  1.00  0.00    -0.397 OA
HETATM   35  H5  UNL     1       1.492  47.798 -13.364  1.00  0.00     0.209 HD
ENDBRANCH  33  34
ENDBRANCH  31  33
ENDBRANCH   1  31
TORSDOF 11
ENDMDL
MODEL 5
REMARK minimizedAffinity -6.95022583
REMARK CNNscore 0.218428984
REMARK CNNaffinity 6.48963547
REMARK  11 active torsions:
REMARK  status: ('A' for Active; 'I' for Inactive)
REMARK    1  A    between atoms: C2_2  and  C3_3 
REMARK    2  A    between atoms: C2_2  and  C4_5 
REMARK    3  A    between atoms: C3_3  and  O1_4 
REMARK    4  A    between atoms: C13_14  and  C14_15 
REMARK    5  A    between atoms: C14_15  and  C16_17 
REMARK    6  A    between atoms: C16_17  and  C17_18 
REMARK    7  A    between atoms: C17_18  and  C18_19 
REMARK    8  A    between atoms: C27_28  and  C28_29 
REMARK    9  A    between atoms: C28_29  and  C29_30 
REMARK   10  A    between atoms: C29_30  and  C30_31 
REMARK   11  A    between atoms: C30_31  and  O3_33 
ROOT
HETATM    1  C4  UNL     1      -6.300  46.009 -20.563  1.00  0.00     0.025 C 
HETATM    2  C5  UNL     1      -6.464  46.547 -22.011  1.00  0.00     0.010 C 
HETATM    3  C6  UNL     1      -5.720  47.843 -22.347  1.00  0.00     0.007 C 
HETATM    4  C7  UNL     1      -4.955  48.431 -21.166  1.00  0.00     0.004 C 
HETATM    5  C8  UNL     1      -4.051  47.387 -20.472  1.00  0.00    -0.027 A 
HETATM    6  C9  UNL     1      -2.936  48.005 -19.632  1.00  0.00     0.011 C 
HETATM    7  C10 UNL     1      -2.043  49.004 -20.397  1.00  0.00     0.011 C 
HETATM    8  C11 UNL     1      -2.669  49.577 -21.684  1.00  0.00    -0.032 C 
HETATM    9  C12 UNL     1      -2.335  48.622 -22.867  1.00  0.00     0.016 C 
HETATM   10  C13 UNL     1      -2.220  51.026 -22.083  1.00  0.00    -0.002 C 
HETATM   11  C22 UNL     1      -3.408  51.515 -22.968  1.00  0.00     0.006 C 
HETATM   12  C23 UNL     1      -4.599  50.570 -22.714  1.00  0.00     0.011 C 
HETATM   13  C24 UNL     1      -4.210  49.780 -21.452  1.00  0.00    -0.032 C 
HETATM   14  C25 UNL     1      -4.547  50.737 -20.250  1.00  0.00     0.016 C 
HETATM   15  C26 UNL     1      -3.720  46.000 -21.010  1.00  0.00     0.022 A 
HETATM   16  C27 UNL     1      -4.845  46.122 -20.014  1.00  0.00    -0.024 A 
ENDROOT
BRANCH  10  17
HETATM   17  C14 UNL     1      -0.839  51.264 -22.770  1.00  0.00    -0.014 C 
HETATM   18  C15 UNL     1       0.258  51.602 -21.755  1.00  0.00     0.010 C 
BRANCH  17  19
HETATM   19  C16 UNL     1      -0.959  52.401 -23.823  1.00  0.00     0.008 C 
BRANCH  19  20
HETATM   20  C17 UNL     1       0.363  52.769 -24.505  1.00  0.00     0.028 C 
BRANCH  20  21
HETATM   21  C18 UNL     1       0.284  52.562 -25.994  1.00  0.00    -0.025 C 
HETATM   22  C19 UNL     1       1.155  51.890 -26.774  1.00  0.00    -0.091 C 
HETATM   23  C20 UNL     1       0.917  51.760 -28.255  1.00  0.00     0.042 C 
HETATM   24  C21 UNL     1       2.420  51.239 -26.288  1.00  0.00     0.042 C 
ENDBRANCH  20  21
ENDBRANCH  19  20
ENDBRANCH  17  19
ENDBRANCH  10  17
BRANCH  16  25
HETATM   25  C28 UNL     1      -4.665  45.760 -18.529  1.00  0.00     0.021 C 
BRANCH  25  26
HETATM   26  C29 UNL     1      -3.572  44.775 -18.124  1.00  0.00     0.111 C 
BRANCH  26  27
HETATM   27  C30 UNL     1      -3.939  43.324 -18.276  1.00  0.00     0.139 C 
HETATM   28  O2  UNL     1      -4.716  42.664 -17.611  1.00  0.00    -0.650 OA
BRANCH  27  29
HETATM   29  O3  UNL     1      -3.255  42.742 -19.283  1.00  0.00    -0.776 OA
HETATM   30  H48 UNL     1      -3.554  41.808 -19.264  1.00  0.00     0.167 HD
ENDBRANCH  27  29
ENDBRANCH  26  27
ENDBRANCH  25  26
ENDBRANCH  16  25
BRANCH   1  31
HETATM   31  C2  UNL     1      -6.940  44.620 -20.513  1.00  0.00    -0.061 C 
HETATM   32  C1  UNL     1      -8.199  44.472 -20.055  1.00  0.00     0.017 C 
BRANCH  31  33
HETATM   33  C3  UNL     1      -6.098  43.461 -20.998  1.00  0.00     0.198 C 
BRANCH  33  34
HETATM   34  O1  UNL     1      -6.122  43.361 -22.419  1.00  0.00    -0.397 OA
HETATM   35  H5  UNL     1      -5.640  42.549 -22.637  1.00  0.00     0.209 HD
ENDBRANCH  33  34
ENDBRANCH  31  33
ENDBRANCH   1  31
TORSDOF 11
ENDMDL
MODEL 6
REMARK minimizedAffinity -7.7954154
REMARK CNNscore 0.216882855
REMARK CNNaffinity 6.3377347
REMARK  11 active torsions:
REMARK  status: ('A' for Active; 'I' for Inactive)
REMARK    1  A    between atoms: C2_2  and  C3_3 
REMARK    2  A    between atoms: C2_2  and  C4_5 
REMARK    3  A    between atoms: C3_3  and  O1_4 
REMARK    4  A    between atoms: C13_14  and  C14_15 
REMARK    5  A    between atoms: C14_15  and  C16_17 
REMARK    6  A    between atoms: C16_17  and  C17_18 
REMARK    7  A    between atoms: C17_18  and  C18_19 
REMARK    8  A    between atoms: C27_28  and  C28_29 
REMARK    9  A    between atoms: C28_29  and  C29_30 
REMARK   10  A    between atoms: C29_30  and  C30_31 
REMARK   11  A    between atoms: C30_31  and  O3_33 
ROOT
HETATM    1  C4  UNL     1      -6.302  47.750 -19.802  1.00  0.00     0.025 C 
HETATM    2  C5  UNL     1      -5.543  48.645 -18.785  1.00  0.00     0.010 C 
HETATM    3  C6  UNL     1      -4.138  49.099 -19.188  1.00  0.00     0.007 C 
HETATM    4  C7  UNL     1      -3.684  48.551 -20.538  1.00  0.00     0.004 C 
HETATM    5  C8  UNL     1      -4.730  48.788 -21.650  1.00  0.00    -0.027 A 
HETATM    6  C9  UNL     1      -4.150  48.709 -23.061  1.00  0.00     0.011 C 
HETATM    7  C10 UNL     1      -2.946  49.641 -23.307  1.00  0.00     0.011 C 
HETATM    8  C11 UNL     1      -2.229  50.122 -22.029  1.00  0.00    -0.032 C 
HETATM    9  C12 UNL     1      -2.926  51.421 -21.528  1.00  0.00     0.016 C 
HETATM   10  C13 UNL     1      -0.694  50.411 -22.167  1.00  0.00    -0.002 C 
HETATM   11  C22 UNL     1      -0.189  50.258 -20.699  1.00  0.00     0.006 C 
HETATM   12  C23 UNL     1      -1.284  49.521 -19.903  1.00  0.00     0.011 C 
HETATM   13  C24 UNL     1      -2.234  48.956 -20.975  1.00  0.00    -0.032 C 
HETATM   14  C25 UNL     1      -1.540  47.641 -21.485  1.00  0.00     0.016 C 
HETATM   15  C26 UNL     1      -5.960  49.680 -21.539  1.00  0.00     0.022 A 
HETATM   16  C27 UNL     1      -6.131  48.204 -21.284  1.00  0.00    -0.024 A 
ENDROOT
BRANCH  10  17
HETATM   17  C14 UNL     1      -0.196  51.738 -22.822  1.00  0.00    -0.014 C 
HETATM   18  C15 UNL     1       0.211  52.779 -21.775  1.00  0.00     0.010 C 
BRANCH  17  19
HETATM   19  C16 UNL     1      -1.300  52.318 -23.750  1.00  0.00     0.008 C 
BRANCH  19  20
HETATM   20  C17 UNL     1      -0.796  52.762 -25.127  1.00  0.00     0.028 C 
BRANCH  20  21
HETATM   21  C18 UNL     1       0.611  52.283 -25.372  1.00  0.00    -0.025 C 
HETATM   22  C19 UNL     1       1.122  51.799 -26.522  1.00  0.00    -0.091 C 
HETATM   23  C20 UNL     1       2.564  51.378 -26.603  1.00  0.00     0.042 C 
HETATM   24  C21 UNL     1       0.345  51.609 -27.795  1.00  0.00     0.042 C 
ENDBRANCH  20  21
ENDBRANCH  19  20
ENDBRANCH  17  19
ENDBRANCH  10  17
BRANCH  16  25
HETATM   25  C28 UNL     1      -6.723  47.255 -22.342  1.00  0.00     0.021 C 
BRANCH  25  26
HETATM   26  C29 UNL     1      -7.863  47.741 -23.232  1.00  0.00     0.111 C 
BRANCH  26  27
HETATM   27  C30 UNL     1      -7.433  48.318 -24.554  1.00  0.00     0.139 C 
HETATM   28  O2  UNL     1      -6.855  47.765 -25.471  1.00  0.00    -0.650 OA
BRANCH  27  29
HETATM   29  O3  UNL     1      -7.740  49.629 -24.646  1.00  0.00    -0.776 OA
HETATM   30  H48 UNL     1      -7.391  49.893 -25.523  1.00  0.00     0.167 HD
ENDBRANCH  27  29
ENDBRANCH  26  27
ENDBRANCH  25  26
ENDBRANCH  16  25
BRANCH   1  31
HETATM   31  C2  UNL     1      -7.739  47.597 -19.299  1.00  0.00    -0.061 C 
HETATM   32  C1  UNL     1      -8.756  48.174 -19.971  1.00  0.00     0.017 C 
BRANCH  31  33
HETATM   33  C3  UNL     1      -7.940  46.780 -18.041  1.00  0.00     0.198 C 
BRANCH  33  34
HETATM   34  O1  UNL     1      -8.333  47.603 -16.947  1.00  0.00    -0.397 OA
HETATM   35  H5  UNL     1      -8.350  47.022 -16.171  1.00  0.00     0.209 HD
ENDBRANCH  33  34
ENDBRANCH  31  33
ENDBRANCH   1  31
TORSDOF 11
ENDMDL
MODEL 7
REMARK minimizedAffinity -7.51030064
REMARK CNNscore 0.212183207
REMARK CNNaffinity 6.06297731
REMARK  11 active torsions:
REMARK  status: ('A' for Active; 'I' for Inactive)
REMARK    1  A    between atoms: C2_2  and  C3_3 
REMARK    2  A    between atoms: C2_2  and  C4_5 
REMARK    3  A    between atoms: C3_3  and  O1_4 
REMARK    4  A    between atoms: C13_14  and  C14_15 
REMARK    5  A    between atoms: C14_15  and  C16_17 
REMARK    6  A    between atoms: C16_17  and  C17_18 
REMARK    7  A    between atoms: C17_18  and  C18_19 
REMARK    8  A    between atoms: C27_28  and  C28_29 
REMARK    9  A    between atoms: C28_29  and  C29_30 
REMARK   10  A    between atoms: C29_30  and  C30_31 
REMARK   11  A    between atoms: C30_31  and  O3_33 
ROOT
HETATM    1  C4  UNL     1      -5.109  48.561 -23.496  1.00  0.00     0.025 C 
HETATM    2  C5  UNL     1      -5.518  48.292 -22.022  1.00  0.00     0.010 C 
HETATM    3  C6  UNL     1      -4.419  48.447 -20.968  1.00  0.00     0.007 C 
HETATM    4  C7  UNL     1      -3.058  48.808 -21.555  1.00  0.00     0.004 C 
HETATM    5  C8  UNL     1      -3.135  50.014 -22.519  1.00  0.00    -0.027 A 
HETATM    6  C9  UNL     1      -1.791  50.704 -22.743  1.00  0.00     0.011 C 
HETATM    7  C10 UNL     1      -1.080  51.149 -21.449  1.00  0.00     0.011 C 
HETATM    8  C11 UNL     1      -1.560  50.435 -20.169  1.00  0.00    -0.032 C 
HETATM    9  C12 UNL     1      -2.770  51.223 -19.585  1.00  0.00     0.016 C 
HETATM   10  C13 UNL     1      -0.493  50.263 -19.033  1.00  0.00    -0.002 C 
HETATM   11  C22 UNL     1      -1.048  49.047 -18.230  1.00  0.00     0.006 C 
HETATM   12  C23 UNL     1      -2.100  48.346 -19.111  1.00  0.00     0.011 C 
HETATM   13  C24 UNL     1      -1.891  48.938 -20.517  1.00  0.00    -0.032 C 
HETATM   14  C25 UNL     1      -0.672  48.146 -21.117  1.00  0.00     0.016 C 
HETATM   15  C26 UNL     1      -4.336  50.933 -22.700  1.00  0.00     0.022 A 
HETATM   16  C27 UNL     1      -4.167  49.792 -23.670  1.00  0.00    -0.024 A 
ENDROOT
BRANCH  10  17
HETATM   17  C14 UNL     1      -0.128  51.463 -18.105  1.00  0.00    -0.014 C 
HETATM   18  C15 UNL     1       0.586  52.584 -18.867  1.00  0.00     0.010 C 
BRANCH  17  19
HETATM   19  C16 UNL     1       0.758  50.972 -16.925  1.00  0.00     0.008 C 
BRANCH  19  20
HETATM   20  C17 UNL     1       0.148  51.208 -15.540  1.00  0.00     0.028 C 
BRANCH  20  21
HETATM   21  C18 UNL     1       0.832  50.369 -14.493  1.00  0.00    -0.025 C 
HETATM   22  C19 UNL     1       0.560  49.090 -14.165  1.00  0.00    -0.091 C 
HETATM   23  C20 UNL     1       1.357  48.386 -13.100  1.00  0.00     0.042 C 
HETATM   24  C21 UNL     1      -0.533  48.259 -14.776  1.00  0.00     0.042 C 
ENDBRANCH  20  21
ENDBRANCH  19  20
ENDBRANCH  17  19
ENDBRANCH  10  17
BRANCH  16  25
HETATM   25  C28 UNL     1      -3.599  49.999 -25.085  1.00  0.00     0.021 C 
BRANCH  25  26
HETATM   26  C29 UNL     1      -3.173  48.786 -25.908  1.00  0.00     0.111 C 
BRANCH  26  27
HETATM   27  C30 UNL     1      -3.381  48.923 -27.392  1.00  0.00     0.139 C 
HETATM   28  O2  UNL     1      -3.912  48.141 -28.159  1.00  0.00    -0.650 OA
BRANCH  27  29
HETATM   29  O3  UNL     1      -2.859  50.075 -27.862  1.00  0.00    -0.776 OA
HETATM   30  H48 UNL     1      -3.030  50.036 -28.826  1.00  0.00     0.167 HD
ENDBRANCH  27  29
ENDBRANCH  26  27
ENDBRANCH  25  26
ENDBRANCH  16  25
BRANCH   1  31
HETATM   31  C2  UNL     1      -6.388  48.560 -24.336  1.00  0.00    -0.061 C 
HETATM   32  C1  UNL     1      -6.468  47.798 -25.446  1.00  0.00     0.017 C 
BRANCH  31  33
HETATM   33  C3  UNL     1      -7.523  49.437 -23.857  1.00  0.00     0.198 C 
BRANCH  33  34
HETATM   34  O1  UNL     1      -8.512  49.605 -24.868  1.00  0.00    -0.397 OA
HETATM   35  H5  UNL     1      -9.147  50.246 -24.515  1.00  0.00     0.209 HD
ENDBRANCH  33  34
ENDBRANCH  31  33
ENDBRANCH   1  31
TORSDOF 11
ENDMDL
MODEL 8
REMARK minimizedAffinity -7.50556135
REMARK CNNscore 0.199350417
REMARK CNNaffinity 6.75409746
REMARK  11 active torsions:
REMARK  status: ('A' for Active; 'I' for Inactive)
REMARK    1  A    between atoms: C2_2  and  C3_3 
REMARK    2  A    between atoms: C2_2  and  C4_5 
REMARK    3  A    between atoms: C3_3  and  O1_4 
REMARK    4  A    between atoms: C13_14  and  C14_15 
REMARK    5  A    between atoms: C14_15  and  C16_17 
REMARK    6  A    between atoms: C16_17  and  C17_18 
REMARK    7  A    between atoms: C17_18  and  C18_19 
REMARK    8  A    between atoms: C27_28  and  C28_29 
REMARK    9  A    between atoms: C28_29  and  C29_30 
REMARK   10  A    between atoms: C29_30  and  C30_31 
REMARK   11  A    between atoms: C30_31  and  O3_33 
ROOT
HETATM    1  C4  UNL     1       0.225  51.867 -21.207  1.00  0.00     0.025 C 
HETATM    2  C5  UNL     1      -0.684  52.002 -22.459  1.00  0.00     0.010 C 
HETATM    3  C6  UNL     1      -1.738  50.910 -22.660  1.00  0.00     0.007 C 
HETATM    4  C7  UNL     1      -1.696  49.818 -21.594  1.00  0.00     0.004 C 
HETATM    5  C8  UNL     1      -1.701  50.396 -20.161  1.00  0.00    -0.027 A 
HETATM    6  C9  UNL     1      -2.141  49.391 -19.099  1.00  0.00     0.011 C 
HETATM    7  C10 UNL     1      -3.510  48.734 -19.373  1.00  0.00     0.011 C 
HETATM    8  C11 UNL     1      -3.980  48.808 -20.839  1.00  0.00    -0.032 C 
HETATM    9  C12 UNL     1      -4.760  50.140 -21.043  1.00  0.00     0.016 C 
HETATM   10  C13 UNL     1      -4.888  47.628 -21.332  1.00  0.00    -0.002 C 
HETATM   11  C22 UNL     1      -4.670  47.657 -22.876  1.00  0.00     0.006 C 
HETATM   12  C23 UNL     1      -3.412  48.504 -23.154  1.00  0.00     0.011 C 
HETATM   13  C24 UNL     1      -2.731  48.656 -21.782  1.00  0.00    -0.032 C 
HETATM   14  C25 UNL     1      -1.938  47.316 -21.567  1.00  0.00     0.016 C 
HETATM   15  C26 UNL     1      -1.976  51.847 -19.788  1.00  0.00     0.022 A 
HETATM   16  C27 UNL     1      -0.539  51.413 -19.925  1.00  0.00    -0.024 A 
ENDROOT
BRANCH  10  17
HETATM   17  C14 UNL     1      -6.402  47.586 -20.955  1.00  0.00    -0.014 C 
HETATM   18  C15 UNL     1      -6.671  46.672 -19.755  1.00  0.00     0.010 C 
BRANCH  17  19
HETATM   19  C16 UNL     1      -7.242  47.121 -22.178  1.00  0.00     0.008 C 
BRANCH  19  20
HETATM   20  C17 UNL     1      -8.090  48.226 -22.816  1.00  0.00     0.028 C 
BRANCH  20  21
HETATM   21  C18 UNL     1      -8.880  47.700 -23.984  1.00  0.00    -0.025 C 
HETATM   22  C19 UNL     1      -8.427  47.437 -25.226  1.00  0.00    -0.091 C 
HETATM   23  C20 UNL     1      -9.351  46.894 -26.282  1.00  0.00     0.042 C 
HETATM   24  C21 UNL     1      -7.016  47.666 -25.693  1.00  0.00     0.042 C 
ENDBRANCH  20  21
ENDBRANCH  19  20
ENDBRANCH  17  19
ENDBRANCH  10  17
BRANCH  16  25
HETATM   25  C28 UNL     1       0.341  51.103 -18.702  1.00  0.00     0.021 C 
BRANCH  25  26
HETATM   26  C29 UNL     1      -0.009  51.717 -17.349  1.00  0.00     0.111 C 
BRANCH  26  27
HETATM   27  C30 UNL     1       1.166  51.963 -16.442  1.00  0.00     0.139 C 
HETATM   28  O2  UNL     1       1.832  51.151 -15.826  1.00  0.00    -0.650 OA
BRANCH  27  29
HETATM   29  O3  UNL     1       1.436  53.280 -16.327  1.00  0.00    -0.776 OA
HETATM   30  H48 UNL     1       2.190  53.313 -15.700  1.00  0.00     0.167 HD
ENDBRANCH  27  29
ENDBRANCH  26  27
ENDBRANCH  25  26
ENDBRANCH  16  25
BRANCH   1  31
HETATM   31  C2  UNL     1       1.042  53.155 -21.091  1.00  0.00    -0.061 C 
HETATM   32  C1  UNL     1       1.564  53.521 -19.902  1.00  0.00     0.017 C 
BRANCH  31  33
HETATM   33  C3  UNL     1       1.226  53.966 -22.354  1.00  0.00     0.198 C 
BRANCH  33  34
HETATM   34  O1  UNL     1       1.977  55.150 -22.107  1.00  0.00    -0.397 OA
HETATM   35  H5  UNL     1       1.968  55.649 -22.937  1.00  0.00     0.209 HD
ENDBRANCH  33  34
ENDBRANCH  31  33
ENDBRANCH   1  31
TORSDOF 11
ENDMDL
MODEL 9
REMARK minimizedAffinity -6.79441261
REMARK CNNscore 0.186855137
REMARK CNNaffinity 6.06922388
REMARK  11 active torsions:
REMARK  status: ('A' for Active; 'I' for Inactive)
REMARK    1  A    between atoms: C2_2  and  C3_3 
REMARK    2  A    between atoms: C2_2  and  C4_5 
REMARK    3  A    between atoms: C3_3  and  O1_4 
REMARK    4  A    between atoms: C13_14  and  C14_15 
REMARK    5  A    between atoms: C14_15  and  C16_17 
REMARK    6  A    between atoms: C16_17  and  C17_18 
REMARK    7  A    between atoms: C17_18  and  C18_19 
REMARK    8  A    between atoms: C27_28  and  C28_29 
REMARK    9  A    between atoms: C28_29  and  C29_30 
REMARK   10  A    between atoms: C29_30  and  C30_31 
REMARK   11  A    between atoms: C30_31  and  O3_33 
ROOT
HETATM    1  C4  UNL     1      -1.890  51.189 -24.037  1.00  0.00     0.025 C 
HETATM    2  C5  UNL     1      -1.122  51.051 -22.694  1.00  0.00     0.010 C 
HETATM    3  C6  UNL     1      -1.894  50.434 -21.525  1.00  0.00     0.007 C 
HETATM    4  C7  UNL     1      -3.340  50.084 -21.866  1.00  0.00     0.004 C 
HETATM    5  C8  UNL     1      -3.453  49.251 -23.162  1.00  0.00    -0.027 A 
HETATM    6  C9  UNL     1      -4.768  48.484 -23.282  1.00  0.00     0.011 C 
HETATM    7  C10 UNL     1      -5.086  47.573 -22.078  1.00  0.00     0.011 C 
HETATM    8  C11 UNL     1      -4.325  47.924 -20.784  1.00  0.00    -0.032 C 
HETATM    9  C12 UNL     1      -2.963  47.170 -20.789  1.00  0.00     0.016 C 
HETATM   10  C13 UNL     1      -5.063  47.594 -19.440  1.00  0.00    -0.002 C 
HETATM   11  C22 UNL     1      -4.383  48.573 -18.433  1.00  0.00     0.006 C 
HETATM   12  C23 UNL     1      -3.642  49.646 -19.254  1.00  0.00     0.011 C 
HETATM   13  C24 UNL     1      -4.182  49.486 -20.687  1.00  0.00    -0.032 C 
HETATM   14  C25 UNL     1      -5.558  50.248 -20.693  1.00  0.00     0.016 C 
HETATM   15  C26 UNL     1      -2.293  48.605 -23.908  1.00  0.00     0.022 A 
HETATM   16  C27 UNL     1      -2.775  49.952 -24.382  1.00  0.00    -0.024 A 
ENDROOT
BRANCH  10  17
HETATM   17  C14 UNL     1      -5.102  46.130 -18.899  1.00  0.00    -0.014 C 
HETATM   18  C15 UNL     1      -5.904  45.200 -19.816  1.00  0.00     0.010 C 
BRANCH  17  19
HETATM   19  C16 UNL     1      -5.701  46.110 -17.465  1.00  0.00     0.008 C 
BRANCH  19  20
HETATM   20  C17 UNL     1      -7.232  46.071 -17.423  1.00  0.00     0.028 C 
BRANCH  20  21
HETATM   21  C18 UNL     1      -7.808  47.454 -17.282  1.00  0.00    -0.025 C 
HETATM   22  C19 UNL     1      -8.430  48.182 -18.231  1.00  0.00    -0.091 C 
HETATM   23  C20 UNL     1      -8.968  49.553 -17.918  1.00  0.00     0.042 C 
HETATM   24  C21 UNL     1      -8.631  47.746 -19.655  1.00  0.00     0.042 C 
ENDBRANCH  20  21
ENDBRANCH  19  20
ENDBRANCH  17  19
ENDBRANCH  10  17
BRANCH  16  25
HETATM   25  C28 UNL     1      -3.684  50.108 -25.614  1.00  0.00     0.021 C 
BRANCH  25  26
HETATM   26  C29 UNL     1      -3.842  48.940 -26.583  1.00  0.00     0.111 C 
BRANCH  26  27
HETATM   27  C30 UNL     1      -3.753  49.309 -28.039  1.00  0.00     0.139 C 
HETATM   28  O2  UNL     1      -3.347  50.343 -28.536  1.00  0.00    -0.650 OA
BRANCH  27  29
HETATM   29  O3  UNL     1      -4.228  48.324 -28.831  1.00  0.00    -0.776 OA
HETATM   30  H48 UNL     1      -4.143  48.688 -29.737  1.00  0.00     0.167 HD
ENDBRANCH  27  29
ENDBRANCH  26  27
ENDBRANCH  25  26
ENDBRANCH  16  25
BRANCH   1  31
HETATM   31  C2  UNL     1      -0.881  51.621 -25.103  1.00  0.00    -0.061 C 
HETATM   32  C1  UNL     1      -0.449  50.736 -26.024  1.00  0.00     0.017 C 
BRANCH  31  33
HETATM   33  C3  UNL     1      -0.415  53.060 -25.061  1.00  0.00     0.198 C 
BRANCH  33  34
HETATM   34  O1  UNL     1       0.664  53.282 -25.963  1.00  0.00    -0.397 OA
HETATM   35  H5  UNL     1       0.958  54.192 -25.808  1.00  0.00     0.209 HD
ENDBRANCH  33  34
ENDBRANCH  31  33
ENDBRANCH   1  31
TORSDOF 11
ENDMDL
