MODEL 1
REMARK minimizedAffinity -10.1111212
REMARK  5 active torsions:
REMARK  status: ('A' for Active; 'I' for Inactive)
REMARK    1  A    between atoms: N1_2  and  C2_3 
REMARK    2  A    between atoms: C4_5  and  N3_29 
REMARK    3  A    between atoms: C5_7  and  N2_12 
REMARK    4  A    between atoms: C7_9  and  O2_10 
REMARK    5  A    between atoms: C28_35  and  O4_36 
ROOT
HETATM    1  C2  UNL     1       9.327  -3.165  32.267  1.00  0.00     0.257 C 
HETATM    2  C3  UNL     1       9.636  -3.776  30.838  1.00  0.00     0.092 C 
HETATM    3  C4  UNL     1      10.192  -5.145  31.130  1.00  0.00     0.234 C 
HETATM    4  O1  UNL     1       9.292  -5.691  32.105  1.00  0.00    -0.333 OA
HETATM    5  C5  UNL     1       9.829  -5.444  33.419  1.00  0.00     0.168 C 
HETATM    6  C6  UNL     1       8.615  -5.738  34.322  1.00  0.00     0.074 C 
HETATM    7  C7  UNL     1      10.164  -3.871  33.463  1.00  0.00     0.209 C 
ENDROOT
BRANCH   1   8
HETATM    8  N1  UNL     1       9.280  -1.689  32.235  1.00  0.00     0.086 N 
HETATM    9  C1  UNL     1      10.302  -1.056  31.415  1.00  0.00     0.307 C 
HETATM   10  H4  UNL     1       8.361  -1.393  31.903  1.00  0.00     0.316 HD
ENDBRANCH   1   8
BRANCH   7  11
HETATM   11  O2  UNL     1      11.556  -3.582  33.232  1.00  0.00    -0.384 OA
HETATM   12  C8  UNL     1      12.159  -2.763  34.224  1.00  0.00     0.202 C 
ENDBRANCH   7  11
BRANCH   3  13
HETATM   13  N3  UNL     1      10.573  -6.270  30.351  1.00  0.00    -0.316 N 
HETATM   14  C24 UNL     1      11.719  -6.983  30.177  1.00  0.00     0.048 A 
HETATM   15  C19 UNL     1      11.367  -8.126  29.419  1.00  0.00     0.004 A 
HETATM   16  C23 UNL     1      13.030  -6.748  30.618  1.00  0.00     0.030 A 
HETATM   17  C18 UNL     1       9.954  -8.074  29.157  1.00  0.00     0.022 A 
HETATM   18  C20 UNL     1      12.388  -9.048  29.103  1.00  0.00     0.014 A 
HETATM   19  C17 UNL     1       8.920  -8.805  28.559  1.00  0.00     0.057 A 
HETATM   20  C25 UNL     1       9.530  -6.899  29.722  1.00  0.00     0.077 A 
HETATM   21  C16 UNL     1       7.535  -8.413  28.536  1.00  0.00     0.020 A 
HETATM   22  C27 UNL     1       9.007 -10.112  27.896  1.00  0.00     0.255 C 
HETATM   23  C15 UNL     1       7.071  -7.208  29.109  1.00  0.00     0.017 A 
HETATM   24  C28 UNL     1       6.754  -9.508  27.869  1.00  0.00     0.257 C 
HETATM   25  C14 UNL     1       5.830  -6.530  29.290  1.00  0.00     0.004 A 
HETATM   26  C26 UNL     1       8.026  -6.407  29.694  1.00  0.00     0.077 A 
HETATM   27  C9  UNL     1       6.082  -5.318  29.964  1.00  0.00     0.049 A 
HETATM   28  C13 UNL     1       4.501  -6.843  28.927  1.00  0.00     0.014 A 
HETATM   29  N2  UNL     1       7.459  -5.228  30.171  1.00  0.00    -0.308 N 
HETATM   30  C10 UNL     1       5.032  -4.438  30.286  1.00  0.00     0.030 A 
HETATM   31  C11 UNL     1       3.726  -4.782  29.924  1.00  0.00     0.002 A 
HETATM   32  C12 UNL     1       3.462  -5.966  29.248  1.00  0.00     0.001 A 
HETATM   33  N4  UNL     1       7.748 -10.426  27.426  1.00  0.00    -0.326 N 
HETATM   34  H24 UNL     1       7.554 -11.376  27.143  1.00  0.00     0.165 HD
HETATM   35  O3  UNL     1       9.985 -10.825  27.788  1.00  0.00    -0.268 OA
HETATM   36  C21 UNL     1      13.698  -8.816  29.536  1.00  0.00     0.001 A 
HETATM   37  C22 UNL     1      14.011  -7.685  30.282  1.00  0.00     0.002 A 
BRANCH  24  38
HETATM   38  O4  UNL     1       6.085  -9.064  26.722  1.00  0.00    -0.372 OA
HETATM   39  H26 UNL     1       6.664  -9.342  25.989  1.00  0.00     0.212 HD
ENDBRANCH  24  38
ENDBRANCH   3  13
TORSDOF 5
ENDMDL
MODEL 2
REMARK minimizedAffinity -9.98543739
REMARK  5 active torsions:
REMARK  status: ('A' for Active; 'I' for Inactive)
REMARK    1  A    between atoms: N1_2  and  C2_3 
REMARK    2  A    between atoms: C4_5  and  N3_29 
REMARK    3  A    between atoms: C5_7  and  N2_12 
REMARK    4  A    between atoms: C7_9  and  O2_10 
REMARK    5  A    between atoms: C28_35  and  O4_36 
ROOT
HETATM    1  C2  UNL     1       8.222 -10.502  26.825  1.00  0.00     0.257 C 
HETATM    2  C3  UNL     1       7.882  -9.810  28.210  1.00  0.00     0.092 C 
HETATM    3  C4  UNL     1       8.910  -8.717  28.344  1.00  0.00     0.234 C 
HETATM    4  O1  UNL     1       8.914  -8.078  27.060  1.00  0.00    -0.333 OA
HETATM    5  C5  UNL     1       9.966  -8.654  26.261  1.00  0.00     0.168 C 
HETATM    6  C6  UNL     1       9.608  -8.151  24.848  1.00  0.00     0.074 C 
HETATM    7  C7  UNL     1       9.748 -10.246  26.337  1.00  0.00     0.209 C 
ENDROOT
BRANCH   1   8
HETATM    8  N1  UNL     1       7.697 -11.880  26.755  1.00  0.00     0.086 N 
HETATM    9  C1  UNL     1       7.517 -12.405  25.410  1.00  0.00     0.307 C 
HETATM   10  H4  UNL     1       8.323 -12.501  27.270  1.00  0.00     0.316 HD
ENDBRANCH   1   8
BRANCH   7  11
HETATM   11  O2  UNL     1      10.611 -10.891  27.293  1.00  0.00    -0.384 OA
HETATM   12  C8  UNL     1      10.417 -10.472  28.636  1.00  0.00     0.202 C 
ENDBRANCH   7  11
BRANCH   3  13
HETATM   13  N3  UNL     1       9.142  -7.653  29.255  1.00  0.00    -0.316 N 
HETATM   14  C24 UNL     1      10.240  -7.106  29.845  1.00  0.00     0.048 A 
HETATM   15  C19 UNL     1       9.802  -5.922  30.485  1.00  0.00     0.004 A 
HETATM   16  C23 UNL     1      11.579  -7.524  29.873  1.00  0.00     0.030 A 
HETATM   17  C18 UNL     1       8.393  -5.774  30.240  1.00  0.00     0.022 A 
HETATM   18  C20 UNL     1      10.762  -5.150  31.173  1.00  0.00     0.014 A 
HETATM   19  C17 UNL     1       7.322  -4.902  30.477  1.00  0.00     0.057 A 
HETATM   20  C25 UNL     1       8.039  -6.882  29.513  1.00  0.00     0.077 A 
HETATM   21  C16 UNL     1       5.976  -5.097  30.003  1.00  0.00     0.020 A 
HETATM   22  C27 UNL     1       7.346  -3.617  31.185  1.00  0.00     0.255 C 
HETATM   23  C15 UNL     1       5.584  -6.229  29.253  1.00  0.00     0.017 A 
HETATM   24  C28 UNL     1       5.165  -3.900  30.408  1.00  0.00     0.257 C 
HETATM   25  C14 UNL     1       4.405  -6.727  28.627  1.00  0.00     0.004 A 
HETATM   26  C26 UNL     1       6.568  -7.158  28.999  1.00  0.00     0.077 A 
HETATM   27  C9  UNL     1       4.713  -7.966  28.028  1.00  0.00     0.049 A 
HETATM   28  C13 UNL     1       3.088  -6.230  28.522  1.00  0.00     0.014 A 
HETATM   29  N2  UNL     1       6.050  -8.249  28.304  1.00  0.00    -0.308 N 
HETATM   30  C10 UNL     1       3.733  -8.692  27.325  1.00  0.00     0.030 A 
HETATM   31  C11 UNL     1       2.441  -8.167  27.230  1.00  0.00     0.002 A 
HETATM   32  C12 UNL     1       2.118  -6.954  27.824  1.00  0.00     0.001 A 
HETATM   33  N4  UNL     1       6.056  -3.128  31.206  1.00  0.00    -0.326 N 
HETATM   34  H24 UNL     1       5.903  -2.159  31.447  1.00  0.00     0.165 HD
HETATM   35  O3  UNL     1       8.310  -3.048  31.656  1.00  0.00    -0.268 OA
HETATM   36  C21 UNL     1      12.098  -5.565  31.209  1.00  0.00     0.001 A 
HETATM   37  C22 UNL     1      12.498  -6.733  30.567  1.00  0.00     0.002 A 
BRANCH  24  38
HETATM   38  O4  UNL     1       4.086  -4.240  31.233  1.00  0.00    -0.372 OA
HETATM   39  H26 UNL     1       4.406  -4.043  32.132  1.00  0.00     0.212 HD
ENDBRANCH  24  38
ENDBRANCH   3  13
TORSDOF 5
ENDMDL
MODEL 3
REMARK minimizedAffinity -9.97984982
REMARK  5 active torsions:
REMARK  status: ('A' for Active; 'I' for Inactive)
REMARK    1  A    between atoms: N1_2  and  C2_3 
REMARK    2  A    between atoms: C4_5  and  N3_29 
REMARK    3  A    between atoms: C5_7  and  N2_12 
REMARK    4  A    between atoms: C7_9  and  O2_10 
REMARK    5  A    between atoms: C28_35  and  O4_36 
ROOT
HETATM    1  C2  UNL     1      11.038  -9.900  28.810  1.00  0.00     0.257 C 
HETATM    2  C3  UNL     1       9.518  -9.744  29.230  1.00  0.00     0.092 C 
HETATM    3  C4  UNL     1       8.880  -9.031  28.067  1.00  0.00     0.234 C 
HETATM    4  O1  UNL     1       9.369  -9.730  26.914  1.00  0.00    -0.333 OA
HETATM    5  C5  UNL     1      10.526  -9.036  26.409  1.00  0.00     0.168 C 
HETATM    6  C6  UNL     1      11.131 -10.077  25.446  1.00  0.00     0.074 C 
HETATM    7  C7  UNL     1      11.502  -8.840  27.672  1.00  0.00     0.209 C 
ENDROOT
BRANCH   1   8
HETATM    8  N1  UNL     1      11.918 -10.083  29.982  1.00  0.00     0.086 N 
HETATM    9  C1  UNL     1      12.059 -11.457  30.439  1.00  0.00     0.307 C 
HETATM   10  H4  UNL     1      12.843  -9.712  29.764  1.00  0.00     0.316 HD
ENDBRANCH   1   8
BRANCH   7  11
HETATM   11  O2  UNL     1      11.415  -7.527  28.257  1.00  0.00    -0.384 OA
HETATM   12  C8  UNL     1      11.578  -6.460  27.334  1.00  0.00     0.202 C 
ENDBRANCH   7  11
BRANCH   3  13
HETATM   13  N3  UNL     1       7.556  -8.666  27.708  1.00  0.00    -0.316 N 
HETATM   14  C24 UNL     1       6.589  -9.196  26.910  1.00  0.00     0.048 A 
HETATM   15  C19 UNL     1       5.412  -8.449  27.159  1.00  0.00     0.004 A 
HETATM   16  C23 UNL     1       6.623 -10.264  26.001  1.00  0.00     0.030 A 
HETATM   17  C18 UNL     1       5.712  -7.455  28.154  1.00  0.00     0.022 A 
HETATM   18  C20 UNL     1       4.243  -8.806  26.454  1.00  0.00     0.014 A 
HETATM   19  C17 UNL     1       5.111  -6.441  28.910  1.00  0.00     0.057 A 
HETATM   20  C25 UNL     1       7.047  -7.614  28.424  1.00  0.00     0.077 A 
HETATM   21  C16 UNL     1       5.782  -5.638  29.900  1.00  0.00     0.020 A 
HETATM   22  C27 UNL     1       3.704  -6.025  28.903  1.00  0.00     0.255 C 
HETATM   23  C15 UNL     1       7.156  -5.780  30.198  1.00  0.00     0.017 A 
HETATM   24  C28 UNL     1       4.764  -4.730  30.527  1.00  0.00     0.257 C 
HETATM   25  C14 UNL     1       8.111  -5.207  31.086  1.00  0.00     0.004 A 
HETATM   26  C26 UNL     1       7.838  -6.736  29.477  1.00  0.00     0.077 A 
HETATM   27  C9  UNL     1       9.357  -5.824  30.855  1.00  0.00     0.049 A 
HETATM   28  C13 UNL     1       8.024  -4.200  32.073  1.00  0.00     0.014 A 
HETATM   29  N2  UNL     1       9.188  -6.743  29.819  1.00  0.00    -0.308 N 
HETATM   30  C10 UNL     1      10.494  -5.459  31.599  1.00  0.00     0.030 A 
HETATM   31  C11 UNL     1      10.373  -4.467  32.576  1.00  0.00     0.002 A 
HETATM   32  C12 UNL     1       9.156  -3.840  32.809  1.00  0.00     0.001 A 
HETATM   33  N4  UNL     1       3.576  -4.967  29.779  1.00  0.00    -0.326 N 
HETATM   34  H24 UNL     1       2.654  -4.689  30.081  1.00  0.00     0.165 HD
HETATM   35  O3  UNL     1       2.789  -6.518  28.274  1.00  0.00    -0.268 OA
HETATM   36  C21 UNL     1       4.272  -9.867  25.543  1.00  0.00     0.001 A 
HETATM   37  C22 UNL     1       5.444 -10.584  25.322  1.00  0.00     0.002 A 
BRANCH  24  38
HETATM   38  O4  UNL     1       5.078  -3.377  30.355  1.00  0.00    -0.372 OA
HETATM   39  H26 UNL     1       4.526  -3.100  29.602  1.00  0.00     0.212 HD
ENDBRANCH  24  38
ENDBRANCH   3  13
TORSDOF 5
ENDMDL
MODEL 4
REMARK minimizedAffinity -9.87408924
REMARK  5 active torsions:
REMARK  status: ('A' for Active; 'I' for Inactive)
REMARK    1  A    between atoms: N1_2  and  C2_3 
REMARK    2  A    between atoms: C4_5  and  N3_29 
REMARK    3  A    between atoms: C5_7  and  N2_12 
REMARK    4  A    between atoms: C7_9  and  O2_10 
REMARK    5  A    between atoms: C28_35  and  O4_36 
ROOT
HETATM    1  C2  UNL     1      11.116  -9.447  28.414  1.00  0.00     0.257 C 
HETATM    2  C3  UNL     1       9.876  -9.073  29.327  1.00  0.00     0.092 C 
HETATM    3  C4  UNL     1      10.076  -7.615  29.649  1.00  0.00     0.234 C 
HETATM    4  O1  UNL     1      10.406  -7.017  28.388  1.00  0.00    -0.333 OA
HETATM    5  C5  UNL     1      11.840  -6.952  28.268  1.00  0.00     0.168 C 
HETATM    6  C6  UNL     1      12.024  -6.650  26.767  1.00  0.00     0.074 C 
HETATM    7  C7  UNL     1      12.372  -8.436  28.589  1.00  0.00     0.209 C 
ENDROOT
BRANCH   1   8
HETATM    8  N1  UNL     1      11.391 -10.898  28.427  1.00  0.00     0.086 N 
HETATM    9  C1  UNL     1      11.484 -11.497  29.750  1.00  0.00     0.307 C 
HETATM   10  H4  UNL     1      10.662 -11.379  27.898  1.00  0.00     0.316 HD
ENDBRANCH   1   8
BRANCH   7  11
HETATM   11  O2  UNL     1      12.850  -8.586  29.939  1.00  0.00    -0.384 OA
HETATM   12  C8  UNL     1      14.260  -8.715  30.053  1.00  0.00     0.202 C 
ENDBRANCH   7  11
BRANCH   3  13
HETATM   13  N3  UNL     1       9.321  -6.613  30.314  1.00  0.00    -0.316 N 
HETATM   14  C24 UNL     1       9.603  -5.610  31.190  1.00  0.00     0.048 A 
HETATM   15  C19 UNL     1       8.425  -4.832  31.298  1.00  0.00     0.004 A 
HETATM   16  C23 UNL     1      10.777  -5.299  31.892  1.00  0.00     0.030 A 
HETATM   17  C18 UNL     1       7.427  -5.404  30.436  1.00  0.00     0.022 A 
HETATM   18  C20 UNL     1       8.454  -3.708  32.151  1.00  0.00     0.014 A 
HETATM   19  C17 UNL     1       6.117  -5.199  29.984  1.00  0.00     0.057 A 
HETATM   20  C25 UNL     1       8.022  -6.512  29.888  1.00  0.00     0.077 A 
HETATM   21  C16 UNL     1       5.433  -6.027  29.024  1.00  0.00     0.020 A 
HETATM   22  C27 UNL     1       5.204  -4.104  30.332  1.00  0.00     0.255 C 
HETATM   23  C15 UNL     1       6.022  -7.173  28.444  1.00  0.00     0.017 A 
HETATM   24  C28 UNL     1       4.087  -5.416  28.761  1.00  0.00     0.257 C 
HETATM   25  C14 UNL     1       5.676  -8.173  27.490  1.00  0.00     0.004 A 
HETATM   26  C26 UNL     1       7.302  -7.472  28.855  1.00  0.00     0.077 A 
HETATM   27  C9  UNL     1       6.761  -9.066  27.372  1.00  0.00     0.049 A 
HETATM   28  C13 UNL     1       4.519  -8.403  26.713  1.00  0.00     0.014 A 
HETATM   29  N2  UNL     1       7.751  -8.648  28.260  1.00  0.00    -0.308 N 
HETATM   30  C10 UNL     1       6.704 -10.160  26.488  1.00  0.00     0.030 A 
HETATM   31  C11 UNL     1       5.549 -10.353  25.725  1.00  0.00     0.002 A 
HETATM   32  C12 UNL     1       4.466  -9.491  25.838  1.00  0.00     0.001 A 
HETATM   33  N4  UNL     1       4.011  -4.330  29.679  1.00  0.00    -0.326 N 
HETATM   34  H24 UNL     1       3.338  -3.580  29.610  1.00  0.00     0.165 HD
HETATM   35  O3  UNL     1       5.435  -3.144  31.041  1.00  0.00    -0.268 OA
HETATM   36  C21 UNL     1       9.620  -3.395  32.857  1.00  0.00     0.001 A 
HETATM   37  C22 UNL     1      10.762  -4.179  32.727  1.00  0.00     0.002 A 
BRANCH  24  38
HETATM   38  O4  UNL     1       3.036  -6.283  29.082  1.00  0.00    -0.372 OA
HETATM   39  H26 UNL     1       2.746  -5.985  29.963  1.00  0.00     0.212 HD
ENDBRANCH  24  38
ENDBRANCH   3  13
TORSDOF 5
ENDMDL
MODEL 5
REMARK minimizedAffinity -9.82233429
REMARK  5 active torsions:
REMARK  status: ('A' for Active; 'I' for Inactive)
REMARK    1  A    between atoms: N1_2  and  C2_3 
REMARK    2  A    between atoms: C4_5  and  N3_29 
REMARK    3  A    between atoms: C5_7  and  N2_12 
REMARK    4  A    between atoms: C7_9  and  O2_10 
REMARK    5  A    between atoms: C28_35  and  O4_36 
ROOT
HETATM    1  C2  UNL     1       7.336 -10.320  27.008  1.00  0.00     0.257 C 
HETATM    2  C3  UNL     1       7.550  -9.606  28.407  1.00  0.00     0.092 C 
HETATM    3  C4  UNL     1       7.268  -8.153  28.132  1.00  0.00     0.234 C 
HETATM    4  O1  UNL     1       6.053  -8.168  27.370  1.00  0.00    -0.333 OA
HETATM    5  C5  UNL     1       6.386  -8.132  25.969  1.00  0.00     0.168 C 
HETATM    6  C6  UNL     1       5.048  -8.521  25.310  1.00  0.00     0.074 C 
HETATM    7  C7  UNL     1       7.459  -9.309  25.746  1.00  0.00     0.209 C 
ENDROOT
BRANCH   1   8
HETATM    8  N1  UNL     1       8.053 -11.609  26.933  1.00  0.00     0.086 N 
HETATM    9  C1  UNL     1       7.947 -12.300  25.657  1.00  0.00     0.307 C 
HETATM   10  H4  UNL     1       9.039 -11.453  27.142  1.00  0.00     0.316 HD
ENDBRANCH   1   8
BRANCH   7  11
HETATM   11  O2  UNL     1       8.820  -8.836  25.714  1.00  0.00    -0.384 OA
HETATM   12  C8  UNL     1       9.362  -8.693  24.409  1.00  0.00     0.202 C 
ENDBRANCH   7  11
BRANCH   3  13
HETATM   13  N3  UNL     1       7.161  -6.976  28.920  1.00  0.00    -0.316 N 
HETATM   14  C24 UNL     1       6.138  -6.179  29.335  1.00  0.00     0.048 A 
HETATM   15  C19 UNL     1       6.690  -5.284  30.283  1.00  0.00     0.004 A 
HETATM   16  C23 UNL     1       4.781  -6.159  28.983  1.00  0.00     0.030 A 
HETATM   17  C18 UNL     1       8.087  -5.589  30.430  1.00  0.00     0.022 A 
HETATM   18  C20 UNL     1       5.825  -4.342  30.881  1.00  0.00     0.014 A 
HETATM   19  C17 UNL     1       9.223  -5.213  31.158  1.00  0.00     0.057 A 
HETATM   20  C25 UNL     1       8.324  -6.609  29.545  1.00  0.00     0.077 A 
HETATM   21  C16 UNL     1      10.522  -5.824  31.041  1.00  0.00     0.020 A 
HETATM   22  C27 UNL     1       9.325  -4.189  32.205  1.00  0.00     0.255 C 
HETATM   23  C15 UNL     1      10.793  -6.876  30.137  1.00  0.00     0.017 A 
HETATM   24  C28 UNL     1      11.429  -5.180  32.048  1.00  0.00     0.257 C 
HETATM   25  C14 UNL     1      11.897  -7.702  29.776  1.00  0.00     0.004 A 
HETATM   26  C26 UNL     1       9.740  -7.291  29.354  1.00  0.00     0.077 A 
HETATM   27  C9  UNL     1      11.475  -8.583  28.759  1.00  0.00     0.049 A 
HETATM   28  C13 UNL     1      13.234  -7.773  30.226  1.00  0.00     0.014 A 
HETATM   29  N2  UNL     1      10.143  -8.289  28.470  1.00  0.00    -0.308 N 
HETATM   30  C10 UNL     1      12.362  -9.527  28.207  1.00  0.00     0.030 A 
HETATM   31  C11 UNL     1      13.675  -9.580  28.682  1.00  0.00     0.002 A 
HETATM   32  C12 UNL     1      14.110  -8.712  29.675  1.00  0.00     0.001 A 
HETATM   33  N4  UNL     1      10.641  -4.139  32.615  1.00  0.00    -0.326 N 
HETATM   34  H24 UNL     1      10.869  -3.662  33.475  1.00  0.00     0.165 HD
HETATM   35  O3  UNL     1       8.429  -3.511  32.668  1.00  0.00    -0.268 OA
HETATM   36  C21 UNL     1       4.471  -4.314  30.530  1.00  0.00     0.001 A 
HETATM   37  C22 UNL     1       3.959  -5.210  29.597  1.00  0.00     0.002 A 
BRANCH  24  38
HETATM   38  O4  UNL     1      12.535  -4.562  31.452  1.00  0.00    -0.372 OA
HETATM   39  H26 UNL     1      12.286  -3.621  31.413  1.00  0.00     0.212 HD
ENDBRANCH  24  38
ENDBRANCH   3  13
TORSDOF 5
ENDMDL
MODEL 6
REMARK minimizedAffinity -9.81141186
REMARK  5 active torsions:
REMARK  status: ('A' for Active; 'I' for Inactive)
REMARK    1  A    between atoms: N1_2  and  C2_3 
REMARK    2  A    between atoms: C4_5  and  N3_29 
REMARK    3  A    between atoms: C5_7  and  N2_12 
REMARK    4  A    between atoms: C7_9  and  O2_10 
REMARK    5  A    between atoms: C28_35  and  O4_36 
ROOT
HETATM    1  C2  UNL     1      11.477  -4.551  31.311  1.00  0.00     0.257 C 
HETATM    2  C3  UNL     1      10.359  -5.652  31.534  1.00  0.00     0.092 C 
HETATM    3  C4  UNL     1       9.276  -5.289  30.553  1.00  0.00     0.234 C 
HETATM    4  O1  UNL     1       9.980  -5.037  29.328  1.00  0.00    -0.333 OA
HETATM    5  C5  UNL     1      10.232  -3.622  29.223  1.00  0.00     0.168 C 
HETATM    6  C6  UNL     1      11.280  -3.565  28.094  1.00  0.00     0.074 C 
HETATM    7  C7  UNL     1      10.916  -3.197  30.616  1.00  0.00     0.209 C 
ENDROOT
BRANCH   1   8
HETATM    8  N1  UNL     1      12.353  -4.409  32.491  1.00  0.00     0.086 N 
HETATM    9  C1  UNL     1      11.696  -3.917  33.693  1.00  0.00     0.307 C 
HETATM   10  H4  UNL     1      12.782  -5.313  32.697  1.00  0.00     0.316 HD
ENDBRANCH   1   8
BRANCH   7  11
HETATM   11  O2  UNL     1       9.990  -2.599  31.543  1.00  0.00    -0.384 OA
HETATM   12  C8  UNL     1      10.062  -1.182  31.614  1.00  0.00     0.202 C 
ENDBRANCH   7  11
BRANCH   3  13
HETATM   13  N3  UNL     1       8.056  -5.878  30.129  1.00  0.00    -0.316 N 
HETATM   14  C24 UNL     1       6.750  -5.493  30.112  1.00  0.00     0.048 A 
HETATM   15  C19 UNL     1       6.057  -6.468  29.355  1.00  0.00     0.004 A 
HETATM   16  C23 UNL     1       6.107  -4.381  30.675  1.00  0.00     0.030 A 
HETATM   17  C18 UNL     1       7.008  -7.449  28.905  1.00  0.00     0.022 A 
HETATM   18  C20 UNL     1       4.667  -6.297  29.175  1.00  0.00     0.014 A 
HETATM   19  C17 UNL     1       7.105  -8.608  28.124  1.00  0.00     0.057 A 
HETATM   20  C25 UNL     1       8.207  -7.053  29.440  1.00  0.00     0.077 A 
HETATM   21  C16 UNL     1       8.324  -9.329  27.863  1.00  0.00     0.020 A 
HETATM   22  C27 UNL     1       6.037  -9.286  27.381  1.00  0.00     0.255 C 
HETATM   23  C15 UNL     1       9.572  -8.944  28.401  1.00  0.00     0.017 A 
HETATM   24  C28 UNL     1       8.002 -10.456  26.924  1.00  0.00     0.257 C 
HETATM   25  C14 UNL     1      10.928  -9.380  28.347  1.00  0.00     0.004 A 
HETATM   26  C26 UNL     1       9.567  -7.830  29.210  1.00  0.00     0.077 A 
HETATM   27  C9  UNL     1      11.702  -8.519  29.152  1.00  0.00     0.049 A 
HETATM   28  C13 UNL     1      11.570 -10.448  27.681  1.00  0.00     0.014 A 
HETATM   29  N2  UNL     1      10.838  -7.585  29.723  1.00  0.00    -0.308 N 
HETATM   30  C10 UNL     1      13.090  -8.707  29.284  1.00  0.00     0.030 A 
HETATM   31  C11 UNL     1      13.697  -9.766  28.603  1.00  0.00     0.002 A 
HETATM   32  C12 UNL     1      12.948 -10.630  27.815  1.00  0.00     0.001 A 
HETATM   33  N4  UNL     1       6.586 -10.404  26.788  1.00  0.00    -0.326 N 
HETATM   34  H24 UNL     1       6.071 -10.875  26.057  1.00  0.00     0.165 HD
HETATM   35  O3  UNL     1       4.878  -8.939  27.266  1.00  0.00    -0.268 OA
HETATM   36  C21 UNL     1       4.019  -5.193  29.738  1.00  0.00     0.001 A 
HETATM   37  C22 UNL     1       4.730  -4.251  30.475  1.00  0.00     0.002 A 
BRANCH  24  38
HETATM   38  O4  UNL     1       8.303 -11.709  27.472  1.00  0.00    -0.372 OA
HETATM   39  H26 UNL     1       7.445 -12.036  27.796  1.00  0.00     0.212 HD
ENDBRANCH  24  38
ENDBRANCH   3  13
TORSDOF 5
ENDMDL
MODEL 7
REMARK minimizedAffinity -9.73904133
REMARK  5 active torsions:
REMARK  status: ('A' for Active; 'I' for Inactive)
REMARK    1  A    between atoms: N1_2  and  C2_3 
REMARK    2  A    between atoms: C4_5  and  N3_29 
REMARK    3  A    between atoms: C5_7  and  N2_12 
REMARK    4  A    between atoms: C7_9  and  O2_10 
REMARK    5  A    between atoms: C28_35  and  O4_36 
ROOT
HETATM    1  C2  UNL     1       7.463  -3.738  31.828  1.00  0.00     0.257 C 
HETATM    2  C3  UNL     1       7.649  -4.562  30.487  1.00  0.00     0.092 C 
HETATM    3  C4  UNL     1       8.888  -5.385  30.724  1.00  0.00     0.234 C 
HETATM    4  O1  UNL     1       8.700  -5.937  32.034  1.00  0.00    -0.333 OA
HETATM    5  C5  UNL     1       9.360  -5.087  32.992  1.00  0.00     0.168 C 
HETATM    6  C6  UNL     1       8.768  -5.586  34.326  1.00  0.00     0.074 C 
HETATM    7  C7  UNL     1       8.830  -3.598  32.691  1.00  0.00     0.209 C 
ENDROOT
BRANCH   1   8
HETATM    8  N1  UNL     1       6.652  -2.522  31.618  1.00  0.00     0.086 N 
HETATM    9  C1  UNL     1       5.359  -2.742  30.988  1.00  0.00     0.307 C 
HETATM   10  H4  UNL     1       6.505  -2.061  32.518  1.00  0.00     0.316 HD
ENDBRANCH   1   8
BRANCH   7  11
HETATM   11  O2  UNL     1       9.749  -2.818  31.903  1.00  0.00    -0.384 OA
HETATM   12  C8  UNL     1      10.267  -1.674  32.566  1.00  0.00     0.202 C 
ENDBRANCH   7  11
BRANCH   3  13
HETATM   13  N3  UNL     1       9.571  -6.410  30.017  1.00  0.00    -0.316 N 
HETATM   14  C24 UNL     1      10.845  -6.890  30.000  1.00  0.00     0.048 A 
HETATM   15  C19 UNL     1      10.815  -8.073  29.223  1.00  0.00     0.004 A 
HETATM   16  C23 UNL     1      12.020  -6.413  30.598  1.00  0.00     0.030 A 
HETATM   17  C18 UNL     1       9.463  -8.290  28.785  1.00  0.00     0.022 A 
HETATM   18  C20 UNL     1      12.025  -8.780  29.053  1.00  0.00     0.014 A 
HETATM   19  C17 UNL     1       8.671  -9.201  28.074  1.00  0.00     0.057 A 
HETATM   20  C25 UNL     1       8.755  -7.222  29.273  1.00  0.00     0.077 A 
HETATM   21  C16 UNL     1       7.250  -9.080  27.871  1.00  0.00     0.020 A 
HETATM   22  C27 UNL     1       9.088 -10.462  27.450  1.00  0.00     0.255 C 
HETATM   23  C15 UNL     1       6.497  -7.990  28.362  1.00  0.00     0.017 A 
HETATM   24  C28 UNL     1       6.784 -10.299  27.130  1.00  0.00     0.257 C 
HETATM   25  C14 UNL     1       5.137  -7.564  28.374  1.00  0.00     0.004 A 
HETATM   26  C26 UNL     1       7.200  -7.026  29.049  1.00  0.00     0.077 A 
HETATM   27  C9  UNL     1       5.067  -6.331  29.055  1.00  0.00     0.049 A 
HETATM   28  C13 UNL     1       3.949  -8.122  27.853  1.00  0.00     0.014 A 
HETATM   29  N2  UNL     1       6.363  -5.981  29.431  1.00  0.00    -0.308 N 
HETATM   30  C10 UNL     1       3.836  -5.670  29.227  1.00  0.00     0.030 A 
HETATM   31  C11 UNL     1       2.676  -6.254  28.710  1.00  0.00     0.002 A 
HETATM   32  C12 UNL     1       2.729  -7.462  28.026  1.00  0.00     0.001 A 
HETATM   33  N4  UNL     1       7.982 -11.007  26.831  1.00  0.00    -0.326 N 
HETATM   34  H24 UNL     1       8.009 -11.974  26.541  1.00  0.00     0.165 HD
HETATM   35  O3  UNL     1      10.189 -10.974  27.477  1.00  0.00    -0.268 OA
HETATM   36  C21 UNL     1      13.201  -8.306  29.643  1.00  0.00     0.001 A 
HETATM   37  C22 UNL     1      13.197  -7.142  30.404  1.00  0.00     0.002 A 
BRANCH  24  38
HETATM   38  O4  UNL     1       6.192  -9.983  25.901  1.00  0.00    -0.372 OA
HETATM   39  H26 UNL     1       6.901 -10.138  25.251  1.00  0.00     0.212 HD
ENDBRANCH  24  38
ENDBRANCH   3  13
TORSDOF 5
ENDMDL
MODEL 8
REMARK minimizedAffinity -9.58367443
REMARK  5 active torsions:
REMARK  status: ('A' for Active; 'I' for Inactive)
REMARK    1  A    between atoms: N1_2  and  C2_3 
REMARK    2  A    between atoms: C4_5  and  N3_29 
REMARK    3  A    between atoms: C5_7  and  N2_12 
REMARK    4  A    between atoms: C7_9  and  O2_10 
REMARK    5  A    between atoms: C28_35  and  O4_36 
ROOT
HETATM    1  C2  UNL     1      11.307  -4.456  32.128  1.00  0.00     0.257 C 
HETATM    2  C3  UNL     1      11.552  -6.005  31.895  1.00  0.00     0.092 C 
HETATM    3  C4  UNL     1      10.910  -6.288  30.562  1.00  0.00     0.234 C 
HETATM    4  O1  UNL     1      11.369  -5.225  29.716  1.00  0.00    -0.333 OA
HETATM    5  C5  UNL     1      10.378  -4.178  29.713  1.00  0.00     0.168 C 
HETATM    6  C6  UNL     1      11.157  -3.001  29.092  1.00  0.00     0.074 C 
HETATM    7  C7  UNL     1      10.071  -3.864  31.260  1.00  0.00     0.209 C 
ENDROOT
BRANCH   1   8
HETATM    8  N1  UNL     1      11.381  -4.097  33.558  1.00  0.00     0.086 N 
HETATM    9  C1  UNL     1      11.829  -2.740  33.832  1.00  0.00     0.307 C 
HETATM   10  H4  UNL     1      10.462  -4.232  33.983  1.00  0.00     0.316 HD
ENDBRANCH   1   8
BRANCH   7  11
HETATM   11  O2  UNL     1       8.873  -4.503  31.740  1.00  0.00    -0.384 OA
HETATM   12  C8  UNL     1       8.516  -4.159  33.071  1.00  0.00     0.202 C 
ENDBRANCH   7  11
BRANCH   3  13
HETATM   13  N3  UNL     1      10.837  -7.408  29.692  1.00  0.00    -0.316 N 
HETATM   14  C24 UNL     1      11.696  -8.392  29.308  1.00  0.00     0.048 A 
HETATM   15  C19 UNL     1      10.927  -9.330  28.578  1.00  0.00     0.004 A 
HETATM   16  C23 UNL     1      13.069  -8.562  29.537  1.00  0.00     0.030 A 
HETATM   17  C18 UNL     1       9.564  -8.873  28.554  1.00  0.00     0.022 A 
HETATM   18  C20 UNL     1      11.586 -10.469  28.067  1.00  0.00     0.014 A 
HETATM   19  C17 UNL     1       8.288  -9.242  28.107  1.00  0.00     0.057 A 
HETATM   20  C25 UNL     1       9.578  -7.675  29.221  1.00  0.00     0.077 A 
HETATM   21  C16 UNL     1       7.083  -8.485  28.325  1.00  0.00     0.020 A 
HETATM   22  C27 UNL     1       7.903 -10.465  27.394  1.00  0.00     0.255 C 
HETATM   23  C15 UNL     1       7.070  -7.248  29.009  1.00  0.00     0.017 A 
HETATM   24  C28 UNL     1       5.935  -9.267  27.757  1.00  0.00     0.257 C 
HETATM   25  C14 UNL     1       6.113  -6.273  29.413  1.00  0.00     0.004 A 
HETATM   26  C26 UNL     1       8.288  -6.789  29.457  1.00  0.00     0.077 A 
HETATM   27  C9  UNL     1       6.794  -5.234  30.080  1.00  0.00     0.049 A 
HETATM   28  C13 UNL     1       4.711  -6.179  29.263  1.00  0.00     0.014 A 
HETATM   29  N2  UNL     1       8.154  -5.541  30.062  1.00  0.00    -0.308 N 
HETATM   30  C10 UNL     1       6.095  -4.128  30.600  1.00  0.00     0.030 A 
HETATM   31  C11 UNL     1       4.708  -4.071  30.445  1.00  0.00     0.002 A 
HETATM   32  C12 UNL     1       4.022  -5.080  29.780  1.00  0.00     0.001 A 
HETATM   33  N4  UNL     1       6.552 -10.384  27.126  1.00  0.00    -0.326 N 
HETATM   34  H24 UNL     1       6.056 -11.218  26.845  1.00  0.00     0.165 HD
HETATM   35  O3  UNL     1       8.611 -11.408  27.102  1.00  0.00    -0.268 OA
HETATM   36  C21 UNL     1      12.957 -10.640  28.287  1.00  0.00     0.001 A 
HETATM   37  C22 UNL     1      13.684  -9.701  29.012  1.00  0.00     0.002 A 
BRANCH  24  38
HETATM   38  O4  UNL     1       5.258  -8.567  26.752  1.00  0.00    -0.372 OA
HETATM   39  H26 UNL     1       5.620  -8.933  25.925  1.00  0.00     0.212 HD
ENDBRANCH  24  38
ENDBRANCH   3  13
TORSDOF 5
ENDMDL
MODEL 9
REMARK minimizedAffinity -9.33751011
REMARK  5 active torsions:
REMARK  status: ('A' for Active; 'I' for Inactive)
REMARK    1  A    between atoms: N1_2  and  C2_3 
REMARK    2  A    between atoms: C4_5  and  N3_29 
REMARK    3  A    between atoms: C5_7  and  N2_12 
REMARK    4  A    between atoms: C7_9  and  O2_10 
REMARK    5  A    between atoms: C28_35  and  O4_36 
ROOT
HETATM    1  C2  UNL     1      11.519  -6.526  29.565  1.00  0.00     0.257 C 
HETATM    2  C3  UNL     1      10.151  -7.217  29.971  1.00  0.00     0.092 C 
HETATM    3  C4  UNL     1       9.102  -6.186  29.649  1.00  0.00     0.234 C 
HETATM    4  O1  UNL     1       9.455  -5.720  28.340  1.00  0.00    -0.333 OA
HETATM    5  C5  UNL     1      10.256  -4.529  28.474  1.00  0.00     0.168 C 
HETATM    6  C6  UNL     1      10.846  -4.377  27.058  1.00  0.00     0.074 C 
HETATM    7  C7  UNL     1      11.428  -4.907  29.508  1.00  0.00     0.209 C 
ENDROOT
BRANCH   1   8
HETATM    8  N1  UNL     1      12.670  -7.129  30.267  1.00  0.00     0.086 N 
HETATM    9  C1  UNL     1      12.699  -8.584  30.269  1.00  0.00     0.307 C 
HETATM   10  H4  UNL     1      13.533  -6.783  29.847  1.00  0.00     0.316 HD
ENDBRANCH   1   8
BRANCH   7  11
HETATM   11  O2  UNL     1      11.169  -4.451  30.850  1.00  0.00    -0.384 OA
HETATM   12  C8  UNL     1      11.741  -3.190  31.163  1.00  0.00     0.202 C 
ENDBRANCH   7  11
BRANCH   3  13
HETATM   13  N3  UNL     1       7.682  -6.153  29.651  1.00  0.00    -0.316 N 
HETATM   14  C24 UNL     1       6.735  -5.274  30.078  1.00  0.00     0.048 A 
HETATM   15  C19 UNL     1       5.497  -5.749  29.582  1.00  0.00     0.004 A 
HETATM   16  C23 UNL     1       6.839  -4.101  30.840  1.00  0.00     0.030 A 
HETATM   17  C18 UNL     1       5.744  -6.946  28.826  1.00  0.00     0.022 A 
HETATM   18  C20 UNL     1       4.337  -5.002  29.881  1.00  0.00     0.014 A 
HETATM   19  C17 UNL     1       5.091  -7.905  28.041  1.00  0.00     0.057 A 
HETATM   20  C25 UNL     1       7.094  -7.163  28.934  1.00  0.00     0.077 A 
HETATM   21  C16 UNL     1       5.735  -9.008  27.375  1.00  0.00     0.020 A 
HETATM   22  C27 UNL     1       3.668  -7.963  27.689  1.00  0.00     0.255 C 
HETATM   23  C15 UNL     1       7.123  -9.255  27.470  1.00  0.00     0.017 A 
HETATM   24  C28 UNL     1       4.693  -9.742  26.583  1.00  0.00     0.257 C 
HETATM   25  C14 UNL     1       8.069 -10.189  26.958  1.00  0.00     0.004 A 
HETATM   26  C26 UNL     1       7.844  -8.378  28.250  1.00  0.00     0.077 A 
HETATM   27  C9  UNL     1       9.340  -9.857  27.470  1.00  0.00     0.049 A 
HETATM   28  C13 UNL     1       7.953 -11.305  26.100  1.00  0.00     0.014 A 
HETATM   29  N2  UNL     1       9.183  -8.755  28.311  1.00  0.00    -0.308 N 
HETATM   30  C10 UNL     1      10.478 -10.611  27.126  1.00  0.00     0.030 A 
HETATM   31  C11 UNL     1      10.331 -11.702  26.265  1.00  0.00     0.002 A 
HETATM   32  C12 UNL     1       9.085 -12.051  25.761  1.00  0.00     0.001 A 
HETATM   33  N4  UNL     1       3.471  -9.099  26.930  1.00  0.00    -0.326 N 
HETATM   34  H24 UNL     1       2.613  -9.197  26.407  1.00  0.00     0.165 HD
HETATM   35  O3  UNL     1       2.800  -7.162  27.973  1.00  0.00    -0.268 OA
HETATM   36  C21 UNL     1       4.434  -3.834  30.645  1.00  0.00     0.001 A 
HETATM   37  C22 UNL     1       5.667  -3.392  31.115  1.00  0.00     0.002 A 
BRANCH  24  38
HETATM   38  O4  UNL     1       4.564 -11.079  26.979  1.00  0.00    -0.372 OA
HETATM   39  H26 UNL     1       3.788 -11.076  27.568  1.00  0.00     0.212 HD
ENDBRANCH  24  38
ENDBRANCH   3  13
TORSDOF 5
ENDMDL
