MODEL 1
REMARK minimizedAffinity -8.45984459
REMARK CNNscore 0.481093287
REMARK CNNaffinity 7.07337713
REMARK  11 active torsions:
REMARK  status: ('A' for Active; 'I' for Inactive)
REMARK    1  A    between atoms: C2_2  and  C4_4 
REMARK    2  A    between atoms: C4_4  and  C6_6 
REMARK    3  A    between atoms: C7_7  and  C8_8 
REMARK    4  A    between atoms: C8_8  and  C10_10 
REMARK    5  A    between atoms: C24_24  and  O1_25 
REMARK    6  A    between atoms: O1_25  and  C25_26 
REMARK    7  A    between atoms: C26_28  and  C27_29 
REMARK    8  A    between atoms: C27_29  and  O3_30 
REMARK    9  A    between atoms: C28_31  and  O4_32 
REMARK   10  A    between atoms: C29_33  and  O5_34 
REMARK   11  A    between atoms: C30_35  and  O6_36 
ROOT
HETATM    1  C10 UNL     1      -1.193   6.855  12.413  1.00  0.00     0.001 C 
HETATM    2  C11 UNL     1      -0.909   5.392  12.845  1.00  0.00     0.006 C 
HETATM    3  C12 UNL     1      -2.215   4.864  13.472  1.00  0.00     0.009 C 
HETATM    4  C13 UNL     1      -3.214   5.999  13.266  1.00  0.00     0.036 C 
HETATM    5  C14 UNL     1      -2.358   7.287  13.359  1.00  0.00    -0.033 C 
HETATM    6  C15 UNL     1      -1.870   7.626  14.782  1.00  0.00     0.016 C 
HETATM    7  C16 UNL     1      -3.212   8.449  12.822  1.00  0.00     0.010 C 
HETATM    8  C17 UNL     1      -4.539   8.587  13.593  1.00  0.00     0.010 C 
HETATM    9  C18 UNL     1      -5.362   7.278  13.618  1.00  0.00     0.039 C 
HETATM   10  C19 UNL     1      -4.535   6.012  14.043  1.00  0.00     0.123 C 
HETATM   11  C20 UNL     1      -4.465   5.825  15.536  1.00  0.00     0.014 C 
HETATM   12  C21 UNL     1      -5.667   5.744  16.124  1.00  0.00     0.014 C 
HETATM   13  C22 UNL     1      -6.827   5.932  15.164  1.00  0.00     0.124 C 
HETATM   14  C23 UNL     1      -8.182   5.713  15.849  1.00  0.00     0.078 C 
HETATM   15  C24 UNL     1      -9.382   6.087  14.967  1.00  0.00     0.128 C 
HETATM   16  C31 UNL     1      -9.016   6.502  13.542  1.00  0.00     0.033 C 
HETATM   17  C32 UNL     1      -7.923   7.575  13.494  1.00  0.00     0.015 C 
HETATM   18  C33 UNL     1      -6.714   7.324  14.450  1.00  0.00     0.001 C 
HETATM   19  C34 UNL     1      -6.724   8.471  15.499  1.00  0.00     0.019 C 
HETATM   20  O7  UNL     1      -6.691   4.906  14.143  1.00  0.00    -0.223 OA
HETATM   21  O8  UNL     1      -5.305   4.864  13.588  1.00  0.00    -0.224 OA
ENDROOT
BRANCH  15  22
HETATM   22  O1  UNL     1     -10.059   7.202  15.569  1.00  0.00    -0.353 OA
BRANCH  22  23
HETATM   23  C25 UNL     1     -10.937   7.887  14.668  1.00  0.00     0.292 C 
HETATM   24  O2  UNL     1     -10.965   9.274  15.020  1.00  0.00    -0.348 OA
HETATM   25  C26 UNL     1     -11.813  10.051  14.172  1.00  0.00     0.179 C 
HETATM   26  C28 UNL     1     -13.267   9.591  14.338  1.00  0.00     0.180 C 
HETATM   27  C29 UNL     1     -13.378   8.101  14.027  1.00  0.00     0.183 C 
HETATM   28  C30 UNL     1     -12.349   7.271  14.800  1.00  0.00     0.204 C 
BRANCH  25  29
HETATM   29  C27 UNL     1     -11.668  11.534  14.553  1.00  0.00     0.198 C 
BRANCH  29  30
HETATM   30  O3  UNL     1     -10.482  12.109  14.011  1.00  0.00    -0.398 OA
HETATM   31  H41 UNL     1     -10.372  11.747  13.103  1.00  0.00     0.209 HD
ENDBRANCH  29  30
ENDBRANCH  25  29
BRANCH  26  32
HETATM   32  O4  UNL     1     -14.141  10.330  13.476  1.00  0.00    -0.390 OA
HETATM   33  H43 UNL     1     -14.993   9.844  13.471  1.00  0.00     0.210 HD
ENDBRANCH  26  32
BRANCH  27  34
HETATM   34  O5  UNL     1     -14.712   7.647  14.336  1.00  0.00    -0.390 OA
HETATM   35  H45 UNL     1     -14.829   7.674  15.304  1.00  0.00     0.210 HD
ENDBRANCH  27  34
BRANCH  28  36
HETATM   36  O6  UNL     1     -12.390   5.925  14.302  1.00  0.00    -0.388 OA
HETATM   37  H47 UNL     1     -13.331   5.674  14.243  1.00  0.00     0.210 HD
ENDBRANCH  28  36
ENDBRANCH  22  23
ENDBRANCH  15  22
BRANCH   1  38
HETATM   38  C8  UNL     1       0.050   7.766  12.250  1.00  0.00     0.008 C 
HETATM   39  C9  UNL     1      -0.312   9.216  12.610  1.00  0.00     0.014 C 
BRANCH  38  40
HETATM   40  C7  UNL     1       0.782   7.686  10.923  1.00  0.00    -0.026 C 
HETATM   41  C6  UNL     1       1.991   8.199  10.637  1.00  0.00    -0.026 C 
BRANCH  41  42
HETATM   42  C4  UNL     1       2.690   8.032   9.300  1.00  0.00     0.007 C 
HETATM   43  C5  UNL     1       4.200   7.949   9.554  1.00  0.00     0.014 C 
BRANCH  42  44
HETATM   44  C2  UNL     1       2.150   6.792   8.534  1.00  0.00    -0.015 C 
HETATM   45  C1  UNL     1       1.940   7.093   7.044  1.00  0.00     0.010 C 
HETATM   46  C3  UNL     1       3.082   5.581   8.659  1.00  0.00     0.010 C 
ENDBRANCH  42  44
ENDBRANCH  41  42
ENDBRANCH  38  40
ENDBRANCH   1  38
TORSDOF 11
ENDMDL
MODEL 2
REMARK minimizedAffinity -8.32393074
REMARK CNNscore 0.412007391
REMARK CNNaffinity 6.53486872
REMARK  11 active torsions:
REMARK  status: ('A' for Active; 'I' for Inactive)
REMARK    1  A    between atoms: C2_2  and  C4_4 
REMARK    2  A    between atoms: C4_4  and  C6_6 
REMARK    3  A    between atoms: C7_7  and  C8_8 
REMARK    4  A    between atoms: C8_8  and  C10_10 
REMARK    5  A    between atoms: C24_24  and  O1_25 
REMARK    6  A    between atoms: O1_25  and  C25_26 
REMARK    7  A    between atoms: C26_28  and  C27_29 
REMARK    8  A    between atoms: C27_29  and  O3_30 
REMARK    9  A    between atoms: C28_31  and  O4_32 
REMARK   10  A    between atoms: C29_33  and  O5_34 
REMARK   11  A    between atoms: C30_35  and  O6_36 
ROOT
HETATM    1  C10 UNL     1       2.571   7.029  10.081  1.00  0.00     0.001 C 
HETATM    2  C11 UNL     1       3.067   7.866   8.874  1.00  0.00     0.006 C 
HETATM    3  C12 UNL     1       4.302   8.647   9.368  1.00  0.00     0.009 C 
HETATM    4  C13 UNL     1       4.524   8.137  10.788  1.00  0.00     0.036 C 
HETATM    5  C14 UNL     1       3.099   7.829  11.313  1.00  0.00    -0.033 C 
HETATM    6  C15 UNL     1       2.248   9.079  11.616  1.00  0.00     0.016 C 
HETATM    7  C16 UNL     1       3.250   6.992  12.596  1.00  0.00     0.010 C 
HETATM    8  C17 UNL     1       4.106   7.716  13.654  1.00  0.00     0.010 C 
HETATM    9  C18 UNL     1       5.494   8.142  13.119  1.00  0.00     0.039 C 
HETATM   10  C19 UNL     1       5.442   8.903  11.747  1.00  0.00     0.123 C 
HETATM   11  C20 UNL     1       5.208  10.384  11.899  1.00  0.00     0.014 C 
HETATM   12  C21 UNL     1       6.119  10.994  12.672  1.00  0.00     0.014 C 
HETATM   13  C22 UNL     1       7.136  10.046  13.277  1.00  0.00     0.124 C 
HETATM   14  C23 UNL     1       8.229  10.792  14.053  1.00  0.00     0.078 C 
HETATM   15  C24 UNL     1       9.162   9.864  14.844  1.00  0.00     0.128 C 
HETATM   16  C31 UNL     1       8.903   8.373  14.630  1.00  0.00     0.033 C 
HETATM   17  C32 UNL     1       7.431   7.989  14.818  1.00  0.00     0.015 C 
HETATM   18  C33 UNL     1       6.409   8.952  14.133  1.00  0.00     0.001 C 
HETATM   19  C34 UNL     1       5.586   9.616  15.272  1.00  0.00     0.019 C 
HETATM   20  O7  UNL     1       7.786   9.369  12.166  1.00  0.00    -0.223 OA
HETATM   21  O8  UNL     1       6.788   8.822  11.198  1.00  0.00    -0.224 OA
ENDROOT
BRANCH  15  22
HETATM   22  O1  UNL     1       8.981  10.125  16.246  1.00  0.00    -0.353 OA
BRANCH  22  23
HETATM   23  C25 UNL     1       9.971  11.006  16.791  1.00  0.00     0.292 C 
HETATM   24  O2  UNL     1      11.134  10.960  15.960  1.00  0.00    -0.348 OA
HETATM   25  C26 UNL     1      12.186  11.813  16.417  1.00  0.00     0.179 C 
HETATM   26  C28 UNL     1      12.682  11.329  17.786  1.00  0.00     0.180 C 
HETATM   27  C29 UNL     1      11.519  11.292  18.775  1.00  0.00     0.183 C 
HETATM   28  C30 UNL     1      10.313  10.527  18.221  1.00  0.00     0.204 C 
BRANCH  25  29
HETATM   29  C27 UNL     1      13.328  11.786  15.387  1.00  0.00     0.198 C 
BRANCH  29  30
HETATM   30  O3  UNL     1      14.593  12.046  15.989  1.00  0.00    -0.398 OA
HETATM   31  H41 UNL     1      14.604  11.581  16.855  1.00  0.00     0.209 HD
ENDBRANCH  29  30
ENDBRANCH  25  29
BRANCH  26  32
HETATM   32  O4  UNL     1      13.716  12.183  18.288  1.00  0.00    -0.390 OA
HETATM   33  H43 UNL     1      13.824  11.952  19.235  1.00  0.00     0.210 HD
ENDBRANCH  26  32
BRANCH  27  34
HETATM   34  O5  UNL     1      11.963  10.690  20.008  1.00  0.00    -0.390 OA
HETATM   35  H45 UNL     1      12.136   9.744  19.845  1.00  0.00     0.210 HD
ENDBRANCH  27  34
BRANCH  28  36
HETATM   36  O6  UNL     1       9.211  10.713  19.122  1.00  0.00    -0.388 OA
HETATM   37  H47 UNL     1       9.555  10.570  20.024  1.00  0.00     0.210 HD
ENDBRANCH  28  36
ENDBRANCH  22  23
ENDBRANCH  15  22
BRANCH   1  38
HETATM   38  C8  UNL     1       1.088   6.579  10.029  1.00  0.00     0.008 C 
HETATM   39  C9  UNL     1       0.189   7.776   9.677  1.00  0.00     0.014 C 
BRANCH  38  40
HETATM   40  C7  UNL     1       0.563   5.822  11.234  1.00  0.00    -0.026 C 
HETATM   41  C6  UNL     1      -0.615   6.007  11.853  1.00  0.00    -0.026 C 
BRANCH  41  42
HETATM   42  C4  UNL     1      -1.100   5.172  13.024  1.00  0.00     0.007 C 
HETATM   43  C5  UNL     1      -0.993   6.020  14.297  1.00  0.00     0.014 C 
BRANCH  42  44
HETATM   44  C2  UNL     1      -2.543   4.648  12.781  1.00  0.00    -0.015 C 
HETATM   45  C1  UNL     1      -3.582   5.772  12.902  1.00  0.00     0.010 C 
HETATM   46  C3  UNL     1      -2.698   3.989  11.406  1.00  0.00     0.010 C 
ENDBRANCH  42  44
ENDBRANCH  41  42
ENDBRANCH  38  40
ENDBRANCH   1  38
TORSDOF 11
ENDMDL
MODEL 3
REMARK minimizedAffinity -8.9441185
REMARK CNNscore 0.31708169
REMARK CNNaffinity 6.95908546
REMARK  11 active torsions:
REMARK  status: ('A' for Active; 'I' for Inactive)
REMARK    1  A    between atoms: C2_2  and  C4_4 
REMARK    2  A    between atoms: C4_4  and  C6_6 
REMARK    3  A    between atoms: C7_7  and  C8_8 
REMARK    4  A    between atoms: C8_8  and  C10_10 
REMARK    5  A    between atoms: C24_24  and  O1_25 
REMARK    6  A    between atoms: O1_25  and  C25_26 
REMARK    7  A    between atoms: C26_28  and  C27_29 
REMARK    8  A    between atoms: C27_29  and  O3_30 
REMARK    9  A    between atoms: C28_31  and  O4_32 
REMARK   10  A    between atoms: C29_33  and  O5_34 
REMARK   11  A    between atoms: C30_35  and  O6_36 
ROOT
HETATM    1  C10 UNL     1       0.107   7.032  11.421  1.00  0.00     0.001 C 
HETATM    2  C11 UNL     1       0.484   5.615  11.929  1.00  0.00     0.006 C 
HETATM    3  C12 UNL     1      -0.716   5.122  12.763  1.00  0.00     0.009 C 
HETATM    4  C13 UNL     1      -1.761   6.221  12.600  1.00  0.00     0.036 C 
HETATM    5  C14 UNL     1      -0.934   7.524  12.475  1.00  0.00    -0.033 C 
HETATM    6  C15 UNL     1      -0.273   7.988  13.789  1.00  0.00     0.016 C 
HETATM    7  C16 UNL     1      -1.881   8.625  11.964  1.00  0.00     0.010 C 
HETATM    8  C17 UNL     1      -3.099   8.808  12.890  1.00  0.00     0.010 C 
HETATM    9  C18 UNL     1      -3.878   7.492  13.130  1.00  0.00     0.039 C 
HETATM   10  C19 UNL     1      -2.970   6.279  13.542  1.00  0.00     0.123 C 
HETATM   11  C20 UNL     1      -2.700   6.218  15.023  1.00  0.00     0.014 C 
HETATM   12  C21 UNL     1      -3.813   6.169  15.769  1.00  0.00     0.014 C 
HETATM   13  C22 UNL     1      -5.092   6.259  14.960  1.00  0.00     0.124 C 
HETATM   14  C23 UNL     1      -6.341   6.077  15.833  1.00  0.00     0.078 C 
HETATM   15  C24 UNL     1      -7.655   6.359  15.090  1.00  0.00     0.128 C 
HETATM   16  C31 UNL     1      -7.489   6.659  13.601  1.00  0.00     0.033 C 
HETATM   17  C32 UNL     1      -6.440   7.740  13.322  1.00  0.00     0.015 C 
HETATM   18  C33 UNL     1      -5.109   7.588  14.127  1.00  0.00     0.001 C 
HETATM   19  C34 UNL     1      -5.012   8.818  15.072  1.00  0.00     0.019 C 
HETATM   20  O7  UNL     1      -5.065   5.154  14.016  1.00  0.00    -0.223 OA
HETATM   21  O8  UNL     1      -3.763   5.086  13.287  1.00  0.00    -0.224 OA
ENDROOT
BRANCH  15  22
HETATM   22  O1  UNL     1      -8.275   7.510  15.685  1.00  0.00    -0.353 OA
BRANCH  22  23
HETATM   23  C25 UNL     1      -9.685   7.585  15.440  1.00  0.00     0.292 C 
HETATM   24  O2  UNL     1      -9.897   7.818  14.045  1.00  0.00    -0.348 OA
HETATM   25  C26 UNL     1     -11.279   7.905  13.693  1.00  0.00     0.179 C 
HETATM   26  C28 UNL     1     -11.909   9.124  14.378  1.00  0.00     0.180 C 
HETATM   27  C29 UNL     1     -11.719   9.025  15.889  1.00  0.00     0.183 C 
HETATM   28  C30 UNL     1     -10.262   8.754  16.273  1.00  0.00     0.204 C 
BRANCH  25  29
HETATM   29  C27 UNL     1     -11.394   8.023  12.164  1.00  0.00     0.198 C 
BRANCH  29  30
HETATM   30  O3  UNL     1     -11.689   9.355  11.754  1.00  0.00    -0.398 OA
HETATM   31  H41 UNL     1     -11.166   9.959  12.328  1.00  0.00     0.209 HD
ENDBRANCH  29  30
ENDBRANCH  25  29
BRANCH  26  32
HETATM   32  O4  UNL     1     -13.305   9.221  14.071  1.00  0.00    -0.390 OA
HETATM   33  H43 UNL     1     -13.677   9.872  14.703  1.00  0.00     0.210 HD
ENDBRANCH  26  32
BRANCH  27  34
HETATM   34  O5  UNL     1     -12.175  10.246  16.508  1.00  0.00    -0.390 OA
HETATM   35  H45 UNL     1     -11.561  10.963  16.261  1.00  0.00     0.210 HD
ENDBRANCH  27  34
BRANCH  28  36
HETATM   36  O6  UNL     1     -10.212   8.478  17.682  1.00  0.00    -0.388 OA
HETATM   37  H47 UNL     1     -10.754   9.159  18.122  1.00  0.00     0.210 HD
ENDBRANCH  28  36
ENDBRANCH  22  23
ENDBRANCH  15  22
BRANCH   1  38
HETATM   38  C8  UNL     1       1.295   7.945  11.022  1.00  0.00     0.008 C 
HETATM   39  C9  UNL     1       1.374   8.062   9.490  1.00  0.00     0.014 C 
BRANCH  38  40
HETATM   40  C7  UNL     1       2.645   7.608  11.627  1.00  0.00    -0.026 C 
HETATM   41  C6  UNL     1       3.541   8.473  12.132  1.00  0.00    -0.026 C 
BRANCH  41  42
HETATM   42  C4  UNL     1       4.852   8.059  12.775  1.00  0.00     0.007 C 
HETATM   43  C5  UNL     1       6.000   8.687  11.975  1.00  0.00     0.014 C 
BRANCH  42  44
HETATM   44  C2  UNL     1       4.892   8.455  14.277  1.00  0.00    -0.015 C 
HETATM   45  C1  UNL     1       3.649   7.956  15.028  1.00  0.00     0.010 C 
HETATM   46  C3  UNL     1       6.139   7.916  14.987  1.00  0.00     0.010 C 
ENDBRANCH  42  44
ENDBRANCH  41  42
ENDBRANCH  38  40
ENDBRANCH   1  38
TORSDOF 11
ENDMDL
MODEL 4
REMARK minimizedAffinity -7.5667491
REMARK CNNscore 0.305077314
REMARK CNNaffinity 5.59276056
REMARK  11 active torsions:
REMARK  status: ('A' for Active; 'I' for Inactive)
REMARK    1  A    between atoms: C2_2  and  C4_4 
REMARK    2  A    between atoms: C4_4  and  C6_6 
REMARK    3  A    between atoms: C7_7  and  C8_8 
REMARK    4  A    between atoms: C8_8  and  C10_10 
REMARK    5  A    between atoms: C24_24  and  O1_25 
REMARK    6  A    between atoms: O1_25  and  C25_26 
REMARK    7  A    between atoms: C26_28  and  C27_29 
REMARK    8  A    between atoms: C27_29  and  O3_30 
REMARK    9  A    between atoms: C28_31  and  O4_32 
REMARK   10  A    between atoms: C29_33  and  O5_34 
REMARK   11  A    between atoms: C30_35  and  O6_36 
ROOT
HETATM    1  C10 UNL     1      -5.379 -10.444   7.084  1.00  0.00     0.001 C 
HETATM    2  C11 UNL     1      -4.021 -10.302   7.822  1.00  0.00     0.006 C 
HETATM    3  C12 UNL     1      -4.347 -10.297   9.330  1.00  0.00     0.009 C 
HETATM    4  C13 UNL     1      -5.850 -10.551   9.388  1.00  0.00     0.036 C 
HETATM    5  C14 UNL     1      -6.405  -9.871   8.112  1.00  0.00    -0.033 C 
HETATM    6  C15 UNL     1      -6.400  -8.330   8.158  1.00  0.00     0.016 C 
HETATM    7  C16 UNL     1      -7.847 -10.370   7.912  1.00  0.00     0.010 C 
HETATM    8  C17 UNL     1      -8.728 -10.082   9.143  1.00  0.00     0.010 C 
HETATM    9  C18 UNL     1      -8.136 -10.649  10.456  1.00  0.00     0.039 C 
HETATM   10  C19 UNL     1      -6.626 -10.284  10.683  1.00  0.00     0.123 C 
HETATM   11  C20 UNL     1      -6.433  -8.945  11.346  1.00  0.00     0.014 C 
HETATM   12  C21 UNL     1      -7.063  -8.834  12.524  1.00  0.00     0.014 C 
HETATM   13  C22 UNL     1      -7.886 -10.054  12.891  1.00  0.00     0.124 C 
HETATM   14  C23 UNL     1      -8.492  -9.939  14.296  1.00  0.00     0.078 C 
HETATM   15  C24 UNL     1      -9.491 -11.057  14.626  1.00  0.00     0.128 C 
HETATM   16  C31 UNL     1      -9.617 -12.133  13.548  1.00  0.00     0.033 C 
HETATM   17  C32 UNL     1      -9.860 -11.553  12.150  1.00  0.00     0.015 C 
HETATM   18  C33 UNL     1      -8.956 -10.334  11.779  1.00  0.00     0.001 C 
HETATM   19  C34 UNL     1      -9.898  -9.109  11.614  1.00  0.00     0.019 C 
HETATM   20  O7  UNL     1      -6.971 -11.183  12.910  1.00  0.00    -0.223 OA
HETATM   21  O8  UNL     1      -6.134 -11.232  11.673  1.00  0.00    -0.224 OA
ENDROOT
BRANCH  15  22
HETATM   22  O1  UNL     1     -10.793 -10.470  14.789  1.00  0.00    -0.353 OA
BRANCH  22  23
HETATM   23  C25 UNL     1     -11.112 -10.169  16.153  1.00  0.00     0.292 C 
HETATM   24  O2  UNL     1     -10.077  -9.345  16.696  1.00  0.00    -0.348 OA
HETATM   25  C26 UNL     1     -10.304  -8.982  18.059  1.00  0.00     0.179 C 
HETATM   26  C28 UNL     1     -10.283 -10.239  18.937  1.00  0.00     0.180 C 
HETATM   27  C29 UNL     1     -11.328 -11.236  18.440  1.00  0.00     0.183 C 
HETATM   28  C30 UNL     1     -11.206 -11.499  16.937  1.00  0.00     0.204 C 
BRANCH  25  29
HETATM   29  C27 UNL     1      -9.208  -7.996  18.498  1.00  0.00     0.198 C 
BRANCH  29  30
HETATM   30  O3  UNL     1      -8.212  -8.630  19.298  1.00  0.00    -0.398 OA
HETATM   31  H41 UNL     1      -8.049  -9.518  18.908  1.00  0.00     0.209 HD
ENDBRANCH  29  30
ENDBRANCH  25  29
BRANCH  26  32
HETATM   32  O4  UNL     1     -10.541  -9.913  20.308  1.00  0.00    -0.390 OA
HETATM   33  H43 UNL     1     -10.730 -10.763  20.759  1.00  0.00     0.210 HD
ENDBRANCH  26  32
BRANCH  27  34
HETATM   34  O5  UNL     1     -11.193 -12.472  19.171  1.00  0.00    -0.390 OA
HETATM   35  H45 UNL     1     -10.353 -12.893  18.911  1.00  0.00     0.210 HD
ENDBRANCH  27  34
BRANCH  28  36
HETATM   36  O6  UNL     1     -12.338 -12.281  16.524  1.00  0.00    -0.388 OA
HETATM   37  H47 UNL     1     -12.440 -12.998  17.177  1.00  0.00     0.210 HD
ENDBRANCH  28  36
ENDBRANCH  22  23
ENDBRANCH  15  22
BRANCH   1  38
HETATM   38  C8  UNL     1      -5.402  -9.956   5.612  1.00  0.00     0.008 C 
HETATM   39  C9  UNL     1      -6.806 -10.155   5.017  1.00  0.00     0.014 C 
BRANCH  38  40
HETATM   40  C7  UNL     1      -4.324 -10.506   4.697  1.00  0.00    -0.026 C 
HETATM   41  C6  UNL     1      -4.489 -11.385   3.694  1.00  0.00    -0.026 C 
BRANCH  41  42
HETATM   42  C4  UNL     1      -3.370 -11.849   2.780  1.00  0.00     0.007 C 
HETATM   43  C5  UNL     1      -2.836 -10.631   2.016  1.00  0.00     0.014 C 
BRANCH  42  44
HETATM   44  C2  UNL     1      -2.256 -12.581   3.579  1.00  0.00    -0.015 C 
HETATM   45  C1  UNL     1      -2.771 -13.886   4.203  1.00  0.00     0.010 C 
HETATM   46  C3  UNL     1      -1.035 -12.905   2.711  1.00  0.00     0.010 C 
ENDBRANCH  42  44
ENDBRANCH  41  42
ENDBRANCH  38  40
ENDBRANCH   1  38
TORSDOF 11
ENDMDL
MODEL 5
REMARK minimizedAffinity -10.9939289
REMARK CNNscore 0.265753984
REMARK CNNaffinity 7.09812975
REMARK  11 active torsions:
REMARK  status: ('A' for Active; 'I' for Inactive)
REMARK    1  A    between atoms: C2_2  and  C4_4 
REMARK    2  A    between atoms: C4_4  and  C6_6 
REMARK    3  A    between atoms: C7_7  and  C8_8 
REMARK    4  A    between atoms: C8_8  and  C10_10 
REMARK    5  A    between atoms: C24_24  and  O1_25 
REMARK    6  A    between atoms: O1_25  and  C25_26 
REMARK    7  A    between atoms: C26_28  and  C27_29 
REMARK    8  A    between atoms: C27_29  and  O3_30 
REMARK    9  A    between atoms: C28_31  and  O4_32 
REMARK   10  A    between atoms: C29_33  and  O5_34 
REMARK   11  A    between atoms: C30_35  and  O6_36 
ROOT
HETATM    1  C10 UNL     1      -5.865   7.181  14.117  1.00  0.00     0.001 C 
HETATM    2  C11 UNL     1      -5.821   8.638  14.650  1.00  0.00     0.006 C 
HETATM    3  C12 UNL     1      -4.392   9.152  14.386  1.00  0.00     0.009 C 
HETATM    4  C13 UNL     1      -3.722   8.018  13.616  1.00  0.00     0.036 C 
HETATM    5  C14 UNL     1      -4.371   6.731  14.184  1.00  0.00    -0.033 C 
HETATM    6  C15 UNL     1      -3.924   6.372  15.616  1.00  0.00     0.016 C 
HETATM    7  C16 UNL     1      -4.014   5.575  13.233  1.00  0.00     0.010 C 
HETATM    8  C17 UNL     1      -2.490   5.422  13.066  1.00  0.00     0.010 C 
HETATM    9  C18 UNL     1      -1.798   6.729  12.612  1.00  0.00     0.039 C 
HETATM   10  C19 UNL     1      -2.198   7.990  13.459  1.00  0.00     0.123 C 
HETATM   11  C20 UNL     1      -1.367   8.154  14.705  1.00  0.00     0.014 C 
HETATM   12  C21 UNL     1      -0.050   8.223  14.466  1.00  0.00     0.014 C 
HETATM   13  C22 UNL     1       0.313   8.047  13.004  1.00  0.00     0.124 C 
HETATM   14  C23 UNL     1       1.813   8.252  12.754  1.00  0.00     0.078 C 
HETATM   15  C24 UNL     1       2.252   7.888  11.328  1.00  0.00     0.128 C 
HETATM   16  C31 UNL     1       1.109   7.496  10.393  1.00  0.00     0.033 C 
HETATM   17  C32 UNL     1       0.188   6.427  10.991  1.00  0.00     0.015 C 
HETATM   18  C33 UNL     1      -0.216   6.666  12.481  1.00  0.00     0.001 C 
HETATM   19  C34 UNL     1       0.400   5.503  13.307  1.00  0.00     0.019 C 
HETATM   20  O7  UNL     1      -0.390   9.088  12.273  1.00  0.00    -0.223 OA
HETATM   21  O8  UNL     1      -1.835   9.143  12.648  1.00  0.00    -0.224 OA
ENDROOT
BRANCH  15  22
HETATM   22  O1  UNL     1       3.142   6.762  11.400  1.00  0.00    -0.353 OA
BRANCH  22  23
HETATM   23  C25 UNL     1       4.526   7.126  11.321  1.00  0.00     0.292 C 
HETATM   24  O2  UNL     1       5.072   7.146  12.643  1.00  0.00    -0.348 OA
HETATM   25  C26 UNL     1       6.457   7.495  12.673  1.00  0.00     0.179 C 
HETATM   26  C28 UNL     1       6.637   8.933  12.170  1.00  0.00     0.180 C 
HETATM   27  C29 UNL     1       6.055   9.067  10.765  1.00  0.00     0.183 C 
HETATM   28  C30 UNL     1       4.624   8.530  10.678  1.00  0.00     0.204 C 
BRANCH  25  29
HETATM   29  C27 UNL     1       6.970   7.358  14.117  1.00  0.00     0.198 C 
BRANCH  29  30
HETATM   30  O3  UNL     1       5.962   6.865  14.995  1.00  0.00    -0.398 OA
HETATM   31  H41 UNL     1       5.463   6.173  14.506  1.00  0.00     0.209 HD
ENDBRANCH  29  30
ENDBRANCH  25  29
BRANCH  26  32
HETATM   32  O4  UNL     1       8.020   9.303  12.158  1.00  0.00    -0.390 OA
HETATM   33  H43 UNL     1       8.076  10.128  11.630  1.00  0.00     0.210 HD
ENDBRANCH  26  32
BRANCH  27  34
HETATM   34  O5  UNL     1       6.088  10.453  10.366  1.00  0.00    -0.390 OA
HETATM   35  H45 UNL     1       5.447  10.945  10.912  1.00  0.00     0.210 HD
ENDBRANCH  27  34
BRANCH  28  36
HETATM   36  O6  UNL     1       4.234   8.510   9.296  1.00  0.00    -0.388 OA
HETATM   37  H47 UNL     1       4.497   9.369   8.916  1.00  0.00     0.210 HD
ENDBRANCH  28  36
ENDBRANCH  22  23
ENDBRANCH  15  22
BRANCH   1  38
HETATM   38  C8  UNL     1      -6.973   6.275  14.714  1.00  0.00     0.008 C 
HETATM   39  C9  UNL     1      -6.987   6.403  16.246  1.00  0.00     0.014 C 
BRANCH  38  40
HETATM   40  C7  UNL     1      -6.975   4.823  14.274  1.00  0.00    -0.026 C 
HETATM   41  C6  UNL     1      -6.567   4.339  13.088  1.00  0.00    -0.026 C 
BRANCH  41  42
HETATM   42  C4  UNL     1      -6.543   2.863  12.736  1.00  0.00     0.007 C 
HETATM   43  C5  UNL     1      -7.945   2.290  12.974  1.00  0.00     0.014 C 
BRANCH  42  44
HETATM   44  C2  UNL     1      -6.051   2.640  11.279  1.00  0.00    -0.015 C 
HETATM   45  C1  UNL     1      -4.648   3.222  11.059  1.00  0.00     0.010 C 
HETATM   46  C3  UNL     1      -6.029   1.156  10.895  1.00  0.00     0.010 C 
ENDBRANCH  42  44
ENDBRANCH  41  42
ENDBRANCH  38  40
ENDBRANCH   1  38
TORSDOF 11
ENDMDL
MODEL 6
REMARK minimizedAffinity -7.65030909
REMARK CNNscore 0.260133356
REMARK CNNaffinity 6.39276695
REMARK  11 active torsions:
REMARK  status: ('A' for Active; 'I' for Inactive)
REMARK    1  A    between atoms: C2_2  and  C4_4 
REMARK    2  A    between atoms: C4_4  and  C6_6 
REMARK    3  A    between atoms: C7_7  and  C8_8 
REMARK    4  A    between atoms: C8_8  and  C10_10 
REMARK    5  A    between atoms: C24_24  and  O1_25 
REMARK    6  A    between atoms: O1_25  and  C25_26 
REMARK    7  A    between atoms: C26_28  and  C27_29 
REMARK    8  A    between atoms: C27_29  and  O3_30 
REMARK    9  A    between atoms: C28_31  and  O4_32 
REMARK   10  A    between atoms: C29_33  and  O5_34 
REMARK   11  A    between atoms: C30_35  and  O6_36 
ROOT
HETATM    1  C10 UNL     1      -1.914   5.973  12.565  1.00  0.00     0.001 C 
HETATM    2  C11 UNL     1      -2.707   5.059  13.537  1.00  0.00     0.006 C 
HETATM    3  C12 UNL     1      -3.227   5.974  14.664  1.00  0.00     0.009 C 
HETATM    4  C13 UNL     1      -2.811   7.376  14.230  1.00  0.00     0.036 C 
HETATM    5  C14 UNL     1      -1.475   7.165  13.474  1.00  0.00    -0.033 C 
HETATM    6  C15 UNL     1      -0.280   6.809  14.381  1.00  0.00     0.016 C 
HETATM    7  C16 UNL     1      -1.167   8.464  12.709  1.00  0.00     0.010 C 
HETATM    8  C17 UNL     1      -1.104   9.682  13.652  1.00  0.00     0.010 C 
HETATM    9  C18 UNL     1      -2.382   9.849  14.508  1.00  0.00     0.039 C 
HETATM   10  C19 UNL     1      -2.839   8.533  15.234  1.00  0.00     0.123 C 
HETATM   11  C20 UNL     1      -2.155   8.320  16.559  1.00  0.00     0.014 C 
HETATM   12  C21 UNL     1      -2.317   9.338  17.417  1.00  0.00     0.014 C 
HETATM   13  C22 UNL     1      -3.090  10.506  16.835  1.00  0.00     0.124 C 
HETATM   14  C23 UNL     1      -3.359  11.597  17.880  1.00  0.00     0.078 C 
HETATM   15  C24 UNL     1      -3.961  12.879  17.287  1.00  0.00     0.128 C 
HETATM   16  C31 UNL     1      -4.283  12.797  15.795  1.00  0.00     0.033 C 
HETATM   17  C32 UNL     1      -3.106  12.285  14.957  1.00  0.00     0.015 C 
HETATM   18  C33 UNL     1      -2.366  11.045  15.552  1.00  0.00     0.001 C 
HETATM   19  C34 UNL     1      -0.923  11.507  15.900  1.00  0.00     0.019 C 
HETATM   20  O7  UNL     1      -4.381   9.983  16.419  1.00  0.00    -0.223 OA
HETATM   21  O8  UNL     1      -4.233   8.745  15.597  1.00  0.00    -0.224 OA
ENDROOT
BRANCH  15  22
HETATM   22  O1  UNL     1      -3.014  13.946  17.455  1.00  0.00    -0.353 OA
BRANCH  22  23
HETATM   23  C25 UNL     1      -2.653  14.174  18.822  1.00  0.00     0.292 C 
HETATM   24  O2  UNL     1      -3.664  14.979  19.436  1.00  0.00    -0.348 OA
HETATM   25  C26 UNL     1      -3.400  15.261  20.812  1.00  0.00     0.179 C 
HETATM   26  C28 UNL     1      -2.124  16.106  20.928  1.00  0.00     0.180 C 
HETATM   27  C29 UNL     1      -0.957  15.375  20.270  1.00  0.00     0.183 C 
HETATM   28  C30 UNL     1      -1.291  14.908  18.851  1.00  0.00     0.204 C 
BRANCH  25  29
HETATM   29  C27 UNL     1      -4.603  16.014  21.403  1.00  0.00     0.198 C 
BRANCH  29  30
HETATM   30  O3  UNL     1      -5.815  15.700  20.720  1.00  0.00    -0.398 OA
HETATM   31  H41 UNL     1      -5.795  14.737  20.520  1.00  0.00     0.209 HD
ENDBRANCH  29  30
ENDBRANCH  25  29
BRANCH  26  32
HETATM   32  O4  UNL     1      -1.813  16.379  22.299  1.00  0.00    -0.390 OA
HETATM   33  H43 UNL     1      -0.893  16.720  22.306  1.00  0.00     0.210 HD
ENDBRANCH  26  32
BRANCH  27  34
HETATM   34  O5  UNL     1       0.196  16.242  20.247  1.00  0.00    -0.390 OA
HETATM   35  H45 UNL     1       0.021  16.970  19.623  1.00  0.00     0.210 HD
ENDBRANCH  27  34
BRANCH  28  36
HETATM   36  O6  UNL     1      -0.224  14.066  18.390  1.00  0.00    -0.388 OA
HETATM   37  H47 UNL     1       0.610  14.521  18.611  1.00  0.00     0.210 HD
ENDBRANCH  28  36
ENDBRANCH  22  23
ENDBRANCH  15  22
BRANCH   1  38
HETATM   38  C8  UNL     1      -0.872   5.261  11.665  1.00  0.00     0.008 C 
HETATM   39  C9  UNL     1      -0.450   3.928  12.306  1.00  0.00     0.014 C 
BRANCH  38  40
HETATM   40  C7  UNL     1       0.331   6.081  11.239  1.00  0.00    -0.026 C 
HETATM   41  C6  UNL     1       0.776   6.268   9.984  1.00  0.00    -0.026 C 
BRANCH  41  42
HETATM   42  C4  UNL     1       1.958   7.150   9.625  1.00  0.00     0.007 C 
HETATM   43  C5  UNL     1       3.152   6.246   9.299  1.00  0.00     0.014 C 
BRANCH  42  44
HETATM   44  C2  UNL     1       1.606   8.111   8.455  1.00  0.00    -0.015 C 
HETATM   45  C1  UNL     1       1.940   7.490   7.091  1.00  0.00     0.010 C 
HETATM   46  C3  UNL     1       0.126   8.512   8.457  1.00  0.00     0.010 C 
ENDBRANCH  42  44
ENDBRANCH  41  42
ENDBRANCH  38  40
ENDBRANCH   1  38
TORSDOF 11
ENDMDL
MODEL 7
REMARK minimizedAffinity -10.0653458
REMARK CNNscore 0.217733905
REMARK CNNaffinity 6.55479765
REMARK  11 active torsions:
REMARK  status: ('A' for Active; 'I' for Inactive)
REMARK    1  A    between atoms: C2_2  and  C4_4 
REMARK    2  A    between atoms: C4_4  and  C6_6 
REMARK    3  A    between atoms: C7_7  and  C8_8 
REMARK    4  A    between atoms: C8_8  and  C10_10 
REMARK    5  A    between atoms: C24_24  and  O1_25 
REMARK    6  A    between atoms: O1_25  and  C25_26 
REMARK    7  A    between atoms: C26_28  and  C27_29 
REMARK    8  A    between atoms: C27_29  and  O3_30 
REMARK    9  A    between atoms: C28_31  and  O4_32 
REMARK   10  A    between atoms: C29_33  and  O5_34 
REMARK   11  A    between atoms: C30_35  and  O6_36 
ROOT
HETATM    1  C10 UNL     1      -6.972   6.896  13.871  1.00  0.00     0.001 C 
HETATM    2  C11 UNL     1      -7.229   8.173  14.714  1.00  0.00     0.006 C 
HETATM    3  C12 UNL     1      -5.848   8.809  14.967  1.00  0.00     0.009 C 
HETATM    4  C13 UNL     1      -4.883   7.940  14.167  1.00  0.00     0.036 C 
HETATM    5  C14 UNL     1      -5.500   6.520  14.231  1.00  0.00    -0.033 C 
HETATM    6  C15 UNL     1      -5.384   5.837  15.608  1.00  0.00     0.016 C 
HETATM    7  C16 UNL     1      -4.789   5.659  13.173  1.00  0.00     0.010 C 
HETATM    8  C17 UNL     1      -3.263   5.630  13.389  1.00  0.00     0.010 C 
HETATM    9  C18 UNL     1      -2.635   7.042  13.449  1.00  0.00     0.039 C 
HETATM   10  C19 UNL     1      -3.374   8.029  14.422  1.00  0.00     0.123 C 
HETATM   11  C20 UNL     1      -2.903   7.918  15.848  1.00  0.00     0.014 C 
HETATM   12  C21 UNL     1      -1.584   8.111  15.994  1.00  0.00     0.014 C 
HETATM   13  C22 UNL     1      -0.852   8.326  14.682  1.00  0.00     0.124 C 
HETATM   14  C23 UNL     1       0.629   8.663  14.897  1.00  0.00     0.078 C 
HETATM   15  C24 UNL     1       1.446   8.691  13.597  1.00  0.00     0.128 C 
HETATM   16  C31 UNL     1       0.622   8.488  12.326  1.00  0.00     0.033 C 
HETATM   17  C32 UNL     1      -0.289   7.257  12.395  1.00  0.00     0.015 C 
HETATM   18  C33 UNL     1      -1.074   7.095  13.736  1.00  0.00     0.001 C 
HETATM   19  C34 UNL     1      -0.552   5.795  14.408  1.00  0.00     0.019 C 
HETATM   20  O7  UNL     1      -1.467   9.480  14.047  1.00  0.00    -0.223 OA
HETATM   21  O8  UNL     1      -2.956   9.365  14.024  1.00  0.00    -0.224 OA
ENDROOT
BRANCH  15  22
HETATM   22  O1  UNL     1       2.413   7.629  13.646  1.00  0.00    -0.353 OA
BRANCH  22  23
HETATM   23  C25 UNL     1       3.765   8.087  13.518  1.00  0.00     0.292 C 
HETATM   24  O2  UNL     1       4.410   7.332  12.488  1.00  0.00    -0.348 OA
HETATM   25  C26 UNL     1       5.770   7.717  12.276  1.00  0.00     0.179 C 
HETATM   26  C28 UNL     1       6.592   7.414  13.536  1.00  0.00     0.180 C 
HETATM   27  C29 UNL     1       5.985   8.135  14.737  1.00  0.00     0.183 C 
HETATM   28  C30 UNL     1       4.483   7.871  14.871  1.00  0.00     0.204 C 
BRANCH  25  29
HETATM   29  C27 UNL     1       6.322   6.940  11.069  1.00  0.00     0.198 C 
BRANCH  29  30
HETATM   30  O3  UNL     1       5.550   5.775  10.788  1.00  0.00    -0.398 OA
HETATM   31  H41 UNL     1       4.605   6.014  10.920  1.00  0.00     0.209 HD
ENDBRANCH  29  30
ENDBRANCH  25  29
BRANCH  26  32
HETATM   32  O4  UNL     1       7.956   7.819  13.367  1.00  0.00    -0.390 OA
HETATM   33  H43 UNL     1       8.356   7.803  14.263  1.00  0.00     0.210 HD
ENDBRANCH  26  32
BRANCH  27  34
HETATM   34  O5  UNL     1       6.669   7.721  15.937  1.00  0.00    -0.390 OA
HETATM   35  H45 UNL     1       6.447   6.787  16.112  1.00  0.00     0.210 HD
ENDBRANCH  27  34
BRANCH  28  36
HETATM   36  O6  UNL     1       3.963   8.736  15.892  1.00  0.00    -0.388 OA
HETATM   37  H47 UNL     1       4.577   8.681  16.649  1.00  0.00     0.210 HD
ENDBRANCH  28  36
ENDBRANCH  22  23
ENDBRANCH  15  22
BRANCH   1  38
HETATM   38  C8  UNL     1      -8.083   5.815  13.924  1.00  0.00     0.008 C 
HETATM   39  C9  UNL     1      -7.599   4.532  13.228  1.00  0.00     0.014 C 
BRANCH  38  40
HETATM   40  C7  UNL     1      -9.459   6.229  13.439  1.00  0.00    -0.026 C 
HETATM   41  C6  UNL     1     -10.485   6.657  14.194  1.00  0.00    -0.026 C 
BRANCH  41  42
HETATM   42  C4  UNL     1     -11.821   7.111  13.634  1.00  0.00     0.007 C 
HETATM   43  C5  UNL     1     -12.935   6.403  14.414  1.00  0.00     0.014 C 
BRANCH  42  44
HETATM   44  C2  UNL     1     -11.955   8.658  13.682  1.00  0.00    -0.015 C 
HETATM   45  C1  UNL     1     -10.835   9.298  14.513  1.00  0.00     0.010 C 
HETATM   46  C3  UNL     1     -11.943   9.286  12.283  1.00  0.00     0.010 C 
ENDBRANCH  42  44
ENDBRANCH  41  42
ENDBRANCH  38  40
ENDBRANCH   1  38
TORSDOF 11
ENDMDL
MODEL 8
REMARK minimizedAffinity -9.35894585
REMARK CNNscore 0.198621973
REMARK CNNaffinity 6.34513044
REMARK  11 active torsions:
REMARK  status: ('A' for Active; 'I' for Inactive)
REMARK    1  A    between atoms: C2_2  and  C4_4 
REMARK    2  A    between atoms: C4_4  and  C6_6 
REMARK    3  A    between atoms: C7_7  and  C8_8 
REMARK    4  A    between atoms: C8_8  and  C10_10 
REMARK    5  A    between atoms: C24_24  and  O1_25 
REMARK    6  A    between atoms: O1_25  and  C25_26 
REMARK    7  A    between atoms: C26_28  and  C27_29 
REMARK    8  A    between atoms: C27_29  and  O3_30 
REMARK    9  A    between atoms: C28_31  and  O4_32 
REMARK   10  A    between atoms: C29_33  and  O5_34 
REMARK   11  A    between atoms: C30_35  and  O6_36 
ROOT
HETATM    1  C10 UNL     1      -2.826   7.078  13.118  1.00  0.00     0.001 C 
HETATM    2  C11 UNL     1      -3.163   8.539  12.721  1.00  0.00     0.006 C 
HETATM    3  C12 UNL     1      -1.833   9.187  12.287  1.00  0.00     0.009 C 
HETATM    4  C13 UNL     1      -0.825   8.043  12.342  1.00  0.00     0.036 C 
HETATM    5  C14 UNL     1      -1.317   7.152  13.510  1.00  0.00    -0.033 C 
HETATM    6  C15 UNL     1      -1.098   7.760  14.910  1.00  0.00     0.016 C 
HETATM    7  C16 UNL     1      -0.570   5.810  13.414  1.00  0.00     0.010 C 
HETATM    8  C17 UNL     1       0.959   6.002  13.446  1.00  0.00     0.010 C 
HETATM    9  C18 UNL     1       1.467   6.983  12.363  1.00  0.00     0.039 C 
HETATM   10  C19 UNL     1       0.679   8.340  12.311  1.00  0.00     0.123 C 
HETATM   11  C20 UNL     1       1.205   9.367  13.281  1.00  0.00     0.014 C 
HETATM   12  C21 UNL     1       2.506   9.643  13.116  1.00  0.00     0.014 C 
HETATM   13  C22 UNL     1       3.174   8.807  12.041  1.00  0.00     0.124 C 
HETATM   14  C23 UNL     1       4.627   9.234  11.798  1.00  0.00     0.078 C 
HETATM   15  C24 UNL     1       5.397   8.289  10.864  1.00  0.00     0.128 C 
HETATM   16  C31 UNL     1       4.552   7.166  10.263  1.00  0.00     0.033 C 
HETATM   17  C32 UNL     1       3.751   6.392  11.316  1.00  0.00     0.015 C 
HETATM   18  C33 UNL     1       3.026   7.282  12.375  1.00  0.00     0.001 C 
HETATM   19  C34 UNL     1       3.678   6.966  13.750  1.00  0.00     0.019 C 
HETATM   20  O7  UNL     1       2.443   9.055  10.808  1.00  0.00    -0.223 OA
HETATM   21  O8  UNL     1       0.969   8.917  11.007  1.00  0.00    -0.224 OA
ENDROOT
BRANCH  15  22
HETATM   22  O1  UNL     1       6.451   7.666  11.616  1.00  0.00    -0.353 OA
BRANCH  22  23
HETATM   23  C25 UNL     1       6.958   8.491  12.673  1.00  0.00     0.292 C 
HETATM   24  O2  UNL     1       8.020   9.298  12.156  1.00  0.00    -0.348 OA
HETATM   25  C26 UNL     1       8.593  10.166  13.136  1.00  0.00     0.179 C 
HETATM   26  C28 UNL     1       9.258   9.331  14.237  1.00  0.00     0.180 C 
HETATM   27  C29 UNL     1       8.234   8.383  14.857  1.00  0.00     0.183 C 
HETATM   28  C30 UNL     1       7.483   7.570  13.800  1.00  0.00     0.204 C 
BRANCH  25  29
HETATM   29  C27 UNL     1       9.626  11.075  12.448  1.00  0.00     0.198 C 
BRANCH  29  30
HETATM   30  O3  UNL     1      10.909  10.460  12.372  1.00  0.00    -0.398 OA
HETATM   31  H41 UNL     1      10.764   9.510  12.161  1.00  0.00     0.209 HD
ENDBRANCH  29  30
ENDBRANCH  25  29
BRANCH  26  32
HETATM   32  O4  UNL     1       9.815  10.172  15.253  1.00  0.00    -0.390 OA
HETATM   33  H43 UNL     1      10.018   9.584  16.012  1.00  0.00     0.210 HD
ENDBRANCH  26  32
BRANCH  27  34
HETATM   34  O5  UNL     1       8.903   7.497  15.779  1.00  0.00    -0.390 OA
HETATM   35  H45 UNL     1       9.472   6.893  15.267  1.00  0.00     0.210 HD
ENDBRANCH  27  34
BRANCH  28  36
HETATM   36  O6  UNL     1       6.415   6.863  14.449  1.00  0.00    -0.388 OA
HETATM   37  H47 UNL     1       6.792   6.459  15.253  1.00  0.00     0.210 HD
ENDBRANCH  28  36
ENDBRANCH  22  23
ENDBRANCH  15  22
BRANCH   1  38
HETATM   38  C8  UNL     1      -3.839   6.383  14.065  1.00  0.00     0.008 C 
HETATM   39  C9  UNL     1      -3.087   5.551  15.117  1.00  0.00     0.014 C 
BRANCH  38  40
HETATM   40  C7  UNL     1      -4.947   5.583  13.407  1.00  0.00    -0.026 C 
HETATM   41  C6  UNL     1      -4.816   4.428  12.732  1.00  0.00    -0.026 C 
BRANCH  41  42
HETATM   42  C4  UNL     1      -5.980   3.650  12.147  1.00  0.00     0.007 C 
HETATM   43  C5  UNL     1      -5.418   2.439  11.392  1.00  0.00     0.014 C 
BRANCH  42  44
HETATM   44  C2  UNL     1      -6.996   3.241  13.250  1.00  0.00    -0.015 C 
HETATM   45  C1  UNL     1      -7.226   4.376  14.257  1.00  0.00     0.010 C 
HETATM   46  C3  UNL     1      -8.351   2.826  12.666  1.00  0.00     0.010 C 
ENDBRANCH  42  44
ENDBRANCH  41  42
ENDBRANCH  38  40
ENDBRANCH   1  38
TORSDOF 11
ENDMDL
MODEL 9
REMARK minimizedAffinity -8.63709259
REMARK CNNscore 0.197020814
REMARK CNNaffinity 6.58668756
REMARK  11 active torsions:
REMARK  status: ('A' for Active; 'I' for Inactive)
REMARK    1  A    between atoms: C2_2  and  C4_4 
REMARK    2  A    between atoms: C4_4  and  C6_6 
REMARK    3  A    between atoms: C7_7  and  C8_8 
REMARK    4  A    between atoms: C8_8  and  C10_10 
REMARK    5  A    between atoms: C24_24  and  O1_25 
REMARK    6  A    between atoms: O1_25  and  C25_26 
REMARK    7  A    between atoms: C26_28  and  C27_29 
REMARK    8  A    between atoms: C27_29  and  O3_30 
REMARK    9  A    between atoms: C28_31  and  O4_32 
REMARK   10  A    between atoms: C29_33  and  O5_34 
REMARK   11  A    between atoms: C30_35  and  O6_36 
ROOT
HETATM    1  C10 UNL     1      -7.237   6.505  14.835  1.00  0.00     0.001 C 
HETATM    2  C11 UNL     1      -6.971   5.570  16.044  1.00  0.00     0.006 C 
HETATM    3  C12 UNL     1      -5.453   5.628  16.311  1.00  0.00     0.009 C 
HETATM    4  C13 UNL     1      -4.940   6.674  15.326  1.00  0.00     0.036 C 
HETATM    5  C14 UNL     1      -5.864   6.526  14.091  1.00  0.00    -0.033 C 
HETATM    6  C15 UNL     1      -5.620   5.248  13.263  1.00  0.00     0.016 C 
HETATM    7  C16 UNL     1      -5.645   7.761  13.199  1.00  0.00     0.010 C 
HETATM    8  C17 UNL     1      -4.167   7.918  12.792  1.00  0.00     0.010 C 
HETATM    9  C18 UNL     1      -3.207   7.950  14.005  1.00  0.00     0.039 C 
HETATM   10  C19 UNL     1      -3.440   6.785  15.033  1.00  0.00     0.123 C 
HETATM   11  C20 UNL     1      -2.707   5.520  14.670  1.00  0.00     0.014 C 
HETATM   12  C21 UNL     1      -1.383   5.687  14.534  1.00  0.00     0.014 C 
HETATM   13  C22 UNL     1      -0.932   7.125  14.703  1.00  0.00     0.124 C 
HETATM   14  C23 UNL     1       0.596   7.258  14.661  1.00  0.00     0.078 C 
HETATM   15  C24 UNL     1       1.085   8.713  14.629  1.00  0.00     0.128 C 
HETATM   16  C31 UNL     1      -0.024   9.757  14.754  1.00  0.00     0.033 C 
HETATM   17  C32 UNL     1      -1.176   9.526  13.771  1.00  0.00     0.015 C 
HETATM   18  C33 UNL     1      -1.660   8.044  13.662  1.00  0.00     0.001 C 
HETATM   19  C34 UNL     1      -1.345   7.574  12.214  1.00  0.00     0.019 C 
HETATM   20  O7  UNL     1      -1.361   7.543  16.028  1.00  0.00    -0.223 OA
HETATM   21  O8  UNL     1      -2.799   7.213  16.267  1.00  0.00    -0.224 OA
ENDROOT
BRANCH  15  22
HETATM   22  O1  UNL     1       1.740   8.944  13.371  1.00  0.00    -0.353 OA
BRANCH  22  23
HETATM   23  C25 UNL     1       3.163   9.065  13.486  1.00  0.00     0.292 C 
HETATM   24  O2  UNL     1       3.768   8.492  12.323  1.00  0.00    -0.348 OA
HETATM   25  C26 UNL     1       5.195   8.567  12.337  1.00  0.00     0.179 C 
HETATM   26  C28 UNL     1       5.743   7.728  13.499  1.00  0.00     0.180 C 
HETATM   27  C29 UNL     1       5.142   8.211  14.816  1.00  0.00     0.183 C 
HETATM   28  C30 UNL     1       3.615   8.306  14.756  1.00  0.00     0.204 C 
BRANCH  25  29
HETATM   29  C27 UNL     1       5.732   8.048  10.993  1.00  0.00     0.198 C 
BRANCH  29  30
HETATM   30  O3  UNL     1       7.042   8.536  10.718  1.00  0.00    -0.398 OA
HETATM   31  H41 UNL     1       7.540   8.526  11.566  1.00  0.00     0.209 HD
ENDBRANCH  29  30
ENDBRANCH  25  29
BRANCH  26  32
HETATM   32  O4  UNL     1       7.172   7.808  13.561  1.00  0.00    -0.390 OA
HETATM   33  H43 UNL     1       7.427   7.441  14.434  1.00  0.00     0.210 HD
ENDBRANCH  26  32
BRANCH  27  34
HETATM   34  O5  UNL     1       5.540   7.319  15.877  1.00  0.00    -0.390 OA
HETATM   35  H45 UNL     1       5.097   6.461  15.741  1.00  0.00     0.210 HD
ENDBRANCH  27  34
BRANCH  28  36
HETATM   36  O6  UNL     1       3.156   8.952  15.953  1.00  0.00    -0.388 OA
HETATM   37  H47 UNL     1       3.628   8.534  16.698  1.00  0.00     0.210 HD
ENDBRANCH  28  36
ENDBRANCH  22  23
ENDBRANCH  15  22
BRANCH   1  38
HETATM   38  C8  UNL     1      -8.542   6.234  14.044  1.00  0.00     0.008 C 
HETATM   39  C9  UNL     1      -8.207   5.877  12.587  1.00  0.00     0.014 C 
BRANCH  38  40
HETATM   40  C7  UNL     1      -9.620   7.299  14.125  1.00  0.00    -0.026 C 
HETATM   41  C6  UNL     1      -9.510   8.518  14.681  1.00  0.00    -0.026 C 
BRANCH  41  42
HETATM   42  C4  UNL     1     -10.616   9.557  14.675  1.00  0.00     0.007 C 
HETATM   43  C5  UNL     1     -11.921   8.867  14.263  1.00  0.00     0.014 C 
BRANCH  42  44
HETATM   44  C2  UNL     1     -10.730  10.264  16.055  1.00  0.00    -0.015 C 
HETATM   45  C1  UNL     1     -10.506   9.283  17.214  1.00  0.00     0.010 C 
HETATM   46  C3  UNL     1      -9.735  11.422  16.198  1.00  0.00     0.010 C 
ENDBRANCH  42  44
ENDBRANCH  41  42
ENDBRANCH  38  40
ENDBRANCH   1  38
TORSDOF 11
ENDMDL
