MODEL 1
REMARK minimizedAffinity -9.83505249
REMARK  9 active torsions:
REMARK  status: ('A' for Active; 'I' for Inactive)
REMARK    1  A    between atoms: C2_2  and  C29_32 
REMARK    2  A    between atoms: C3_3  and  C4_4 
REMARK    3  A    between atoms: C4_4  and  C5_5 
REMARK    4  A    between atoms: C5_5  and  C6_6 
REMARK    5  A    between atoms: C6_6  and  C8_8 
REMARK    6  A    between atoms: C19_19  and  O1_20 
REMARK    7  A    between atoms: C23_24  and  O2_25 
REMARK    8  A    between atoms: C25_27  and  O3_28 
REMARK    9  A    between atoms: C29_32  and  O4_33 
ROOT
HETATM    1  C8  UNL     1      -0.684  52.406 -21.798  1.00  0.00    -0.002 C 
HETATM    2  C9  UNL     1       0.813  52.807 -21.854  1.00  0.00     0.007 C 
HETATM    3  C10 UNL     1       1.354  52.724 -20.405  1.00  0.00     0.015 C 
HETATM    4  C11 UNL     1       0.107  52.491 -19.518  1.00  0.00    -0.013 C 
HETATM    5  C12 UNL     1      -0.478  53.910 -19.215  1.00  0.00     0.021 C 
HETATM    6  C13 UNL     1       0.282  51.810 -18.162  1.00  0.00    -0.068 C 
HETATM    7  C14 UNL     1       1.387  52.012 -17.424  1.00  0.00    -0.022 C 
HETATM    8  C15 UNL     1       1.568  51.542 -16.019  1.00  0.00     0.033 C 
HETATM    9  C16 UNL     1       0.491  50.571 -15.495  1.00  0.00     0.006 C 
HETATM   10  C17 UNL     1      -0.918  50.898 -16.065  1.00  0.00     0.030 C 
HETATM   11  C18 UNL     1      -0.887  50.957 -17.641  1.00  0.00     0.051 C 
HETATM   12  C19 UNL     1      -2.246  51.341 -18.324  1.00  0.00     0.127 C 
HETATM   13  C20 UNL     1      -2.193  51.479 -19.875  1.00  0.00     0.043 C 
HETATM   14  C21 UNL     1      -0.773  51.605 -20.458  1.00  0.00    -0.026 C 
HETATM   15  C22 UNL     1      -0.195  50.173 -20.686  1.00  0.00     0.016 C 
HETATM   16  C23 UNL     1      -1.959  49.853 -15.582  1.00  0.00     0.126 C 
HETATM   17  C24 UNL     1      -1.633  49.130 -14.276  1.00  0.00     0.064 C 
HETATM   18  C25 UNL     1      -0.863  50.040 -13.334  1.00  0.00     0.128 C 
HETATM   19  C26 UNL     1       0.535  50.403 -13.915  1.00  0.00    -0.017 C 
HETATM   20  C27 UNL     1       1.519  49.240 -13.604  1.00  0.00     0.018 C 
HETATM   21  C28 UNL     1       1.079  51.641 -13.161  1.00  0.00     0.018 C 
ENDROOT
BRANCH   1  22
HETATM   22  C6  UNL     1      -1.307  51.752 -23.064  1.00  0.00    -0.014 C 
HETATM   23  C7  UNL     1      -1.619  50.250 -22.982  1.00  0.00     0.010 C 
BRANCH  22  24
HETATM   24  C5  UNL     1      -0.506  52.091 -24.350  1.00  0.00     0.008 C 
BRANCH  24  25
HETATM   25  C4  UNL     1      -0.469  51.063 -25.488  1.00  0.00     0.028 C 
BRANCH  25  26
HETATM   26  C3  UNL     1       0.761  51.108 -26.348  1.00  0.00    -0.022 C 
HETATM   27  C2  UNL     1       0.974  51.885 -27.427  1.00  0.00    -0.064 C 
HETATM   28  C1  UNL     1      -0.018  52.891 -27.947  1.00  0.00     0.045 C 
BRANCH  27  29
HETATM   29  C29 UNL     1       2.277  51.804 -28.184  1.00  0.00     0.197 C 
BRANCH  29  30
HETATM   30  O4  UNL     1       3.335  51.432 -27.310  1.00  0.00    -0.397 OA
HETATM   31  H48 UNL     1       2.958  50.878 -26.608  1.00  0.00     0.209 HD
ENDBRANCH  29  30
ENDBRANCH  27  29
ENDBRANCH  25  26
ENDBRANCH  24  25
ENDBRANCH  22  24
ENDBRANCH   1  22
BRANCH  12  32
HETATM   32  O1  UNL     1      -3.277  50.380 -18.076  1.00  0.00    -0.395 OA
HETATM   33  H28 UNL     1      -3.579  50.523 -17.151  1.00  0.00     0.210 HD
ENDBRANCH  12  32
BRANCH  16  34
HETATM   34  O2  UNL     1      -3.213  50.537 -15.423  1.00  0.00    -0.395 OA
HETATM   35  H35 UNL     1      -3.107  51.070 -14.604  1.00  0.00     0.210 HD
ENDBRANCH  16  34
BRANCH  18  36
HETATM   36  O3  UNL     1      -1.681  51.201 -13.122  1.00  0.00    -0.395 OA
HETATM   37  H39 UNL     1      -1.345  51.648 -12.324  1.00  0.00     0.210 HD
ENDBRANCH  18  36
TORSDOF 9
ENDMDL
MODEL 2
REMARK minimizedAffinity -9.54516315
REMARK  9 active torsions:
REMARK  status: ('A' for Active; 'I' for Inactive)
REMARK    1  A    between atoms: C2_2  and  C29_32 
REMARK    2  A    between atoms: C3_3  and  C4_4 
REMARK    3  A    between atoms: C4_4  and  C5_5 
REMARK    4  A    between atoms: C5_5  and  C6_6 
REMARK    5  A    between atoms: C6_6  and  C8_8 
REMARK    6  A    between atoms: C19_19  and  O1_20 
REMARK    7  A    between atoms: C23_24  and  O2_25 
REMARK    8  A    between atoms: C25_27  and  O3_28 
REMARK    9  A    between atoms: C29_32  and  O4_33 
ROOT
HETATM    1  C8  UNL     1      -0.572  52.503 -22.015  1.00  0.00    -0.002 C 
HETATM    2  C9  UNL     1       0.927  52.897 -22.036  1.00  0.00     0.007 C 
HETATM    3  C10 UNL     1       1.437  52.799 -20.576  1.00  0.00     0.015 C 
HETATM    4  C11 UNL     1       0.170  52.563 -19.718  1.00  0.00    -0.013 C 
HETATM    5  C12 UNL     1      -0.415  53.983 -19.415  1.00  0.00     0.021 C 
HETATM    6  C13 UNL     1       0.314  51.870 -18.365  1.00  0.00    -0.068 C 
HETATM    7  C14 UNL     1       1.404  52.060 -17.602  1.00  0.00    -0.022 C 
HETATM    8  C15 UNL     1       1.552  51.576 -16.198  1.00  0.00     0.033 C 
HETATM    9  C16 UNL     1       0.460  50.606 -15.706  1.00  0.00     0.006 C 
HETATM   10  C17 UNL     1      -0.935  50.945 -16.302  1.00  0.00     0.030 C 
HETATM   11  C18 UNL     1      -0.871  51.017 -17.877  1.00  0.00     0.051 C 
HETATM   12  C19 UNL     1      -2.213  51.415 -18.585  1.00  0.00     0.127 C 
HETATM   13  C20 UNL     1      -2.126  51.566 -20.132  1.00  0.00     0.043 C 
HETATM   14  C21 UNL     1      -0.694  51.690 -20.684  1.00  0.00    -0.026 C 
HETATM   15  C22 UNL     1      -0.117  50.258 -20.913  1.00  0.00     0.016 C 
HETATM   16  C23 UNL     1      -1.991  49.900 -15.850  1.00  0.00     0.126 C 
HETATM   17  C24 UNL     1      -1.696  49.165 -14.545  1.00  0.00     0.064 C 
HETATM   18  C25 UNL     1      -0.943  50.063 -13.578  1.00  0.00     0.128 C 
HETATM   19  C26 UNL     1       0.470  50.424 -14.127  1.00  0.00    -0.017 C 
HETATM   20  C27 UNL     1       1.441  49.254 -13.805  1.00  0.00     0.018 C 
HETATM   21  C28 UNL     1       1.003  51.652 -13.350  1.00  0.00     0.018 C 
ENDROOT
BRANCH   1  22
HETATM   22  C6  UNL     1      -1.172  51.863 -23.299  1.00  0.00    -0.014 C 
HETATM   23  C7  UNL     1      -1.434  50.350 -23.259  1.00  0.00     0.010 C 
BRANCH  22  24
HETATM   24  C5  UNL     1      -0.380  52.262 -24.574  1.00  0.00     0.008 C 
BRANCH  24  25
HETATM   25  C4  UNL     1       0.015  51.165 -25.571  1.00  0.00     0.028 C 
BRANCH  25  26
HETATM   26  C3  UNL     1      -1.134  50.473 -26.245  1.00  0.00    -0.022 C 
HETATM   27  C2  UNL     1      -2.074  51.029 -27.032  1.00  0.00    -0.064 C 
HETATM   28  C1  UNL     1      -2.107  52.490 -27.397  1.00  0.00     0.045 C 
BRANCH  27  29
HETATM   29  C29 UNL     1      -3.169  50.183 -27.634  1.00  0.00     0.197 C 
BRANCH  29  30
HETATM   30  O4  UNL     1      -3.474  50.630 -28.948  1.00  0.00    -0.397 OA
HETATM   31  H48 UNL     1      -2.665  51.008 -29.327  1.00  0.00     0.209 HD
ENDBRANCH  29  30
ENDBRANCH  27  29
ENDBRANCH  25  26
ENDBRANCH  24  25
ENDBRANCH  22  24
ENDBRANCH   1  22
BRANCH  12  32
HETATM   32  O1  UNL     1      -3.254  50.456 -18.367  1.00  0.00    -0.395 OA
HETATM   33  H28 UNL     1      -3.574  50.592 -17.448  1.00  0.00     0.210 HD
ENDBRANCH  12  32
BRANCH  16  34
HETATM   34  O2  UNL     1      -3.245  50.589 -15.712  1.00  0.00    -0.395 OA
HETATM   35  H35 UNL     1      -3.154  51.114 -14.886  1.00  0.00     0.210 HD
ENDBRANCH  16  34
BRANCH  18  36
HETATM   36  O3  UNL     1      -1.759  51.226 -13.373  1.00  0.00    -0.395 OA
HETATM   37  H39 UNL     1      -1.438  51.664 -12.564  1.00  0.00     0.210 HD
ENDBRANCH  18  36
TORSDOF 9
ENDMDL
MODEL 3
REMARK minimizedAffinity -9.50955486
REMARK  9 active torsions:
REMARK  status: ('A' for Active; 'I' for Inactive)
REMARK    1  A    between atoms: C2_2  and  C29_32 
REMARK    2  A    between atoms: C3_3  and  C4_4 
REMARK    3  A    between atoms: C4_4  and  C5_5 
REMARK    4  A    between atoms: C5_5  and  C6_6 
REMARK    5  A    between atoms: C6_6  and  C8_8 
REMARK    6  A    between atoms: C19_19  and  O1_20 
REMARK    7  A    between atoms: C23_24  and  O2_25 
REMARK    8  A    between atoms: C25_27  and  O3_28 
REMARK    9  A    between atoms: C29_32  and  O4_33 
ROOT
HETATM    1  C8  UNL     1      -2.551  50.354 -22.334  1.00  0.00    -0.002 C 
HETATM    2  C9  UNL     1      -3.559  49.809 -21.290  1.00  0.00     0.007 C 
HETATM    3  C10 UNL     1      -4.762  49.239 -22.082  1.00  0.00     0.015 C 
HETATM    4  C11 UNL     1      -4.519  49.665 -23.551  1.00  0.00    -0.013 C 
HETATM    5  C12 UNL     1      -5.117  51.105 -23.687  1.00  0.00     0.021 C 
HETATM    6  C13 UNL     1      -5.150  48.840 -24.672  1.00  0.00    -0.068 C 
HETATM    7  C14 UNL     1      -6.353  48.262 -24.513  1.00  0.00    -0.022 C 
HETATM    8  C15 UNL     1      -7.125  47.597 -25.603  1.00  0.00     0.033 C 
HETATM    9  C16 UNL     1      -6.364  47.379 -26.926  1.00  0.00     0.006 C 
HETATM   10  C17 UNL     1      -5.372  48.537 -27.227  1.00  0.00     0.030 C 
HETATM   11  C18 UNL     1      -4.395  48.771 -26.011  1.00  0.00     0.051 C 
HETATM   12  C19 UNL     1      -3.386  49.961 -26.180  1.00  0.00     0.127 C 
HETATM   13  C20 UNL     1      -2.479  50.241 -24.945  1.00  0.00     0.043 C 
HETATM   14  C21 UNL     1      -2.961  49.590 -23.636  1.00  0.00    -0.026 C 
HETATM   15  C22 UNL     1      -2.402  48.134 -23.563  1.00  0.00     0.016 C 
HETATM   16  C23 UNL     1      -4.566  48.243 -28.520  1.00  0.00     0.126 C 
HETATM   17  C24 UNL     1      -5.226  47.305 -29.528  1.00  0.00     0.064 C 
HETATM   18  C25 UNL     1      -6.737  47.463 -29.503  1.00  0.00     0.128 C 
HETATM   19  C26 UNL     1      -7.330  47.013 -28.134  1.00  0.00    -0.017 C 
HETATM   20  C27 UNL     1      -7.486  45.467 -28.145  1.00  0.00     0.018 C 
HETATM   21  C28 UNL     1      -8.759  47.591 -28.001  1.00  0.00     0.018 C 
ENDROOT
BRANCH   1  22
HETATM   22  C6  UNL     1      -1.043  50.357 -21.953  1.00  0.00    -0.014 C 
HETATM   23  C7  UNL     1      -0.634  49.501 -20.746  1.00  0.00     0.010 C 
BRANCH  22  24
HETATM   24  C5  UNL     1      -0.474  51.798 -21.840  1.00  0.00     0.008 C 
BRANCH  24  25
HETATM   25  C4  UNL     1       0.660  52.219 -22.784  1.00  0.00     0.028 C 
BRANCH  25  26
HETATM   26  C3  UNL     1       0.233  53.034 -23.970  1.00  0.00    -0.022 C 
HETATM   27  C2  UNL     1       0.409  52.736 -25.271  1.00  0.00    -0.064 C 
HETATM   28  C1  UNL     1       1.066  51.472 -25.762  1.00  0.00     0.045 C 
BRANCH  27  29
HETATM   29  C29 UNL     1      -0.084  53.673 -26.346  1.00  0.00     0.197 C 
BRANCH  29  30
HETATM   30  O4  UNL     1       0.311  55.008 -26.056  1.00  0.00    -0.397 OA
HETATM   31  H48 UNL     1       1.145  54.969 -25.562  1.00  0.00     0.209 HD
ENDBRANCH  29  30
ENDBRANCH  27  29
ENDBRANCH  25  26
ENDBRANCH  24  25
ENDBRANCH  22  24
ENDBRANCH   1  22
BRANCH  12  32
HETATM   32  O1  UNL     1      -2.477  49.759 -27.266  1.00  0.00    -0.395 OA
HETATM   33  H28 UNL     1      -2.982  49.930 -28.092  1.00  0.00     0.210 HD
ENDBRANCH  12  32
BRANCH  16  34
HETATM   34  O2  UNL     1      -4.317  49.503 -29.167  1.00  0.00    -0.395 OA
HETATM   35  H35 UNL     1      -5.183  49.762 -29.555  1.00  0.00     0.210 HD
ENDBRANCH  16  34
BRANCH  18  36
HETATM   36  O3  UNL     1      -7.012  48.843 -29.786  1.00  0.00    -0.395 OA
HETATM   37  H39 UNL     1      -7.949  48.902 -30.049  1.00  0.00     0.210 HD
ENDBRANCH  18  36
TORSDOF 9
ENDMDL
MODEL 4
REMARK minimizedAffinity -9.39306736
REMARK  9 active torsions:
REMARK  status: ('A' for Active; 'I' for Inactive)
REMARK    1  A    between atoms: C2_2  and  C29_32 
REMARK    2  A    between atoms: C3_3  and  C4_4 
REMARK    3  A    between atoms: C4_4  and  C5_5 
REMARK    4  A    between atoms: C5_5  and  C6_6 
REMARK    5  A    between atoms: C6_6  and  C8_8 
REMARK    6  A    between atoms: C19_19  and  O1_20 
REMARK    7  A    between atoms: C23_24  and  O2_25 
REMARK    8  A    between atoms: C25_27  and  O3_28 
REMARK    9  A    between atoms: C29_32  and  O4_33 
ROOT
HETATM    1  C8  UNL     1      -2.039  50.966 -22.338  1.00  0.00    -0.002 C 
HETATM    2  C9  UNL     1      -2.764  49.603 -22.197  1.00  0.00     0.007 C 
HETATM    3  C10 UNL     1      -2.305  48.988 -20.851  1.00  0.00     0.015 C 
HETATM    4  C11 UNL     1      -1.162  49.907 -20.354  1.00  0.00    -0.013 C 
HETATM    5  C12 UNL     1       0.143  49.379 -21.037  1.00  0.00     0.021 C 
HETATM    6  C13 UNL     1      -0.860  49.964 -18.857  1.00  0.00    -0.068 C 
HETATM    7  C14 UNL     1      -0.998  48.875 -18.081  1.00  0.00    -0.022 C 
HETATM    8  C15 UNL     1      -0.556  48.786 -16.658  1.00  0.00     0.033 C 
HETATM    9  C16 UNL     1      -0.129  50.116 -16.006  1.00  0.00     0.006 C 
HETATM   10  C17 UNL     1       0.580  51.062 -17.016  1.00  0.00     0.030 C 
HETATM   11  C18 UNL     1      -0.314  51.288 -18.296  1.00  0.00     0.051 C 
HETATM   12  C19 UNL     1       0.330  52.181 -19.414  1.00  0.00     0.127 C 
HETATM   13  C20 UNL     1      -0.520  52.335 -20.709  1.00  0.00     0.043 C 
HETATM   14  C21 UNL     1      -1.651  51.302 -20.861  1.00  0.00    -0.026 C 
HETATM   15  C22 UNL     1      -2.916  51.828 -20.114  1.00  0.00     0.016 C 
HETATM   16  C23 UNL     1       0.921  52.419 -16.345  1.00  0.00     0.126 C 
HETATM   17  C24 UNL     1       1.080  52.401 -14.827  1.00  0.00     0.064 C 
HETATM   18  C25 UNL     1       1.650  51.072 -14.360  1.00  0.00     0.128 C 
HETATM   19  C26 UNL     1       0.662  49.902 -14.644  1.00  0.00    -0.017 C 
HETATM   20  C27 UNL     1      -0.393  49.856 -13.503  1.00  0.00     0.018 C 
HETATM   21  C28 UNL     1       1.441  48.567 -14.565  1.00  0.00     0.018 C 
ENDROOT
BRANCH   1  22
HETATM   22  C6  UNL     1      -2.745  52.081 -23.161  1.00  0.00    -0.014 C 
HETATM   23  C7  UNL     1      -4.169  51.779 -23.653  1.00  0.00     0.010 C 
BRANCH  22  24
HETATM   24  C5  UNL     1      -1.851  52.608 -24.315  1.00  0.00     0.008 C 
BRANCH  24  25
HETATM   25  C4  UNL     1      -1.281  51.603 -25.325  1.00  0.00     0.028 C 
BRANCH  25  26
HETATM   26  C3  UNL     1       0.215  51.473 -25.320  1.00  0.00    -0.022 C 
HETATM   27  C2  UNL     1       1.035  51.449 -26.386  1.00  0.00    -0.064 C 
HETATM   28  C1  UNL     1       0.566  51.579 -27.811  1.00  0.00     0.045 C 
BRANCH  27  29
HETATM   29  C29 UNL     1       2.527  51.309 -26.203  1.00  0.00     0.197 C 
BRANCH  29  30
HETATM   30  O4  UNL     1       3.195  51.469 -27.447  1.00  0.00    -0.397 OA
HETATM   31  H48 UNL     1       2.662  52.068 -27.995  1.00  0.00     0.209 HD
ENDBRANCH  29  30
ENDBRANCH  27  29
ENDBRANCH  25  26
ENDBRANCH  24  25
ENDBRANCH  22  24
ENDBRANCH   1  22
BRANCH  12  32
HETATM   32  O1  UNL     1       0.576  53.520 -18.973  1.00  0.00    -0.395 OA
HETATM   33  H28 UNL     1       1.370  53.486 -18.395  1.00  0.00     0.210 HD
ENDBRANCH  12  32
BRANCH  16  34
HETATM   34  O2  UNL     1       2.149  52.889 -16.926  1.00  0.00    -0.395 OA
HETATM   35  H35 UNL     1       2.847  52.319 -16.532  1.00  0.00     0.210 HD
ENDBRANCH  16  34
BRANCH  18  36
HETATM   36  O3  UNL     1       2.904  50.900 -15.039  1.00  0.00    -0.395 OA
HETATM   37  H39 UNL     1       3.403  50.218 -14.554  1.00  0.00     0.210 HD
ENDBRANCH  18  36
TORSDOF 9
ENDMDL
MODEL 5
REMARK minimizedAffinity -9.0413847
REMARK  9 active torsions:
REMARK  status: ('A' for Active; 'I' for Inactive)
REMARK    1  A    between atoms: C2_2  and  C29_32 
REMARK    2  A    between atoms: C3_3  and  C4_4 
REMARK    3  A    between atoms: C4_4  and  C5_5 
REMARK    4  A    between atoms: C5_5  and  C6_6 
REMARK    5  A    between atoms: C6_6  and  C8_8 
REMARK    6  A    between atoms: C19_19  and  O1_20 
REMARK    7  A    between atoms: C23_24  and  O2_25 
REMARK    8  A    between atoms: C25_27  and  O3_28 
REMARK    9  A    between atoms: C29_32  and  O4_33 
ROOT
HETATM    1  C8  UNL     1       3.561  68.113 -36.671  1.00  0.00    -0.002 C 
HETATM    2  C9  UNL     1       4.583  68.919 -37.513  1.00  0.00     0.007 C 
HETATM    3  C10 UNL     1       5.961  68.236 -37.320  1.00  0.00     0.015 C 
HETATM    4  C11 UNL     1       5.742  67.188 -36.202  1.00  0.00    -0.013 C 
HETATM    5  C12 UNL     1       5.935  67.953 -34.851  1.00  0.00     0.021 C 
HETATM    6  C13 UNL     1       6.668  65.976 -36.136  1.00  0.00    -0.068 C 
HETATM    7  C14 UNL     1       7.964  66.076 -36.478  1.00  0.00    -0.022 C 
HETATM    8  C15 UNL     1       8.981  65.002 -36.274  1.00  0.00     0.033 C 
HETATM    9  C16 UNL     1       8.427  63.627 -35.852  1.00  0.00     0.006 C 
HETATM   10  C17 UNL     1       7.188  63.756 -34.922  1.00  0.00     0.030 C 
HETATM   11  C18 UNL     1       6.081  64.665 -35.583  1.00  0.00     0.051 C 
HETATM   12  C19 UNL     1       4.806  64.916 -34.704  1.00  0.00     0.127 C 
HETATM   13  C20 UNL     1       3.752  65.880 -35.325  1.00  0.00     0.043 C 
HETATM   14  C21 UNL     1       4.276  66.733 -36.495  1.00  0.00    -0.026 C 
HETATM   15  C22 UNL     1       4.129  65.917 -37.817  1.00  0.00     0.016 C 
HETATM   16  C23 UNL     1       6.609  62.356 -34.586  1.00  0.00     0.126 C 
HETATM   17  C24 UNL     1       7.585  61.184 -34.670  1.00  0.00     0.064 C 
HETATM   18  C25 UNL     1       8.988  61.623 -34.285  1.00  0.00     0.128 C 
HETATM   19  C26 UNL     1       9.558  62.654 -35.305  1.00  0.00    -0.017 C 
HETATM   20  C27 UNL     1      10.129  61.880 -36.526  1.00  0.00     0.018 C 
HETATM   21  C28 UNL     1      10.760  63.380 -34.655  1.00  0.00     0.018 C 
ENDROOT
BRANCH   1  22
HETATM   22  C6  UNL     1       2.081  68.094 -37.150  1.00  0.00    -0.014 C 
HETATM   23  C7  UNL     1       1.091  67.285 -36.300  1.00  0.00     0.010 C 
BRANCH  22  24
HETATM   24  C5  UNL     1       1.960  67.731 -38.654  1.00  0.00     0.008 C 
BRANCH  24  25
HETATM   25  C4  UNL     1       0.811  66.818 -39.103  1.00  0.00     0.028 C 
BRANCH  25  26
HETATM   26  C3  UNL     1       0.230  67.139 -40.449  1.00  0.00    -0.022 C 
HETATM   27  C2  UNL     1      -0.574  68.170 -40.766  1.00  0.00    -0.064 C 
HETATM   28  C1  UNL     1      -1.016  69.223 -39.784  1.00  0.00     0.045 C 
BRANCH  27  29
HETATM   29  C29 UNL     1      -1.075  68.346 -42.179  1.00  0.00     0.197 C 
BRANCH  29  30
HETATM   30  O4  UNL     1      -1.511  67.101 -42.708  1.00  0.00    -0.397 OA
HETATM   31  H48 UNL     1      -1.834  66.562 -41.968  1.00  0.00     0.209 HD
ENDBRANCH  29  30
ENDBRANCH  27  29
ENDBRANCH  25  26
ENDBRANCH  24  25
ENDBRANCH  22  24
ENDBRANCH   1  22
BRANCH  12  32
HETATM   32  O1  UNL     1       4.085  63.712 -34.426  1.00  0.00    -0.395 OA
HETATM   33  H28 UNL     1       4.595  63.229 -33.739  1.00  0.00     0.210 HD
ENDBRANCH  12  32
BRANCH  16  34
HETATM   34  O2  UNL     1       6.085  62.417 -33.249  1.00  0.00    -0.395 OA
HETATM   35  H35 UNL     1       6.879  62.422 -32.668  1.00  0.00     0.210 HD
ENDBRANCH  16  34
BRANCH  18  36
HETATM   36  O3  UNL     1       8.902  62.163 -32.958  1.00  0.00    -0.395 OA
HETATM   37  H39 UNL     1       9.807  62.184 -32.596  1.00  0.00     0.210 HD
ENDBRANCH  18  36
TORSDOF 9
ENDMDL
MODEL 6
REMARK minimizedAffinity -8.99540329
REMARK  9 active torsions:
REMARK  status: ('A' for Active; 'I' for Inactive)
REMARK    1  A    between atoms: C2_2  and  C29_32 
REMARK    2  A    between atoms: C3_3  and  C4_4 
REMARK    3  A    between atoms: C4_4  and  C5_5 
REMARK    4  A    between atoms: C5_5  and  C6_6 
REMARK    5  A    between atoms: C6_6  and  C8_8 
REMARK    6  A    between atoms: C19_19  and  O1_20 
REMARK    7  A    between atoms: C23_24  and  O2_25 
REMARK    8  A    between atoms: C25_27  and  O3_28 
REMARK    9  A    between atoms: C29_32  and  O4_33 
ROOT
HETATM    1  C8  UNL     1      -1.477  51.253 -26.443  1.00  0.00    -0.002 C 
HETATM    2  C9  UNL     1      -2.262  51.144 -27.776  1.00  0.00     0.007 C 
HETATM    3  C10 UNL     1      -3.435  50.163 -27.527  1.00  0.00     0.015 C 
HETATM    4  C11 UNL     1      -3.171  49.562 -26.124  1.00  0.00    -0.013 C 
HETATM    5  C12 UNL     1      -2.208  48.349 -26.348  1.00  0.00     0.021 C 
HETATM    6  C13 UNL     1      -4.351  49.020 -25.320  1.00  0.00    -0.068 C 
HETATM    7  C14 UNL     1      -5.388  48.421 -25.931  1.00  0.00    -0.022 C 
HETATM    8  C15 UNL     1      -6.490  47.703 -25.226  1.00  0.00     0.033 C 
HETATM    9  C16 UNL     1      -6.528  47.876 -23.694  1.00  0.00     0.006 C 
HETATM   10  C17 UNL     1      -5.103  47.974 -23.081  1.00  0.00     0.030 C 
HETATM   11  C18 UNL     1      -4.265  49.109 -23.787  1.00  0.00     0.051 C 
HETATM   12  C19 UNL     1      -2.784  49.258 -23.289  1.00  0.00     0.127 C 
HETATM   13  C20 UNL     1      -1.935  50.323 -24.042  1.00  0.00     0.043 C 
HETATM   14  C21 UNL     1      -2.530  50.782 -25.387  1.00  0.00    -0.026 C 
HETATM   15  C22 UNL     1      -3.534  51.947 -25.120  1.00  0.00     0.016 C 
HETATM   16  C23 UNL     1      -5.182  48.229 -21.553  1.00  0.00     0.126 C 
HETATM   17  C24 UNL     1      -6.458  47.763 -20.856  1.00  0.00     0.064 C 
HETATM   18  C25 UNL     1      -7.014  46.517 -21.525  1.00  0.00     0.128 C 
HETATM   19  C26 UNL     1      -7.475  46.816 -22.983  1.00  0.00    -0.017 C 
HETATM   20  C27 UNL     1      -8.901  47.433 -22.936  1.00  0.00     0.018 C 
HETATM   21  C28 UNL     1      -7.610  45.475 -23.743  1.00  0.00     0.018 C 
ENDROOT
BRANCH   1  22
HETATM   22  C6  UNL     1      -0.721  52.581 -26.153  1.00  0.00    -0.014 C 
HETATM   23  C7  UNL     1      -0.397  53.469 -27.364  1.00  0.00     0.010 C 
BRANCH  22  24
HETATM   24  C5  UNL     1       0.535  52.356 -25.268  1.00  0.00     0.008 C 
BRANCH  24  25
HETATM   25  C4  UNL     1       0.707  53.206 -24.002  1.00  0.00     0.028 C 
BRANCH  25  26
HETATM   26  C3  UNL     1       0.233  52.561 -22.732  1.00  0.00    -0.022 C 
HETATM   27  C2  UNL     1       0.526  52.929 -21.471  1.00  0.00    -0.064 C 
HETATM   28  C1  UNL     1       1.391  54.111 -21.121  1.00  0.00     0.045 C 
BRANCH  27  29
HETATM   29  C29 UNL     1      -0.037  52.164 -20.298  1.00  0.00     0.197 C 
BRANCH  29  30
HETATM   30  O4  UNL     1       0.629  52.537 -19.099  1.00  0.00    -0.397 OA
HETATM   31  H48 UNL     1       0.916  53.459 -19.194  1.00  0.00     0.209 HD
ENDBRANCH  29  30
ENDBRANCH  27  29
ENDBRANCH  25  26
ENDBRANCH  24  25
ENDBRANCH  22  24
ENDBRANCH   1  22
BRANCH  12  32
HETATM   32  O1  UNL     1      -2.704  49.632 -21.909  1.00  0.00    -0.395 OA
HETATM   33  H28 UNL     1      -2.912  48.826 -21.386  1.00  0.00     0.210 HD
ENDBRANCH  12  32
BRANCH  16  34
HETATM   34  O2  UNL     1      -4.063  47.560 -20.947  1.00  0.00    -0.395 OA
HETATM   35  H35 UNL     1      -4.294  46.605 -20.977  1.00  0.00     0.210 HD
ENDBRANCH  16  34
BRANCH  18  36
HETATM   36  O3  UNL     1      -5.977  45.525 -21.476  1.00  0.00    -0.395 OA
HETATM   37  H39 UNL     1      -6.397  44.661 -21.636  1.00  0.00     0.210 HD
ENDBRANCH  18  36
TORSDOF 9
ENDMDL
MODEL 7
REMARK minimizedAffinity -8.99044991
REMARK  9 active torsions:
REMARK  status: ('A' for Active; 'I' for Inactive)
REMARK    1  A    between atoms: C2_2  and  C29_32 
REMARK    2  A    between atoms: C3_3  and  C4_4 
REMARK    3  A    between atoms: C4_4  and  C5_5 
REMARK    4  A    between atoms: C5_5  and  C6_6 
REMARK    5  A    between atoms: C6_6  and  C8_8 
REMARK    6  A    between atoms: C19_19  and  O1_20 
REMARK    7  A    between atoms: C23_24  and  O2_25 
REMARK    8  A    between atoms: C25_27  and  O3_28 
REMARK    9  A    between atoms: C29_32  and  O4_33 
ROOT
HETATM    1  C8  UNL     1      -2.260  49.255 -18.514  1.00  0.00    -0.002 C 
HETATM    2  C9  UNL     1      -3.453  48.420 -19.045  1.00  0.00     0.007 C 
HETATM    3  C10 UNL     1      -3.666  48.832 -20.524  1.00  0.00     0.015 C 
HETATM    4  C11 UNL     1      -2.735  50.049 -20.744  1.00  0.00    -0.013 C 
HETATM    5  C12 UNL     1      -3.548  51.303 -20.280  1.00  0.00     0.021 C 
HETATM    6  C13 UNL     1      -2.251  50.360 -22.159  1.00  0.00    -0.068 C 
HETATM    7  C14 UNL     1      -3.039  50.136 -23.225  1.00  0.00    -0.022 C 
HETATM    8  C15 UNL     1      -2.728  50.575 -24.617  1.00  0.00     0.033 C 
HETATM    9  C16 UNL     1      -1.301  51.114 -24.846  1.00  0.00     0.006 C 
HETATM   10  C17 UNL     1      -0.766  51.895 -23.613  1.00  0.00     0.030 C 
HETATM   11  C18 UNL     1      -0.867  51.017 -22.306  1.00  0.00     0.051 C 
HETATM   12  C19 UNL     1      -0.410  51.728 -20.984  1.00  0.00     0.127 C 
HETATM   13  C20 UNL     1      -0.588  50.889 -19.684  1.00  0.00     0.043 C 
HETATM   14  C21 UNL     1      -1.524  49.675 -19.829  1.00  0.00    -0.026 C 
HETATM   15  C22 UNL     1      -0.697  48.461 -20.355  1.00  0.00     0.016 C 
HETATM   16  C23 UNL     1       0.699  52.350 -23.848  1.00  0.00     0.126 C 
HETATM   17  C24 UNL     1       1.129  52.513 -25.304  1.00  0.00     0.064 C 
HETATM   18  C25 UNL     1      -0.038  52.973 -26.163  1.00  0.00     0.128 C 
HETATM   19  C26 UNL     1      -1.155  51.889 -26.226  1.00  0.00    -0.017 C 
HETATM   20  C27 UNL     1      -0.768  50.839 -27.305  1.00  0.00     0.018 C 
HETATM   21  C28 UNL     1      -2.462  52.555 -26.721  1.00  0.00     0.018 C 
ENDROOT
BRANCH   1  22
HETATM   22  C6  UNL     1      -1.394  48.640 -17.378  1.00  0.00    -0.014 C 
HETATM   23  C7  UNL     1      -2.124  48.263 -16.080  1.00  0.00     0.010 C 
BRANCH  22  24
HETATM   24  C5  UNL     1      -0.128  49.491 -17.085  1.00  0.00     0.008 C 
BRANCH  24  25
HETATM   25  C4  UNL     1      -0.187  50.540 -15.966  1.00  0.00     0.028 C 
BRANCH  25  26
HETATM   26  C3  UNL     1       1.146  50.991 -15.444  1.00  0.00    -0.022 C 
HETATM   27  C2  UNL     1       1.992  51.868 -16.016  1.00  0.00    -0.064 C 
HETATM   28  C1  UNL     1       1.711  52.584 -17.311  1.00  0.00     0.045 C 
BRANCH  27  29
HETATM   29  C29 UNL     1       3.304  52.212 -15.353  1.00  0.00     0.197 C 
BRANCH  29  30
HETATM   30  O4  UNL     1       3.107  52.462 -13.968  1.00  0.00    -0.397 OA
HETATM   31  H48 UNL     1       2.354  51.925 -13.674  1.00  0.00     0.209 HD
ENDBRANCH  29  30
ENDBRANCH  27  29
ENDBRANCH  25  26
ENDBRANCH  24  25
ENDBRANCH  22  24
ENDBRANCH   1  22
BRANCH  12  32
HETATM   32  O1  UNL     1       0.975  52.087 -21.004  1.00  0.00    -0.395 OA
HETATM   33  H28 UNL     1       1.054  52.877 -21.583  1.00  0.00     0.210 HD
ENDBRANCH  12  32
BRANCH  16  34
HETATM   34  O2  UNL     1       0.870  53.611 -23.179  1.00  0.00    -0.395 OA
HETATM   35  H35 UNL     1       0.392  54.260 -23.742  1.00  0.00     0.210 HD
ENDBRANCH  16  34
BRANCH  18  36
HETATM   36  O3  UNL     1      -0.507  54.205 -25.595  1.00  0.00    -0.395 OA
HETATM   37  H39 UNL     1      -1.048  54.647 -26.274  1.00  0.00     0.210 HD
ENDBRANCH  18  36
TORSDOF 9
ENDMDL
MODEL 8
REMARK minimizedAffinity -8.97593117
REMARK  9 active torsions:
REMARK  status: ('A' for Active; 'I' for Inactive)
REMARK    1  A    between atoms: C2_2  and  C29_32 
REMARK    2  A    between atoms: C3_3  and  C4_4 
REMARK    3  A    between atoms: C4_4  and  C5_5 
REMARK    4  A    between atoms: C5_5  and  C6_6 
REMARK    5  A    between atoms: C6_6  and  C8_8 
REMARK    6  A    between atoms: C19_19  and  O1_20 
REMARK    7  A    between atoms: C23_24  and  O2_25 
REMARK    8  A    between atoms: C25_27  and  O3_28 
REMARK    9  A    between atoms: C29_32  and  O4_33 
ROOT
HETATM    1  C8  UNL     1      -1.759  51.185 -23.540  1.00  0.00    -0.002 C 
HETATM    2  C9  UNL     1      -2.748  51.846 -24.535  1.00  0.00     0.007 C 
HETATM    3  C10 UNL     1      -3.949  50.878 -24.683  1.00  0.00     0.015 C 
HETATM    4  C11 UNL     1      -3.524  49.587 -23.942  1.00  0.00    -0.013 C 
HETATM    5  C12 UNL     1      -2.717  48.740 -24.981  1.00  0.00     0.021 C 
HETATM    6  C13 UNL     1      -4.607  48.660 -23.394  1.00  0.00    -0.068 C 
HETATM    7  C14 UNL     1      -5.775  48.502 -24.041  1.00  0.00    -0.022 C 
HETATM    8  C15 UNL     1      -6.812  47.489 -23.685  1.00  0.00     0.033 C 
HETATM    9  C16 UNL     1      -6.596  46.751 -22.349  1.00  0.00     0.006 C 
HETATM   10  C17 UNL     1      -5.090  46.506 -22.053  1.00  0.00     0.030 C 
HETATM   11  C18 UNL     1      -4.276  47.856 -22.125  1.00  0.00     0.051 C 
HETATM   12  C19 UNL     1      -2.729  47.718 -21.903  1.00  0.00     0.127 C 
HETATM   13  C20 UNL     1      -1.918  49.039 -22.055  1.00  0.00     0.043 C 
HETATM   14  C21 UNL     1      -2.672  50.175 -22.771  1.00  0.00    -0.026 C 
HETATM   15  C22 UNL     1      -3.517  50.958 -21.718  1.00  0.00     0.016 C 
HETATM   16  C23 UNL     1      -4.908  45.837 -20.665  1.00  0.00     0.126 C 
HETATM   17  C24 UNL     1      -6.096  45.033 -20.142  1.00  0.00     0.064 C 
HETATM   18  C25 UNL     1      -6.855  44.386 -21.289  1.00  0.00     0.128 C 
HETATM   19  C26 UNL     1      -7.509  45.458 -22.210  1.00  0.00    -0.017 C 
HETATM   20  C27 UNL     1      -8.852  45.911 -21.569  1.00  0.00     0.018 C 
HETATM   21  C28 UNL     1      -7.878  44.794 -23.558  1.00  0.00     0.018 C 
ENDROOT
BRANCH   1  22
HETATM   22  C6  UNL     1      -0.854  52.120 -22.688  1.00  0.00    -0.014 C 
HETATM   23  C7  UNL     1       0.258  52.872 -23.434  1.00  0.00     0.010 C 
BRANCH  22  24
HETATM   24  C5  UNL     1      -0.302  51.405 -21.426  1.00  0.00     0.008 C 
BRANCH  24  25
HETATM   25  C4  UNL     1      -0.734  51.910 -20.043  1.00  0.00     0.028 C 
BRANCH  25  26
HETATM   26  C3  UNL     1       0.385  52.370 -19.153  1.00  0.00    -0.022 C 
HETATM   27  C2  UNL     1       0.688  51.917 -17.923  1.00  0.00    -0.064 C 
HETATM   28  C1  UNL     1      -0.063  50.814 -17.225  1.00  0.00     0.045 C 
BRANCH  27  29
HETATM   29  C29 UNL     1       1.856  52.493 -17.159  1.00  0.00     0.197 C 
BRANCH  29  30
HETATM   30  O4  UNL     1       1.394  53.232 -16.036  1.00  0.00    -0.397 OA
HETATM   31  H48 UNL     1       0.561  52.833 -15.741  1.00  0.00     0.209 HD
ENDBRANCH  29  30
ENDBRANCH  27  29
ENDBRANCH  25  26
ENDBRANCH  24  25
ENDBRANCH  22  24
ENDBRANCH   1  22
BRANCH  12  32
HETATM   32  O1  UNL     1      -2.402  47.235 -20.596  1.00  0.00    -0.395 OA
HETATM   33  H28 UNL     1      -2.596  46.272 -20.595  1.00  0.00     0.210 HD
ENDBRANCH  12  32
BRANCH  16  34
HETATM   34  O2  UNL     1      -3.770  44.962 -20.755  1.00  0.00    -0.395 OA
HETATM   35  H35 UNL     1      -4.087  44.193 -21.280  1.00  0.00     0.210 HD
ENDBRANCH  16  34
BRANCH  18  36
HETATM   36  O3  UNL     1      -5.914  43.565 -21.996  1.00  0.00    -0.395 OA
HETATM   37  H39 UNL     1      -6.427  42.940 -22.540  1.00  0.00     0.210 HD
ENDBRANCH  18  36
TORSDOF 9
ENDMDL
MODEL 9
REMARK minimizedAffinity -8.96672726
REMARK  9 active torsions:
REMARK  status: ('A' for Active; 'I' for Inactive)
REMARK    1  A    between atoms: C2_2  and  C29_32 
REMARK    2  A    between atoms: C3_3  and  C4_4 
REMARK    3  A    between atoms: C4_4  and  C5_5 
REMARK    4  A    between atoms: C5_5  and  C6_6 
REMARK    5  A    between atoms: C6_6  and  C8_8 
REMARK    6  A    between atoms: C19_19  and  O1_20 
REMARK    7  A    between atoms: C23_24  and  O2_25 
REMARK    8  A    between atoms: C25_27  and  O3_28 
REMARK    9  A    between atoms: C29_32  and  O4_33 
ROOT
HETATM    1  C8  UNL     1      -1.845  51.937 -22.112  1.00  0.00    -0.002 C 
HETATM    2  C9  UNL     1      -0.507  51.278 -21.689  1.00  0.00     0.007 C 
HETATM    3  C10 UNL     1      -0.851  50.203 -20.629  1.00  0.00     0.015 C 
HETATM    4  C11 UNL     1      -2.350  50.417 -20.306  1.00  0.00    -0.013 C 
HETATM    5  C12 UNL     1      -2.399  51.521 -19.197  1.00  0.00     0.021 C 
HETATM    6  C13 UNL     1      -3.163  49.242 -19.765  1.00  0.00    -0.068 C 
HETATM    7  C14 UNL     1      -2.604  48.329 -18.953  1.00  0.00    -0.022 C 
HETATM    8  C15 UNL     1      -3.356  47.259 -18.234  1.00  0.00     0.033 C 
HETATM    9  C16 UNL     1      -4.829  47.079 -18.652  1.00  0.00     0.006 C 
HETATM   10  C17 UNL     1      -5.500  48.431 -19.022  1.00  0.00     0.030 C 
HETATM   11  C18 UNL     1      -4.660  49.195 -20.118  1.00  0.00     0.051 C 
HETATM   12  C19 UNL     1      -5.213  50.605 -20.525  1.00  0.00     0.127 C 
HETATM   13  C20 UNL     1      -4.338  51.391 -21.545  1.00  0.00     0.043 C 
HETATM   14  C21 UNL     1      -2.901  50.860 -21.699  1.00  0.00    -0.026 C 
HETATM   15  C22 UNL     1      -2.899  49.717 -22.762  1.00  0.00     0.016 C 
HETATM   16  C23 UNL     1      -6.953  48.202 -19.516  1.00  0.00     0.126 C 
HETATM   17  C24 UNL     1      -7.642  46.932 -19.021  1.00  0.00     0.064 C 
HETATM   18  C25 UNL     1      -7.167  46.571 -17.624  1.00  0.00     0.128 C 
HETATM   19  C26 UNL     1      -5.655  46.199 -17.618  1.00  0.00    -0.017 C 
HETATM   20  C27 UNL     1      -5.507  44.715 -18.057  1.00  0.00     0.018 C 
HETATM   21  C28 UNL     1      -5.132  46.272 -16.163  1.00  0.00     0.018 C 
ENDROOT
BRANCH   1  22
HETATM   22  C6  UNL     1      -1.944  52.518 -23.552  1.00  0.00    -0.014 C 
HETATM   23  C7  UNL     1      -3.145  52.068 -24.397  1.00  0.00     0.010 C 
BRANCH  22  24
HETATM   24  C5  UNL     1      -0.613  52.362 -24.336  1.00  0.00     0.008 C 
BRANCH  24  25
HETATM   25  C4  UNL     1      -0.510  51.262 -25.401  1.00  0.00     0.028 C 
BRANCH  25  26
HETATM   26  C3  UNL     1       0.763  51.264 -26.198  1.00  0.00    -0.022 C 
HETATM   27  C2  UNL     1       0.972  51.830 -27.400  1.00  0.00    -0.064 C 
HETATM   28  C1  UNL     1      -0.074  52.604 -28.158  1.00  0.00     0.045 C 
BRANCH  27  29
HETATM   29  C29 UNL     1       2.323  51.736 -28.068  1.00  0.00     0.197 C 
BRANCH  29  30
HETATM   30  O4  UNL     1       3.318  51.373 -27.120  1.00  0.00    -0.397 OA
HETATM   31  H48 UNL     1       2.893  50.829 -26.437  1.00  0.00     0.209 HD
ENDBRANCH  29  30
ENDBRANCH  27  29
ENDBRANCH  25  26
ENDBRANCH  24  25
ENDBRANCH  22  24
ENDBRANCH   1  22
BRANCH  12  32
HETATM   32  O1  UNL     1      -6.509  50.534 -21.129  1.00  0.00    -0.395 OA
HETATM   33  H28 UNL     1      -7.151  50.373 -20.403  1.00  0.00     0.210 HD
ENDBRANCH  12  32
BRANCH  16  34
HETATM   34  O2  UNL     1      -7.733  49.335 -19.097  1.00  0.00    -0.395 OA
HETATM   35  H35 UNL     1      -7.855  49.212 -18.129  1.00  0.00     0.210 HD
ENDBRANCH  16  34
BRANCH  18  36
HETATM   36  O3  UNL     1      -7.451  47.703 -16.786  1.00  0.00    -0.395 OA
HETATM   37  H39 UNL     1      -7.419  47.393 -15.863  1.00  0.00     0.210 HD
ENDBRANCH  18  36
TORSDOF 9
ENDMDL
