MODEL 1
REMARK minimizedAffinity -9.16578197
REMARK  8 active torsions:
REMARK  status: ('A' for Active; 'I' for Inactive)
REMARK    1  A    between atoms: C2_2  and  C30_33 
REMARK    2  A    between atoms: C3_3  and  C4_4 
REMARK    3  A    between atoms: C4_4  and  C5_5 
REMARK    4  A    between atoms: C5_5  and  C6_6 
REMARK    5  A    between atoms: C6_6  and  C8_8 
REMARK    6  A    between atoms: C15_15  and  O1_16 
REMARK    7  A    between atoms: C23_24  and  O2_25 
REMARK    8  A    between atoms: C30_33  and  O4_34 
ROOT
HETATM    1  C8  UNL     1      -1.474   5.944  12.008  1.00  0.00    -0.002 C 
HETATM    2  C9  UNL     1      -1.962   6.792  13.213  1.00  0.00     0.007 C 
HETATM    3  C10 UNL     1      -0.848   7.797  13.553  1.00  0.00     0.015 C 
HETATM    4  C11 UNL     1       0.098   7.776  12.338  1.00  0.00    -0.005 C 
HETATM    5  C12 UNL     1      -0.520   8.724  11.263  1.00  0.00     0.021 C 
HETATM    6  C13 UNL     1       1.543   8.240  12.474  1.00  0.00     0.002 C 
HETATM    7  C14 UNL     1       2.531   7.738  11.681  1.00  0.00    -0.032 C 
HETATM    8  C15 UNL     1       2.218   6.612  10.677  1.00  0.00     0.149 C 
HETATM    9  C16 UNL     1       0.771   6.062  10.641  1.00  0.00     0.047 C 
HETATM   10  C17 UNL     1       0.059   6.238  11.991  1.00  0.00    -0.026 C 
HETATM   11  C18 UNL     1       0.766   5.346  13.062  1.00  0.00     0.016 C 
HETATM   12  C19 UNL     1       4.011   8.259  11.751  1.00  0.00    -0.013 C 
HETATM   13  C20 UNL     1       4.786   7.228  12.611  1.00  0.00     0.021 C 
HETATM   14  C21 UNL     1       4.633   8.373  10.324  1.00  0.00     0.017 C 
HETATM   15  C22 UNL     1       5.608   9.533  10.084  1.00  0.00     0.033 C 
HETATM   16  C23 UNL     1       6.390   9.950  11.321  1.00  0.00     0.126 C 
HETATM   17  C24 UNL     1       5.445  10.409  12.472  1.00  0.00    -0.017 C 
HETATM   18  C25 UNL     1       5.189  11.933  12.279  1.00  0.00     0.018 C 
HETATM   19  C26 UNL     1       6.147  10.274  13.842  1.00  0.00     0.018 C 
HETATM   20  C27 UNL     1       4.038   9.688  12.393  1.00  0.00     0.015 C 
HETATM   21  C28 UNL     1       3.278   9.692  13.718  1.00  0.00     0.090 C 
HETATM   22  C29 UNL     1       1.842   9.313  13.478  1.00  0.00     0.157 C 
HETATM   23  O3  UNL     1       0.944   9.871  14.105  1.00  0.00    -0.293 OA
ENDROOT
BRANCH   1  24
HETATM   24  C6  UNL     1      -1.980   4.475  12.093  1.00  0.00    -0.014 C 
HETATM   25  C7  UNL     1      -1.706   3.675  10.814  1.00  0.00     0.010 C 
BRANCH  24  26
HETATM   26  C5  UNL     1      -3.487   4.375  12.465  1.00  0.00     0.008 C 
BRANCH  26  27
HETATM   27  C4  UNL     1      -4.354   3.581  11.476  1.00  0.00     0.028 C 
BRANCH  27  28
HETATM   28  C3  UNL     1      -5.734   3.188  11.945  1.00  0.00    -0.022 C 
HETATM   29  C2  UNL     1      -6.566   3.783  12.825  1.00  0.00    -0.064 C 
HETATM   30  C1  UNL     1      -6.218   4.998  13.641  1.00  0.00     0.045 C 
BRANCH  29  31
HETATM   31  C30 UNL     1      -7.934   3.198  13.091  1.00  0.00     0.197 C 
BRANCH  31  32
HETATM   32  O4  UNL     1      -7.983   1.841  12.677  1.00  0.00    -0.397 OA
HETATM   33  H48 UNL     1      -7.279   1.691  12.026  1.00  0.00     0.209 HD
ENDBRANCH  31  32
ENDBRANCH  29  31
ENDBRANCH  27  28
ENDBRANCH  26  27
ENDBRANCH  24  26
ENDBRANCH   1  24
BRANCH   8  34
HETATM   34  O1  UNL     1       3.083   5.514  10.953  1.00  0.00    -0.391 OA
HETATM   35  H22 UNL     1       2.992   4.877  10.225  1.00  0.00     0.210 HD
ENDBRANCH   8  34
BRANCH  16  36
HETATM   36  O2  UNL     1       7.230   8.872  11.719  1.00  0.00    -0.395 OA
HETATM   37  H36 UNL     1       7.830   8.673  10.980  1.00  0.00     0.210 HD
ENDBRANCH  16  36
TORSDOF 8
ENDMDL
MODEL 2
REMARK minimizedAffinity -8.97199249
REMARK  8 active torsions:
REMARK  status: ('A' for Active; 'I' for Inactive)
REMARK    1  A    between atoms: C2_2  and  C30_33 
REMARK    2  A    between atoms: C3_3  and  C4_4 
REMARK    3  A    between atoms: C4_4  and  C5_5 
REMARK    4  A    between atoms: C5_5  and  C6_6 
REMARK    5  A    between atoms: C6_6  and  C8_8 
REMARK    6  A    between atoms: C15_15  and  O1_16 
REMARK    7  A    between atoms: C23_24  and  O2_25 
REMARK    8  A    between atoms: C30_33  and  O4_34 
ROOT
HETATM    1  C8  UNL     1      -2.438   4.253  12.844  1.00  0.00    -0.002 C 
HETATM    2  C9  UNL     1      -1.689   4.773  11.588  1.00  0.00     0.007 C 
HETATM    3  C10 UNL     1      -1.309   6.240  11.849  1.00  0.00     0.015 C 
HETATM    4  C11 UNL     1      -1.506   6.443  13.363  1.00  0.00    -0.005 C 
HETATM    5  C12 UNL     1      -0.216   5.914  14.064  1.00  0.00     0.021 C 
HETATM    6  C13 UNL     1      -1.710   7.839  13.937  1.00  0.00     0.002 C 
HETATM    7  C14 UNL     1      -2.427   8.045  15.078  1.00  0.00    -0.032 C 
HETATM    8  C15 UNL     1      -3.129   6.862  15.771  1.00  0.00     0.149 C 
HETATM    9  C16 UNL     1      -3.019   5.468  15.103  1.00  0.00     0.047 C 
HETATM   10  C17 UNL     1      -2.804   5.576  13.587  1.00  0.00    -0.026 C 
HETATM   11  C18 UNL     1      -4.080   6.198  12.932  1.00  0.00     0.016 C 
HETATM   12  C19 UNL     1      -2.583   9.465  15.728  1.00  0.00    -0.013 C 
HETATM   13  C20 UNL     1      -3.975   9.987  15.286  1.00  0.00     0.021 C 
HETATM   14  C21 UNL     1      -2.488   9.382  17.284  1.00  0.00     0.017 C 
HETATM   15  C22 UNL     1      -1.810  10.558  18.000  1.00  0.00     0.033 C 
HETATM   16  C23 UNL     1      -1.975  11.894  17.290  1.00  0.00     0.126 C 
HETATM   17  C24 UNL     1      -1.377  11.859  15.852  1.00  0.00    -0.017 C 
HETATM   18  C25 UNL     1       0.126  12.253  15.967  1.00  0.00     0.018 C 
HETATM   19  C26 UNL     1      -2.027  12.944  14.963  1.00  0.00     0.018 C 
HETATM   20  C27 UNL     1      -1.429  10.402  15.234  1.00  0.00     0.015 C 
HETATM   21  C28 UNL     1      -1.343  10.386  13.709  1.00  0.00     0.090 C 
HETATM   22  C29 UNL     1      -1.048   8.988  13.236  1.00  0.00     0.157 C 
HETATM   23  O3  UNL     1      -0.289   8.807  12.285  1.00  0.00    -0.293 OA
ENDROOT
BRANCH   1  24
HETATM   24  C6  UNL     1      -3.559   3.240  12.470  1.00  0.00    -0.014 C 
HETATM   25  C7  UNL     1      -3.025   2.007  11.733  1.00  0.00     0.010 C 
BRANCH  24  26
HETATM   26  C5  UNL     1      -4.710   3.888  11.648  1.00  0.00     0.008 C 
BRANCH  26  27
HETATM   27  C4  UNL     1      -6.129   3.487  12.078  1.00  0.00     0.028 C 
BRANCH  27  28
HETATM   28  C3  UNL     1      -6.631   4.055  13.383  1.00  0.00    -0.022 C 
HETATM   29  C2  UNL     1      -7.580   4.982  13.629  1.00  0.00    -0.064 C 
HETATM   30  C1  UNL     1      -8.317   5.753  12.568  1.00  0.00     0.045 C 
BRANCH  29  31
HETATM   31  C30 UNL     1      -7.929   5.351  15.053  1.00  0.00     0.197 C 
BRANCH  31  32
HETATM   32  O4  UNL     1      -7.877   4.205  15.890  1.00  0.00    -0.397 OA
HETATM   33  H48 UNL     1      -7.970   3.413  15.334  1.00  0.00     0.209 HD
ENDBRANCH  31  32
ENDBRANCH  29  31
ENDBRANCH  27  28
ENDBRANCH  26  27
ENDBRANCH  24  26
ENDBRANCH   1  24
BRANCH   8  34
HETATM   34  O1  UNL     1      -4.516   7.169  15.884  1.00  0.00    -0.391 OA
HETATM   35  H22 UNL     1      -4.921   6.498  16.458  1.00  0.00     0.210 HD
ENDBRANCH   8  34
BRANCH  16  36
HETATM   36  O2  UNL     1      -3.356  12.244  17.285  1.00  0.00    -0.395 OA
HETATM   37  H36 UNL     1      -3.651  12.304  18.209  1.00  0.00     0.210 HD
ENDBRANCH  16  36
TORSDOF 8
ENDMDL
MODEL 3
REMARK minimizedAffinity -8.86420059
REMARK  8 active torsions:
REMARK  status: ('A' for Active; 'I' for Inactive)
REMARK    1  A    between atoms: C2_2  and  C30_33 
REMARK    2  A    between atoms: C3_3  and  C4_4 
REMARK    3  A    between atoms: C4_4  and  C5_5 
REMARK    4  A    between atoms: C5_5  and  C6_6 
REMARK    5  A    between atoms: C6_6  and  C8_8 
REMARK    6  A    between atoms: C15_15  and  O1_16 
REMARK    7  A    between atoms: C23_24  and  O2_25 
REMARK    8  A    between atoms: C30_33  and  O4_34 
ROOT
HETATM    1  C8  UNL     1      -2.144   6.238  13.445  1.00  0.00    -0.002 C 
HETATM    2  C9  UNL     1      -2.214   5.614  12.026  1.00  0.00     0.007 C 
HETATM    3  C10 UNL     1      -0.804   5.689  11.416  1.00  0.00     0.015 C 
HETATM    4  C11 UNL     1       0.129   6.009  12.599  1.00  0.00    -0.005 C 
HETATM    5  C12 UNL     1       0.439   4.656  13.313  1.00  0.00     0.021 C 
HETATM    6  C13 UNL     1       1.496   6.638  12.360  1.00  0.00     0.002 C 
HETATM    7  C14 UNL     1       2.088   7.437  13.291  1.00  0.00    -0.032 C 
HETATM    8  C15 UNL     1       1.337   7.797  14.588  1.00  0.00     0.149 C 
HETATM    9  C16 UNL     1      -0.104   7.254  14.759  1.00  0.00     0.047 C 
HETATM   10  C17 UNL     1      -0.787   7.009  13.405  1.00  0.00    -0.026 C 
HETATM   11  C18 UNL     1      -0.993   8.377  12.680  1.00  0.00     0.016 C 
HETATM   12  C19 UNL     1       3.528   8.031  13.097  1.00  0.00    -0.013 C 
HETATM   13  C20 UNL     1       3.327   9.491  12.617  1.00  0.00     0.021 C 
HETATM   14  C21 UNL     1       4.336   7.990  14.432  1.00  0.00     0.017 C 
HETATM   15  C22 UNL     1       5.842   7.718  14.322  1.00  0.00     0.033 C 
HETATM   16  C23 UNL     1       6.471   8.231  13.035  1.00  0.00     0.126 C 
HETATM   17  C24 UNL     1       5.821   7.580  11.778  1.00  0.00    -0.017 C 
HETATM   18  C25 UNL     1       6.602   6.265  11.483  1.00  0.00     0.018 C 
HETATM   19  C26 UNL     1       6.024   8.474  10.534  1.00  0.00     0.018 C 
HETATM   20  C27 UNL     1       4.314   7.176  12.044  1.00  0.00     0.015 C 
HETATM   21  C28 UNL     1       3.493   7.017  10.766  1.00  0.00     0.090 C 
HETATM   22  C29 UNL     1       2.204   6.306  11.079  1.00  0.00     0.157 C 
HETATM   23  O3  UNL     1       1.747   5.482  10.289  1.00  0.00    -0.293 OA
ENDROOT
BRANCH   1  24
HETATM   24  C6  UNL     1      -3.454   6.997  13.808  1.00  0.00    -0.014 C 
HETATM   25  C7  UNL     1      -3.633   7.187  15.318  1.00  0.00     0.010 C 
BRANCH  24  26
HETATM   26  C5  UNL     1      -4.724   6.329  13.207  1.00  0.00     0.008 C 
BRANCH  26  27
HETATM   27  C4  UNL     1      -4.755   4.796  13.279  1.00  0.00     0.028 C 
BRANCH  27  28
HETATM   28  C3  UNL     1      -6.112   4.138  13.212  1.00  0.00    -0.022 C 
HETATM   29  C2  UNL     1      -6.537   3.071  12.504  1.00  0.00    -0.064 C 
HETATM   30  C1  UNL     1      -5.703   2.326  11.499  1.00  0.00     0.045 C 
BRANCH  29  31
HETATM   31  C30 UNL     1      -7.960   2.580  12.651  1.00  0.00     0.197 C 
BRANCH  31  32
HETATM   32  O4  UNL     1      -8.769   3.578  13.256  1.00  0.00    -0.397 OA
HETATM   33  H48 UNL     1      -8.192   4.191  13.741  1.00  0.00     0.209 HD
ENDBRANCH  31  32
ENDBRANCH  29  31
ENDBRANCH  27  28
ENDBRANCH  26  27
ENDBRANCH  24  26
ENDBRANCH   1  24
BRANCH   8  34
HETATM   34  O1  UNL     1       1.270   9.217  14.685  1.00  0.00    -0.391 OA
HETATM   35  H22 UNL     1       0.940   9.436  15.573  1.00  0.00     0.210 HD
ENDBRANCH   8  34
BRANCH  16  36
HETATM   36  O2  UNL     1       6.375   9.651  13.011  1.00  0.00    -0.395 OA
HETATM   37  H36 UNL     1       6.847   9.995  13.788  1.00  0.00     0.210 HD
ENDBRANCH  16  36
TORSDOF 8
ENDMDL
MODEL 4
REMARK minimizedAffinity -8.70829678
REMARK  8 active torsions:
REMARK  status: ('A' for Active; 'I' for Inactive)
REMARK    1  A    between atoms: C2_2  and  C30_33 
REMARK    2  A    between atoms: C3_3  and  C4_4 
REMARK    3  A    between atoms: C4_4  and  C5_5 
REMARK    4  A    between atoms: C5_5  and  C6_6 
REMARK    5  A    between atoms: C6_6  and  C8_8 
REMARK    6  A    between atoms: C15_15  and  O1_16 
REMARK    7  A    between atoms: C23_24  and  O2_25 
REMARK    8  A    between atoms: C30_33  and  O4_34 
ROOT
HETATM    1  C8  UNL     1      -1.643   7.923  13.761  1.00  0.00    -0.002 C 
HETATM    2  C9  UNL     1      -1.444   7.564  15.258  1.00  0.00     0.007 C 
HETATM    3  C10 UNL     1       0.060   7.662  15.563  1.00  0.00     0.015 C 
HETATM    4  C11 UNL     1       0.664   8.420  14.365  1.00  0.00    -0.005 C 
HETATM    5  C12 UNL     1       0.444   9.942  14.633  1.00  0.00     0.021 C 
HETATM    6  C13 UNL     1       2.147   8.299  14.040  1.00  0.00     0.002 C 
HETATM    7  C14 UNL     1       2.612   8.437  12.766  1.00  0.00    -0.032 C 
HETATM    8  C15 UNL     1       1.624   8.633  11.601  1.00  0.00     0.149 C 
HETATM    9  C16 UNL     1       0.111   8.626  11.932  1.00  0.00     0.047 C 
HETATM   10  C17 UNL     1      -0.194   7.805  13.193  1.00  0.00    -0.026 C 
HETATM   11  C18 UNL     1       0.129   6.302  12.916  1.00  0.00     0.016 C 
HETATM   12  C19 UNL     1       4.144   8.392  12.421  1.00  0.00    -0.013 C 
HETATM   13  C20 UNL     1       4.422   6.961  11.896  1.00  0.00     0.021 C 
HETATM   14  C21 UNL     1       4.506   9.461  11.342  1.00  0.00     0.017 C 
HETATM   15  C22 UNL     1       5.879  10.134  11.468  1.00  0.00     0.033 C 
HETATM   16  C23 UNL     1       6.948   9.248  12.090  1.00  0.00     0.126 C 
HETATM   17  C24 UNL     1       6.554   8.795  13.528  1.00  0.00    -0.017 C 
HETATM   18  C25 UNL     1       7.070   9.886  14.513  1.00  0.00     0.018 C 
HETATM   19  C26 UNL     1       7.300   7.498  13.915  1.00  0.00     0.018 C 
HETATM   20  C27 UNL     1       4.984   8.714  13.704  1.00  0.00     0.015 C 
HETATM   21  C28 UNL     1       4.547   7.822  14.865  1.00  0.00     0.090 C 
HETATM   22  C29 UNL     1       3.098   8.074  15.178  1.00  0.00     0.157 C 
HETATM   23  O3  UNL     1       2.711   8.082  16.346  1.00  0.00    -0.293 OA
ENDROOT
BRANCH   1  24
HETATM   24  C6  UNL     1      -2.797   7.099  13.118  1.00  0.00    -0.014 C 
HETATM   25  C7  UNL     1      -4.099   7.897  12.989  1.00  0.00     0.010 C 
BRANCH  24  26
HETATM   26  C5  UNL     1      -3.070   5.760  13.862  1.00  0.00     0.008 C 
BRANCH  26  27
HETATM   27  C4  UNL     1      -3.920   4.742  13.088  1.00  0.00     0.028 C 
BRANCH  27  28
HETATM   28  C3  UNL     1      -5.413   4.798  13.303  1.00  0.00    -0.022 C 
HETATM   29  C2  UNL     1      -6.394   3.975  12.876  1.00  0.00    -0.064 C 
HETATM   30  C1  UNL     1      -6.184   2.804  11.956  1.00  0.00     0.045 C 
BRANCH  29  31
HETATM   31  C30 UNL     1      -7.829   4.235  13.273  1.00  0.00     0.197 C 
BRANCH  31  32
HETATM   32  O4  UNL     1      -8.635   3.100  12.990  1.00  0.00    -0.397 OA
HETATM   33  H48 UNL     1      -8.187   2.564  12.316  1.00  0.00     0.209 HD
ENDBRANCH  31  32
ENDBRANCH  29  31
ENDBRANCH  27  28
ENDBRANCH  26  27
ENDBRANCH  24  26
ENDBRANCH   1  24
BRANCH   8  34
HETATM   34  O1  UNL     1       1.853   7.605  10.642  1.00  0.00    -0.391 OA
HETATM   35  H22 UNL     1       1.342   7.825   9.845  1.00  0.00     0.210 HD
ENDBRANCH   8  34
BRANCH  16  36
HETATM   36  O2  UNL     1       7.185   8.140  11.228  1.00  0.00    -0.395 OA
HETATM   37  H36 UNL     1       7.480   8.488  10.370  1.00  0.00     0.210 HD
ENDBRANCH  16  36
TORSDOF 8
ENDMDL
MODEL 5
REMARK minimizedAffinity -8.62602234
REMARK  8 active torsions:
REMARK  status: ('A' for Active; 'I' for Inactive)
REMARK    1  A    between atoms: C2_2  and  C30_33 
REMARK    2  A    between atoms: C3_3  and  C4_4 
REMARK    3  A    between atoms: C4_4  and  C5_5 
REMARK    4  A    between atoms: C5_5  and  C6_6 
REMARK    5  A    between atoms: C6_6  and  C8_8 
REMARK    6  A    between atoms: C15_15  and  O1_16 
REMARK    7  A    between atoms: C23_24  and  O2_25 
REMARK    8  A    between atoms: C30_33  and  O4_34 
ROOT
HETATM    1  C8  UNL     1      -4.195   5.818  13.032  1.00  0.00    -0.002 C 
HETATM    2  C9  UNL     1      -5.166   6.709  13.852  1.00  0.00     0.007 C 
HETATM    3  C10 UNL     1      -4.327   7.800  14.539  1.00  0.00     0.015 C 
HETATM    4  C11 UNL     1      -2.960   7.760  13.830  1.00  0.00    -0.005 C 
HETATM    5  C12 UNL     1      -3.101   8.599  12.522  1.00  0.00     0.021 C 
HETATM    6  C13 UNL     1      -1.717   8.320  14.512  1.00  0.00     0.002 C 
HETATM    7  C14 UNL     1      -0.474   7.832  14.244  1.00  0.00    -0.032 C 
HETATM    8  C15 UNL     1      -0.306   6.627  13.297  1.00  0.00     0.149 C 
HETATM    9  C16 UNL     1      -1.590   5.988  12.712  1.00  0.00     0.047 C 
HETATM   10  C17 UNL     1      -2.804   6.204  13.626  1.00  0.00    -0.026 C 
HETATM   11  C18 UNL     1      -2.582   5.426  14.964  1.00  0.00     0.016 C 
HETATM   12  C19 UNL     1       0.825   8.446  14.877  1.00  0.00    -0.013 C 
HETATM   13  C20 UNL     1       1.201   7.520  16.062  1.00  0.00     0.021 C 
HETATM   14  C21 UNL     1       1.982   8.507  13.830  1.00  0.00     0.017 C 
HETATM   15  C22 UNL     1       2.933   9.709  13.921  1.00  0.00     0.033 C 
HETATM   16  C23 UNL     1       3.115  10.250  15.331  1.00  0.00     0.126 C 
HETATM   17  C24 UNL     1       1.763  10.721  15.945  1.00  0.00    -0.017 C 
HETATM   18  C25 UNL     1       1.565  12.212  15.538  1.00  0.00     0.018 C 
HETATM   19  C26 UNL     1       1.833  10.716  17.489  1.00  0.00     0.018 C 
HETATM   20  C27 UNL     1       0.539   9.911  15.352  1.00  0.00     0.015 C 
HETATM   21  C28 UNL     1      -0.704   9.952  16.239  1.00  0.00     0.090 C 
HETATM   22  C29 UNL     1      -1.897   9.471  15.458  1.00  0.00     0.157 C 
HETATM   23  O3  UNL     1      -2.991  10.011  15.609  1.00  0.00    -0.293 OA
ENDROOT
BRANCH   1  24
HETATM   24  C6  UNL     1      -4.646   4.329  13.022  1.00  0.00    -0.014 C 
HETATM   25  C7  UNL     1      -3.546   3.376  12.541  1.00  0.00     0.010 C 
BRANCH  24  26
HETATM   26  C5  UNL     1      -5.943   4.096  12.194  1.00  0.00     0.008 C 
BRANCH  26  27
HETATM   27  C4  UNL     1      -7.181   3.701  13.014  1.00  0.00     0.028 C 
BRANCH  27  28
HETATM   28  C3  UNL     1      -7.979   4.826  13.626  1.00  0.00    -0.022 C 
HETATM   29  C2  UNL     1      -8.792   5.739  13.055  1.00  0.00    -0.064 C 
HETATM   30  C1  UNL     1      -9.009   5.880  11.573  1.00  0.00     0.045 C 
BRANCH  29  31
HETATM   31  C30 UNL     1      -9.519   6.750  13.912  1.00  0.00     0.197 C 
BRANCH  31  32
HETATM   32  O4  UNL     1     -10.795   6.255  14.290  1.00  0.00    -0.397 OA
HETATM   33  H48 UNL     1     -11.056   5.562  13.661  1.00  0.00     0.209 HD
ENDBRANCH  31  32
ENDBRANCH  29  31
ENDBRANCH  27  28
ENDBRANCH  26  27
ENDBRANCH  24  26
ENDBRANCH   1  24
BRANCH   8  34
HETATM   34  O1  UNL     1       0.397   5.604  13.996  1.00  0.00    -0.391 OA
HETATM   35  H22 UNL     1       0.637   4.918  13.351  1.00  0.00     0.210 HD
ENDBRANCH   8  34
BRANCH  16  36
HETATM   36  O2  UNL     1       3.744   9.252  16.128  1.00  0.00    -0.395 OA
HETATM   37  H36 UNL     1       4.603   9.045  15.723  1.00  0.00     0.210 HD
ENDBRANCH  16  36
TORSDOF 8
ENDMDL
MODEL 6
REMARK minimizedAffinity -8.62227345
REMARK  8 active torsions:
REMARK  status: ('A' for Active; 'I' for Inactive)
REMARK    1  A    between atoms: C2_2  and  C30_33 
REMARK    2  A    between atoms: C3_3  and  C4_4 
REMARK    3  A    between atoms: C4_4  and  C5_5 
REMARK    4  A    between atoms: C5_5  and  C6_6 
REMARK    5  A    between atoms: C6_6  and  C8_8 
REMARK    6  A    between atoms: C15_15  and  O1_16 
REMARK    7  A    between atoms: C23_24  and  O2_25 
REMARK    8  A    between atoms: C30_33  and  O4_34 
ROOT
HETATM    1  C8  UNL     1      -5.162   6.285  14.930  1.00  0.00    -0.002 C 
HETATM    2  C9  UNL     1      -4.803   7.736  15.348  1.00  0.00     0.007 C 
HETATM    3  C10 UNL     1      -6.108   8.551  15.360  1.00  0.00     0.015 C 
HETATM    4  C11 UNL     1      -7.236   7.503  15.314  1.00  0.00    -0.005 C 
HETATM    5  C12 UNL     1      -7.456   7.005  16.777  1.00  0.00     0.021 C 
HETATM    6  C13 UNL     1      -8.628   7.885  14.827  1.00  0.00     0.002 C 
HETATM    7  C14 UNL     1      -9.452   6.975  14.234  1.00  0.00    -0.032 C 
HETATM    8  C15 UNL     1      -8.952   5.543  13.962  1.00  0.00     0.149 C 
HETATM    9  C16 UNL     1      -7.490   5.207  14.348  1.00  0.00     0.047 C 
HETATM   10  C17 UNL     1      -6.593   6.453  14.329  1.00  0.00    -0.026 C 
HETATM   11  C18 UNL     1      -6.475   6.977  12.861  1.00  0.00     0.016 C 
HETATM   12  C19 UNL     1     -10.918   7.329  13.795  1.00  0.00    -0.013 C 
HETATM   13  C20 UNL     1     -10.853   7.602  12.271  1.00  0.00     0.021 C 
HETATM   14  C21 UNL     1     -11.895   6.152  14.109  1.00  0.00     0.017 C 
HETATM   15  C22 UNL     1     -13.318   6.531  14.541  1.00  0.00     0.033 C 
HETATM   16  C23 UNL     1     -13.821   7.836  13.940  1.00  0.00     0.126 C 
HETATM   17  C24 UNL     1     -12.913   9.039  14.336  1.00  0.00    -0.017 C 
HETATM   18  C25 UNL     1     -13.455   9.601  15.684  1.00  0.00     0.018 C 
HETATM   19  C26 UNL     1     -13.057  10.190  13.316  1.00  0.00     0.018 C 
HETATM   20  C27 UNL     1     -11.419   8.583  14.590  1.00  0.00     0.015 C 
HETATM   21  C28 UNL     1     -10.409   9.723  14.479  1.00  0.00     0.090 C 
HETATM   22  C29 UNL     1      -9.093   9.291  15.067  1.00  0.00     0.157 C 
HETATM   23  O3  UNL     1      -8.418  10.086  15.718  1.00  0.00    -0.293 OA
ENDROOT
BRANCH   1  24
HETATM   24  C6  UNL     1      -4.035   5.634  14.076  1.00  0.00    -0.014 C 
HETATM   25  C7  UNL     1      -3.362   6.628  13.123  1.00  0.00     0.010 C 
BRANCH  24  26
HETATM   26  C5  UNL     1      -4.521   4.388  13.282  1.00  0.00     0.008 C 
BRANCH  26  27
HETATM   27  C4  UNL     1      -4.022   4.300  11.832  1.00  0.00     0.028 C 
BRANCH  27  28
HETATM   28  C3  UNL     1      -3.235   3.067  11.457  1.00  0.00    -0.022 C 
HETATM   29  C2  UNL     1      -1.905   2.880  11.330  1.00  0.00    -0.064 C 
HETATM   30  C1  UNL     1      -0.873   3.966  11.460  1.00  0.00     0.045 C 
BRANCH  29  31
HETATM   31  C30 UNL     1      -1.361   1.513  10.979  1.00  0.00     0.197 C 
BRANCH  31  32
HETATM   32  O4  UNL     1       0.052   1.560  10.846  1.00  0.00    -0.397 OA
HETATM   33  H48 UNL     1       0.315   2.479  10.671  1.00  0.00     0.209 HD
ENDBRANCH  31  32
ENDBRANCH  29  31
ENDBRANCH  27  28
ENDBRANCH  26  27
ENDBRANCH  24  26
ENDBRANCH   1  24
BRANCH   8  34
HETATM   34  O1  UNL     1      -9.096   5.276  12.570  1.00  0.00    -0.391 OA
HETATM   35  H22 UNL     1      -8.930   4.328  12.433  1.00  0.00     0.210 HD
ENDBRANCH   8  34
BRANCH  16  36
HETATM   36  O2  UNL     1     -13.919   7.684  12.528  1.00  0.00    -0.395 OA
HETATM   37  H36 UNL     1     -14.540   6.958  12.349  1.00  0.00     0.210 HD
ENDBRANCH  16  36
TORSDOF 8
ENDMDL
MODEL 7
REMARK minimizedAffinity -8.58776188
REMARK  8 active torsions:
REMARK  status: ('A' for Active; 'I' for Inactive)
REMARK    1  A    between atoms: C2_2  and  C30_33 
REMARK    2  A    between atoms: C3_3  and  C4_4 
REMARK    3  A    between atoms: C4_4  and  C5_5 
REMARK    4  A    between atoms: C5_5  and  C6_6 
REMARK    5  A    between atoms: C6_6  and  C8_8 
REMARK    6  A    between atoms: C15_15  and  O1_16 
REMARK    7  A    between atoms: C23_24  and  O2_25 
REMARK    8  A    between atoms: C30_33  and  O4_34 
ROOT
HETATM    1  C8  UNL     1      -2.324   5.977  13.730  1.00  0.00    -0.002 C 
HETATM    2  C9  UNL     1      -2.468   5.436  12.282  1.00  0.00     0.007 C 
HETATM    3  C10 UNL     1      -1.112   5.625  11.580  1.00  0.00     0.015 C 
HETATM    4  C11 UNL     1      -0.111   5.922  12.712  1.00  0.00    -0.005 C 
HETATM    5  C12 UNL     1       0.316   4.547  13.314  1.00  0.00     0.021 C 
HETATM    6  C13 UNL     1       1.202   6.636  12.418  1.00  0.00     0.002 C 
HETATM    7  C14 UNL     1       1.820   7.409  13.355  1.00  0.00    -0.032 C 
HETATM    8  C15 UNL     1       1.150   7.649  14.721  1.00  0.00     0.149 C 
HETATM    9  C16 UNL     1      -0.245   7.020  14.958  1.00  0.00     0.047 C 
HETATM   10  C17 UNL     1      -1.013   6.820  13.644  1.00  0.00    -0.026 C 
HETATM   11  C18 UNL     1      -1.340   8.217  13.024  1.00  0.00     0.016 C 
HETATM   12  C19 UNL     1       3.211   8.090  13.097  1.00  0.00    -0.013 C 
HETATM   13  C20 UNL     1       2.904   9.563  12.727  1.00  0.00     0.021 C 
HETATM   14  C21 UNL     1       4.116   8.013  14.367  1.00  0.00     0.017 C 
HETATM   15  C22 UNL     1       5.622   7.829  14.133  1.00  0.00     0.033 C 
HETATM   16  C23 UNL     1       6.129   8.452  12.840  1.00  0.00     0.126 C 
HETATM   17  C24 UNL     1       5.420   7.844  11.593  1.00  0.00    -0.017 C 
HETATM   18  C25 UNL     1       6.241   6.593  11.160  1.00  0.00     0.018 C 
HETATM   19  C26 UNL     1       5.486   8.821  10.397  1.00  0.00     0.018 C 
HETATM   20  C27 UNL     1       3.958   7.344  11.939  1.00  0.00     0.015 C 
HETATM   21  C28 UNL     1       3.054   7.219  10.714  1.00  0.00     0.090 C 
HETATM   22  C29 UNL     1       1.829   6.422  11.072  1.00  0.00     0.157 C 
HETATM   23  O3  UNL     1       1.355   5.624  10.265  1.00  0.00    -0.293 OA
ENDROOT
BRANCH   1  24
HETATM   24  C6  UNL     1      -3.640   6.640  14.232  1.00  0.00    -0.014 C 
HETATM   25  C7  UNL     1      -3.991   6.250  15.672  1.00  0.00     0.010 C 
BRANCH  24  26
HETATM   26  C5  UNL     1      -4.852   6.360  13.298  1.00  0.00     0.008 C 
BRANCH  26  27
HETATM   27  C4  UNL     1      -5.940   5.453  13.892  1.00  0.00     0.028 C 
BRANCH  27  28
HETATM   28  C3  UNL     1      -7.259   6.105  14.232  1.00  0.00    -0.022 C 
HETATM   29  C2  UNL     1      -8.421   6.144  13.548  1.00  0.00    -0.064 C 
HETATM   30  C1  UNL     1      -8.619   5.580  12.168  1.00  0.00     0.045 C 
BRANCH  29  31
HETATM   31  C30 UNL     1      -9.626   6.839  14.140  1.00  0.00     0.197 C 
BRANCH  31  32
HETATM   32  O4  UNL     1      -9.771   6.502  15.511  1.00  0.00    -0.397 OA
HETATM   33  H48 UNL     1      -9.299   5.669  15.675  1.00  0.00     0.209 HD
ENDBRANCH  31  32
ENDBRANCH  29  31
ENDBRANCH  27  28
ENDBRANCH  26  27
ENDBRANCH  24  26
ENDBRANCH   1  24
BRANCH   8  34
HETATM   34  O1  UNL     1       1.021   9.055  14.914  1.00  0.00    -0.391 OA
HETATM   35  H22 UNL     1       0.747   9.202  15.835  1.00  0.00     0.210 HD
ENDBRANCH   8  34
BRANCH  16  36
HETATM   36  O2  UNL     1       5.961   9.864  12.914  1.00  0.00    -0.395 OA
HETATM   37  H36 UNL     1       6.471  10.185  13.677  1.00  0.00     0.210 HD
ENDBRANCH  16  36
TORSDOF 8
ENDMDL
MODEL 8
REMARK minimizedAffinity -8.50711823
REMARK  8 active torsions:
REMARK  status: ('A' for Active; 'I' for Inactive)
REMARK    1  A    between atoms: C2_2  and  C30_33 
REMARK    2  A    between atoms: C3_3  and  C4_4 
REMARK    3  A    between atoms: C4_4  and  C5_5 
REMARK    4  A    between atoms: C5_5  and  C6_6 
REMARK    5  A    between atoms: C6_6  and  C8_8 
REMARK    6  A    between atoms: C15_15  and  O1_16 
REMARK    7  A    between atoms: C23_24  and  O2_25 
REMARK    8  A    between atoms: C30_33  and  O4_34 
ROOT
HETATM    1  C8  UNL     1       0.515   8.076  13.730  1.00  0.00    -0.002 C 
HETATM    2  C9  UNL     1       0.762   6.912  12.733  1.00  0.00     0.007 C 
HETATM    3  C10 UNL     1      -0.585   6.207  12.500  1.00  0.00     0.015 C 
HETATM    4  C11 UNL     1      -1.646   7.174  13.058  1.00  0.00    -0.005 C 
HETATM    5  C12 UNL     1      -1.931   8.230  11.945  1.00  0.00     0.021 C 
HETATM    6  C13 UNL     1      -3.023   6.663  13.463  1.00  0.00     0.002 C 
HETATM    7  C14 UNL     1      -3.753   7.273  14.438  1.00  0.00    -0.032 C 
HETATM    8  C15 UNL     1      -3.156   8.457  15.223  1.00  0.00     0.149 C 
HETATM    9  C16 UNL     1      -1.705   8.883  14.888  1.00  0.00     0.047 C 
HETATM   10  C17 UNL     1      -0.881   7.715  14.328  1.00  0.00    -0.026 C 
HETATM   11  C18 UNL     1      -0.699   6.636  15.443  1.00  0.00     0.016 C 
HETATM   12  C19 UNL     1      -5.205   6.810  14.816  1.00  0.00    -0.013 C 
HETATM   13  C20 UNL     1      -5.058   5.937  16.089  1.00  0.00     0.021 C 
HETATM   14  C21 UNL     1      -6.132   8.037  15.086  1.00  0.00     0.017 C 
HETATM   15  C22 UNL     1      -7.600   7.903  14.657  1.00  0.00     0.033 C 
HETATM   16  C23 UNL     1      -8.136   6.481  14.718  1.00  0.00     0.126 C 
HETATM   17  C24 UNL     1      -7.326   5.520  13.796  1.00  0.00    -0.017 C 
HETATM   18  C25 UNL     1      -7.985   5.570  12.386  1.00  0.00     0.018 C 
HETATM   19  C26 UNL     1      -7.469   4.057  14.273  1.00  0.00     0.018 C 
HETATM   20  C27 UNL     1      -5.828   6.001  13.627  1.00  0.00     0.015 C 
HETATM   21  C28 UNL     1      -4.879   4.888  13.184  1.00  0.00     0.090 C 
HETATM   22  C29 UNL     1      -3.582   5.489  12.714  1.00  0.00     0.157 C 
HETATM   23  O3  UNL     1      -2.997   5.011  11.744  1.00  0.00    -0.293 OA
ENDROOT
BRANCH   1  24
HETATM   24  C6  UNL     1       1.730   8.293  14.677  1.00  0.00    -0.014 C 
HETATM   25  C7  UNL     1       1.367   9.081  15.941  1.00  0.00     0.010 C 
BRANCH  24  26
HETATM   26  C5  UNL     1       2.939   8.967  13.966  1.00  0.00     0.008 C 
BRANCH  26  27
HETATM   27  C4  UNL     1       3.184   8.512  12.520  1.00  0.00     0.028 C 
BRANCH  27  28
HETATM   28  C3  UNL     1       4.456   7.742  12.255  1.00  0.00    -0.022 C 
HETATM   29  C2  UNL     1       4.741   6.813  11.319  1.00  0.00    -0.064 C 
HETATM   30  C1  UNL     1       3.746   6.255  10.339  1.00  0.00     0.045 C 
BRANCH  29  31
HETATM   31  C30 UNL     1       6.128   6.215  11.241  1.00  0.00     0.197 C 
BRANCH  31  32
HETATM   32  O4  UNL     1       6.094   4.971  10.559  1.00  0.00    -0.397 OA
HETATM   33  H48 UNL     1       5.188   4.622  10.598  1.00  0.00     0.209 HD
ENDBRANCH  31  32
ENDBRANCH  29  31
ENDBRANCH  27  28
ENDBRANCH  26  27
ENDBRANCH  24  26
ENDBRANCH   1  24
BRANCH   8  34
HETATM   34  O1  UNL     1      -3.194   8.137  16.611  1.00  0.00    -0.391 OA
HETATM   35  H22 UNL     1      -2.966   8.943  17.105  1.00  0.00     0.210 HD
ENDBRANCH   8  34
BRANCH  16  36
HETATM   36  O2  UNL     1      -8.134   6.047  16.074  1.00  0.00    -0.395 OA
HETATM   37  H36 UNL     1      -8.699   6.653  16.582  1.00  0.00     0.210 HD
ENDBRANCH  16  36
TORSDOF 8
ENDMDL
MODEL 9
REMARK minimizedAffinity -8.38554955
REMARK  8 active torsions:
REMARK  status: ('A' for Active; 'I' for Inactive)
REMARK    1  A    between atoms: C2_2  and  C30_33 
REMARK    2  A    between atoms: C3_3  and  C4_4 
REMARK    3  A    between atoms: C4_4  and  C5_5 
REMARK    4  A    between atoms: C5_5  and  C6_6 
REMARK    5  A    between atoms: C6_6  and  C8_8 
REMARK    6  A    between atoms: C15_15  and  O1_16 
REMARK    7  A    between atoms: C23_24  and  O2_25 
REMARK    8  A    between atoms: C30_33  and  O4_34 
ROOT
HETATM    1  C8  UNL     1       3.678   8.049  10.083  1.00  0.00    -0.002 C 
HETATM    2  C9  UNL     1       3.376   6.727   9.327  1.00  0.00     0.007 C 
HETATM    3  C10 UNL     1       2.064   6.158   9.894  1.00  0.00     0.015 C 
HETATM    4  C11 UNL     1       1.437   7.316  10.694  1.00  0.00    -0.005 C 
HETATM    5  C12 UNL     1       0.680   8.219   9.671  1.00  0.00     0.021 C 
HETATM    6  C13 UNL     1       0.414   7.037  11.789  1.00  0.00     0.002 C 
HETATM    7  C14 UNL     1       0.268   7.868  12.858  1.00  0.00    -0.032 C 
HETATM    8  C15 UNL     1       1.207   9.078  13.030  1.00  0.00     0.149 C 
HETATM    9  C16 UNL     1       2.325   9.275  11.976  1.00  0.00     0.047 C 
HETATM   10  C17 UNL     1       2.738   7.947  11.325  1.00  0.00    -0.026 C 
HETATM   11  C18 UNL     1       3.406   7.034  12.403  1.00  0.00     0.016 C 
HETATM   12  C19 UNL     1      -0.832   7.640  13.956  1.00  0.00    -0.013 C 
HETATM   13  C20 UNL     1      -0.112   6.958  15.147  1.00  0.00     0.021 C 
HETATM   14  C21 UNL     1      -1.473   8.994  14.395  1.00  0.00     0.017 C 
HETATM   15  C22 UNL     1      -2.968   8.971  14.742  1.00  0.00     0.033 C 
HETATM   16  C23 UNL     1      -3.450   7.647  15.316  1.00  0.00     0.126 C 
HETATM   17  C24 UNL     1      -3.219   6.471  14.321  1.00  0.00    -0.017 C 
HETATM   18  C25 UNL     1      -4.477   6.385  13.407  1.00  0.00     0.018 C 
HETATM   19  C26 UNL     1      -3.156   5.122  15.074  1.00  0.00     0.018 C 
HETATM   20  C27 UNL     1      -1.977   6.741  13.377  1.00  0.00     0.015 C 
HETATM   21  C28 UNL     1      -1.397   5.471  12.757  1.00  0.00     0.090 C 
HETATM   22  C29 UNL     1      -0.473   5.838  11.628  1.00  0.00     0.157 C 
HETATM   23  O3  UNL     1      -0.446   5.154  10.606  1.00  0.00    -0.293 OA
ENDROOT
BRANCH   1  24
HETATM   24  C6  UNL     1       5.207   8.261  10.285  1.00  0.00    -0.014 C 
HETATM   25  C7  UNL     1       5.900   7.044  10.907  1.00  0.00     0.010 C 
BRANCH  24  26
HETATM   26  C5  UNL     1       5.535   9.536  11.115  1.00  0.00     0.008 C 
BRANCH  26  27
HETATM   27  C4  UNL     1       6.838   9.472  11.926  1.00  0.00     0.028 C 
BRANCH  27  28
HETATM   28  C3  UNL     1       6.711   9.580  13.427  1.00  0.00    -0.022 C 
HETATM   29  C2  UNL     1       7.296   8.866  14.411  1.00  0.00    -0.064 C 
HETATM   30  C1  UNL     1       8.186   7.675  14.189  1.00  0.00     0.045 C 
BRANCH  29  31
HETATM   31  C30 UNL     1       7.029   9.210  15.859  1.00  0.00     0.197 C 
BRANCH  31  32
HETATM   32  O4  UNL     1       7.156   8.055  16.675  1.00  0.00    -0.397 OA
HETATM   33  H48 UNL     1       7.045   7.268  16.115  1.00  0.00     0.209 HD
ENDBRANCH  31  32
ENDBRANCH  29  31
ENDBRANCH  27  28
ENDBRANCH  26  27
ENDBRANCH  24  26
ENDBRANCH   1  24
BRANCH   8  34
HETATM   34  O1  UNL     1       1.838   8.977  14.303  1.00  0.00    -0.391 OA
HETATM   35  H22 UNL     1       2.301   9.815  14.470  1.00  0.00     0.210 HD
ENDBRANCH   8  34
BRANCH  16  36
HETATM   36  O2  UNL     1      -2.803   7.424  16.565  1.00  0.00    -0.395 OA
HETATM   37  H36 UNL     1      -3.033   8.162  17.155  1.00  0.00     0.210 HD
ENDBRANCH  16  36
TORSDOF 8
ENDMDL
