MODEL 1
REMARK minimizedAffinity -8.33932686
REMARK  11 active torsions:
REMARK  status: ('A' for Active; 'I' for Inactive)
REMARK    1  A    between atoms: C4_4  and  O1_5 
REMARK    2  A    between atoms: O1_5  and  C5_6 
REMARK    3  A    between atoms: C6_8  and  C7_9 
REMARK    4  A    between atoms: C7_9  and  O3_10 
REMARK    5  A    between atoms: C8_11  and  O4_12 
REMARK    6  A    between atoms: C9_13  and  O5_14 
REMARK    7  A    between atoms: C10_15  and  O6_16 
REMARK    8  A    between atoms: C15_21  and  O7_22 
REMARK    9  A    between atoms: C15_21  and  C16_23 
REMARK   10  A    between atoms: C17_24  and  C18_25 
REMARK   11  A    between atoms: C18_25  and  O8_27 
ROOT
HETATM    1  C1  UNL     1      -2.046  48.421 -22.615  1.00  0.00     0.013 C 
HETATM    2  C2  UNL     1      -3.407  48.406 -23.324  1.00  0.00     0.023 C 
HETATM    3  C3  UNL     1      -3.254  48.520 -24.854  1.00  0.00     0.039 C 
HETATM    4  C4  UNL     1      -3.055  49.947 -25.372  1.00  0.00     0.126 C 
HETATM    5  C11 UNL     1      -4.145  50.886 -24.833  1.00  0.00     0.044 C 
HETATM    6  C12 UNL     1      -4.343  50.871 -23.291  1.00  0.00    -0.010 C 
HETATM    7  C13 UNL     1      -3.198  51.641 -22.588  1.00  0.00     0.018 C 
HETATM    8  C14 UNL     1      -5.618  51.710 -22.984  1.00  0.00     0.018 C 
HETATM    9  C15 UNL     1      -4.484  49.388 -22.760  1.00  0.00     0.086 C 
ENDROOT
BRANCH   4  10
HETATM   10  O1  UNL     1      -1.789  50.500 -25.017  1.00  0.00    -0.353 OA
BRANCH  10  11
HETATM   11  C5  UNL     1      -1.154  51.262 -26.056  1.00  0.00     0.292 C 
HETATM   12  O2  UNL     1       0.001  50.579 -26.536  1.00  0.00    -0.348 OA
HETATM   13  C6  UNL     1       0.992  51.399 -27.191  1.00  0.00     0.179 C 
HETATM   14  C8  UNL     1       0.486  52.785 -27.622  1.00  0.00     0.180 C 
HETATM   15  C9  UNL     1      -0.183  53.547 -26.469  1.00  0.00     0.183 C 
HETATM   16  C10 UNL     1      -0.779  52.607 -25.417  1.00  0.00     0.204 C 
BRANCH  13  17
HETATM   17  C7  UNL     1       2.233  51.477 -26.290  1.00  0.00     0.198 C 
BRANCH  17  18
HETATM   18  O3  UNL     1       3.341  51.963 -27.052  1.00  0.00    -0.398 OA
HETATM   19  H12 UNL     1       3.332  51.457 -27.887  1.00  0.00     0.209 HD
ENDBRANCH  17  18
ENDBRANCH  13  17
BRANCH  14  20
HETATM   20  O4  UNL     1      -0.493  52.609 -28.663  1.00  0.00    -0.390 OA
HETATM   21  H14 UNL     1      -0.036  52.225 -29.434  1.00  0.00     0.210 HD
ENDBRANCH  14  20
BRANCH  15  22
HETATM   22  O5  UNL     1       0.771  54.409 -25.833  1.00  0.00    -0.390 OA
HETATM   23  H16 UNL     1       0.264  54.919 -25.170  1.00  0.00     0.210 HD
ENDBRANCH  15  22
BRANCH  16  24
HETATM   24  O6  UNL     1      -1.905  53.241 -24.791  1.00  0.00    -0.388 OA
HETATM   25  H18 UNL     1      -2.343  52.528 -24.282  1.00  0.00     0.210 HD
ENDBRANCH  16  24
ENDBRANCH  10  11
ENDBRANCH   4  10
BRANCH   9  26
HETATM   26  O7  UNL     1      -4.382  49.383 -21.332  1.00  0.00    -0.385 OA
HETATM   27  H27 UNL     1      -5.107  49.930 -20.987  1.00  0.00     0.211 HD
ENDBRANCH   9  26
BRANCH   9  28
HETATM   28  C16 UNL     1      -5.849  48.793 -23.121  1.00  0.00     0.010 C 
HETATM   29  C17 UNL     1      -6.678  49.218 -24.096  1.00  0.00     0.003 C 
BRANCH  29  30
HETATM   30  C18 UNL     1      -8.006  48.591 -24.400  1.00  0.00     0.136 C 
HETATM   31  C19 UNL     1      -8.639  47.973 -23.161  1.00  0.00     0.043 C 
BRANCH  30  32
HETATM   32  O8  UNL     1      -8.860  49.605 -24.915  1.00  0.00    -0.392 OA
HETATM   33  H34 UNL     1      -9.018  50.246 -24.202  1.00  0.00     0.210 HD
ENDBRANCH  30  32
ENDBRANCH  29  30
ENDBRANCH   9  28
TORSDOF 11
ENDMDL
MODEL 2
REMARK minimizedAffinity -8.27425671
REMARK  11 active torsions:
REMARK  status: ('A' for Active; 'I' for Inactive)
REMARK    1  A    between atoms: C4_4  and  O1_5 
REMARK    2  A    between atoms: O1_5  and  C5_6 
REMARK    3  A    between atoms: C6_8  and  C7_9 
REMARK    4  A    between atoms: C7_9  and  O3_10 
REMARK    5  A    between atoms: C8_11  and  O4_12 
REMARK    6  A    between atoms: C9_13  and  O5_14 
REMARK    7  A    between atoms: C10_15  and  O6_16 
REMARK    8  A    between atoms: C15_21  and  O7_22 
REMARK    9  A    between atoms: C15_21  and  C16_23 
REMARK   10  A    between atoms: C17_24  and  C18_25 
REMARK   11  A    between atoms: C18_25  and  O8_27 
ROOT
HETATM    1  C1  UNL     1      -4.698  51.962 -24.208  1.00  0.00     0.013 C 
HETATM    2  C2  UNL     1      -3.979  51.546 -22.918  1.00  0.00     0.023 C 
HETATM    3  C3  UNL     1      -2.447  51.642 -23.063  1.00  0.00     0.039 C 
HETATM    4  C4  UNL     1      -1.795  50.441 -23.754  1.00  0.00     0.126 C 
HETATM    5  C11 UNL     1      -2.228  49.123 -23.095  1.00  0.00     0.044 C 
HETATM    6  C12 UNL     1      -3.763  48.919 -22.945  1.00  0.00    -0.010 C 
HETATM    7  C13 UNL     1      -4.399  48.557 -24.309  1.00  0.00     0.018 C 
HETATM    8  C14 UNL     1      -3.972  47.648 -22.071  1.00  0.00     0.018 C 
HETATM    9  C15 UNL     1      -4.434  50.191 -22.287  1.00  0.00     0.086 C 
ENDROOT
BRANCH   4  10
HETATM   10  O1  UNL     1      -2.108  50.357 -25.143  1.00  0.00    -0.353 OA
BRANCH  10  11
HETATM   11  C5  UNL     1      -1.195  51.054 -26.007  1.00  0.00     0.292 C 
HETATM   12  O2  UNL     1      -0.170  51.681 -25.241  1.00  0.00    -0.348 OA
HETATM   13  C6  UNL     1       0.504  52.789 -25.877  1.00  0.00     0.179 C 
HETATM   14  C8  UNL     1       0.299  52.868 -27.398  1.00  0.00     0.180 C 
HETATM   15  C9  UNL     1      -1.185  52.830 -27.791  1.00  0.00     0.183 C 
HETATM   16  C10 UNL     1      -2.042  52.093 -26.758  1.00  0.00     0.204 C 
BRANCH  13  17
HETATM   17  C7  UNL     1       0.100  54.083 -25.157  1.00  0.00     0.198 C 
BRANCH  17  18
HETATM   18  O3  UNL     1       0.327  55.197 -26.024  1.00  0.00    -0.398 OA
HETATM   19  H12 UNL     1       1.218  55.065 -26.399  1.00  0.00     0.209 HD
ENDBRANCH  17  18
ENDBRANCH  13  17
BRANCH  14  20
HETATM   20  O4  UNL     1       0.946  51.735 -28.005  1.00  0.00    -0.390 OA
HETATM   21  H14 UNL     1       1.904  51.824 -27.847  1.00  0.00     0.210 HD
ENDBRANCH  14  20
BRANCH  15  22
HETATM   22  O5  UNL     1      -1.687  54.166 -27.940  1.00  0.00    -0.390 OA
HETATM   23  H16 UNL     1      -2.603  54.067 -28.268  1.00  0.00     0.210 HD
ENDBRANCH  15  22
BRANCH  16  24
HETATM   24  O6  UNL     1      -3.174  51.497 -27.411  1.00  0.00    -0.388 OA
HETATM   25  H18 UNL     1      -3.561  50.895 -26.742  1.00  0.00     0.210 HD
ENDBRANCH  16  24
ENDBRANCH  10  11
ENDBRANCH   4  10
BRANCH   9  26
HETATM   26  O7  UNL     1      -5.856  50.098 -22.417  1.00  0.00    -0.385 OA
HETATM   27  H27 UNL     1      -6.139  49.294 -21.950  1.00  0.00     0.211 HD
ENDBRANCH   9  26
BRANCH   9  28
HETATM   28  C16 UNL     1      -4.117  50.278 -20.790  1.00  0.00     0.010 C 
HETATM   29  C17 UNL     1      -2.908  50.494 -20.236  1.00  0.00     0.003 C 
BRANCH  29  30
HETATM   30  C18 UNL     1      -2.664  50.568 -18.758  1.00  0.00     0.136 C 
HETATM   31  C19 UNL     1      -1.254  50.126 -18.393  1.00  0.00     0.043 C 
BRANCH  30  32
HETATM   32  O8  UNL     1      -2.861  51.917 -18.350  1.00  0.00    -0.392 OA
HETATM   33  H34 UNL     1      -2.167  52.454 -18.768  1.00  0.00     0.210 HD
ENDBRANCH  30  32
ENDBRANCH  29  30
ENDBRANCH   9  28
TORSDOF 11
ENDMDL
MODEL 3
REMARK minimizedAffinity -7.90478182
REMARK  11 active torsions:
REMARK  status: ('A' for Active; 'I' for Inactive)
REMARK    1  A    between atoms: C4_4  and  O1_5 
REMARK    2  A    between atoms: O1_5  and  C5_6 
REMARK    3  A    between atoms: C6_8  and  C7_9 
REMARK    4  A    between atoms: C7_9  and  O3_10 
REMARK    5  A    between atoms: C8_11  and  O4_12 
REMARK    6  A    between atoms: C9_13  and  O5_14 
REMARK    7  A    between atoms: C10_15  and  O6_16 
REMARK    8  A    between atoms: C15_21  and  O7_22 
REMARK    9  A    between atoms: C15_21  and  C16_23 
REMARK   10  A    between atoms: C17_24  and  C18_25 
REMARK   11  A    between atoms: C18_25  and  O8_27 
ROOT
HETATM    1  C1  UNL     1      -5.088  51.854 -23.889  1.00  0.00     0.013 C 
HETATM    2  C2  UNL     1      -4.143  51.552 -22.718  1.00  0.00     0.023 C 
HETATM    3  C3  UNL     1      -2.676  51.858 -23.076  1.00  0.00     0.039 C 
HETATM    4  C4  UNL     1      -1.968  50.754 -23.866  1.00  0.00     0.126 C 
HETATM    5  C11 UNL     1      -2.116  49.394 -23.168  1.00  0.00     0.044 C 
HETATM    6  C12 UNL     1      -3.571  48.980 -22.805  1.00  0.00    -0.010 C 
HETATM    7  C13 UNL     1      -4.338  48.522 -24.071  1.00  0.00     0.018 C 
HETATM    8  C14 UNL     1      -3.477  47.699 -21.926  1.00  0.00     0.018 C 
HETATM    9  C15 UNL     1      -4.312  50.152 -22.045  1.00  0.00     0.086 C 
ENDROOT
BRANCH   4  10
HETATM   10  O1  UNL     1      -2.459  50.616 -25.198  1.00  0.00    -0.353 OA
BRANCH  10  11
HETATM   11  C5  UNL     1      -1.547  51.047 -26.221  1.00  0.00     0.292 C 
HETATM   12  O2  UNL     1      -0.223  50.619 -25.916  1.00  0.00    -0.348 OA
HETATM   13  C6  UNL     1       0.842  51.366 -26.545  1.00  0.00     0.179 C 
HETATM   14  C8  UNL     1       0.394  52.230 -27.735  1.00  0.00     0.180 C 
HETATM   15  C9  UNL     1      -0.784  53.148 -27.380  1.00  0.00     0.183 C 
HETATM   16  C10 UNL     1      -1.644  52.580 -26.247  1.00  0.00     0.204 C 
BRANCH  13  17
HETATM   17  C7  UNL     1       1.572  52.177 -25.466  1.00  0.00     0.198 C 
BRANCH  17  18
HETATM   18  O3  UNL     1       0.651  52.513 -24.424  1.00  0.00    -0.398 OA
HETATM   19  H12 UNL     1      -0.150  52.843 -24.873  1.00  0.00     0.209 HD
ENDBRANCH  17  18
ENDBRANCH  13  17
BRANCH  14  20
HETATM   20  O4  UNL     1      -0.029  51.357 -28.799  1.00  0.00    -0.390 OA
HETATM   21  H14 UNL     1       0.752  50.855 -29.095  1.00  0.00     0.210 HD
ENDBRANCH  14  20
BRANCH  15  22
HETATM   22  O5  UNL     1      -0.299  54.441 -26.991  1.00  0.00    -0.390 OA
HETATM   23  H16 UNL     1      -1.096  54.992 -26.861  1.00  0.00     0.210 HD
ENDBRANCH  15  22
BRANCH  16  24
HETATM   24  O6  UNL     1      -2.998  53.034 -26.399  1.00  0.00    -0.388 OA
HETATM   25  H18 UNL     1      -3.516  52.491 -25.770  1.00  0.00     0.210 HD
ENDBRANCH  16  24
ENDBRANCH  10  11
ENDBRANCH   4  10
BRANCH   9  26
HETATM   26  O7  UNL     1      -5.712  49.862 -21.974  1.00  0.00    -0.385 OA
HETATM   27  H27 UNL     1      -5.812  49.030 -21.481  1.00  0.00     0.211 HD
ENDBRANCH   9  26
BRANCH   9  28
HETATM   28  C16 UNL     1      -3.803  50.294 -20.606  1.00  0.00     0.010 C 
HETATM   29  C17 UNL     1      -2.526  50.494 -20.222  1.00  0.00     0.003 C 
BRANCH  29  30
HETATM   30  C18 UNL     1      -2.091  50.625 -18.793  1.00  0.00     0.136 C 
HETATM   31  C19 UNL     1      -0.601  50.911 -18.677  1.00  0.00     0.043 C 
BRANCH  30  32
HETATM   32  O8  UNL     1      -2.828  51.693 -18.208  1.00  0.00    -0.392 OA
HETATM   33  H34 UNL     1      -2.557  52.514 -18.652  1.00  0.00     0.210 HD
ENDBRANCH  30  32
ENDBRANCH  29  30
ENDBRANCH   9  28
TORSDOF 11
ENDMDL
MODEL 4
REMARK minimizedAffinity -7.77099943
REMARK  11 active torsions:
REMARK  status: ('A' for Active; 'I' for Inactive)
REMARK    1  A    between atoms: C4_4  and  O1_5 
REMARK    2  A    between atoms: O1_5  and  C5_6 
REMARK    3  A    between atoms: C6_8  and  C7_9 
REMARK    4  A    between atoms: C7_9  and  O3_10 
REMARK    5  A    between atoms: C8_11  and  O4_12 
REMARK    6  A    between atoms: C9_13  and  O5_14 
REMARK    7  A    between atoms: C10_15  and  O6_16 
REMARK    8  A    between atoms: C15_21  and  O7_22 
REMARK    9  A    between atoms: C15_21  and  C16_23 
REMARK   10  A    between atoms: C17_24  and  C18_25 
REMARK   11  A    between atoms: C18_25  and  O8_27 
ROOT
HETATM    1  C1  UNL     1      -1.597  51.129 -20.584  1.00  0.00     0.013 C 
HETATM    2  C2  UNL     1      -2.367  49.867 -20.991  1.00  0.00     0.023 C 
HETATM    3  C3  UNL     1      -1.685  49.135 -22.164  1.00  0.00     0.039 C 
HETATM    4  C4  UNL     1      -1.999  49.712 -23.547  1.00  0.00     0.126 C 
HETATM    5  C11 UNL     1      -3.515  49.844 -23.758  1.00  0.00     0.044 C 
HETATM    6  C12 UNL     1      -4.285  50.607 -22.643  1.00  0.00    -0.010 C 
HETATM    7  C13 UNL     1      -4.039  52.132 -22.758  1.00  0.00     0.018 C 
HETATM    8  C14 UNL     1      -5.804  50.437 -22.936  1.00  0.00     0.018 C 
HETATM    9  C15 UNL     1      -3.904  50.044 -21.215  1.00  0.00     0.086 C 
ENDROOT
BRANCH   4  10
HETATM   10  O1  UNL     1      -1.416  50.996 -23.763  1.00  0.00    -0.353 OA
BRANCH  10  11
HETATM   11  C5  UNL     1      -1.083  51.280 -25.131  1.00  0.00     0.292 C 
HETATM   12  O2  UNL     1       0.029  50.492 -25.546  1.00  0.00    -0.348 OA
HETATM   13  C6  UNL     1       0.776  50.998 -26.674  1.00  0.00     0.179 C 
HETATM   14  C8  UNL     1       0.041  52.071 -27.492  1.00  0.00     0.180 C 
HETATM   15  C9  UNL     1      -0.478  53.221 -26.617  1.00  0.00     0.183 C 
HETATM   16  C10 UNL     1      -0.749  52.779 -25.176  1.00  0.00     0.204 C 
BRANCH  13  17
HETATM   17  C7  UNL     1       2.149  51.470 -26.176  1.00  0.00     0.198 C 
BRANCH  17  18
HETATM   18  O3  UNL     1       3.116  51.290 -27.214  1.00  0.00    -0.398 OA
HETATM   19  H12 UNL     1       2.968  50.389 -27.561  1.00  0.00     0.209 HD
ENDBRANCH  17  18
ENDBRANCH  13  17
BRANCH  14  20
HETATM   20  O4  UNL     1      -1.093  51.457 -28.134  1.00  0.00    -0.390 OA
HETATM   21  H14 UNL     1      -0.752  50.804 -28.772  1.00  0.00     0.210 HD
ENDBRANCH  14  20
BRANCH  15  22
HETATM   22  O5  UNL     1       0.476  54.293 -26.601  1.00  0.00    -0.390 OA
HETATM   23  H16 UNL     1       0.050  55.016 -26.099  1.00  0.00     0.210 HD
ENDBRANCH  15  22
BRANCH  16  24
HETATM   24  O6  UNL     1      -1.799  53.584 -24.618  1.00  0.00    -0.388 OA
HETATM   25  H18 UNL     1      -2.047  53.131 -23.786  1.00  0.00     0.210 HD
ENDBRANCH  16  24
ENDBRANCH  10  11
ENDBRANCH   4  10
BRANCH   9  26
HETATM   26  O7  UNL     1      -4.398  50.932 -20.207  1.00  0.00    -0.385 OA
HETATM   27  H27 UNL     1      -5.364  50.971 -20.302  1.00  0.00     0.211 HD
ENDBRANCH   9  26
BRANCH   9  28
HETATM   28  C16 UNL     1      -4.542  48.673 -20.967  1.00  0.00     0.010 C 
HETATM   29  C17 UNL     1      -3.916  47.480 -20.982  1.00  0.00     0.003 C 
BRANCH  29  30
HETATM   30  C18 UNL     1      -4.600  46.169 -20.731  1.00  0.00     0.136 C 
HETATM   31  C19 UNL     1      -5.744  45.931 -21.706  1.00  0.00     0.043 C 
BRANCH  30  32
HETATM   32  O8  UNL     1      -3.631  45.136 -20.872  1.00  0.00    -0.392 OA
HETATM   33  H34 UNL     1      -3.350  45.124 -21.802  1.00  0.00     0.210 HD
ENDBRANCH  30  32
ENDBRANCH  29  30
ENDBRANCH   9  28
TORSDOF 11
ENDMDL
MODEL 5
REMARK minimizedAffinity -7.70768404
REMARK  11 active torsions:
REMARK  status: ('A' for Active; 'I' for Inactive)
REMARK    1  A    between atoms: C4_4  and  O1_5 
REMARK    2  A    between atoms: O1_5  and  C5_6 
REMARK    3  A    between atoms: C6_8  and  C7_9 
REMARK    4  A    between atoms: C7_9  and  O3_10 
REMARK    5  A    between atoms: C8_11  and  O4_12 
REMARK    6  A    between atoms: C9_13  and  O5_14 
REMARK    7  A    between atoms: C10_15  and  O6_16 
REMARK    8  A    between atoms: C15_21  and  O7_22 
REMARK    9  A    between atoms: C15_21  and  C16_23 
REMARK   10  A    between atoms: C17_24  and  C18_25 
REMARK   11  A    between atoms: C18_25  and  O8_27 
ROOT
HETATM    1  C1  UNL     1      -2.080  48.883 -22.878  1.00  0.00     0.013 C 
HETATM    2  C2  UNL     1      -3.328  48.767 -23.764  1.00  0.00     0.023 C 
HETATM    3  C3  UNL     1      -3.243  49.692 -24.994  1.00  0.00     0.039 C 
HETATM    4  C4  UNL     1      -3.630  51.149 -24.725  1.00  0.00     0.126 C 
HETATM    5  C11 UNL     1      -5.000  51.238 -24.035  1.00  0.00     0.044 C 
HETATM    6  C12 UNL     1      -5.165  50.368 -22.756  1.00  0.00    -0.010 C 
HETATM    7  C13 UNL     1      -4.415  51.008 -21.562  1.00  0.00     0.018 C 
HETATM    8  C14 UNL     1      -6.666  50.433 -22.349  1.00  0.00     0.018 C 
HETATM    9  C15 UNL     1      -4.702  48.880 -23.029  1.00  0.00     0.086 C 
ENDROOT
BRANCH   4  10
HETATM   10  O1  UNL     1      -2.685  51.838 -23.909  1.00  0.00    -0.353 OA
BRANCH  10  11
HETATM   11  C5  UNL     1      -1.712  52.605 -24.635  1.00  0.00     0.292 C 
HETATM   12  O2  UNL     1      -2.083  52.705 -26.007  1.00  0.00    -0.348 OA
HETATM   13  C6  UNL     1      -1.011  52.992 -26.932  1.00  0.00     0.179 C 
HETATM   14  C8  UNL     1       0.267  53.534 -26.272  1.00  0.00     0.180 C 
HETATM   15  C9  UNL     1       0.758  52.639 -25.125  1.00  0.00     0.183 C 
HETATM   16  C10 UNL     1      -0.383  51.852 -24.473  1.00  0.00     0.204 C 
BRANCH  13  17
HETATM   17  C7  UNL     1      -0.754  51.741 -27.783  1.00  0.00     0.198 C 
BRANCH  17  18
HETATM   18  O3  UNL     1      -2.005  51.161 -28.161  1.00  0.00    -0.398 OA
HETATM   19  H12 UNL     1      -2.543  51.136 -27.347  1.00  0.00     0.209 HD
ENDBRANCH  17  18
ENDBRANCH  13  17
BRANCH  14  20
HETATM   20  O4  UNL     1      -0.017  54.836 -25.728  1.00  0.00    -0.390 OA
HETATM   21  H14 UNL     1      -0.220  55.429 -26.475  1.00  0.00     0.210 HD
ENDBRANCH  14  20
BRANCH  15  22
HETATM   22  O5  UNL     1       1.741  51.714 -25.610  1.00  0.00    -0.390 OA
HETATM   23  H16 UNL     1       2.066  51.238 -24.820  1.00  0.00     0.210 HD
ENDBRANCH  15  22
BRANCH  16  24
HETATM   24  O6  UNL     1      -0.066  51.605 -23.093  1.00  0.00    -0.388 OA
HETATM   25  H18 UNL     1      -0.901  51.277 -22.700  1.00  0.00     0.210 HD
ENDBRANCH  16  24
ENDBRANCH  10  11
ENDBRANCH   4  10
BRANCH   9  26
HETATM   26  O7  UNL     1      -4.597  48.180 -21.784  1.00  0.00    -0.385 OA
HETATM   27  H27 UNL     1      -5.477  48.185 -21.373  1.00  0.00     0.211 HD
ENDBRANCH   9  26
BRANCH   9  28
HETATM   28  C16 UNL     1      -5.722  48.127 -23.890  1.00  0.00     0.010 C 
HETATM   29  C17 UNL     1      -5.877  48.229 -25.225  1.00  0.00     0.003 C 
BRANCH  29  30
HETATM   30  C18 UNL     1      -6.898  47.463 -26.012  1.00  0.00     0.136 C 
HETATM   31  C19 UNL     1      -8.284  47.558 -25.389  1.00  0.00     0.043 C 
BRANCH  30  32
HETATM   32  O8  UNL     1      -6.929  48.001 -27.329  1.00  0.00    -0.392 OA
HETATM   33  H34 UNL     1      -7.261  48.912 -27.265  1.00  0.00     0.210 HD
ENDBRANCH  30  32
ENDBRANCH  29  30
ENDBRANCH   9  28
TORSDOF 11
ENDMDL
MODEL 6
REMARK minimizedAffinity -7.64031267
REMARK  11 active torsions:
REMARK  status: ('A' for Active; 'I' for Inactive)
REMARK    1  A    between atoms: C4_4  and  O1_5 
REMARK    2  A    between atoms: O1_5  and  C5_6 
REMARK    3  A    between atoms: C6_8  and  C7_9 
REMARK    4  A    between atoms: C7_9  and  O3_10 
REMARK    5  A    between atoms: C8_11  and  O4_12 
REMARK    6  A    between atoms: C9_13  and  O5_14 
REMARK    7  A    between atoms: C10_15  and  O6_16 
REMARK    8  A    between atoms: C15_21  and  O7_22 
REMARK    9  A    between atoms: C15_21  and  C16_23 
REMARK   10  A    between atoms: C17_24  and  C18_25 
REMARK   11  A    between atoms: C18_25  and  O8_27 
ROOT
HETATM    1  C1  UNL     1      -4.622  51.413 -22.801  1.00  0.00     0.013 C 
HETATM    2  C2  UNL     1      -3.747  51.051 -21.594  1.00  0.00     0.023 C 
HETATM    3  C3  UNL     1      -2.362  51.724 -21.672  1.00  0.00     0.039 C 
HETATM    4  C4  UNL     1      -1.349  50.998 -22.562  1.00  0.00     0.126 C 
HETATM    5  C11 UNL     1      -1.245  49.513 -22.181  1.00  0.00     0.044 C 
HETATM    6  C12 UNL     1      -2.592  48.740 -22.118  1.00  0.00    -0.010 C 
HETATM    7  C13 UNL     1      -3.112  48.436 -23.545  1.00  0.00     0.018 C 
HETATM    8  C14 UNL     1      -2.288  47.339 -21.511  1.00  0.00     0.018 C 
HETATM    9  C15 UNL     1      -3.650  49.530 -21.249  1.00  0.00     0.086 C 
ENDROOT
BRANCH   4  10
HETATM   10  O1  UNL     1      -1.669  51.070 -23.949  1.00  0.00    -0.353 OA
BRANCH  10  11
HETATM   11  C5  UNL     1      -0.543  51.283 -24.815  1.00  0.00     0.292 C 
HETATM   12  O2  UNL     1      -0.013  52.592 -24.626  1.00  0.00    -0.348 OA
HETATM   13  C6  UNL     1       0.762  53.123 -25.723  1.00  0.00     0.179 C 
HETATM   14  C8  UNL     1       1.228  52.069 -26.740  1.00  0.00     0.180 C 
HETATM   15  C9  UNL     1       0.071  51.201 -27.255  1.00  0.00     0.183 C 
HETATM   16  C10 UNL     1      -1.075  51.099 -26.244  1.00  0.00     0.204 C 
BRANCH  13  17
HETATM   17  C7  UNL     1      -0.033  54.263 -26.375  1.00  0.00     0.198 C 
BRANCH  17  18
HETATM   18  O3  UNL     1       0.316  55.501 -25.750  1.00  0.00    -0.398 OA
HETATM   19  H12 UNL     1       0.291  55.330 -24.789  1.00  0.00     0.209 HD
ENDBRANCH  17  18
ENDBRANCH  13  17
BRANCH  14  20
HETATM   20  O4  UNL     1       2.178  51.201 -26.093  1.00  0.00    -0.390 OA
HETATM   21  H14 UNL     1       2.960  51.738 -25.868  1.00  0.00     0.210 HD
ENDBRANCH  14  20
BRANCH  15  22
HETATM   22  O5  UNL     1      -0.440  51.744 -28.481  1.00  0.00    -0.390 OA
HETATM   23  H16 UNL     1      -1.110  51.104 -28.792  1.00  0.00     0.210 HD
ENDBRANCH  15  22
BRANCH  16  24
HETATM   24  O6  UNL     1      -1.751  49.843 -26.412  1.00  0.00    -0.388 OA
HETATM   25  H18 UNL     1      -2.331  49.765 -25.627  1.00  0.00     0.210 HD
ENDBRANCH  16  24
ENDBRANCH  10  11
ENDBRANCH   4  10
BRANCH   9  26
HETATM   26  O7  UNL     1      -4.946  48.952 -21.436  1.00  0.00    -0.385 OA
HETATM   27  H27 UNL     1      -4.897  48.027 -21.140  1.00  0.00     0.211 HD
ENDBRANCH   9  26
BRANCH   9  28
HETATM   28  C16 UNL     1      -3.323  49.441 -19.754  1.00  0.00     0.010 C 
HETATM   29  C17 UNL     1      -2.206  48.923 -19.205  1.00  0.00     0.003 C 
BRANCH  29  30
HETATM   30  C18 UNL     1      -1.946  48.865 -17.730  1.00  0.00     0.136 C 
HETATM   31  C19 UNL     1      -2.943  49.704 -16.944  1.00  0.00     0.043 C 
BRANCH  30  32
HETATM   32  O8  UNL     1      -2.042  47.505 -17.322  1.00  0.00    -0.392 OA
HETATM   33  H34 UNL     1      -2.964  47.226 -17.448  1.00  0.00     0.210 HD
ENDBRANCH  30  32
ENDBRANCH  29  30
ENDBRANCH   9  28
TORSDOF 11
ENDMDL
MODEL 7
REMARK minimizedAffinity -7.5610795
REMARK  11 active torsions:
REMARK  status: ('A' for Active; 'I' for Inactive)
REMARK    1  A    between atoms: C4_4  and  O1_5 
REMARK    2  A    between atoms: O1_5  and  C5_6 
REMARK    3  A    between atoms: C6_8  and  C7_9 
REMARK    4  A    between atoms: C7_9  and  O3_10 
REMARK    5  A    between atoms: C8_11  and  O4_12 
REMARK    6  A    between atoms: C9_13  and  O5_14 
REMARK    7  A    between atoms: C10_15  and  O6_16 
REMARK    8  A    between atoms: C15_21  and  O7_22 
REMARK    9  A    between atoms: C15_21  and  C16_23 
REMARK   10  A    between atoms: C17_24  and  C18_25 
REMARK   11  A    between atoms: C18_25  and  O8_27 
ROOT
HETATM    1  C1  UNL     1      -4.220  52.239 -24.996  1.00  0.00     0.013 C 
HETATM    2  C2  UNL     1      -2.991  51.374 -25.304  1.00  0.00     0.023 C 
HETATM    3  C3  UNL     1      -3.321  49.870 -25.240  1.00  0.00     0.039 C 
HETATM    4  C4  UNL     1      -3.322  49.276 -23.828  1.00  0.00     0.126 C 
HETATM    5  C11 UNL     1      -2.018  49.610 -23.089  1.00  0.00     0.044 C 
HETATM    6  C12 UNL     1      -1.624  51.114 -23.065  1.00  0.00    -0.010 C 
HETATM    7  C13 UNL     1      -2.506  51.891 -22.057  1.00  0.00     0.018 C 
HETATM    8  C14 UNL     1      -0.188  51.203 -22.470  1.00  0.00     0.018 C 
HETATM    9  C15 UNL     1      -1.688  51.731 -24.519  1.00  0.00     0.086 C 
ENDROOT
BRANCH   4  10
HETATM   10  O1  UNL     1      -4.408  49.740 -23.027  1.00  0.00    -0.353 OA
BRANCH  10  11
HETATM   11  C5  UNL     1      -5.610  48.961 -23.138  1.00  0.00     0.292 C 
HETATM   12  O2  UNL     1      -5.416  47.876 -24.042  1.00  0.00    -0.348 OA
HETATM   13  C6  UNL     1      -6.613  47.323 -24.630  1.00  0.00     0.179 C 
HETATM   14  C8  UNL     1      -7.913  47.708 -23.905  1.00  0.00     0.180 C 
HETATM   15  C9  UNL     1      -8.047  49.225 -23.711  1.00  0.00     0.183 C 
HETATM   16  C10 UNL     1      -6.687  49.927 -23.653  1.00  0.00     0.204 C 
BRANCH  13  17
HETATM   17  C7  UNL     1      -6.637  47.687 -26.121  1.00  0.00     0.198 C 
BRANCH  17  18
HETATM   18  O3  UNL     1      -7.952  47.469 -26.639  1.00  0.00    -0.398 OA
HETATM   19  H12 UNL     1      -8.225  46.591 -26.312  1.00  0.00     0.209 HD
ENDBRANCH  17  18
ENDBRANCH  13  17
BRANCH  14  20
HETATM   20  O4  UNL     1      -7.907  47.095 -22.602  1.00  0.00    -0.390 OA
HETATM   21  H14 UNL     1      -7.934  46.129 -22.732  1.00  0.00     0.210 HD
ENDBRANCH  14  20
BRANCH  15  22
HETATM   22  O5  UNL     1      -8.814  49.790 -24.784  1.00  0.00    -0.390 OA
HETATM   23  H16 UNL     1      -8.929  50.734 -24.556  1.00  0.00     0.210 HD
ENDBRANCH  15  22
BRANCH  16  24
HETATM   24  O6  UNL     1      -6.791  51.105 -22.837  1.00  0.00    -0.388 OA
HETATM   25  H18 UNL     1      -5.865  51.389 -22.689  1.00  0.00     0.210 HD
ENDBRANCH  16  24
ENDBRANCH  10  11
ENDBRANCH   4  10
BRANCH   9  26
HETATM   26  O7  UNL     1      -1.600  53.158 -24.434  1.00  0.00    -0.385 OA
HETATM   27  H27 UNL     1      -0.748  53.372 -24.019  1.00  0.00     0.211 HD
ENDBRANCH   9  26
BRANCH   9  28
HETATM   28  C16 UNL     1      -0.514  51.253 -25.381  1.00  0.00     0.010 C 
HETATM   29  C17 UNL     1       0.472  52.017 -25.891  1.00  0.00     0.003 C 
BRANCH  29  30
HETATM   30  C18 UNL     1       1.596  51.486 -26.729  1.00  0.00     0.136 C 
HETATM   31  C19 UNL     1       1.299  51.603 -28.218  1.00  0.00     0.043 C 
BRANCH  30  32
HETATM   32  O8  UNL     1       2.765  52.235 -26.417  1.00  0.00    -0.392 OA
HETATM   33  H34 UNL     1       2.615  53.149 -26.710  1.00  0.00     0.210 HD
ENDBRANCH  30  32
ENDBRANCH  29  30
ENDBRANCH   9  28
TORSDOF 11
ENDMDL
MODEL 8
REMARK minimizedAffinity -7.51064825
REMARK  11 active torsions:
REMARK  status: ('A' for Active; 'I' for Inactive)
REMARK    1  A    between atoms: C4_4  and  O1_5 
REMARK    2  A    between atoms: O1_5  and  C5_6 
REMARK    3  A    between atoms: C6_8  and  C7_9 
REMARK    4  A    between atoms: C7_9  and  O3_10 
REMARK    5  A    between atoms: C8_11  and  O4_12 
REMARK    6  A    between atoms: C9_13  and  O5_14 
REMARK    7  A    between atoms: C10_15  and  O6_16 
REMARK    8  A    between atoms: C15_21  and  O7_22 
REMARK    9  A    between atoms: C15_21  and  C16_23 
REMARK   10  A    between atoms: C17_24  and  C18_25 
REMARK   11  A    between atoms: C18_25  and  O8_27 
ROOT
HETATM    1  C1  UNL     1       6.611  67.293 -34.705  1.00  0.00     0.013 C 
HETATM    2  C2  UNL     1       7.181  66.015 -35.335  1.00  0.00     0.023 C 
HETATM    3  C3  UNL     1       6.948  65.977 -36.858  1.00  0.00     0.039 C 
HETATM    4  C4  UNL     1       5.554  65.503 -37.279  1.00  0.00     0.126 C 
HETATM    5  C11 UNL     1       5.200  64.166 -36.612  1.00  0.00     0.044 C 
HETATM    6  C12 UNL     1       5.365  64.123 -35.066  1.00  0.00    -0.010 C 
HETATM    7  C13 UNL     1       4.206  64.884 -34.375  1.00  0.00     0.018 C 
HETATM    8  C14 UNL     1       5.171  62.642 -34.626  1.00  0.00     0.018 C 
HETATM    9  C15 UNL     1       6.784  64.673 -34.639  1.00  0.00     0.086 C 
ENDROOT
BRANCH   4  10
HETATM   10  O1  UNL     1       4.525  66.437 -36.957  1.00  0.00    -0.353 OA
BRANCH  10  11
HETATM   11  C5  UNL     1       3.628  66.738 -38.038  1.00  0.00     0.292 C 
HETATM   12  O2  UNL     1       3.885  68.045 -38.546  1.00  0.00    -0.348 OA
HETATM   13  C6  UNL     1       2.796  68.670 -39.259  1.00  0.00     0.179 C 
HETATM   14  C8  UNL     1       1.688  67.702 -39.702  1.00  0.00     0.180 C 
HETATM   15  C9  UNL     1       1.164  66.842 -38.542  1.00  0.00     0.183 C 
HETATM   16  C10 UNL     1       2.214  66.641 -37.446  1.00  0.00     0.204 C 
BRANCH  13  17
HETATM   17  C7  UNL     1       2.261  69.832 -38.409  1.00  0.00     0.198 C 
BRANCH  17  18
HETATM   18  O3  UNL     1       0.995  70.251 -38.924  1.00  0.00    -0.398 OA
HETATM   19  H12 UNL     1       1.112  70.323 -39.891  1.00  0.00     0.209 HD
ENDBRANCH  17  18
ENDBRANCH  13  17
BRANCH  14  20
HETATM   20  O4  UNL     1       2.229  66.816 -40.699  1.00  0.00    -0.390 OA
HETATM   21  H14 UNL     1       2.458  67.356 -41.479  1.00  0.00     0.210 HD
ENDBRANCH  14  20
BRANCH  15  22
HETATM   22  O5  UNL     1       0.002  67.455 -37.964  1.00  0.00    -0.390 OA
HETATM   23  H16 UNL     1      -0.323  66.821 -37.295  1.00  0.00     0.210 HD
ENDBRANCH  15  22
BRANCH  16  24
HETATM   24  O6  UNL     1       1.988  65.382 -36.792  1.00  0.00    -0.388 OA
HETATM   25  H18 UNL     1       2.790  65.234 -36.250  1.00  0.00     0.210 HD
ENDBRANCH  16  24
ENDBRANCH  10  11
ENDBRANCH   4  10
BRANCH   9  26
HETATM   26  O7  UNL     1       6.805  64.886 -33.224  1.00  0.00    -0.385 OA
HETATM   27  H27 UNL     1       6.639  64.028 -32.799  1.00  0.00     0.211 HD
ENDBRANCH   9  26
BRANCH   9  28
HETATM   28  C16 UNL     1       7.894  63.667 -34.965  1.00  0.00     0.010 C 
HETATM   29  C17 UNL     1       8.822  63.190 -34.113  1.00  0.00     0.003 C 
BRANCH  29  30
HETATM   30  C18 UNL     1       9.885  62.204 -34.495  1.00  0.00     0.136 C 
HETATM   31  C19 UNL     1      11.206  62.889 -34.815  1.00  0.00     0.043 C 
BRANCH  30  32
HETATM   32  O8  UNL     1      10.064  61.309 -33.403  1.00  0.00    -0.392 OA
HETATM   33  H34 UNL     1      10.423  61.822 -32.660  1.00  0.00     0.210 HD
ENDBRANCH  30  32
ENDBRANCH  29  30
ENDBRANCH   9  28
TORSDOF 11
ENDMDL
MODEL 9
REMARK minimizedAffinity -7.40999651
REMARK  11 active torsions:
REMARK  status: ('A' for Active; 'I' for Inactive)
REMARK    1  A    between atoms: C4_4  and  O1_5 
REMARK    2  A    between atoms: O1_5  and  C5_6 
REMARK    3  A    between atoms: C6_8  and  C7_9 
REMARK    4  A    between atoms: C7_9  and  O3_10 
REMARK    5  A    between atoms: C8_11  and  O4_12 
REMARK    6  A    between atoms: C9_13  and  O5_14 
REMARK    7  A    between atoms: C10_15  and  O6_16 
REMARK    8  A    between atoms: C15_21  and  O7_22 
REMARK    9  A    between atoms: C15_21  and  C16_23 
REMARK   10  A    between atoms: C17_24  and  C18_25 
REMARK   11  A    between atoms: C18_25  and  O8_27 
ROOT
HETATM    1  C1  UNL     1      -4.181  51.577 -24.952  1.00  0.00     0.013 C 
HETATM    2  C2  UNL     1      -2.820  50.898 -25.149  1.00  0.00     0.023 C 
HETATM    3  C3  UNL     1      -2.880  49.393 -24.819  1.00  0.00     0.039 C 
HETATM    4  C4  UNL     1      -2.775  49.062 -23.327  1.00  0.00     0.126 C 
HETATM    5  C11 UNL     1      -1.548  49.738 -22.698  1.00  0.00     0.044 C 
HETATM    6  C12 UNL     1      -1.424  51.269 -22.943  1.00  0.00    -0.010 C 
HETATM    7  C13 UNL     1      -2.427  52.045 -22.054  1.00  0.00     0.018 C 
HETATM    8  C14 UNL     1      -0.025  51.706 -22.419  1.00  0.00     0.018 C 
HETATM    9  C15 UNL     1      -1.598  51.605 -24.479  1.00  0.00     0.086 C 
ENDROOT
BRANCH   4  10
HETATM   10  O1  UNL     1      -3.923  49.462 -22.582  1.00  0.00    -0.353 OA
BRANCH  10  11
HETATM   11  C5  UNL     1      -4.911  48.435 -22.406  1.00  0.00     0.292 C 
HETATM   12  O2  UNL     1      -5.639  48.235 -23.614  1.00  0.00    -0.348 OA
HETATM   13  C6  UNL     1      -6.943  47.629 -23.473  1.00  0.00     0.179 C 
HETATM   14  C8  UNL     1      -7.178  46.938 -22.120  1.00  0.00     0.180 C 
HETATM   15  C9  UNL     1      -6.869  47.859 -20.931  1.00  0.00     0.183 C 
HETATM   16  C10 UNL     1      -5.831  48.930 -21.279  1.00  0.00     0.204 C 
BRANCH  13  17
HETATM   17  C7  UNL     1      -8.009  48.687 -23.790  1.00  0.00     0.198 C 
BRANCH  17  18
HETATM   18  O3  UNL     1      -7.389  49.804 -24.432  1.00  0.00    -0.398 OA
HETATM   19  H12 UNL     1      -6.594  50.007 -23.904  1.00  0.00     0.209 HD
ENDBRANCH  17  18
ENDBRANCH  13  17
BRANCH  14  20
HETATM   20  O4  UNL     1      -6.306  45.796 -22.033  1.00  0.00    -0.390 OA
HETATM   21  H14 UNL     1      -6.581  45.164 -22.723  1.00  0.00     0.210 HD
ENDBRANCH  14  20
BRANCH  15  22
HETATM   22  O5  UNL     1      -8.071  48.507 -20.487  1.00  0.00    -0.390 OA
HETATM   23  H16 UNL     1      -7.818  49.007 -19.686  1.00  0.00     0.210 HD
ENDBRANCH  15  22
BRANCH  16  24
HETATM   24  O6  UNL     1      -5.095  49.285 -20.098  1.00  0.00    -0.388 OA
HETATM   25  H18 UNL     1      -4.339  49.816 -20.424  1.00  0.00     0.210 HD
ENDBRANCH  16  24
ENDBRANCH  10  11
ENDBRANCH   4  10
BRANCH   9  26
HETATM   26  O7  UNL     1      -1.762  53.018 -24.640  1.00  0.00    -0.385 OA
HETATM   27  H27 UNL     1      -0.960  53.444 -24.295  1.00  0.00     0.211 HD
ENDBRANCH   9  26
BRANCH   9  28
HETATM   28  C16 UNL     1      -0.360  51.194 -25.283  1.00  0.00     0.010 C 
HETATM   29  C17 UNL     1       0.431  52.008 -26.011  1.00  0.00     0.003 C 
BRANCH  29  30
HETATM   30  C18 UNL     1       1.632  51.542 -26.778  1.00  0.00     0.136 C 
HETATM   31  C19 UNL     1       1.437  51.687 -28.281  1.00  0.00     0.043 C 
BRANCH  30  32
HETATM   32  O8  UNL     1       2.745  52.327 -26.365  1.00  0.00    -0.392 OA
HETATM   33  H34 UNL     1       2.579  53.242 -26.647  1.00  0.00     0.210 HD
ENDBRANCH  30  32
ENDBRANCH  29  30
ENDBRANCH   9  28
TORSDOF 11
ENDMDL
