MODEL 1
REMARK minimizedAffinity -7.41170263
REMARK CNNscore 0.50415647
REMARK CNNaffinity 6.91186666
REMARK  5 active torsions:
REMARK  status: ('A' for Active; 'I' for Inactive)
REMARK    1  A    between atoms: C2_2  and  C4_4 
REMARK    2  A    between atoms: C7_7  and  C8_8 
REMARK    3  A    between atoms: C8_8  and  O2_10 
REMARK    4  A    between atoms: C22_25  and  C24_27 
REMARK    5  A    between atoms: C24_27  and  O4_28 
ROOT
HETATM    1  C4  UNL     1       5.222  55.368  -8.081  1.00  0.00     0.019 C 
HETATM    2  C5  UNL     1       6.189  55.218  -9.258  1.00  0.00     0.011 C 
HETATM    3  C6  UNL     1       6.686  53.779  -9.180  1.00  0.00     0.021 C 
HETATM    4  C7  UNL     1       5.643  52.968  -8.373  1.00  0.00     0.050 C 
HETATM    5  C9  UNL     1       5.062  51.803  -9.200  1.00  0.00     0.022 C 
HETATM    6  C10 UNL     1       4.175  52.262 -10.357  1.00  0.00     0.011 C 
HETATM    7  C11 UNL     1       2.958  53.147  -9.942  1.00  0.00    -0.032 C 
HETATM    8  C12 UNL     1       2.983  54.374 -10.896  1.00  0.00     0.016 C 
HETATM    9  C13 UNL     1       3.115  53.601  -8.448  1.00  0.00     0.000 C 
HETATM   10  C14 UNL     1       1.969  54.521  -8.006  1.00  0.00     0.006 C 
HETATM   11  C15 UNL     1       0.598  53.855  -8.182  1.00  0.00     0.006 C 
HETATM   12  C16 UNL     1       0.358  53.317  -9.614  1.00  0.00     0.003 C 
HETATM   13  C17 UNL     1      -1.133  52.824  -9.880  1.00  0.00    -0.035 C 
HETATM   14  C18 UNL     1      -1.577  51.723  -8.889  1.00  0.00     0.016 C 
HETATM   15  C19 UNL     1      -2.096  54.041  -9.650  1.00  0.00     0.017 C 
HETATM   16  C20 UNL     1      -3.346  54.077 -10.521  1.00  0.00     0.080 C 
HETATM   17  C21 UNL     1      -3.755  52.727 -11.048  1.00  0.00     0.137 C 
HETATM   18  O3  UNL     1      -4.931  52.365 -10.979  1.00  0.00    -0.297 OA
HETATM   19  C22 UNL     1      -2.705  51.917 -11.816  1.00  0.00     0.042 C 
HETATM   20  C23 UNL     1      -2.963  50.409 -11.610  1.00  0.00     0.026 C 
HETATM   21  C25 UNL     1      -1.265  52.382 -11.382  1.00  0.00     0.012 C 
HETATM   22  C26 UNL     1      -0.164  51.392 -11.805  1.00  0.00     0.007 C 
HETATM   23  C27 UNL     1       1.240  51.951 -11.566  1.00  0.00     0.011 C 
HETATM   24  C28 UNL     1       1.527  52.357 -10.088  1.00  0.00    -0.032 C 
HETATM   25  C29 UNL     1       1.571  51.046  -9.245  1.00  0.00     0.016 C 
HETATM   26  C30 UNL     1       4.537  53.985  -7.921  1.00  0.00     0.017 C 
ENDROOT
BRANCH   4  27
HETATM   27  C8  UNL     1       6.365  52.389  -7.148  1.00  0.00     0.149 C 
HETATM   28  O1  UNL     1       6.191  52.687  -5.976  1.00  0.00    -0.649 OA
BRANCH  27  29
HETATM   29  O2  UNL     1       7.312  51.483  -7.463  1.00  0.00    -0.776 OA
HETATM   30  H11 UNL     1       7.691  51.234  -6.596  1.00  0.00     0.167 HD
ENDBRANCH  27  29
ENDBRANCH   4  27
BRANCH   1  31
HETATM   31  C2  UNL     1       4.392  56.630  -8.002  1.00  0.00    -0.088 C 
HETATM   32  C1  UNL     1       3.711  57.171  -9.022  1.00  0.00     0.014 C 
HETATM   33  C3  UNL     1       4.444  57.342  -6.672  1.00  0.00     0.043 C 
ENDBRANCH   1  31
BRANCH  19  34
HETATM   34  C24 UNL     1      -2.936  52.268 -13.311  1.00  0.00     0.181 C 
BRANCH  34  35
HETATM   35  O4  UNL     1      -3.853  53.343 -13.485  1.00  0.00    -0.400 OA
HETATM   36  H37 UNL     1      -3.530  54.104 -12.957  1.00  0.00     0.209 HD
ENDBRANCH  34  35
ENDBRANCH  19  34
TORSDOF 5
ENDMDL
MODEL 2
REMARK minimizedAffinity -6.96469736
REMARK CNNscore 0.471216142
REMARK CNNaffinity 6.00097609
REMARK  5 active torsions:
REMARK  status: ('A' for Active; 'I' for Inactive)
REMARK    1  A    between atoms: C2_2  and  C4_4 
REMARK    2  A    between atoms: C7_7  and  C8_8 
REMARK    3  A    between atoms: C8_8  and  O2_10 
REMARK    4  A    between atoms: C22_25  and  C24_27 
REMARK    5  A    between atoms: C24_27  and  O4_28 
ROOT
HETATM    1  C4  UNL     1     -19.537  44.328 -22.026  1.00  0.00     0.019 C 
HETATM    2  C5  UNL     1     -19.131  43.289 -23.073  1.00  0.00     0.011 C 
HETATM    3  C6  UNL     1     -18.787  44.098 -24.319  1.00  0.00     0.021 C 
HETATM    4  C7  UNL     1     -18.445  45.537 -23.861  1.00  0.00     0.050 C 
HETATM    5  C9  UNL     1     -17.013  45.940 -24.265  1.00  0.00     0.022 C 
HETATM    6  C10 UNL     1     -15.929  45.177 -23.505  1.00  0.00     0.011 C 
HETATM    7  C11 UNL     1     -15.994  45.314 -21.952  1.00  0.00    -0.032 C 
HETATM    8  C12 UNL     1     -15.887  43.866 -21.394  1.00  0.00     0.016 C 
HETATM    9  C13 UNL     1     -17.357  45.971 -21.532  1.00  0.00     0.000 C 
HETATM   10  C14 UNL     1     -17.495  46.079 -20.008  1.00  0.00     0.006 C 
HETATM   11  C15 UNL     1     -16.343  46.877 -19.382  1.00  0.00     0.006 C 
HETATM   12  C16 UNL     1     -14.944  46.345 -19.777  1.00  0.00     0.003 C 
HETATM   13  C17 UNL     1     -13.744  47.013 -18.969  1.00  0.00    -0.035 C 
HETATM   14  C18 UNL     1     -13.717  48.552 -19.118  1.00  0.00     0.016 C 
HETATM   15  C19 UNL     1     -13.964  46.721 -17.444  1.00  0.00     0.017 C 
HETATM   16  C20 UNL     1     -12.700  46.552 -16.608  1.00  0.00     0.080 C 
HETATM   17  C21 UNL     1     -11.487  47.216 -17.205  1.00  0.00     0.137 C 
HETATM   18  O3  UNL     1     -10.754  47.914 -16.502  1.00  0.00    -0.297 OA
HETATM   19  C22 UNL     1     -11.116  46.852 -18.646  1.00  0.00     0.042 C 
HETATM   20  C23 UNL     1     -10.436  48.059 -19.326  1.00  0.00     0.026 C 
HETATM   21  C25 UNL     1     -12.396  46.334 -19.402  1.00  0.00     0.012 C 
HETATM   22  C26 UNL     1     -12.215  46.301 -20.931  1.00  0.00     0.007 C 
HETATM   23  C27 UNL     1     -13.380  45.602 -21.636  1.00  0.00     0.011 C 
HETATM   24  C28 UNL     1     -14.776  46.234 -21.349  1.00  0.00    -0.032 C 
HETATM   25  C29 UNL     1     -14.802  47.636 -22.030  1.00  0.00     0.016 C 
HETATM   26  C30 UNL     1     -18.656  45.575 -22.306  1.00  0.00     0.017 C 
ENDROOT
BRANCH   4  27
HETATM   27  C8  UNL     1     -19.436  46.483 -24.555  1.00  0.00     0.149 C 
HETATM   28  O1  UNL     1     -20.562  46.217 -24.947  1.00  0.00    -0.649 OA
BRANCH  27  29
HETATM   29  O2  UNL     1     -18.942  47.719 -24.762  1.00  0.00    -0.776 OA
HETATM   30  H11 UNL     1     -19.666  48.183 -25.227  1.00  0.00     0.167 HD
ENDBRANCH  27  29
ENDBRANCH   4  27
BRANCH   1  31
HETATM   31  C2  UNL     1     -19.737  43.857 -20.602  1.00  0.00    -0.088 C 
HETATM   32  C1  UNL     1     -20.215  44.609 -19.600  1.00  0.00     0.014 C 
HETATM   33  C3  UNL     1     -19.262  42.451 -20.326  1.00  0.00     0.043 C 
ENDBRANCH   1  31
BRANCH  19  34
HETATM   34  C24 UNL     1     -10.084  45.699 -18.519  1.00  0.00     0.181 C 
BRANCH  34  35
HETATM   35  O4  UNL     1      -9.428  45.688 -17.256  1.00  0.00    -0.400 OA
HETATM   36  H37 UNL     1     -10.116  45.667 -16.558  1.00  0.00     0.209 HD
ENDBRANCH  34  35
ENDBRANCH  19  34
TORSDOF 5
ENDMDL
MODEL 3
REMARK minimizedAffinity -6.69036579
REMARK CNNscore 0.388825893
REMARK CNNaffinity 6.64572906
REMARK  5 active torsions:
REMARK  status: ('A' for Active; 'I' for Inactive)
REMARK    1  A    between atoms: C2_2  and  C4_4 
REMARK    2  A    between atoms: C7_7  and  C8_8 
REMARK    3  A    between atoms: C8_8  and  O2_10 
REMARK    4  A    between atoms: C22_25  and  C24_27 
REMARK    5  A    between atoms: C24_27  and  O4_28 
ROOT
HETATM    1  C4  UNL     1       2.679  56.036  -6.883  1.00  0.00     0.019 C 
HETATM    2  C5  UNL     1       3.245  57.083  -7.845  1.00  0.00     0.011 C 
HETATM    3  C6  UNL     1       4.464  56.420  -8.477  1.00  0.00     0.021 C 
HETATM    4  C7  UNL     1       4.287  54.889  -8.339  1.00  0.00     0.050 C 
HETATM    5  C9  UNL     1       4.280  54.190  -9.713  1.00  0.00     0.022 C 
HETATM    6  C10 UNL     1       3.041  54.506 -10.551  1.00  0.00     0.011 C 
HETATM    7  C11 UNL     1       1.681  54.145  -9.876  1.00  0.00    -0.032 C 
HETATM    8  C12 UNL     1       0.783  55.405 -10.035  1.00  0.00     0.016 C 
HETATM    9  C13 UNL     1       1.911  53.816  -8.358  1.00  0.00     0.000 C 
HETATM   10  C14 UNL     1       0.594  53.507  -7.634  1.00  0.00     0.006 C 
HETATM   11  C15 UNL     1      -0.163  52.343  -8.288  1.00  0.00     0.006 C 
HETATM   12  C16 UNL     1      -0.395  52.540  -9.806  1.00  0.00     0.003 C 
HETATM   13  C17 UNL     1      -1.365  51.457 -10.459  1.00  0.00    -0.035 C 
HETATM   14  C18 UNL     1      -0.861  50.010 -10.249  1.00  0.00     0.016 C 
HETATM   15  C19 UNL     1      -2.754  51.551  -9.736  1.00  0.00     0.017 C 
HETATM   16  C20 UNL     1      -3.975  51.242 -10.595  1.00  0.00     0.080 C 
HETATM   17  C21 UNL     1      -3.670  50.383 -11.794  1.00  0.00     0.137 C 
HETATM   18  O3  UNL     1      -4.382  49.413 -12.059  1.00  0.00    -0.297 OA
HETATM   19  C22 UNL     1      -2.569  50.860 -12.747  1.00  0.00     0.042 C 
HETATM   20  C23 UNL     1      -1.878  49.640 -13.392  1.00  0.00     0.026 C 
HETATM   21  C25 UNL     1      -1.584  51.814 -11.973  1.00  0.00     0.012 C 
HETATM   22  C26 UNL     1      -0.258  52.041 -12.723  1.00  0.00     0.007 C 
HETATM   23  C27 UNL     1       0.598  53.126 -12.068  1.00  0.00     0.011 C 
HETATM   24  C28 UNL     1       0.955  52.851 -10.576  1.00  0.00    -0.032 C 
HETATM   25  C29 UNL     1       1.927  51.633 -10.546  1.00  0.00     0.016 C 
HETATM   26  C30 UNL     1       2.949  54.661  -7.551  1.00  0.00     0.017 C 
ENDROOT
BRANCH   4  27
HETATM   27  C8  UNL     1       5.478  54.363  -7.526  1.00  0.00     0.149 C 
HETATM   28  O1  UNL     1       6.666  54.502  -7.779  1.00  0.00    -0.649 OA
BRANCH  27  29
HETATM   29  O2  UNL     1       5.115  53.644  -6.447  1.00  0.00    -0.776 OA
HETATM   30  H11 UNL     1       5.967  53.362  -6.058  1.00  0.00     0.167 HD
ENDBRANCH  27  29
ENDBRANCH   4  27
BRANCH   1  31
HETATM   31  C2  UNL     1       1.332  56.311  -6.250  1.00  0.00    -0.088 C 
HETATM   32  C1  UNL     1       0.936  55.859  -5.051  1.00  0.00     0.014 C 
HETATM   33  C3  UNL     1       0.368  57.082  -7.118  1.00  0.00     0.043 C 
ENDBRANCH   1  31
BRANCH  19  34
HETATM   34  C24 UNL     1      -3.309  51.663 -13.851  1.00  0.00     0.181 C 
BRANCH  34  35
HETATM   35  O4  UNL     1      -3.599  52.999 -13.455  1.00  0.00    -0.400 OA
HETATM   36  H37 UNL     1      -2.760  53.419 -13.171  1.00  0.00     0.209 HD
ENDBRANCH  34  35
ENDBRANCH  19  34
TORSDOF 5
ENDMDL
MODEL 4
REMARK minimizedAffinity -6.71672583
REMARK CNNscore 0.379437357
REMARK CNNaffinity 5.94834185
REMARK  5 active torsions:
REMARK  status: ('A' for Active; 'I' for Inactive)
REMARK    1  A    between atoms: C2_2  and  C4_4 
REMARK    2  A    between atoms: C7_7  and  C8_8 
REMARK    3  A    between atoms: C8_8  and  O2_10 
REMARK    4  A    between atoms: C22_25  and  C24_27 
REMARK    5  A    between atoms: C24_27  and  O4_28 
ROOT
HETATM    1  C4  UNL     1       8.300  56.866  -4.171  1.00  0.00     0.019 C 
HETATM    2  C5  UNL     1       7.568  56.915  -2.828  1.00  0.00     0.011 C 
HETATM    3  C6  UNL     1       6.844  58.257  -2.822  1.00  0.00     0.021 C 
HETATM    4  C7  UNL     1       6.681  58.706  -4.295  1.00  0.00     0.050 C 
HETATM    5  C9  UNL     1       5.199  58.894  -4.674  1.00  0.00     0.022 C 
HETATM    6  C10 UNL     1       4.414  57.583  -4.729  1.00  0.00     0.011 C 
HETATM    7  C11 UNL     1       4.982  56.519  -5.719  1.00  0.00    -0.032 C 
HETATM    8  C12 UNL     1       5.050  55.189  -4.915  1.00  0.00     0.016 C 
HETATM    9  C13 UNL     1       6.412  56.949  -6.202  1.00  0.00     0.000 C 
HETATM   10  C14 UNL     1       7.038  55.906  -7.137  1.00  0.00     0.006 C 
HETATM   11  C15 UNL     1       6.159  55.633  -8.364  1.00  0.00     0.006 C 
HETATM   12  C16 UNL     1       4.703  55.251  -8.002  1.00  0.00     0.003 C 
HETATM   13  C17 UNL     1       3.836  54.750  -9.241  1.00  0.00    -0.035 C 
HETATM   14  C18 UNL     1       3.774  55.795 -10.380  1.00  0.00     0.016 C 
HETATM   15  C19 UNL     1       4.537  53.482  -9.843  1.00  0.00     0.017 C 
HETATM   16  C20 UNL     1       3.612  52.434 -10.449  1.00  0.00     0.080 C 
HETATM   17  C21 UNL     1       2.276  52.981 -10.879  1.00  0.00     0.137 C 
HETATM   18  O3  UNL     1       1.817  52.695 -11.986  1.00  0.00    -0.297 OA
HETATM   19  C22 UNL     1       1.454  53.746  -9.837  1.00  0.00     0.042 C 
HETATM   20  C23 UNL     1       0.599  54.822 -10.540  1.00  0.00     0.026 C 
HETATM   21  C25 UNL     1       2.415  54.319  -8.730  1.00  0.00     0.012 C 
HETATM   22  C26 UNL     1       1.747  55.401  -7.860  1.00  0.00     0.007 C 
HETATM   23  C27 UNL     1       2.614  55.797  -6.663  1.00  0.00     0.011 C 
HETATM   24  C28 UNL     1       4.033  56.321  -7.043  1.00  0.00    -0.032 C 
HETATM   25  C29 UNL     1       3.847  57.695  -7.755  1.00  0.00     0.016 C 
HETATM   26  C30 UNL     1       7.386  57.616  -5.177  1.00  0.00     0.017 C 
ENDROOT
BRANCH   4  27
HETATM   27  C8  UNL     1       7.401  60.054  -4.442  1.00  0.00     0.149 C 
HETATM   28  O1  UNL     1       7.054  61.133  -3.984  1.00  0.00    -0.649 OA
BRANCH  27  29
HETATM   29  O2  UNL     1       8.512  59.989  -5.201  1.00  0.00    -0.776 OA
HETATM   30  H11 UNL     1       8.833  60.913  -5.221  1.00  0.00     0.167 HD
ENDBRANCH  27  29
ENDBRANCH   4  27
BRANCH   1  31
HETATM   31  C2  UNL     1       8.948  55.560  -4.577  1.00  0.00    -0.088 C 
HETATM   32  C1  UNL     1       8.488  54.340  -4.266  1.00  0.00     0.014 C 
HETATM   33  C3  UNL     1      10.260  55.704  -5.309  1.00  0.00     0.043 C 
ENDBRANCH   1  31
BRANCH  19  34
HETATM   34  C24 UNL     1       0.510  52.685  -9.208  1.00  0.00     0.181 C 
BRANCH  34  35
HETATM   35  O4  UNL     1      -0.865  52.966  -9.447  1.00  0.00    -0.400 OA
HETATM   36  H37 UNL     1      -0.989  53.066 -10.415  1.00  0.00     0.209 HD
ENDBRANCH  34  35
ENDBRANCH  19  34
TORSDOF 5
ENDMDL
MODEL 5
REMARK minimizedAffinity -7.31741285
REMARK CNNscore 0.374225587
REMARK CNNaffinity 6.64846611
REMARK  5 active torsions:
REMARK  status: ('A' for Active; 'I' for Inactive)
REMARK    1  A    between atoms: C2_2  and  C4_4 
REMARK    2  A    between atoms: C7_7  and  C8_8 
REMARK    3  A    between atoms: C8_8  and  O2_10 
REMARK    4  A    between atoms: C22_25  and  C24_27 
REMARK    5  A    between atoms: C24_27  and  O4_28 
ROOT
HETATM    1  C4  UNL     1      -1.699  51.945 -11.897  1.00  0.00     0.019 C 
HETATM    2  C5  UNL     1      -1.363  50.462 -11.728  1.00  0.00     0.011 C 
HETATM    3  C6  UNL     1      -0.242  50.194 -12.726  1.00  0.00     0.021 C 
HETATM    4  C7  UNL     1       0.436  51.550 -13.040  1.00  0.00     0.050 C 
HETATM    5  C9  UNL     1       1.935  51.536 -12.679  1.00  0.00     0.022 C 
HETATM    6  C10 UNL     1       2.197  51.474 -11.174  1.00  0.00     0.011 C 
HETATM    7  C11 UNL     1       1.564  52.636 -10.348  1.00  0.00    -0.032 C 
HETATM    8  C12 UNL     1       0.832  51.957  -9.155  1.00  0.00     0.016 C 
HETATM    9  C13 UNL     1       0.548  53.433 -11.240  1.00  0.00     0.000 C 
HETATM   10  C14 UNL     1      -0.144  54.555 -10.457  1.00  0.00     0.006 C 
HETATM   11  C15 UNL     1       0.864  55.540  -9.850  1.00  0.00     0.006 C 
HETATM   12  C16 UNL     1       1.951  54.850  -8.990  1.00  0.00     0.003 C 
HETATM   13  C17 UNL     1       2.872  55.863  -8.174  1.00  0.00    -0.035 C 
HETATM   14  C18 UNL     1       3.583  56.884  -9.091  1.00  0.00     0.016 C 
HETATM   15  C19 UNL     1       1.948  56.695  -7.218  1.00  0.00     0.017 C 
HETATM   16  C20 UNL     1       2.569  57.114  -5.890  1.00  0.00     0.080 C 
HETATM   17  C21 UNL     1       4.074  57.165  -5.914  1.00  0.00     0.137 C 
HETATM   18  O3  UNL     1       4.669  58.138  -5.448  1.00  0.00    -0.297 OA
HETATM   19  C22 UNL     1       4.819  55.907  -6.372  1.00  0.00     0.042 C 
HETATM   20  C23 UNL     1       6.145  56.308  -7.052  1.00  0.00     0.026 C 
HETATM   21  C25 UNL     1       3.872  55.041  -7.284  1.00  0.00     0.012 C 
HETATM   22  C26 UNL     1       4.632  53.969  -8.088  1.00  0.00     0.007 C 
HETATM   23  C27 UNL     1       3.685  53.003  -8.804  1.00  0.00     0.011 C 
HETATM   24  C28 UNL     1       2.686  53.691  -9.783  1.00  0.00    -0.032 C 
HETATM   25  C29 UNL     1       3.516  54.251 -10.979  1.00  0.00     0.016 C 
HETATM   26  C30 UNL     1      -0.357  52.644 -12.242  1.00  0.00     0.017 C 
ENDROOT
BRANCH   4  27
HETATM   27  C8  UNL     1       0.298  51.790 -14.551  1.00  0.00     0.149 C 
HETATM   28  O1  UNL     1      -0.334  51.117 -15.352  1.00  0.00    -0.649 OA
BRANCH  27  29
HETATM   29  O2  UNL     1       1.002  52.850 -14.992  1.00  0.00    -0.776 OA
HETATM   30  H11 UNL     1       0.836  52.853 -15.956  1.00  0.00     0.167 HD
ENDBRANCH  27  29
ENDBRANCH   4  27
BRANCH   1  31
HETATM   31  C2  UNL     1      -2.638  52.577 -10.894  1.00  0.00    -0.088 C 
HETATM   32  C1  UNL     1      -3.407  53.650 -11.126  1.00  0.00     0.014 C 
HETATM   33  C3  UNL     1      -2.597  51.966  -9.514  1.00  0.00     0.043 C 
ENDBRANCH   1  31
BRANCH  19  34
HETATM   34  C24 UNL     1       5.138  55.127  -5.067  1.00  0.00     0.181 C 
BRANCH  34  35
HETATM   35  O4  UNL     1       6.534  54.918  -4.883  1.00  0.00    -0.400 OA
HETATM   36  H37 UNL     1       6.979  55.791  -4.929  1.00  0.00     0.209 HD
ENDBRANCH  34  35
ENDBRANCH  19  34
TORSDOF 5
ENDMDL
MODEL 6
REMARK minimizedAffinity -6.47550726
REMARK CNNscore 0.372241259
REMARK CNNaffinity 6.35793734
REMARK  5 active torsions:
REMARK  status: ('A' for Active; 'I' for Inactive)
REMARK    1  A    between atoms: C2_2  and  C4_4 
REMARK    2  A    between atoms: C7_7  and  C8_8 
REMARK    3  A    between atoms: C8_8  and  O2_10 
REMARK    4  A    between atoms: C22_25  and  C24_27 
REMARK    5  A    between atoms: C24_27  and  O4_28 
ROOT
HETATM    1  C4  UNL     1       2.767  55.771  -8.523  1.00  0.00     0.019 C 
HETATM    2  C5  UNL     1       3.310  55.096  -7.262  1.00  0.00     0.011 C 
HETATM    3  C6  UNL     1       2.195  55.230  -6.230  1.00  0.00     0.021 C 
HETATM    4  C7  UNL     1       0.869  55.444  -7.001  1.00  0.00     0.050 C 
HETATM    5  C9  UNL     1      -0.159  54.339  -6.686  1.00  0.00     0.022 C 
HETATM    6  C10 UNL     1       0.230  52.969  -7.241  1.00  0.00     0.011 C 
HETATM    7  C11 UNL     1       0.453  52.925  -8.785  1.00  0.00    -0.032 C 
HETATM    8  C12 UNL     1       1.809  52.195  -8.996  1.00  0.00     0.016 C 
HETATM    9  C13 UNL     1       0.513  54.385  -9.357  1.00  0.00     0.000 C 
HETATM   10  C14 UNL     1       0.785  54.398 -10.867  1.00  0.00     0.006 C 
HETATM   11  C15 UNL     1      -0.268  53.601 -11.648  1.00  0.00     0.006 C 
HETATM   12  C16 UNL     1      -0.450  52.154 -11.127  1.00  0.00     0.003 C 
HETATM   13  C17 UNL     1      -1.371  51.242 -12.055  1.00  0.00    -0.035 C 
HETATM   14  C18 UNL     1      -2.781  51.844 -12.261  1.00  0.00     0.016 C 
HETATM   15  C19 UNL     1      -0.709  51.170 -13.475  1.00  0.00     0.017 C 
HETATM   16  C20 UNL     1      -0.907  49.865 -14.237  1.00  0.00     0.080 C 
HETATM   17  C21 UNL     1      -2.117  49.084 -13.797  1.00  0.00     0.137 C 
HETATM   18  O3  UNL     1      -2.894  48.621 -14.632  1.00  0.00    -0.297 OA
HETATM   19  C22 UNL     1      -2.240  48.748 -12.307  1.00  0.00     0.042 C 
HETATM   20  C23 UNL     1      -3.731  48.677 -11.913  1.00  0.00     0.026 C 
HETATM   21  C25 UNL     1      -1.408  49.787 -11.465  1.00  0.00     0.012 C 
HETATM   22  C26 UNL     1      -1.766  49.766  -9.967  1.00  0.00     0.007 C 
HETATM   23  C27 UNL     1      -0.811  50.623  -9.133  1.00  0.00     0.011 C 
HETATM   24  C28 UNL     1      -0.741  52.118  -9.569  1.00  0.00    -0.032 C 
HETATM   25  C29 UNL     1      -2.116  52.768  -9.227  1.00  0.00     0.016 C 
HETATM   26  C30 UNL     1       1.240  55.492  -8.525  1.00  0.00     0.017 C 
ENDROOT
BRANCH   4  27
HETATM   27  C8  UNL     1       0.293  56.794  -6.552  1.00  0.00     0.149 C 
HETATM   28  O1  UNL     1       0.501  57.374  -5.496  1.00  0.00    -0.649 OA
BRANCH  27  29
HETATM   29  O2  UNL     1      -0.559  57.336  -7.443  1.00  0.00    -0.776 OA
HETATM   30  H11 UNL     1      -0.855  58.161  -7.008  1.00  0.00     0.167 HD
ENDBRANCH  27  29
ENDBRANCH   4  27
BRANCH   1  31
HETATM   31  C2  UNL     1       3.559  55.621  -9.803  1.00  0.00    -0.088 C 
HETATM   32  C1  UNL     1       3.426  56.396 -10.889  1.00  0.00     0.014 C 
HETATM   33  C3  UNL     1       4.492  54.435  -9.836  1.00  0.00     0.043 C 
ENDBRANCH   1  31
BRANCH  19  34
HETATM   34  C24 UNL     1      -1.612  47.336 -12.157  1.00  0.00     0.181 C 
BRANCH  34  35
HETATM   35  O4  UNL     1      -0.189  47.371 -12.119  1.00  0.00    -0.400 OA
HETATM   36  H37 UNL     1       0.079  47.989 -11.406  1.00  0.00     0.209 HD
ENDBRANCH  34  35
ENDBRANCH  19  34
TORSDOF 5
ENDMDL
MODEL 7
REMARK minimizedAffinity -6.80384064
REMARK CNNscore 0.363822669
REMARK CNNaffinity 5.93843985
REMARK  5 active torsions:
REMARK  status: ('A' for Active; 'I' for Inactive)
REMARK    1  A    between atoms: C2_2  and  C4_4 
REMARK    2  A    between atoms: C7_7  and  C8_8 
REMARK    3  A    between atoms: C8_8  and  O2_10 
REMARK    4  A    between atoms: C22_25  and  C24_27 
REMARK    5  A    between atoms: C24_27  and  O4_28 
ROOT
HETATM    1  C4  UNL     1     -16.117  45.220 -23.705  1.00  0.00     0.019 C 
HETATM    2  C5  UNL     1     -16.533  43.750 -23.791  1.00  0.00     0.011 C 
HETATM    3  C6  UNL     1     -17.457  43.671 -25.001  1.00  0.00     0.021 C 
HETATM    4  C7  UNL     1     -17.140  44.883 -25.910  1.00  0.00     0.050 C 
HETATM    5  C9  UNL     1     -16.691  44.440 -27.317  1.00  0.00     0.022 C 
HETATM    6  C10 UNL     1     -15.324  43.757 -27.333  1.00  0.00     0.011 C 
HETATM    7  C11 UNL     1     -14.154  44.614 -26.756  1.00  0.00    -0.032 C 
HETATM    8  C12 UNL     1     -13.403  43.688 -25.758  1.00  0.00     0.016 C 
HETATM    9  C13 UNL     1     -14.730  45.874 -26.017  1.00  0.00     0.000 C 
HETATM   10  C14 UNL     1     -13.621  46.723 -25.384  1.00  0.00     0.006 C 
HETATM   11  C15 UNL     1     -12.587  47.183 -26.420  1.00  0.00     0.006 C 
HETATM   12  C16 UNL     1     -11.991  46.019 -27.249  1.00  0.00     0.003 C 
HETATM   13  C17 UNL     1     -10.763  46.442 -28.171  1.00  0.00    -0.035 C 
HETATM   14  C18 UNL     1     -11.127  47.577 -29.156  1.00  0.00     0.016 C 
HETATM   15  C19 UNL     1      -9.632  47.009 -27.243  1.00  0.00     0.017 C 
HETATM   16  C20 UNL     1      -8.201  46.758 -27.706  1.00  0.00     0.080 C 
HETATM   17  C21 UNL     1      -8.078  46.519 -29.188  1.00  0.00     0.137 C 
HETATM   18  O3  UNL     1      -7.211  47.103 -29.840  1.00  0.00    -0.297 OA
HETATM   19  C22 UNL     1      -8.941  45.413 -29.803  1.00  0.00     0.042 C 
HETATM   20  C23 UNL     1      -9.288  45.776 -31.262  1.00  0.00     0.026 C 
HETATM   21  C25 UNL     1     -10.201  45.164 -28.891  1.00  0.00     0.012 C 
HETATM   22  C26 UNL     1     -11.302  44.355 -29.601  1.00  0.00     0.007 C 
HETATM   23  C27 UNL     1     -12.423  43.942 -28.645  1.00  0.00     0.011 C 
HETATM   24  C28 UNL     1     -13.121  45.133 -27.920  1.00  0.00    -0.032 C 
HETATM   25  C29 UNL     1     -13.915  45.933 -28.997  1.00  0.00     0.016 C 
HETATM   26  C30 UNL     1     -16.037  45.721 -25.172  1.00  0.00     0.017 C 
ENDROOT
BRANCH   4  27
HETATM   27  C8  UNL     1     -18.430  45.704 -26.042  1.00  0.00     0.149 C 
HETATM   28  O1  UNL     1     -18.907  46.471 -25.219  1.00  0.00    -0.649 OA
BRANCH  27  29
HETATM   29  O2  UNL     1     -19.089  45.485 -27.197  1.00  0.00    -0.776 OA
HETATM   30  H11 UNL     1     -19.886  46.047 -27.119  1.00  0.00     0.167 HD
ENDBRANCH  27  29
ENDBRANCH   4  27
BRANCH   1  31
HETATM   31  C2  UNL     1     -15.025  45.590 -22.725  1.00  0.00    -0.088 C 
HETATM   32  C1  UNL     1     -14.063  44.763 -22.292  1.00  0.00     0.014 C 
HETATM   33  C3  UNL     1     -15.129  46.985 -22.157  1.00  0.00     0.043 C 
ENDBRANCH   1  31
BRANCH  19  34
HETATM   34  C24 UNL     1      -8.040  44.148 -29.800  1.00  0.00     0.181 C 
BRANCH  34  35
HETATM   35  O4  UNL     1      -6.931  44.268 -28.915  1.00  0.00    -0.400 OA
HETATM   36  H37 UNL     1      -7.277  44.495 -28.027  1.00  0.00     0.209 HD
ENDBRANCH  34  35
ENDBRANCH  19  34
TORSDOF 5
ENDMDL
MODEL 8
REMARK minimizedAffinity -7.61971998
REMARK CNNscore 0.335885584
REMARK CNNaffinity 5.9637208
REMARK  5 active torsions:
REMARK  status: ('A' for Active; 'I' for Inactive)
REMARK    1  A    between atoms: C2_2  and  C4_4 
REMARK    2  A    between atoms: C7_7  and  C8_8 
REMARK    3  A    between atoms: C8_8  and  O2_10 
REMARK    4  A    between atoms: C22_25  and  C24_27 
REMARK    5  A    between atoms: C24_27  and  O4_28 
ROOT
HETATM    1  C4  UNL     1     -13.350  43.832 -27.063  1.00  0.00     0.019 C 
HETATM    2  C5  UNL     1     -14.546  44.431 -27.805  1.00  0.00     0.011 C 
HETATM    3  C6  UNL     1     -14.733  45.818 -27.198  1.00  0.00     0.021 C 
HETATM    4  C7  UNL     1     -13.384  46.234 -26.562  1.00  0.00     0.050 C 
HETATM    5  C9  UNL     1     -12.837  47.534 -27.184  1.00  0.00     0.022 C 
HETATM    6  C10 UNL     1     -12.383  47.371 -28.634  1.00  0.00     0.011 C 
HETATM    7  C11 UNL     1     -11.285  46.287 -28.861  1.00  0.00    -0.032 C 
HETATM    8  C12 UNL     1     -11.784  45.422 -30.054  1.00  0.00     0.016 C 
HETATM    9  C13 UNL     1     -11.125  45.410 -27.569  1.00  0.00     0.000 C 
HETATM   10  C14 UNL     1     -10.093  44.292 -27.760  1.00  0.00     0.006 C 
HETATM   11  C15 UNL     1      -8.717  44.841 -28.161  1.00  0.00     0.006 C 
HETATM   12  C16 UNL     1      -8.767  45.769 -29.400  1.00  0.00     0.003 C 
HETATM   13  C17 UNL     1      -7.333  46.172 -29.966  1.00  0.00    -0.035 C 
HETATM   14  C18 UNL     1      -6.450  46.863 -28.901  1.00  0.00     0.016 C 
HETATM   15  C19 UNL     1      -6.584  44.855 -30.373  1.00  0.00     0.017 C 
HETATM   16  C20 UNL     1      -5.635  44.967 -31.560  1.00  0.00     0.080 C 
HETATM   17  C21 UNL     1      -5.137  46.367 -31.807  1.00  0.00     0.137 C 
HETATM   18  O3  UNL     1      -3.939  46.573 -32.005  1.00  0.00    -0.297 OA
HETATM   19  C22 UNL     1      -6.185  47.474 -31.973  1.00  0.00     0.042 C 
HETATM   20  C23 UNL     1      -5.610  48.812 -31.460  1.00  0.00     0.026 C 
HETATM   21  C25 UNL     1      -7.521  47.041 -31.261  1.00  0.00     0.012 C 
HETATM   22  C26 UNL     1      -8.493  48.216 -31.047  1.00  0.00     0.007 C 
HETATM   23  C27 UNL     1      -9.863  47.751 -30.551  1.00  0.00     0.011 C 
HETATM   24  C28 UNL     1      -9.822  46.938 -29.220  1.00  0.00    -0.032 C 
HETATM   25  C29 UNL     1      -9.402  47.922 -28.086  1.00  0.00     0.016 C 
HETATM   26  C30 UNL     1     -12.404  45.024 -26.756  1.00  0.00     0.017 C 
ENDROOT
BRANCH   4  27
HETATM   27  C8  UNL     1     -13.641  46.474 -25.067  1.00  0.00     0.149 C 
HETATM   28  O1  UNL     1     -13.107  45.910 -24.124  1.00  0.00    -0.649 OA
BRANCH  27  29
HETATM   29  O2  UNL     1     -14.598  47.392 -24.828  1.00  0.00    -0.776 OA
HETATM   30  H11 UNL     1     -14.662  47.411 -23.852  1.00  0.00     0.167 HD
ENDBRANCH  27  29
ENDBRANCH   4  27
BRANCH   1  31
HETATM   31  C2  UNL     1     -12.774  42.532 -27.581  1.00  0.00    -0.088 C 
HETATM   32  C1  UNL     1     -12.677  42.192 -28.874  1.00  0.00     0.014 C 
HETATM   33  C3  UNL     1     -12.378  41.543 -26.512  1.00  0.00     0.043 C 
ENDBRANCH   1  31
BRANCH  19  34
HETATM   34  C24 UNL     1      -6.422  47.581 -33.504  1.00  0.00     0.181 C 
BRANCH  34  35
HETATM   35  O4  UNL     1      -5.236  47.358 -34.258  1.00  0.00    -0.400 OA
HETATM   36  H37 UNL     1      -4.863  46.492 -33.986  1.00  0.00     0.209 HD
ENDBRANCH  34  35
ENDBRANCH  19  34
TORSDOF 5
ENDMDL
MODEL 9
REMARK minimizedAffinity -6.35406446
REMARK CNNscore 0.280272543
REMARK CNNaffinity 6.21973085
REMARK  5 active torsions:
REMARK  status: ('A' for Active; 'I' for Inactive)
REMARK    1  A    between atoms: C2_2  and  C4_4 
REMARK    2  A    between atoms: C7_7  and  C8_8 
REMARK    3  A    between atoms: C8_8  and  O2_10 
REMARK    4  A    between atoms: C22_25  and  C24_27 
REMARK    5  A    between atoms: C24_27  and  O4_28 
ROOT
HETATM    1  C4  UNL     1      -8.978  44.906 -17.425  1.00  0.00     0.019 C 
HETATM    2  C5  UNL     1     -10.115  44.304 -18.253  1.00  0.00     0.011 C 
HETATM    3  C6  UNL     1     -11.146  45.421 -18.380  1.00  0.00     0.021 C 
HETATM    4  C7  UNL     1     -10.410  46.763 -18.149  1.00  0.00     0.050 C 
HETATM    5  C9  UNL     1     -10.531  47.697 -19.370  1.00  0.00     0.022 C 
HETATM    6  C10 UNL     1      -9.761  47.202 -20.594  1.00  0.00     0.011 C 
HETATM    7  C11 UNL     1      -8.233  46.985 -20.366  1.00  0.00    -0.032 C 
HETATM    8  C12 UNL     1      -7.916  45.574 -20.940  1.00  0.00     0.016 C 
HETATM    9  C13 UNL     1      -7.909  47.045 -18.831  1.00  0.00     0.000 C 
HETATM   10  C14 UNL     1      -6.424  46.783 -18.548  1.00  0.00     0.006 C 
HETATM   11  C15 UNL     1      -5.515  47.772 -19.288  1.00  0.00     0.006 C 
HETATM   12  C16 UNL     1      -5.788  47.834 -20.811  1.00  0.00     0.003 C 
HETATM   13  C17 UNL     1      -4.716  48.684 -21.628  1.00  0.00    -0.035 C 
HETATM   14  C18 UNL     1      -4.600  50.138 -21.116  1.00  0.00     0.016 C 
HETATM   15  C19 UNL     1      -3.309  48.025 -21.412  1.00  0.00     0.017 C 
HETATM   16  C20 UNL     1      -2.340  48.121 -22.585  1.00  0.00     0.080 C 
HETATM   17  C21 UNL     1      -2.637  49.262 -23.523  1.00  0.00     0.137 C 
HETATM   18  O3  UNL     1      -1.730  50.004 -23.903  1.00  0.00    -0.297 OA
HETATM   19  C22 UNL     1      -4.050  49.350 -24.109  1.00  0.00     0.042 C 
HETATM   20  C23 UNL     1      -4.414  50.828 -24.363  1.00  0.00     0.026 C 
HETATM   21  C25 UNL     1      -5.058  48.600 -23.159  1.00  0.00     0.012 C 
HETATM   22  C26 UNL     1      -6.529  48.947 -23.455  1.00  0.00     0.007 C 
HETATM   23  C27 UNL     1      -7.500  48.060 -22.673  1.00  0.00     0.011 C 
HETATM   24  C28 UNL     1      -7.316  48.114 -21.126  1.00  0.00    -0.032 C 
HETATM   25  C29 UNL     1      -7.750  49.535 -20.654  1.00  0.00     0.016 C 
HETATM   26  C30 UNL     1      -8.917  46.405 -17.821  1.00  0.00     0.017 C 
ENDROOT
BRANCH   4  27
HETATM   27  C8  UNL     1     -11.070  47.444 -16.942  1.00  0.00     0.149 C 
HETATM   28  O1  UNL     1     -12.255  47.430 -16.641  1.00  0.00    -0.649 OA
BRANCH  27  29
HETATM   29  O2  UNL     1     -10.208  48.152 -16.188  1.00  0.00    -0.776 OA
HETATM   30  H11 UNL     1     -10.774  48.539 -15.490  1.00  0.00     0.167 HD
ENDBRANCH  27  29
ENDBRANCH   4  27
BRANCH   1  31
HETATM   31  C2  UNL     1      -7.697  44.111 -17.298  1.00  0.00    -0.088 C 
HETATM   32  C1  UNL     1      -6.813  44.227 -16.297  1.00  0.00     0.014 C 
HETATM   33  C3  UNL     1      -7.399  43.198 -18.462  1.00  0.00     0.043 C 
ENDBRANCH   1  31
BRANCH  19  34
HETATM   34  C24 UNL     1      -3.971  48.609 -25.471  1.00  0.00     0.181 C 
BRANCH  34  35
HETATM   35  O4  UNL     1      -4.250  49.463 -26.575  1.00  0.00    -0.400 OA
HETATM   36  H37 UNL     1      -3.646  50.234 -26.521  1.00  0.00     0.209 HD
ENDBRANCH  34  35
ENDBRANCH  19  34
TORSDOF 5
ENDMDL
