MODEL 1
REMARK minimizedAffinity -6.05477142
REMARK  8 active torsions:
REMARK  status: ('A' for Active; 'I' for Inactive)
REMARK    1  A    between atoms: C2_2  and  N1_3 
REMARK    2  A    between atoms: N1_3  and  C3_4 
REMARK    3  A    between atoms: N1_3  and  C5_6 
REMARK    4  A    between atoms: C5_6  and  C6_7 
REMARK    5  A    between atoms: C6_7  and  O1_8 
REMARK    6  A    between atoms: O1_8  and  C7_9 
REMARK    7  A    between atoms: C7_9  and  C8_11 
REMARK    8  A    between atoms: C11_14  and  N2_15 
ROOT
HETATM    1  C8  UNL     1      -6.015   3.679  12.615  1.00  0.00     0.061 A 
HETATM    2  C9  UNL     1      -5.274   4.769  13.087  1.00  0.00     0.021 A 
HETATM    3  C10 UNL     1      -3.951   4.947  12.673  1.00  0.00     0.024 A 
HETATM    4  C11 UNL     1      -3.342   4.024  11.819  1.00  0.00     0.007 A 
HETATM    5  C12 UNL     1      -4.107   2.971  11.309  1.00  0.00     0.048 A 
HETATM    6  C13 UNL     1      -5.434   2.781  11.717  1.00  0.00     0.052 A 
HETATM    7 CL1  UNL     1      -6.270   1.401  11.102  1.00  0.00    -0.083 Cl
ENDROOT
BRANCH   1   8
HETATM    8  C7  UNL     1      -7.416   3.535  13.047  1.00  0.00     0.295 C 
HETATM    9  O2  UNL     1      -8.105   2.550  12.856  1.00  0.00    -0.259 OA
BRANCH   8  10
HETATM   10  O1  UNL     1      -7.778   4.674  13.688  1.00  0.00    -0.316 OA
BRANCH  10  11
HETATM   11  C6  UNL     1      -8.490   5.631  12.881  1.00  0.00     0.209 C 
BRANCH  11  12
HETATM   12  C5  UNL     1      -9.591   6.324  13.701  1.00  0.00     0.299 C 
BRANCH  12  13
HETATM   13  N1  UNL     1      -9.032   7.294  14.670  1.00  0.00     0.089 N 
BRANCH  13  14
HETATM   14  C2  UNL     1      -8.849   6.636  15.980  1.00  0.00     0.268 C 
HETATM   15  C1  UNL     1      -7.412   6.673  16.490  1.00  0.00     0.037 C 
ENDBRANCH  13  14
BRANCH  13  16
HETATM   16  C3  UNL     1      -9.883   8.495  14.794  1.00  0.00     0.268 C 
HETATM   17  C4  UNL     1      -9.142   9.758  15.218  1.00  0.00     0.037 C 
ENDBRANCH  13  16
ENDBRANCH  12  13
ENDBRANCH  11  12
ENDBRANCH  10  11
ENDBRANCH   8  10
ENDBRANCH   1   8
BRANCH   4  18
HETATM   18  N2  UNL     1      -2.063   4.276  11.314  1.00  0.00    -0.303 NA
HETATM   19  H17 UNL     1      -1.472   4.838  11.919  1.00  0.00     0.124 HD
HETATM   20  H18 UNL     1      -1.579   3.455  10.959  1.00  0.00     0.124 HD
ENDBRANCH   4  18
TORSDOF 8
ENDMDL
MODEL 2
REMARK minimizedAffinity -5.92289019
REMARK  8 active torsions:
REMARK  status: ('A' for Active; 'I' for Inactive)
REMARK    1  A    between atoms: C2_2  and  N1_3 
REMARK    2  A    between atoms: N1_3  and  C3_4 
REMARK    3  A    between atoms: N1_3  and  C5_6 
REMARK    4  A    between atoms: C5_6  and  C6_7 
REMARK    5  A    between atoms: C6_7  and  O1_8 
REMARK    6  A    between atoms: O1_8  and  C7_9 
REMARK    7  A    between atoms: C7_9  and  C8_11 
REMARK    8  A    between atoms: C11_14  and  N2_15 
ROOT
HETATM    1  C8  UNL     1      -6.993   4.327  13.592  1.00  0.00     0.061 A 
HETATM    2  C9  UNL     1      -7.750   3.179  13.325  1.00  0.00     0.021 A 
HETATM    3  C10 UNL     1      -7.261   2.209  12.446  1.00  0.00     0.024 A 
HETATM    4  C11 UNL     1      -6.037   2.387  11.797  1.00  0.00     0.007 A 
HETATM    5  C12 UNL     1      -5.264   3.507  12.114  1.00  0.00     0.048 A 
HETATM    6  C13 UNL     1      -5.742   4.489  12.992  1.00  0.00     0.052 A 
HETATM    7 CL1  UNL     1      -4.754   5.881  13.252  1.00  0.00    -0.083 Cl
ENDROOT
BRANCH   1   8
HETATM    8  C7  UNL     1      -7.522   5.317  14.545  1.00  0.00     0.295 C 
HETATM    9  O2  UNL     1      -7.544   5.176  15.754  1.00  0.00    -0.259 OA
BRANCH   8  10
HETATM   10  O1  UNL     1      -7.958   6.390  13.839  1.00  0.00    -0.316 OA
BRANCH  10  11
HETATM   11  C6  UNL     1      -9.321   6.306  13.378  1.00  0.00     0.209 C 
BRANCH  11  12
HETATM   12  C5  UNL     1     -10.262   7.077  14.318  1.00  0.00     0.299 C 
BRANCH  12  13
HETATM   13  N1  UNL     1     -11.100   8.053  13.585  1.00  0.00     0.089 N 
BRANCH  13  14
HETATM   14  C2  UNL     1     -10.958   9.388  14.202  1.00  0.00     0.268 C 
HETATM   15  C1  UNL     1      -9.731   9.524  15.099  1.00  0.00     0.037 C 
ENDBRANCH  13  14
BRANCH  13  16
HETATM   16  C3  UNL     1     -12.516   7.636  13.542  1.00  0.00     0.268 C 
HETATM   17  C4  UNL     1     -12.824   6.352  14.304  1.00  0.00     0.037 C 
ENDBRANCH  13  16
ENDBRANCH  12  13
ENDBRANCH  11  12
ENDBRANCH  10  11
ENDBRANCH   8  10
ENDBRANCH   1   8
BRANCH   4  18
HETATM   18  N2  UNL     1      -5.501   1.357  11.018  1.00  0.00    -0.303 NA
HETATM   19  H17 UNL     1      -6.191   0.747  10.590  1.00  0.00     0.124 HD
HETATM   20  H18 UNL     1      -4.788   1.654  10.357  1.00  0.00     0.124 HD
ENDBRANCH   4  18
TORSDOF 8
ENDMDL
MODEL 3
REMARK minimizedAffinity -5.92170095
REMARK  8 active torsions:
REMARK  status: ('A' for Active; 'I' for Inactive)
REMARK    1  A    between atoms: C2_2  and  N1_3 
REMARK    2  A    between atoms: N1_3  and  C3_4 
REMARK    3  A    between atoms: N1_3  and  C5_6 
REMARK    4  A    between atoms: C5_6  and  C6_7 
REMARK    5  A    between atoms: C6_7  and  O1_8 
REMARK    6  A    between atoms: O1_8  and  C7_9 
REMARK    7  A    between atoms: C7_9  and  C8_11 
REMARK    8  A    between atoms: C11_14  and  N2_15 
ROOT
HETATM    1  C8  UNL     1      -6.344   3.259  12.363  1.00  0.00     0.061 A 
HETATM    2  C9  UNL     1      -6.289   2.074  11.619  1.00  0.00     0.021 A 
HETATM    3  C10 UNL     1      -5.052   1.526  11.268  1.00  0.00     0.024 A 
HETATM    4  C11 UNL     1      -3.863   2.169  11.617  1.00  0.00     0.007 A 
HETATM    5  C12 UNL     1      -3.927   3.320  12.408  1.00  0.00     0.048 A 
HETATM    6  C13 UNL     1      -5.160   3.881  12.767  1.00  0.00     0.052 A 
HETATM    7 CL1  UNL     1      -5.138   5.353  13.668  1.00  0.00    -0.083 Cl
ENDROOT
BRANCH   1   8
HETATM    8  C7  UNL     1      -7.662   3.796  12.743  1.00  0.00     0.295 C 
HETATM    9  O2  UNL     1      -8.571   3.137  13.214  1.00  0.00    -0.259 OA
BRANCH   8  10
HETATM   10  O1  UNL     1      -7.665   5.127  12.485  1.00  0.00    -0.316 OA
BRANCH  10  11
HETATM   11  C6  UNL     1      -8.903   5.804  12.778  1.00  0.00     0.209 C 
BRANCH  11  12
HETATM   12  C5  UNL     1      -8.794   6.593  14.093  1.00  0.00     0.299 C 
BRANCH  12  13
HETATM   13  N1  UNL     1     -10.101   7.145  14.518  1.00  0.00     0.089 N 
BRANCH  13  14
HETATM   14  C2  UNL     1     -11.056   7.080  13.393  1.00  0.00     0.268 C 
HETATM   15  C1  UNL     1     -11.615   8.439  12.982  1.00  0.00     0.037 C 
ENDBRANCH  13  14
BRANCH  13  16
HETATM   16  C3  UNL     1      -9.973   8.527  15.025  1.00  0.00     0.268 C 
HETATM   17  C4  UNL     1      -8.537   8.997  15.232  1.00  0.00     0.037 C 
ENDBRANCH  13  16
ENDBRANCH  12  13
ENDBRANCH  11  12
ENDBRANCH  10  11
ENDBRANCH   8  10
ENDBRANCH   1   8
BRANCH   4  18
HETATM   18  N2  UNL     1      -2.633   1.552  11.369  1.00  0.00    -0.303 NA
HETATM   19  H17 UNL     1      -2.628   0.927  10.569  1.00  0.00     0.124 HD
HETATM   20  H18 UNL     1      -1.836   2.182  11.370  1.00  0.00     0.124 HD
ENDBRANCH   4  18
TORSDOF 8
ENDMDL
MODEL 4
REMARK minimizedAffinity -5.87909222
REMARK  8 active torsions:
REMARK  status: ('A' for Active; 'I' for Inactive)
REMARK    1  A    between atoms: C2_2  and  N1_3 
REMARK    2  A    between atoms: N1_3  and  C3_4 
REMARK    3  A    between atoms: N1_3  and  C5_6 
REMARK    4  A    between atoms: C5_6  and  C6_7 
REMARK    5  A    between atoms: C6_7  and  O1_8 
REMARK    6  A    between atoms: O1_8  and  C7_9 
REMARK    7  A    between atoms: C7_9  and  C8_11 
REMARK    8  A    between atoms: C11_14  and  N2_15 
ROOT
HETATM    1  C8  UNL     1      -5.789   3.606  12.538  1.00  0.00     0.061 A 
HETATM    2  C9  UNL     1      -4.971   4.599  13.090  1.00  0.00     0.021 A 
HETATM    3  C10 UNL     1      -3.591   4.571  12.866  1.00  0.00     0.024 A 
HETATM    4  C11 UNL     1      -3.010   3.539  12.126  1.00  0.00     0.007 A 
HETATM    5  C12 UNL     1      -3.842   2.585  11.532  1.00  0.00     0.048 A 
HETATM    6  C13 UNL     1      -5.226   2.600  11.749  1.00  0.00     0.052 A 
HETATM    7 CL1  UNL     1      -6.160   1.329  11.047  1.00  0.00    -0.083 Cl
ENDROOT
BRANCH   1   8
HETATM    8  C7  UNL     1      -7.243   3.679  12.767  1.00  0.00     0.295 C 
HETATM    9  O2  UNL     1      -7.903   2.820  13.320  1.00  0.00    -0.259 OA
BRANCH   8  10
HETATM   10  O1  UNL     1      -7.689   4.858  12.267  1.00  0.00    -0.316 OA
BRANCH  10  11
HETATM   11  C6  UNL     1      -7.967   5.874  13.250  1.00  0.00     0.209 C 
BRANCH  11  12
HETATM   12  C5  UNL     1      -9.463   6.228  13.258  1.00  0.00     0.299 C 
BRANCH  12  13
HETATM   13  N1  UNL     1      -9.853   6.959  14.486  1.00  0.00     0.089 N 
BRANCH  13  14
HETATM   14  C2  UNL     1     -11.011   7.829  14.197  1.00  0.00     0.268 C 
HETATM   15  C1  UNL     1     -11.491   7.754  12.751  1.00  0.00     0.037 C 
ENDBRANCH  13  14
BRANCH  13  16
HETATM   16  C3  UNL     1      -8.727   7.739  15.038  1.00  0.00     0.268 C 
HETATM   17  C4  UNL     1      -9.025   9.219  15.253  1.00  0.00     0.037 C 
ENDBRANCH  13  16
ENDBRANCH  12  13
ENDBRANCH  11  12
ENDBRANCH  10  11
ENDBRANCH   8  10
ENDBRANCH   1   8
BRANCH   4  18
HETATM   18  N2  UNL     1      -1.650   3.587  11.805  1.00  0.00    -0.303 NA
HETATM   19  H17 UNL     1      -1.074   4.084  12.477  1.00  0.00     0.124 HD
HETATM   20  H18 UNL     1      -1.247   2.693  11.539  1.00  0.00     0.124 HD
ENDBRANCH   4  18
TORSDOF 8
ENDMDL
MODEL 5
REMARK minimizedAffinity -5.74898434
REMARK  8 active torsions:
REMARK  status: ('A' for Active; 'I' for Inactive)
REMARK    1  A    between atoms: C2_2  and  N1_3 
REMARK    2  A    between atoms: N1_3  and  C3_4 
REMARK    3  A    between atoms: N1_3  and  C5_6 
REMARK    4  A    between atoms: C5_6  and  C6_7 
REMARK    5  A    between atoms: C6_7  and  O1_8 
REMARK    6  A    between atoms: O1_8  and  C7_9 
REMARK    7  A    between atoms: C7_9  and  C8_11 
REMARK    8  A    between atoms: C11_14  and  N2_15 
ROOT
HETATM    1  C8  UNL     1      -4.821   3.501  12.393  1.00  0.00     0.061 A 
HETATM    2  C9  UNL     1      -4.873   4.689  13.133  1.00  0.00     0.021 A 
HETATM    3  C10 UNL     1      -6.108   5.213  13.524  1.00  0.00     0.024 A 
HETATM    4  C11 UNL     1      -7.299   4.586  13.153  1.00  0.00     0.007 A 
HETATM    5  C12 UNL     1      -7.235   3.371  12.464  1.00  0.00     0.048 A 
HETATM    6  C13 UNL     1      -6.004   2.834  12.065  1.00  0.00     0.052 A 
HETATM    7 CL1  UNL     1      -6.029   1.376  11.140  1.00  0.00    -0.083 Cl
ENDROOT
BRANCH   1   8
HETATM    8  C7  UNL     1      -3.503   2.957  12.020  1.00  0.00     0.295 C 
HETATM    9  O2  UNL     1      -3.290   1.797  11.720  1.00  0.00    -0.259 OA
BRANCH   8  10
HETATM   10  O1  UNL     1      -2.602   3.969  12.065  1.00  0.00    -0.316 OA
BRANCH  10  11
HETATM   11  C6  UNL     1      -1.525   3.872  11.114  1.00  0.00     0.209 C 
BRANCH  11  12
HETATM   12  C5  UNL     1      -0.183   3.649  11.832  1.00  0.00     0.299 C 
BRANCH  12  13
HETATM   13  N1  UNL     1       0.569   4.912  12.005  1.00  0.00     0.089 N 
BRANCH  13  14
HETATM   14  C2  UNL     1       0.311   5.462  13.351  1.00  0.00     0.268 C 
HETATM   15  C1  UNL     1       1.326   6.514  13.790  1.00  0.00     0.037 C 
ENDBRANCH  13  14
BRANCH  13  16
HETATM   16  C3  UNL     1       0.234   5.897  10.956  1.00  0.00     0.268 C 
HETATM   17  C4  UNL     1       1.400   6.284  10.053  1.00  0.00     0.037 C 
ENDBRANCH  13  16
ENDBRANCH  12  13
ENDBRANCH  11  12
ENDBRANCH  10  11
ENDBRANCH   8  10
ENDBRANCH   1   8
BRANCH   4  18
HETATM   18  N2  UNL     1      -8.521   5.049  13.653  1.00  0.00    -0.303 NA
HETATM   19  H17 UNL     1      -8.542   6.042  13.863  1.00  0.00     0.124 HD
HETATM   20  H18 UNL     1      -9.335   4.750  13.123  1.00  0.00     0.124 HD
ENDBRANCH   4  18
TORSDOF 8
ENDMDL
MODEL 6
REMARK minimizedAffinity -5.70138025
REMARK  8 active torsions:
REMARK  status: ('A' for Active; 'I' for Inactive)
REMARK    1  A    between atoms: C2_2  and  N1_3 
REMARK    2  A    between atoms: N1_3  and  C3_4 
REMARK    3  A    between atoms: N1_3  and  C5_6 
REMARK    4  A    between atoms: C5_6  and  C6_7 
REMARK    5  A    between atoms: C6_7  and  O1_8 
REMARK    6  A    between atoms: O1_8  and  C7_9 
REMARK    7  A    between atoms: C7_9  and  C8_11 
REMARK    8  A    between atoms: C11_14  and  N2_15 
ROOT
HETATM    1  C8  UNL     1      -3.274   4.801  12.873  1.00  0.00     0.061 A 
HETATM    2  C9  UNL     1      -3.898   3.575  12.608  1.00  0.00     0.021 A 
HETATM    3  C10 UNL     1      -3.359   2.710  11.652  1.00  0.00     0.024 A 
HETATM    4  C11 UNL     1      -2.222   3.070  10.924  1.00  0.00     0.007 A 
HETATM    5  C12 UNL     1      -1.575   4.269  11.236  1.00  0.00     0.048 A 
HETATM    6  C13 UNL     1      -2.104   5.146  12.192  1.00  0.00     0.052 A 
HETATM    7 CL1  UNL     1      -1.284   6.645  12.444  1.00  0.00    -0.083 Cl
ENDROOT
BRANCH   1   8
HETATM    8  C7  UNL     1      -3.848   5.678  13.908  1.00  0.00     0.295 C 
HETATM    9  O2  UNL     1      -3.365   5.862  15.009  1.00  0.00    -0.259 OA
BRANCH   8  10
HETATM   10  O1  UNL     1      -4.981   6.233  13.408  1.00  0.00    -0.316 OA
BRANCH  10  11
HETATM   11  C6  UNL     1      -5.890   6.760  14.394  1.00  0.00     0.209 C 
BRANCH  11  12
HETATM   12  C5  UNL     1      -7.118   5.848  14.544  1.00  0.00     0.299 C 
BRANCH  12  13
HETATM   13  N1  UNL     1      -7.252   4.906  13.410  1.00  0.00     0.089 N 
BRANCH  13  14
HETATM   14  C2  UNL     1      -8.370   5.330  12.543  1.00  0.00     0.268 C 
HETATM   15  C1  UNL     1      -9.365   6.258  13.233  1.00  0.00     0.037 C 
ENDBRANCH  13  14
BRANCH  13  16
HETATM   16  C3  UNL     1      -7.438   3.516  13.872  1.00  0.00     0.268 C 
HETATM   17  C4  UNL     1      -7.465   2.474  12.759  1.00  0.00     0.037 C 
ENDBRANCH  13  16
ENDBRANCH  12  13
ENDBRANCH  11  12
ENDBRANCH  10  11
ENDBRANCH   8  10
ENDBRANCH   1   8
BRANCH   4  18
HETATM   18  N2  UNL     1      -1.622   2.149  10.061  1.00  0.00    -0.303 NA
HETATM   19  H17 UNL     1      -2.261   1.470   9.657  1.00  0.00     0.124 HD
HETATM   20  H18 UNL     1      -1.007   2.560   9.364  1.00  0.00     0.124 HD
ENDBRANCH   4  18
TORSDOF 8
ENDMDL
MODEL 7
REMARK minimizedAffinity -5.64770079
REMARK  8 active torsions:
REMARK  status: ('A' for Active; 'I' for Inactive)
REMARK    1  A    between atoms: C2_2  and  N1_3 
REMARK    2  A    between atoms: N1_3  and  C3_4 
REMARK    3  A    between atoms: N1_3  and  C5_6 
REMARK    4  A    between atoms: C5_6  and  C6_7 
REMARK    5  A    between atoms: C6_7  and  O1_8 
REMARK    6  A    between atoms: O1_8  and  C7_9 
REMARK    7  A    between atoms: C7_9  and  C8_11 
REMARK    8  A    between atoms: C11_14  and  N2_15 
ROOT
HETATM    1  C8  UNL     1      -6.183   4.611  13.361  1.00  0.00     0.061 A 
HETATM    2  C9  UNL     1      -4.947   5.250  13.205  1.00  0.00     0.021 A 
HETATM    3  C10 UNL     1      -3.989   4.715  12.338  1.00  0.00     0.024 A 
HETATM    4  C11 UNL     1      -4.236   3.524  11.651  1.00  0.00     0.007 A 
HETATM    5  C12 UNL     1      -5.494   2.926  11.770  1.00  0.00     0.048 A 
HETATM    6  C13 UNL     1      -6.463   3.451  12.636  1.00  0.00     0.052 A 
HETATM    7 CL1  UNL     1      -7.953   2.592  12.785  1.00  0.00    -0.083 Cl
ENDROOT
BRANCH   1   8
HETATM    8  C7  UNL     1      -7.183   5.216  14.259  1.00  0.00     0.295 C 
HETATM    9  O2  UNL     1      -7.442   4.817  15.379  1.00  0.00    -0.259 OA
BRANCH   8  10
HETATM   10  O1  UNL     1      -7.736   6.276  13.620  1.00  0.00    -0.316 OA
BRANCH  10  11
HETATM   11  C6  UNL     1      -9.102   6.094  13.202  1.00  0.00     0.209 C 
BRANCH  11  12
HETATM   12  C5  UNL     1     -10.061   6.876  14.115  1.00  0.00     0.299 C 
BRANCH  12  13
HETATM   13  N1  UNL     1     -10.940   7.786  13.347  1.00  0.00     0.089 N 
BRANCH  13  14
HETATM   14  C2  UNL     1     -10.977   9.109  14.002  1.00  0.00     0.268 C 
HETATM   15  C1  UNL     1      -9.880   9.310  15.044  1.00  0.00     0.037 C 
ENDBRANCH  13  14
BRANCH  13  16
HETATM   16  C3  UNL     1     -12.301   7.232  13.195  1.00  0.00     0.268 C 
HETATM   17  C4  UNL     1     -12.762   6.351  14.351  1.00  0.00     0.037 C 
ENDBRANCH  13  16
ENDBRANCH  12  13
ENDBRANCH  11  12
ENDBRANCH  10  11
ENDBRANCH   8  10
ENDBRANCH   1   8
BRANCH   4  18
HETATM   18  N2  UNL     1      -3.324   3.064  10.696  1.00  0.00    -0.303 NA
HETATM   19  H17 UNL     1      -2.360   3.333  10.868  1.00  0.00     0.124 HD
HETATM   20  H18 UNL     1      -3.414   2.078  10.466  1.00  0.00     0.124 HD
ENDBRANCH   4  18
TORSDOF 8
ENDMDL
MODEL 8
REMARK minimizedAffinity -5.63128424
REMARK  8 active torsions:
REMARK  status: ('A' for Active; 'I' for Inactive)
REMARK    1  A    between atoms: C2_2  and  N1_3 
REMARK    2  A    between atoms: N1_3  and  C3_4 
REMARK    3  A    between atoms: N1_3  and  C5_6 
REMARK    4  A    between atoms: C5_6  and  C6_7 
REMARK    5  A    between atoms: C6_7  and  O1_8 
REMARK    6  A    between atoms: O1_8  and  C7_9 
REMARK    7  A    between atoms: C7_9  and  C8_11 
REMARK    8  A    between atoms: C11_14  and  N2_15 
ROOT
HETATM    1  C8  UNL     1      -4.564   4.760  13.304  1.00  0.00     0.061 A 
HETATM    2  C9  UNL     1      -5.596   5.514  13.876  1.00  0.00     0.021 A 
HETATM    3  C10 UNL     1      -6.923   5.099  13.738  1.00  0.00     0.024 A 
HETATM    4  C11 UNL     1      -7.240   3.957  12.999  1.00  0.00     0.007 A 
HETATM    5  C12 UNL     1      -6.199   3.181  12.481  1.00  0.00     0.048 A 
HETATM    6  C13 UNL     1      -4.864   3.585  12.611  1.00  0.00     0.052 A 
HETATM    7 CL1  UNL     1      -3.654   2.608  11.860  1.00  0.00    -0.083 Cl
ENDROOT
BRANCH   1   8
HETATM    8  C7  UNL     1      -3.172   5.208  13.492  1.00  0.00     0.295 C 
HETATM    9  O2  UNL     1      -2.569   5.176  14.548  1.00  0.00    -0.259 OA
BRANCH   8  10
HETATM   10  O1  UNL     1      -2.704   5.640  12.295  1.00  0.00    -0.316 OA
BRANCH  10  11
HETATM   11  C6  UNL     1      -1.309   6.002  12.279  1.00  0.00     0.209 C 
BRANCH  11  12
HETATM   12  C5  UNL     1      -0.533   5.136  11.273  1.00  0.00     0.299 C 
BRANCH  12  13
HETATM   13  N1  UNL     1       0.538   5.900  10.595  1.00  0.00     0.089 N 
BRANCH  13  14
HETATM   14  C2  UNL     1       1.857   5.379  11.009  1.00  0.00     0.268 C 
HETATM   15  C1  UNL     1       2.976   5.679  10.015  1.00  0.00     0.037 C 
ENDBRANCH  13  14
BRANCH  13  16
HETATM   16  C3  UNL     1       0.432   7.349  10.864  1.00  0.00     0.268 C 
HETATM   17  C4  UNL     1       0.251   8.214   9.622  1.00  0.00     0.037 C 
ENDBRANCH  13  16
ENDBRANCH  12  13
ENDBRANCH  11  12
ENDBRANCH  10  11
ENDBRANCH   8  10
ENDBRANCH   1   8
BRANCH   4  18
HETATM   18  N2  UNL     1      -8.554   3.482  12.971  1.00  0.00    -0.303 NA
HETATM   19  H17 UNL     1      -9.265   4.200  13.080  1.00  0.00     0.124 HD
HETATM   20  H18 UNL     1      -8.760   2.852  12.200  1.00  0.00     0.124 HD
ENDBRANCH   4  18
TORSDOF 8
ENDMDL
MODEL 9
REMARK minimizedAffinity -5.62471724
REMARK  8 active torsions:
REMARK  status: ('A' for Active; 'I' for Inactive)
REMARK    1  A    between atoms: C2_2  and  N1_3 
REMARK    2  A    between atoms: N1_3  and  C3_4 
REMARK    3  A    between atoms: N1_3  and  C5_6 
REMARK    4  A    between atoms: C5_6  and  C6_7 
REMARK    5  A    between atoms: C6_7  and  O1_8 
REMARK    6  A    between atoms: O1_8  and  C7_9 
REMARK    7  A    between atoms: C7_9  and  C8_11 
REMARK    8  A    between atoms: C11_14  and  N2_15 
ROOT
HETATM    1  C8  UNL     1      -4.524   3.306  11.656  1.00  0.00     0.061 A 
HETATM    2  C9  UNL     1      -5.371   2.223  11.387  1.00  0.00     0.021 A 
HETATM    3  C10 UNL     1      -6.650   2.181  11.950  1.00  0.00     0.024 A 
HETATM    4  C11 UNL     1      -7.083   3.190  12.813  1.00  0.00     0.007 A 
HETATM    5  C12 UNL     1      -6.252   4.293  13.029  1.00  0.00     0.048 A 
HETATM    6  C13 UNL     1      -4.968   4.349  12.472  1.00  0.00     0.052 A 
HETATM    7 CL1  UNL     1      -3.982   5.710  12.869  1.00  0.00    -0.083 Cl
ENDROOT
BRANCH   1   8
HETATM    8  C7  UNL     1      -3.194   3.337  11.024  1.00  0.00     0.295 C 
HETATM    9  O2  UNL     1      -2.984   3.620   9.859  1.00  0.00    -0.259 OA
BRANCH   8  10
HETATM   10  O1  UNL     1      -2.274   3.009  11.965  1.00  0.00    -0.316 OA
BRANCH  10  11
HETATM   11  C6  UNL     1      -0.901   3.098  11.535  1.00  0.00     0.209 C 
BRANCH  11  12
HETATM   12  C5  UNL     1      -0.161   4.207  12.303  1.00  0.00     0.299 C 
BRANCH  12  13
HETATM   13  N1  UNL     1      -0.479   5.553  11.775  1.00  0.00     0.089 N 
BRANCH  13  14
HETATM   14  C2  UNL     1       0.513   5.928  10.747  1.00  0.00     0.268 C 
HETATM   15  C1  UNL     1       1.943   5.525  11.096  1.00  0.00     0.037 C 
ENDBRANCH  13  14
BRANCH  13  16
HETATM   16  C3  UNL     1      -0.535   6.564  12.851  1.00  0.00     0.268 C 
HETATM   17  C4  UNL     1      -0.484   5.991  14.263  1.00  0.00     0.037 C 
ENDBRANCH  13  16
ENDBRANCH  12  13
ENDBRANCH  11  12
ENDBRANCH  10  11
ENDBRANCH   8  10
ENDBRANCH   1   8
BRANCH   4  18
HETATM   18  N2  UNL     1      -8.404   3.201  13.271  1.00  0.00    -0.303 NA
HETATM   19  H17 UNL     1      -8.833   2.284  13.345  1.00  0.00     0.124 HD
HETATM   20  H18 UNL     1      -8.559   3.767  14.102  1.00  0.00     0.124 HD
ENDBRANCH   4  18
TORSDOF 8
ENDMDL
