MODEL 1
REMARK minimizedAffinity -8.15555573
REMARK CNNscore 0.403749108
REMARK CNNaffinity 6.4560585
REMARK  11 active torsions:
REMARK  status: ('A' for Active; 'I' for Inactive)
REMARK    1  A    between atoms: C2_2  and  C4_4 
REMARK    2  A    between atoms: C4_4  and  C6_6 
REMARK    3  A    between atoms: C7_7  and  C8_8 
REMARK    4  A    between atoms: C8_8  and  C10_10 
REMARK    5  A    between atoms: C24_24  and  O1_25 
REMARK    6  A    between atoms: O1_25  and  C25_26 
REMARK    7  A    between atoms: C26_28  and  C27_29 
REMARK    8  A    between atoms: C27_29  and  O3_30 
REMARK    9  A    between atoms: C28_31  and  O4_32 
REMARK   10  A    between atoms: C29_33  and  O5_34 
REMARK   11  A    between atoms: C30_35  and  O6_36 
ROOT
HETATM    1  C10 UNL     1      -2.311  48.398 -20.882  1.00  0.00     0.002 C 
HETATM    2  C11 UNL     1      -2.567  47.110 -20.071  1.00  0.00     0.006 C 
HETATM    3  C12 UNL     1      -3.888  46.554 -20.593  1.00  0.00     0.009 C 
HETATM    4  C13 UNL     1      -4.718  47.824 -20.792  1.00  0.00     0.041 C 
HETATM    5  C14 UNL     1      -3.712  48.771 -21.517  1.00  0.00    -0.029 C 
HETATM    6  C15 UNL     1      -4.147  50.235 -21.360  1.00  0.00     0.016 C 
HETATM    7  C16 UNL     1      -3.633  48.441 -23.044  1.00  0.00     0.037 C 
HETATM    8  C17 UNL     1      -4.943  48.142 -23.697  1.00  0.00    -0.019 C 
HETATM    9  C18 UNL     1      -6.043  47.778 -23.015  1.00  0.00    -0.030 C 
HETATM   10  C19 UNL     1      -6.087  47.640 -21.496  1.00  0.00     0.142 C 
HETATM   11  C20 UNL     1      -7.162  48.577 -20.956  1.00  0.00     0.018 C 
HETATM   12  C21 UNL     1      -8.391  48.357 -21.459  1.00  0.00     0.014 C 
HETATM   13  C22 UNL     1      -8.422  47.233 -22.473  1.00  0.00     0.127 C 
HETATM   14  C23 UNL     1      -9.840  46.896 -22.959  1.00  0.00     0.078 C 
HETATM   15  C24 UNL     1      -9.873  45.990 -24.210  1.00  0.00     0.128 C 
HETATM   16  C31 UNL     1      -8.536  45.294 -24.464  1.00  0.00     0.033 C 
HETATM   17  C32 UNL     1      -7.354  46.263 -24.591  1.00  0.00     0.020 C 
HETATM   18  C33 UNL     1      -7.424  47.502 -23.656  1.00  0.00     0.021 C 
HETATM   19  C34 UNL     1      -7.828  48.766 -24.460  1.00  0.00     0.024 C 
HETATM   20  O7  UNL     1      -7.949  46.076 -21.722  1.00  0.00    -0.223 OA
HETATM   21  O8  UNL     1      -6.551  46.286 -21.234  1.00  0.00    -0.219 OA
ENDROOT
BRANCH  15  22
HETATM   22  O1  UNL     1     -10.207  46.826 -25.327  1.00  0.00    -0.353 OA
BRANCH  22  23
HETATM   23  C25 UNL     1     -11.560  46.673 -25.790  1.00  0.00     0.292 C 
HETATM   24  O2  UNL     1     -12.443  47.467 -25.009  1.00  0.00    -0.348 OA
HETATM   25  C26 UNL     1     -13.791  46.991 -24.869  1.00  0.00     0.179 C 
HETATM   26  C28 UNL     1     -14.247  46.037 -25.994  1.00  0.00     0.180 C 
HETATM   27  C29 UNL     1     -13.269  44.873 -26.211  1.00  0.00     0.183 C 
HETATM   28  C30 UNL     1     -11.870  45.172 -25.670  1.00  0.00     0.204 C 
BRANCH  25  29
HETATM   29  C27 UNL     1     -13.986  46.414 -23.461  1.00  0.00     0.198 C 
BRANCH  29  30
HETATM   30  O3  UNL     1     -14.336  47.420 -22.525  1.00  0.00    -0.398 OA
HETATM   31  H39 UNL     1     -14.596  46.983 -21.698  1.00  0.00     0.209 HD
ENDBRANCH  29  30
ENDBRANCH  25  29
BRANCH  26  32
HETATM   32  O4  UNL     1     -14.299  46.809 -27.210  1.00  0.00    -0.390 OA
HETATM   33  H41 UNL     1     -14.747  46.261 -27.884  1.00  0.00     0.210 HD
ENDBRANCH  26  32
BRANCH  27  34
HETATM   34  O5  UNL     1     -13.758  43.671 -25.600  1.00  0.00    -0.390 OA
HETATM   35  H43 UNL     1     -13.062  43.002 -25.748  1.00  0.00     0.210 HD
ENDBRANCH  27  34
BRANCH  28  36
HETATM   36  O6  UNL     1     -10.926  44.356 -26.378  1.00  0.00    -0.388 OA
HETATM   37  H45 UNL     1     -10.043  44.641 -26.063  1.00  0.00     0.210 HD
ENDBRANCH  28  36
ENDBRANCH  22  23
ENDBRANCH  15  22
BRANCH   1  38
HETATM   38  C8  UNL     1      -1.474  49.482 -20.146  1.00  0.00     0.008 C 
HETATM   39  C9  UNL     1      -2.384  50.351 -19.258  1.00  0.00     0.014 C 
BRANCH  38  40
HETATM   40  C7  UNL     1      -0.658  50.414 -21.018  1.00  0.00    -0.026 C 
HETATM   41  C6  UNL     1      -0.896  51.736 -21.114  1.00  0.00    -0.026 C 
BRANCH  41  42
HETATM   42  C4  UNL     1      -0.201  52.767 -21.992  1.00  0.00     0.007 C 
HETATM   43  C5  UNL     1      -0.079  52.178 -23.406  1.00  0.00     0.014 C 
BRANCH  42  44
HETATM   44  C2  UNL     1       1.146  53.340 -21.455  1.00  0.00    -0.015 C 
HETATM   45  C1  UNL     1       1.083  53.606 -19.946  1.00  0.00     0.010 C 
HETATM   46  C3  UNL     1       1.603  54.618 -22.169  1.00  0.00     0.010 C 
ENDBRANCH  42  44
ENDBRANCH  41  42
ENDBRANCH  38  40
ENDBRANCH   1  38
TORSDOF 11
ENDMDL
MODEL 2
REMARK minimizedAffinity -9.49283886
REMARK CNNscore 0.360451669
REMARK CNNaffinity 6.76511145
REMARK  11 active torsions:
REMARK  status: ('A' for Active; 'I' for Inactive)
REMARK    1  A    between atoms: C2_2  and  C4_4 
REMARK    2  A    between atoms: C4_4  and  C6_6 
REMARK    3  A    between atoms: C7_7  and  C8_8 
REMARK    4  A    between atoms: C8_8  and  C10_10 
REMARK    5  A    between atoms: C24_24  and  O1_25 
REMARK    6  A    between atoms: O1_25  and  C25_26 
REMARK    7  A    between atoms: C26_28  and  C27_29 
REMARK    8  A    between atoms: C27_29  and  O3_30 
REMARK    9  A    between atoms: C28_31  and  O4_32 
REMARK   10  A    between atoms: C29_33  and  O5_34 
REMARK   11  A    between atoms: C30_35  and  O6_36 
ROOT
HETATM    1  C10 UNL     1      -1.109  52.226 -21.773  1.00  0.00     0.002 C 
HETATM    2  C11 UNL     1      -1.935  52.297 -23.075  1.00  0.00     0.006 C 
HETATM    3  C12 UNL     1      -3.104  51.339 -22.869  1.00  0.00     0.009 C 
HETATM    4  C13 UNL     1      -2.440  50.170 -22.136  1.00  0.00     0.041 C 
HETATM    5  C14 UNL     1      -1.583  50.898 -21.055  1.00  0.00    -0.029 C 
HETATM    6  C15 UNL     1      -0.464  49.976 -20.551  1.00  0.00     0.016 C 
HETATM    7  C16 UNL     1      -2.463  51.319 -19.832  1.00  0.00     0.037 C 
HETATM    8  C17 UNL     1      -3.469  50.305 -19.395  1.00  0.00    -0.019 C 
HETATM    9  C18 UNL     1      -3.896  49.300 -20.181  1.00  0.00    -0.030 C 
HETATM   10  C19 UNL     1      -3.394  49.071 -21.604  1.00  0.00     0.142 C 
HETATM   11  C20 UNL     1      -2.791  47.673 -21.684  1.00  0.00     0.018 C 
HETATM   12  C21 UNL     1      -3.639  46.684 -21.346  1.00  0.00     0.014 C 
HETATM   13  C22 UNL     1      -5.005  47.192 -20.936  1.00  0.00     0.127 C 
HETATM   14  C23 UNL     1      -6.013  46.064 -20.667  1.00  0.00     0.078 C 
HETATM   15  C24 UNL     1      -7.298  46.532 -19.949  1.00  0.00     0.128 C 
HETATM   16  C31 UNL     1      -7.486  48.048 -20.015  1.00  0.00     0.033 C 
HETATM   17  C32 UNL     1      -6.296  48.839 -19.457  1.00  0.00     0.020 C 
HETATM   18  C33 UNL     1      -4.904  48.210 -19.745  1.00  0.00     0.021 C 
HETATM   19  C34 UNL     1      -4.339  47.534 -18.469  1.00  0.00     0.024 C 
HETATM   20  O7  UNL     1      -5.478  47.904 -22.117  1.00  0.00    -0.223 OA
HETATM   21  O8  UNL     1      -4.582  49.056 -22.445  1.00  0.00    -0.219 OA
ENDROOT
BRANCH  15  22
HETATM   22  O1  UNL     1      -7.193  46.114 -18.581  1.00  0.00    -0.353 OA
BRANCH  22  23
HETATM   23  C25 UNL     1      -8.460  45.939 -17.922  1.00  0.00     0.292 C 
HETATM   24  O2  UNL     1      -9.512  45.896 -18.877  1.00  0.00    -0.348 OA
HETATM   25  C26 UNL     1     -10.799  46.367 -18.445  1.00  0.00     0.179 C 
HETATM   26  C28 UNL     1     -11.011  46.320 -16.917  1.00  0.00     0.180 C 
HETATM   27  C29 UNL     1      -9.880  47.014 -16.144  1.00  0.00     0.183 C 
HETATM   28  C30 UNL     1      -8.595  47.133 -16.963  1.00  0.00     0.204 C 
BRANCH  25  29
HETATM   29  C27 UNL     1     -11.071  47.747 -19.059  1.00  0.00     0.198 C 
BRANCH  29  30
HETATM   30  O3  UNL     1     -12.432  47.899 -19.426  1.00  0.00    -0.398 OA
HETATM   31  H39 UNL     1     -12.577  48.830 -19.659  1.00  0.00     0.209 HD
ENDBRANCH  29  30
ENDBRANCH  25  29
BRANCH  26  32
HETATM   32  O4  UNL     1     -11.027  44.931 -16.533  1.00  0.00    -0.390 OA
HETATM   33  H41 UNL     1     -11.330  44.889 -15.605  1.00  0.00     0.210 HD
ENDBRANCH  26  32
BRANCH  27  34
HETATM   34  O5  UNL     1     -10.281  48.323 -15.713  1.00  0.00    -0.390 OA
HETATM   35  H43 UNL     1      -9.497  48.704 -15.273  1.00  0.00     0.210 HD
ENDBRANCH  27  34
BRANCH  28  36
HETATM   36  O6  UNL     1      -7.488  47.241 -16.057  1.00  0.00    -0.388 OA
HETATM   37  H45 UNL     1      -6.685  47.226 -16.619  1.00  0.00     0.210 HD
ENDBRANCH  28  36
ENDBRANCH  22  23
ENDBRANCH  15  22
BRANCH   1  38
HETATM   38  C8  UNL     1       0.408  52.523 -21.941  1.00  0.00     0.008 C 
HETATM   39  C9  UNL     1       0.864  53.578 -20.916  1.00  0.00     0.014 C 
BRANCH  38  40
HETATM   40  C7  UNL     1       0.858  52.988 -23.311  1.00  0.00    -0.026 C 
HETATM   41  C6  UNL     1       0.418  52.440 -24.459  1.00  0.00    -0.026 C 
BRANCH  41  42
HETATM   42  C4  UNL     1       0.831  52.763 -25.889  1.00  0.00     0.007 C 
HETATM   43  C5  UNL     1      -0.280  53.617 -26.519  1.00  0.00     0.014 C 
BRANCH  42  44
HETATM   44  C2  UNL     1       1.247  51.553 -26.780  1.00  0.00    -0.015 C 
HETATM   45  C1  UNL     1       2.724  51.192 -26.585  1.00  0.00     0.010 C 
HETATM   46  C3  UNL     1       0.977  51.765 -28.275  1.00  0.00     0.010 C 
ENDBRANCH  42  44
ENDBRANCH  41  42
ENDBRANCH  38  40
ENDBRANCH   1  38
TORSDOF 11
ENDMDL
MODEL 3
REMARK minimizedAffinity -8.0613966
REMARK CNNscore 0.27566281
REMARK CNNaffinity 6.09112883
REMARK  11 active torsions:
REMARK  status: ('A' for Active; 'I' for Inactive)
REMARK    1  A    between atoms: C2_2  and  C4_4 
REMARK    2  A    between atoms: C4_4  and  C6_6 
REMARK    3  A    between atoms: C7_7  and  C8_8 
REMARK    4  A    between atoms: C8_8  and  C10_10 
REMARK    5  A    between atoms: C24_24  and  O1_25 
REMARK    6  A    between atoms: O1_25  and  C25_26 
REMARK    7  A    between atoms: C26_28  and  C27_29 
REMARK    8  A    between atoms: C27_29  and  O3_30 
REMARK    9  A    between atoms: C28_31  and  O4_32 
REMARK   10  A    between atoms: C29_33  and  O5_34 
REMARK   11  A    between atoms: C30_35  and  O6_36 
ROOT
HETATM    1  C10 UNL     1       7.235  55.915  -5.403  1.00  0.00     0.002 C 
HETATM    2  C11 UNL     1       7.006  57.387  -5.809  1.00  0.00     0.006 C 
HETATM    3  C12 UNL     1       5.733  57.386  -6.648  1.00  0.00     0.009 C 
HETATM    4  C13 UNL     1       5.889  56.106  -7.472  1.00  0.00     0.041 C 
HETATM    5  C14 UNL     1       6.341  55.069  -6.397  1.00  0.00    -0.029 C 
HETATM    6  C15 UNL     1       7.035  53.874  -7.066  1.00  0.00     0.016 C 
HETATM    7  C16 UNL     1       5.116  54.536  -5.583  1.00  0.00     0.037 C 
HETATM    8  C17 UNL     1       3.892  54.253  -6.391  1.00  0.00    -0.019 C 
HETATM    9  C18 UNL     1       3.677  54.768  -7.615  1.00  0.00    -0.030 C 
HETATM   10  C19 UNL     1       4.663  55.691  -8.326  1.00  0.00     0.142 C 
HETATM   11  C20 UNL     1       5.054  55.051  -9.653  1.00  0.00     0.018 C 
HETATM   12  C21 UNL     1       4.016  54.793 -10.470  1.00  0.00     0.014 C 
HETATM   13  C22 UNL     1       2.682  55.181  -9.870  1.00  0.00     0.127 C 
HETATM   14  C23 UNL     1       1.507  55.003 -10.843  1.00  0.00     0.078 C 
HETATM   15  C24 UNL     1       0.119  55.083 -10.169  1.00  0.00     0.128 C 
HETATM   16  C31 UNL     1       0.179  55.712  -8.778  1.00  0.00     0.033 C 
HETATM   17  C32 UNL     1       1.148  55.002  -7.824  1.00  0.00     0.020 C 
HETATM   18  C33 UNL     1       2.442  54.462  -8.494  1.00  0.00     0.021 C 
HETATM   19  C34 UNL     1       2.361  52.923  -8.668  1.00  0.00     0.024 C 
HETATM   20  O7  UNL     1       2.814  56.613  -9.628  1.00  0.00    -0.223 OA
HETATM   21  O8  UNL     1       3.913  56.894  -8.654  1.00  0.00    -0.219 OA
ENDROOT
BRANCH  15  22
HETATM   22  O1  UNL     1      -0.382  53.741 -10.075  1.00  0.00    -0.353 OA
BRANCH  22  23
HETATM   23  C25 UNL     1      -1.572  53.504 -10.847  1.00  0.00     0.292 C 
HETATM   24  O2  UNL     1      -2.689  53.317  -9.988  1.00  0.00    -0.348 OA
HETATM   25  C26 UNL     1      -3.746  52.473 -10.472  1.00  0.00     0.179 C 
HETATM   26  C28 UNL     1      -3.803  52.348 -12.009  1.00  0.00     0.180 C 
HETATM   27  C29 UNL     1      -2.451  51.946 -12.618  1.00  0.00     0.183 C 
HETATM   28  C30 UNL     1      -1.274  52.254 -11.691  1.00  0.00     0.204 C 
BRANCH  25  29
HETATM   29  C27 UNL     1      -3.692  51.121  -9.749  1.00  0.00     0.198 C 
BRANCH  29  30
HETATM   30  O3  UNL     1      -4.671  50.222 -10.243  1.00  0.00    -0.398 OA
HETATM   31  H39 UNL     1      -4.491  49.346  -9.866  1.00  0.00     0.209 HD
ENDBRANCH  29  30
ENDBRANCH  25  29
BRANCH  26  32
HETATM   32  O4  UNL     1      -4.158  53.644 -12.528  1.00  0.00    -0.390 OA
HETATM   33  H41 UNL     1      -4.363  53.533 -13.477  1.00  0.00     0.210 HD
ENDBRANCH  26  32
BRANCH  27  34
HETATM   34  O5  UNL     1      -2.431  50.550 -12.949  1.00  0.00    -0.390 OA
HETATM   35  H43 UNL     1      -1.532  50.375 -13.285  1.00  0.00     0.210 HD
ENDBRANCH  27  34
BRANCH  28  36
HETATM   36  O6  UNL     1      -0.093  52.398 -12.491  1.00  0.00    -0.388 OA
HETATM   37  H45 UNL     1       0.613  52.679 -11.871  1.00  0.00     0.210 HD
ENDBRANCH  28  36
ENDBRANCH  22  23
ENDBRANCH  15  22
BRANCH   1  38
HETATM   38  C8  UNL     1       8.720  55.524  -5.163  1.00  0.00     0.008 C 
HETATM   39  C9  UNL     1       8.903  54.958  -3.742  1.00  0.00     0.014 C 
BRANCH  38  40
HETATM   40  C7  UNL     1       9.748  56.620  -5.357  1.00  0.00    -0.026 C 
HETATM   41  C6  UNL     1       9.681  57.815  -4.740  1.00  0.00    -0.026 C 
BRANCH  41  42
HETATM   42  C4  UNL     1      10.601  59.018  -4.892  1.00  0.00     0.007 C 
HETATM   43  C5  UNL     1      11.833  58.784  -4.003  1.00  0.00     0.014 C 
BRANCH  42  44
HETATM   44  C2  UNL     1       9.952  60.419  -4.674  1.00  0.00    -0.015 C 
HETATM   45  C1  UNL     1       8.597  60.307  -3.965  1.00  0.00     0.010 C 
HETATM   46  C3  UNL     1       9.776  61.226  -5.966  1.00  0.00     0.010 C 
ENDBRANCH  42  44
ENDBRANCH  41  42
ENDBRANCH  38  40
ENDBRANCH   1  38
TORSDOF 11
ENDMDL
MODEL 4
REMARK minimizedAffinity -9.05234528
REMARK CNNscore 0.240273848
REMARK CNNaffinity 6.35039663
REMARK  11 active torsions:
REMARK  status: ('A' for Active; 'I' for Inactive)
REMARK    1  A    between atoms: C2_2  and  C4_4 
REMARK    2  A    between atoms: C4_4  and  C6_6 
REMARK    3  A    between atoms: C7_7  and  C8_8 
REMARK    4  A    between atoms: C8_8  and  C10_10 
REMARK    5  A    between atoms: C24_24  and  O1_25 
REMARK    6  A    between atoms: O1_25  and  C25_26 
REMARK    7  A    between atoms: C26_28  and  C27_29 
REMARK    8  A    between atoms: C27_29  and  O3_30 
REMARK    9  A    between atoms: C28_31  and  O4_32 
REMARK   10  A    between atoms: C29_33  and  O5_34 
REMARK   11  A    between atoms: C30_35  and  O6_36 
ROOT
HETATM    1  C10 UNL     1      -1.960  49.287 -22.728  1.00  0.00     0.002 C 
HETATM    2  C11 UNL     1      -1.855  48.125 -21.716  1.00  0.00     0.006 C 
HETATM    3  C12 UNL     1      -3.210  47.426 -21.756  1.00  0.00     0.009 C 
HETATM    4  C13 UNL     1      -4.179  48.606 -21.869  1.00  0.00     0.041 C 
HETATM    5  C14 UNL     1      -3.510  49.484 -22.971  1.00  0.00    -0.029 C 
HETATM    6  C15 UNL     1      -4.021  50.930 -22.886  1.00  0.00     0.016 C 
HETATM    7  C16 UNL     1      -3.831  48.931 -24.399  1.00  0.00     0.037 C 
HETATM    8  C17 UNL     1      -5.237  48.467 -24.599  1.00  0.00    -0.019 C 
HETATM    9  C18 UNL     1      -6.063  48.152 -23.585  1.00  0.00    -0.030 C 
HETATM   10  C19 UNL     1      -5.666  48.244 -22.114  1.00  0.00     0.142 C 
HETATM   11  C20 UNL     1      -6.631  49.193 -21.412  1.00  0.00     0.018 C 
HETATM   12  C21 UNL     1      -7.926  48.834 -21.502  1.00  0.00     0.014 C 
HETATM   13  C22 UNL     1      -8.132  47.570 -22.309  1.00  0.00     0.127 C 
HETATM   14  C23 UNL     1      -9.591  47.088 -22.313  1.00  0.00     0.078 C 
HETATM   15  C24 UNL     1      -9.887  46.002 -23.372  1.00  0.00     0.128 C 
HETATM   16  C31 UNL     1      -8.616  45.348 -23.911  1.00  0.00     0.033 C 
HETATM   17  C32 UNL     1      -7.613  46.348 -24.501  1.00  0.00     0.020 C 
HETATM   18  C33 UNL     1      -7.536  47.709 -23.755  1.00  0.00     0.021 C 
HETATM   19  C34 UNL     1      -8.266  48.813 -24.564  1.00  0.00     0.024 C 
HETATM   20  O7  UNL     1      -7.361  46.567 -21.583  1.00  0.00    -0.223 OA
HETATM   21  O8  UNL     1      -5.909  46.922 -21.555  1.00  0.00    -0.219 OA
ENDROOT
BRANCH  15  22
HETATM   22  O1  UNL     1     -10.598  46.640 -24.443  1.00  0.00    -0.353 OA
BRANCH  22  23
HETATM   23  C25 UNL     1     -12.030  46.593 -24.306  1.00  0.00     0.292 C 
HETATM   24  O2  UNL     1     -12.437  45.329 -23.802  1.00  0.00    -0.348 OA
HETATM   25  C26 UNL     1     -13.739  44.864 -24.191  1.00  0.00     0.179 C 
HETATM   26  C28 UNL     1     -14.713  45.985 -24.612  1.00  0.00     0.180 C 
HETATM   27  C29 UNL     1     -14.114  46.914 -25.678  1.00  0.00     0.183 C 
HETATM   28  C30 UNL     1     -12.587  46.863 -25.713  1.00  0.00     0.204 C 
BRANCH  25  29
HETATM   29  C27 UNL     1     -13.592  43.754 -25.241  1.00  0.00     0.198 C 
BRANCH  29  30
HETATM   30  O3  UNL     1     -14.753  43.638 -26.048  1.00  0.00    -0.398 OA
HETATM   31  H39 UNL     1     -14.548  43.038 -26.783  1.00  0.00     0.209 HD
ENDBRANCH  29  30
ENDBRANCH  25  29
BRANCH  26  32
HETATM   32  O4  UNL     1     -14.987  46.772 -23.437  1.00  0.00    -0.390 OA
HETATM   33  H41 UNL     1     -15.728  47.372 -23.654  1.00  0.00     0.210 HD
ENDBRANCH  26  32
BRANCH  27  34
HETATM   34  O5  UNL     1     -14.622  46.594 -26.982  1.00  0.00    -0.390 OA
HETATM   35  H43 UNL     1     -14.162  47.198 -27.596  1.00  0.00     0.210 HD
ENDBRANCH  27  34
BRANCH  28  36
HETATM   36  O6  UNL     1     -12.105  48.093 -26.271  1.00  0.00    -0.388 OA
HETATM   37  H45 UNL     1     -11.128  48.053 -26.193  1.00  0.00     0.210 HD
ENDBRANCH  28  36
ENDBRANCH  22  23
ENDBRANCH  15  22
BRANCH   1  38
HETATM   38  C8  UNL     1      -1.056  50.513 -22.414  1.00  0.00     0.008 C 
HETATM   39  C9  UNL     1      -1.639  51.321 -21.239  1.00  0.00     0.014 C 
BRANCH  38  40
HETATM   40  C7  UNL     1      -0.805  51.477 -23.556  1.00  0.00    -0.026 C 
HETATM   41  C6  UNL     1      -0.747  51.096 -24.846  1.00  0.00    -0.026 C 
BRANCH  41  42
HETATM   42  C4  UNL     1      -0.441  51.940 -26.075  1.00  0.00     0.007 C 
HETATM   43  C5  UNL     1      -1.770  52.235 -26.788  1.00  0.00     0.014 C 
BRANCH  42  44
HETATM   44  C2  UNL     1       0.656  51.391 -27.038  1.00  0.00    -0.015 C 
HETATM   45  C1  UNL     1       2.050  51.469 -26.405  1.00  0.00     0.010 C 
HETATM   46  C3  UNL     1       0.687  52.089 -28.403  1.00  0.00     0.010 C 
ENDBRANCH  42  44
ENDBRANCH  41  42
ENDBRANCH  38  40
ENDBRANCH   1  38
TORSDOF 11
ENDMDL
MODEL 5
REMARK minimizedAffinity -10.3493261
REMARK CNNscore 0.237878487
REMARK CNNaffinity 6.43356705
REMARK  11 active torsions:
REMARK  status: ('A' for Active; 'I' for Inactive)
REMARK    1  A    between atoms: C2_2  and  C4_4 
REMARK    2  A    between atoms: C4_4  and  C6_6 
REMARK    3  A    between atoms: C7_7  and  C8_8 
REMARK    4  A    between atoms: C8_8  and  C10_10 
REMARK    5  A    between atoms: C24_24  and  O1_25 
REMARK    6  A    between atoms: O1_25  and  C25_26 
REMARK    7  A    between atoms: C26_28  and  C27_29 
REMARK    8  A    between atoms: C27_29  and  O3_30 
REMARK    9  A    between atoms: C28_31  and  O4_32 
REMARK   10  A    between atoms: C29_33  and  O5_34 
REMARK   11  A    between atoms: C30_35  and  O6_36 
ROOT
HETATM    1  C10 UNL     1      -0.650  51.607 -20.070  1.00  0.00     0.002 C 
HETATM    2  C11 UNL     1      -1.701  51.817 -18.960  1.00  0.00     0.006 C 
HETATM    3  C12 UNL     1      -2.980  51.169 -19.480  1.00  0.00     0.009 C 
HETATM    4  C13 UNL     1      -2.959  51.555 -20.961  1.00  0.00     0.041 C 
HETATM    5  C14 UNL     1      -1.484  51.249 -21.366  1.00  0.00    -0.029 C 
HETATM    6  C15 UNL     1      -1.108  52.022 -22.638  1.00  0.00     0.016 C 
HETATM    7  C16 UNL     1      -1.285  49.721 -21.640  1.00  0.00     0.037 C 
HETATM    8  C17 UNL     1      -2.393  49.062 -22.394  1.00  0.00    -0.019 C 
HETATM    9  C18 UNL     1      -3.632  49.577 -22.489  1.00  0.00    -0.030 C 
HETATM   10  C19 UNL     1      -4.046  50.900 -21.851  1.00  0.00     0.142 C 
HETATM   11  C20 UNL     1      -4.553  51.829 -22.949  1.00  0.00     0.018 C 
HETATM   12  C21 UNL     1      -5.583  51.335 -23.661  1.00  0.00     0.014 C 
HETATM   13  C22 UNL     1      -5.994  49.947 -23.218  1.00  0.00     0.127 C 
HETATM   14  C23 UNL     1      -7.246  49.428 -23.943  1.00  0.00     0.078 C 
HETATM   15  C24 UNL     1      -7.497  47.916 -23.751  1.00  0.00     0.128 C 
HETATM   16  C31 UNL     1      -6.706  47.335 -22.579  1.00  0.00     0.033 C 
HETATM   17  C32 UNL     1      -5.194  47.572 -22.681  1.00  0.00     0.020 C 
HETATM   18  C33 UNL     1      -4.790  48.941 -23.295  1.00  0.00     0.021 C 
HETATM   19  C34 UNL     1      -4.299  48.758 -24.755  1.00  0.00     0.024 C 
HETATM   20  O7  UNL     1      -6.362  50.124 -21.819  1.00  0.00    -0.223 OA
HETATM   21  O8  UNL     1      -5.194  50.592 -21.011  1.00  0.00    -0.219 OA
ENDROOT
BRANCH  15  22
HETATM   22  O1  UNL     1      -7.109  47.266 -24.970  1.00  0.00    -0.353 OA
BRANCH  22  23
HETATM   23  C25 UNL     1      -8.215  46.841 -25.786  1.00  0.00     0.292 C 
HETATM   24  O2  UNL     1      -7.831  46.792 -27.153  1.00  0.00    -0.348 OA
HETATM   25  C26 UNL     1      -8.862  47.029 -28.125  1.00  0.00     0.179 C 
HETATM   26  C28 UNL     1     -10.291  46.748 -27.614  1.00  0.00     0.180 C 
HETATM   27  C29 UNL     1     -10.598  47.472 -26.295  1.00  0.00     0.183 C 
HETATM   28  C30 UNL     1      -9.332  47.866 -25.533  1.00  0.00     0.204 C 
BRANCH  25  29
HETATM   29  C27 UNL     1      -8.689  48.432 -28.721  1.00  0.00     0.198 C 
BRANCH  29  30
HETATM   30  O3  UNL     1      -7.330  48.718 -29.006  1.00  0.00    -0.398 OA
HETATM   31  H39 UNL     1      -7.298  49.543 -29.518  1.00  0.00     0.209 HD
ENDBRANCH  29  30
ENDBRANCH  25  29
BRANCH  26  32
HETATM   32  O4  UNL     1     -10.387  45.330 -27.378  1.00  0.00    -0.390 OA
HETATM   33  H41 UNL     1     -11.329  45.123 -27.222  1.00  0.00     0.210 HD
ENDBRANCH  26  32
BRANCH  27  34
HETATM   34  O5  UNL     1     -11.389  48.647 -26.525  1.00  0.00    -0.390 OA
HETATM   35  H43 UNL     1     -11.499  49.062 -25.649  1.00  0.00     0.210 HD
ENDBRANCH  27  34
BRANCH  28  36
HETATM   36  O6  UNL     1      -9.661  47.992 -24.142  1.00  0.00    -0.388 OA
HETATM   37  H45 UNL     1      -8.810  48.157 -23.684  1.00  0.00     0.210 HD
ENDBRANCH  28  36
ENDBRANCH  22  23
ENDBRANCH  15  22
BRANCH   1  38
HETATM   38  C8  UNL     1       0.463  52.691 -20.134  1.00  0.00     0.008 C 
HETATM   39  C9  UNL     1       1.580  52.256 -21.101  1.00  0.00     0.014 C 
BRANCH  38  40
HETATM   40  C7  UNL     1       1.114  53.069 -18.819  1.00  0.00    -0.026 C 
HETATM   41  C6  UNL     1       1.174  52.242 -17.759  1.00  0.00    -0.026 C 
BRANCH  41  42
HETATM   42  C4  UNL     1       1.736  52.513 -16.370  1.00  0.00     0.007 C 
HETATM   43  C5  UNL     1       3.238  52.804 -16.517  1.00  0.00     0.014 C 
BRANCH  42  44
HETATM   44  C2  UNL     1       1.430  51.444 -15.277  1.00  0.00    -0.015 C 
HETATM   45  C1  UNL     1       0.634  50.265 -15.851  1.00  0.00     0.010 C 
HETATM   46  C3  UNL     1       0.687  52.002 -14.057  1.00  0.00     0.010 C 
ENDBRANCH  42  44
ENDBRANCH  41  42
ENDBRANCH  38  40
ENDBRANCH   1  38
TORSDOF 11
ENDMDL
MODEL 6
REMARK minimizedAffinity -9.51420212
REMARK CNNscore 0.232402682
REMARK CNNaffinity 6.51818609
REMARK  11 active torsions:
REMARK  status: ('A' for Active; 'I' for Inactive)
REMARK    1  A    between atoms: C2_2  and  C4_4 
REMARK    2  A    between atoms: C4_4  and  C6_6 
REMARK    3  A    between atoms: C7_7  and  C8_8 
REMARK    4  A    between atoms: C8_8  and  C10_10 
REMARK    5  A    between atoms: C24_24  and  O1_25 
REMARK    6  A    between atoms: O1_25  and  C25_26 
REMARK    7  A    between atoms: C26_28  and  C27_29 
REMARK    8  A    between atoms: C27_29  and  O3_30 
REMARK    9  A    between atoms: C28_31  and  O4_32 
REMARK   10  A    between atoms: C29_33  and  O5_34 
REMARK   11  A    between atoms: C30_35  and  O6_36 
ROOT
HETATM    1  C10 UNL     1      -1.008  50.016 -21.877  1.00  0.00     0.002 C 
HETATM    2  C11 UNL     1      -0.890  48.814 -20.915  1.00  0.00     0.006 C 
HETATM    3  C12 UNL     1      -2.249  48.124 -20.957  1.00  0.00     0.009 C 
HETATM    4  C13 UNL     1      -3.214  49.311 -21.004  1.00  0.00     0.041 C 
HETATM    5  C14 UNL     1      -2.562  50.230 -22.083  1.00  0.00    -0.029 C 
HETATM    6  C15 UNL     1      -3.063  51.673 -21.930  1.00  0.00     0.016 C 
HETATM    7  C16 UNL     1      -2.912  49.736 -23.525  1.00  0.00     0.037 C 
HETATM    8  C17 UNL     1      -4.324  49.287 -23.716  1.00  0.00    -0.019 C 
HETATM    9  C18 UNL     1      -5.133  48.935 -22.701  1.00  0.00    -0.030 C 
HETATM   10  C19 UNL     1      -4.708  48.966 -21.235  1.00  0.00     0.142 C 
HETATM   11  C20 UNL     1      -5.654  49.891 -20.477  1.00  0.00     0.018 C 
HETATM   12  C21 UNL     1      -6.952  49.541 -20.558  1.00  0.00     0.014 C 
HETATM   13  C22 UNL     1      -7.180  48.311 -21.410  1.00  0.00     0.127 C 
HETATM   14  C23 UNL     1      -8.641  47.837 -21.406  1.00  0.00     0.078 C 
HETATM   15  C24 UNL     1      -8.963  46.795 -22.501  1.00  0.00     0.128 C 
HETATM   16  C31 UNL     1      -7.705  46.158 -23.090  1.00  0.00     0.033 C 
HETATM   17  C32 UNL     1      -6.709  47.176 -23.659  1.00  0.00     0.020 C 
HETATM   18  C33 UNL     1      -6.610  48.506 -22.861  1.00  0.00     0.021 C 
HETATM   19  C34 UNL     1      -7.350  49.644 -23.610  1.00  0.00     0.024 C 
HETATM   20  O7  UNL     1      -6.401  47.277 -20.740  1.00  0.00    -0.223 OA
HETATM   21  O8  UNL     1      -4.946  47.624 -20.725  1.00  0.00    -0.219 OA
ENDROOT
BRANCH  15  22
HETATM   22  O1  UNL     1      -9.690  47.479 -23.532  1.00  0.00    -0.353 OA
BRANCH  22  23
HETATM   23  C25 UNL     1     -10.326  46.604 -24.481  1.00  0.00     0.292 C 
HETATM   24  O2  UNL     1     -10.094  47.060 -25.807  1.00  0.00    -0.348 OA
HETATM   25  C26 UNL     1     -11.103  46.756 -26.783  1.00  0.00     0.179 C 
HETATM   26  C28 UNL     1     -11.988  45.544 -26.424  1.00  0.00     0.180 C 
HETATM   27  C29 UNL     1     -12.593  45.652 -25.017  1.00  0.00     0.183 C 
HETATM   28  C30 UNL     1     -11.819  46.615 -24.116  1.00  0.00     0.204 C 
BRANCH  25  29
HETATM   29  C27 UNL     1     -11.905  48.026 -27.100  1.00  0.00     0.198 C 
BRANCH  29  30
HETATM   30  O3  UNL     1     -11.286  49.185 -26.565  1.00  0.00    -0.398 OA
HETATM   31  H39 UNL     1     -11.744  49.962 -26.924  1.00  0.00     0.209 HD
ENDBRANCH  29  30
ENDBRANCH  25  29
BRANCH  26  32
HETATM   32  O4  UNL     1     -11.142  44.377 -26.458  1.00  0.00    -0.390 OA
HETATM   33  H41 UNL     1     -11.724  43.594 -26.403  1.00  0.00     0.210 HD
ENDBRANCH  26  32
BRANCH  27  34
HETATM   34  O5  UNL     1     -13.964  46.071 -25.078  1.00  0.00    -0.390 OA
HETATM   35  H43 UNL     1     -14.253  46.153 -24.149  1.00  0.00     0.210 HD
ENDBRANCH  27  34
BRANCH  28  36
HETATM   36  O6  UNL     1     -12.056  46.248 -22.750  1.00  0.00    -0.388 OA
HETATM   37  H45 UNL     1     -11.476  46.831 -22.216  1.00  0.00     0.210 HD
ENDBRANCH  28  36
ENDBRANCH  22  23
ENDBRANCH  15  22
BRANCH   1  38
HETATM   38  C8  UNL     1      -0.092  51.225 -21.532  1.00  0.00     0.008 C 
HETATM   39  C9  UNL     1      -0.677  52.019 -20.349  1.00  0.00     0.014 C 
BRANCH  38  40
HETATM   40  C7  UNL     1       0.184  52.206 -22.653  1.00  0.00    -0.026 C 
HETATM   41  C6  UNL     1       0.515  51.827 -23.902  1.00  0.00    -0.026 C 
BRANCH  41  42
HETATM   42  C4  UNL     1       0.879  52.698 -25.096  1.00  0.00     0.007 C 
HETATM   43  C5  UNL     1      -0.147  53.840 -25.176  1.00  0.00     0.014 C 
BRANCH  42  44
HETATM   44  C2  UNL     1       1.075  51.962 -26.457  1.00  0.00    -0.015 C 
HETATM   45  C1  UNL     1       0.150  50.745 -26.576  1.00  0.00     0.010 C 
HETATM   46  C3  UNL     1       2.520  51.519 -26.718  1.00  0.00     0.010 C 
ENDBRANCH  42  44
ENDBRANCH  41  42
ENDBRANCH  38  40
ENDBRANCH   1  38
TORSDOF 11
ENDMDL
MODEL 7
REMARK minimizedAffinity -9.25442886
REMARK CNNscore 0.204044655
REMARK CNNaffinity 6.33326721
REMARK  11 active torsions:
REMARK  status: ('A' for Active; 'I' for Inactive)
REMARK    1  A    between atoms: C2_2  and  C4_4 
REMARK    2  A    between atoms: C4_4  and  C6_6 
REMARK    3  A    between atoms: C7_7  and  C8_8 
REMARK    4  A    between atoms: C8_8  and  C10_10 
REMARK    5  A    between atoms: C24_24  and  O1_25 
REMARK    6  A    between atoms: O1_25  and  C25_26 
REMARK    7  A    between atoms: C26_28  and  C27_29 
REMARK    8  A    between atoms: C27_29  and  O3_30 
REMARK    9  A    between atoms: C28_31  and  O4_32 
REMARK   10  A    between atoms: C29_33  and  O5_34 
REMARK   11  A    between atoms: C30_35  and  O6_36 
ROOT
HETATM    1  C10 UNL     1      -1.626  49.544 -22.257  1.00  0.00     0.002 C 
HETATM    2  C11 UNL     1      -1.525  48.192 -21.520  1.00  0.00     0.006 C 
HETATM    3  C12 UNL     1      -2.864  47.500 -21.751  1.00  0.00     0.009 C 
HETATM    4  C13 UNL     1      -3.853  48.662 -21.634  1.00  0.00     0.041 C 
HETATM    5  C14 UNL     1      -3.173  49.769 -22.498  1.00  0.00    -0.029 C 
HETATM    6  C15 UNL     1      -3.714  51.154 -22.116  1.00  0.00     0.016 C 
HETATM    7  C16 UNL     1      -3.446  49.536 -24.021  1.00  0.00     0.037 C 
HETATM    8  C17 UNL     1      -4.836  49.107 -24.359  1.00  0.00    -0.019 C 
HETATM    9  C18 UNL     1      -5.682  48.568 -23.463  1.00  0.00    -0.030 C 
HETATM   10  C19 UNL     1      -5.326  48.342 -21.996  1.00  0.00     0.142 C 
HETATM   11  C20 UNL     1      -6.328  49.102 -21.134  1.00  0.00     0.018 C 
HETATM   12  C21 UNL     1      -7.612  48.754 -21.339  1.00  0.00     0.014 C 
HETATM   13  C22 UNL     1      -7.771  47.693 -22.407  1.00  0.00     0.127 C 
HETATM   14  C23 UNL     1      -9.220  47.204 -22.560  1.00  0.00     0.078 C 
HETATM   15  C24 UNL     1      -9.466  46.371 -23.838  1.00  0.00     0.128 C 
HETATM   16  C31 UNL     1      -8.168  45.868 -24.468  1.00  0.00     0.033 C 
HETATM   17  C32 UNL     1      -7.171  46.986 -24.796  1.00  0.00     0.020 C 
HETATM   18  C33 UNL     1      -7.141  48.152 -23.770  1.00  0.00     0.021 C 
HETATM   19  C34 UNL     1      -7.871  49.396 -24.341  1.00  0.00     0.024 C 
HETATM   20  O7  UNL     1      -7.000  46.567 -21.895  1.00  0.00    -0.223 OA
HETATM   21  O8  UNL     1      -5.556  46.927 -21.746  1.00  0.00    -0.219 OA
ENDROOT
BRANCH  15  22
HETATM   22  O1  UNL     1     -10.161  47.217 -24.765  1.00  0.00    -0.353 OA
BRANCH  22  23
HETATM   23  C25 UNL     1     -11.543  46.865 -24.960  1.00  0.00     0.292 C 
HETATM   24  O2  UNL     1     -11.719  45.462 -24.818  1.00  0.00    -0.348 OA
HETATM   25  C26 UNL     1     -12.788  44.863 -25.569  1.00  0.00     0.179 C 
HETATM   26  C28 UNL     1     -13.912  45.844 -25.963  1.00  0.00     0.180 C 
HETATM   27  C29 UNL     1     -13.378  47.101 -26.666  1.00  0.00     0.183 C 
HETATM   28  C30 UNL     1     -11.898  47.354 -26.372  1.00  0.00     0.204 C 
BRANCH  25  29
HETATM   29  C27 UNL     1     -12.205  44.090 -26.759  1.00  0.00     0.198 C 
BRANCH  29  30
HETATM   30  O3  UNL     1     -11.242  44.856 -27.462  1.00  0.00    -0.398 OA
HETATM   31  H39 UNL     1     -10.799  44.271 -28.099  1.00  0.00     0.209 HD
ENDBRANCH  29  30
ENDBRANCH  25  29
BRANCH  26  32
HETATM   32  O4  UNL     1     -14.562  46.256 -24.745  1.00  0.00    -0.390 OA
HETATM   33  H41 UNL     1     -15.375  46.736 -24.996  1.00  0.00     0.210 HD
ENDBRANCH  26  32
BRANCH  27  34
HETATM   34  O5  UNL     1     -13.563  47.013 -28.086  1.00  0.00    -0.390 OA
HETATM   35  H43 UNL     1     -13.162  47.824 -28.452  1.00  0.00     0.210 HD
ENDBRANCH  27  34
BRANCH  28  36
HETATM   36  O6  UNL     1     -11.633  48.752 -26.555  1.00  0.00    -0.388 OA
HETATM   37  H45 UNL     1     -10.703  48.882 -26.274  1.00  0.00     0.210 HD
ENDBRANCH  28  36
ENDBRANCH  22  23
ENDBRANCH  15  22
BRANCH   1  38
HETATM   38  C8  UNL     1      -0.756  50.685 -21.657  1.00  0.00     0.008 C 
HETATM   39  C9  UNL     1      -1.500  51.374 -20.498  1.00  0.00     0.014 C 
BRANCH  38  40
HETATM   40  C7  UNL     1      -0.301  51.765 -22.618  1.00  0.00    -0.026 C 
HETATM   41  C6  UNL     1       0.156  51.507 -23.858  1.00  0.00    -0.026 C 
BRANCH  41  42
HETATM   42  C4  UNL     1       0.700  52.481 -24.894  1.00  0.00     0.007 C 
HETATM   43  C5  UNL     1      -0.218  53.713 -24.911  1.00  0.00     0.014 C 
BRANCH  42  44
HETATM   44  C2  UNL     1       0.965  51.902 -26.317  1.00  0.00    -0.015 C 
HETATM   45  C1  UNL     1       0.065  50.696 -26.611  1.00  0.00     0.010 C 
HETATM   46  C3  UNL     1       2.426  51.506 -26.562  1.00  0.00     0.010 C 
ENDBRANCH  42  44
ENDBRANCH  41  42
ENDBRANCH  38  40
ENDBRANCH   1  38
TORSDOF 11
ENDMDL
MODEL 8
REMARK minimizedAffinity -8.42810535
REMARK CNNscore 0.203837082
REMARK CNNaffinity 6.69980478
REMARK  11 active torsions:
REMARK  status: ('A' for Active; 'I' for Inactive)
REMARK    1  A    between atoms: C2_2  and  C4_4 
REMARK    2  A    between atoms: C4_4  and  C6_6 
REMARK    3  A    between atoms: C7_7  and  C8_8 
REMARK    4  A    between atoms: C8_8  and  C10_10 
REMARK    5  A    between atoms: C24_24  and  O1_25 
REMARK    6  A    between atoms: O1_25  and  C25_26 
REMARK    7  A    between atoms: C26_28  and  C27_29 
REMARK    8  A    between atoms: C27_29  and  O3_30 
REMARK    9  A    between atoms: C28_31  and  O4_32 
REMARK   10  A    between atoms: C29_33  and  O5_34 
REMARK   11  A    between atoms: C30_35  and  O6_36 
ROOT
HETATM    1  C10 UNL     1      -1.169  50.715 -23.054  1.00  0.00     0.002 C 
HETATM    2  C11 UNL     1      -0.438  52.029 -22.704  1.00  0.00     0.006 C 
HETATM    3  C12 UNL     1      -0.217  51.984 -21.195  1.00  0.00     0.009 C 
HETATM    4  C13 UNL     1      -1.528  51.373 -20.694  1.00  0.00     0.041 C 
HETATM    5  C14 UNL     1      -1.739  50.180 -21.678  1.00  0.00    -0.029 C 
HETATM    6  C15 UNL     1      -3.213  49.750 -21.688  1.00  0.00     0.016 C 
HETATM    7  C16 UNL     1      -0.868  48.950 -21.260  1.00  0.00     0.037 C 
HETATM    8  C17 UNL     1      -0.819  48.676 -19.792  1.00  0.00    -0.019 C 
HETATM    9  C18 UNL     1      -1.129  49.593 -18.858  1.00  0.00    -0.030 C 
HETATM   10  C19 UNL     1      -1.580  51.013 -19.187  1.00  0.00     0.142 C 
HETATM   11  C20 UNL     1      -2.955  51.239 -18.570  1.00  0.00     0.018 C 
HETATM   12  C21 UNL     1      -3.002  51.055 -17.238  1.00  0.00     0.014 C 
HETATM   13  C22 UNL     1      -1.669  50.639 -16.653  1.00  0.00     0.127 C 
HETATM   14  C23 UNL     1      -1.685  50.546 -15.119  1.00  0.00     0.078 C 
HETATM   15  C24 UNL     1      -0.454  49.825 -14.524  1.00  0.00     0.128 C 
HETATM   16  C31 UNL     1       0.698  49.714 -15.522  1.00  0.00     0.033 C 
HETATM   17  C32 UNL     1       0.310  49.021 -16.834  1.00  0.00     0.020 C 
HETATM   18  C33 UNL     1      -1.128  49.330 -17.333  1.00  0.00     0.021 C 
HETATM   19  C34 UNL     1      -2.067  48.125 -17.065  1.00  0.00     0.024 C 
HETATM   20  O7  UNL     1      -0.780  51.742 -16.997  1.00  0.00    -0.223 OA
HETATM   21  O8  UNL     1      -0.662  51.894 -18.481  1.00  0.00    -0.219 OA
ENDROOT
BRANCH  15  22
HETATM   22  O1  UNL     1      -0.884  48.514 -14.129  1.00  0.00    -0.353 OA
BRANCH  22  23
HETATM   23  C25 UNL     1      -0.113  47.942 -13.058  1.00  0.00     0.292 C 
HETATM   24  O2  UNL     1       0.409  48.967 -12.223  1.00  0.00    -0.348 OA
HETATM   25  C26 UNL     1       1.650  48.689 -11.554  1.00  0.00     0.179 C 
HETATM   26  C28 UNL     1       1.951  47.186 -11.375  1.00  0.00     0.180 C 
HETATM   27  C29 UNL     1       1.845  46.404 -12.692  1.00  0.00     0.183 C 
HETATM   28  C30 UNL     1       0.998  47.128 -13.740  1.00  0.00     0.204 C 
BRANCH  25  29
HETATM   29  C27 UNL     1       2.784  49.464 -12.238  1.00  0.00     0.198 C 
BRANCH  29  30
HETATM   30  O3  UNL     1       4.043  48.845 -12.030  1.00  0.00    -0.398 OA
HETATM   31  H39 UNL     1       4.691  49.282 -12.606  1.00  0.00     0.209 HD
ENDBRANCH  29  30
ENDBRANCH  25  29
BRANCH  26  32
HETATM   32  O4  UNL     1       0.965  46.661 -10.463  1.00  0.00    -0.390 OA
HETATM   33  H41 UNL     1       1.250  45.761 -10.214  1.00  0.00     0.210 HD
ENDBRANCH  26  32
BRANCH  27  34
HETATM   34  O5  UNL     1       3.146  46.145 -13.241  1.00  0.00    -0.390 OA
HETATM   35  H43 UNL     1       2.984  45.687 -14.088  1.00  0.00     0.210 HD
ENDBRANCH  27  34
BRANCH  28  36
HETATM   36  O6  UNL     1       0.484  46.154 -14.658  1.00  0.00    -0.388 OA
HETATM   37  H45 UNL     1      -0.119  46.646 -15.254  1.00  0.00     0.210 HD
ENDBRANCH  28  36
ENDBRANCH  22  23
ENDBRANCH  15  22
BRANCH   1  38
HETATM   38  C8  UNL     1      -2.090  50.789 -24.304  1.00  0.00     0.008 C 
HETATM   39  C9  UNL     1      -2.637  49.391 -24.651  1.00  0.00     0.014 C 
BRANCH  38  40
HETATM   40  C7  UNL     1      -1.477  51.368 -25.562  1.00  0.00    -0.026 C 
HETATM   41  C6  UNL     1      -0.577  52.369 -25.553  1.00  0.00    -0.026 C 
BRANCH  41  42
HETATM   42  C4  UNL     1       0.066  53.084 -26.734  1.00  0.00     0.007 C 
HETATM   43  C5  UNL     1      -1.034  53.362 -27.771  1.00  0.00     0.014 C 
BRANCH  42  44
HETATM   44  C2  UNL     1       1.326  52.405 -27.352  1.00  0.00    -0.015 C 
HETATM   45  C1  UNL     1       0.951  51.470 -28.507  1.00  0.00     0.010 C 
HETATM   46  C3  UNL     1       2.172  51.630 -26.335  1.00  0.00     0.010 C 
ENDBRANCH  42  44
ENDBRANCH  41  42
ENDBRANCH  38  40
ENDBRANCH   1  38
TORSDOF 11
ENDMDL
MODEL 9
REMARK minimizedAffinity -8.27736473
REMARK CNNscore 0.200606897
REMARK CNNaffinity 6.56261683
REMARK  11 active torsions:
REMARK  status: ('A' for Active; 'I' for Inactive)
REMARK    1  A    between atoms: C2_2  and  C4_4 
REMARK    2  A    between atoms: C4_4  and  C6_6 
REMARK    3  A    between atoms: C7_7  and  C8_8 
REMARK    4  A    between atoms: C8_8  and  C10_10 
REMARK    5  A    between atoms: C24_24  and  O1_25 
REMARK    6  A    between atoms: O1_25  and  C25_26 
REMARK    7  A    between atoms: C26_28  and  C27_29 
REMARK    8  A    between atoms: C27_29  and  O3_30 
REMARK    9  A    between atoms: C28_31  and  O4_32 
REMARK   10  A    between atoms: C29_33  and  O5_34 
REMARK   11  A    between atoms: C30_35  and  O6_36 
ROOT
HETATM    1  C10 UNL     1      -2.313  50.803 -21.580  1.00  0.00     0.002 C 
HETATM    2  C11 UNL     1      -3.642  51.379 -21.048  1.00  0.00     0.006 C 
HETATM    3  C12 UNL     1      -3.541  51.302 -19.528  1.00  0.00     0.009 C 
HETATM    4  C13 UNL     1      -2.847  49.954 -19.317  1.00  0.00     0.041 C 
HETATM    5  C14 UNL     1      -1.692  50.005 -20.364  1.00  0.00    -0.029 C 
HETATM    6  C15 UNL     1      -1.194  48.587 -20.680  1.00  0.00     0.016 C 
HETATM    7  C16 UNL     1      -0.485  50.843 -19.825  1.00  0.00     0.037 C 
HETATM    8  C17 UNL     1      -0.149  50.619 -18.387  1.00  0.00    -0.019 C 
HETATM    9  C18 UNL     1      -1.008  50.083 -17.501  1.00  0.00    -0.030 C 
HETATM   10  C19 UNL     1      -2.419  49.628 -17.864  1.00  0.00     0.142 C 
HETATM   11  C20 UNL     1      -2.552  48.148 -17.523  1.00  0.00     0.018 C 
HETATM   12  C21 UNL     1      -2.307  47.852 -16.233  1.00  0.00     0.014 C 
HETATM   13  C22 UNL     1      -1.927  49.065 -15.412  1.00  0.00     0.127 C 
HETATM   14  C23 UNL     1      -1.765  48.755 -13.915  1.00  0.00     0.078 C 
HETATM   15  C24 UNL     1      -1.077  49.882 -13.114  1.00  0.00     0.128 C 
HETATM   16  C31 UNL     1      -1.064  51.212 -13.867  1.00  0.00     0.033 C 
HETATM   17  C32 UNL     1      -0.413  51.127 -15.253  1.00  0.00     0.020 C 
HETATM   18  C33 UNL     1      -0.677  49.799 -16.016  1.00  0.00     0.021 C 
HETATM   19  C34 UNL     1       0.581  48.893 -15.981  1.00  0.00     0.024 C 
HETATM   20  O7  UNL     1      -3.085  49.943 -15.535  1.00  0.00    -0.223 OA
HETATM   21  O8  UNL     1      -3.309  50.341 -16.959  1.00  0.00    -0.219 OA
ENDROOT
BRANCH  15  22
HETATM   22  O1  UNL     1       0.269  49.456 -12.858  1.00  0.00    -0.353 OA
BRANCH  22  23
HETATM   23  C25 UNL     1       1.128  50.494 -12.353  1.00  0.00     0.292 C 
HETATM   24  O2  UNL     1       2.427  50.378 -12.916  1.00  0.00    -0.348 OA
HETATM   25  C26 UNL     1       3.525  50.848 -12.117  1.00  0.00     0.179 C 
HETATM   26  C28 UNL     1       3.131  51.890 -11.050  1.00  0.00     0.180 C 
HETATM   27  C29 UNL     1       1.965  51.419 -10.168  1.00  0.00     0.183 C 
HETATM   28  C30 UNL     1       1.139  50.314 -10.827  1.00  0.00     0.204 C 
BRANCH  25  29
HETATM   29  C27 UNL     1       4.291  49.647 -11.546  1.00  0.00     0.198 C 
BRANCH  29  30
HETATM   30  O3  UNL     1       5.694  49.813 -11.668  1.00  0.00    -0.398 OA
HETATM   31  H39 UNL     1       6.125  49.108 -11.158  1.00  0.00     0.209 HD
ENDBRANCH  29  30
ENDBRANCH  25  29
BRANCH  26  32
HETATM   32  O4  UNL     1       2.709  53.077 -11.751  1.00  0.00    -0.390 OA
HETATM   33  H41 UNL     1       2.624  53.791 -11.090  1.00  0.00     0.210 HD
ENDBRANCH  26  32
BRANCH  27  34
HETATM   34  O5  UNL     1       2.440  50.952  -8.896  1.00  0.00    -0.390 OA
HETATM   35  H43 UNL     1       1.646  50.637  -8.423  1.00  0.00     0.210 HD
ENDBRANCH  27  34
BRANCH  28  36
HETATM   36  O6  UNL     1      -0.178  50.334 -10.259  1.00  0.00    -0.388 OA
HETATM   37  H45 UNL     1      -0.694  49.675 -10.768  1.00  0.00     0.210 HD
ENDBRANCH  28  36
ENDBRANCH  22  23
ENDBRANCH  15  22
BRANCH   1  38
HETATM   38  C8  UNL     1      -2.400  50.142 -22.985  1.00  0.00     0.008 C 
HETATM   39  C9  UNL     1      -2.646  48.627 -22.850  1.00  0.00     0.014 C 
BRANCH  38  40
HETATM   40  C7  UNL     1      -1.206  50.334 -23.898  1.00  0.00    -0.026 C 
HETATM   41  C6  UNL     1      -1.032  51.426 -24.667  1.00  0.00    -0.026 C 
BRANCH  41  42
HETATM   42  C4  UNL     1       0.076  51.718 -25.669  1.00  0.00     0.007 C 
HETATM   43  C5  UNL     1       0.915  52.883 -25.118  1.00  0.00     0.014 C 
BRANCH  42  44
HETATM   44  C2  UNL     1      -0.366  51.934 -27.148  1.00  0.00    -0.015 C 
HETATM   45  C1  UNL     1      -1.567  51.053 -27.511  1.00  0.00     0.010 C 
HETATM   46  C3  UNL     1       0.754  51.699 -28.169  1.00  0.00     0.010 C 
ENDBRANCH  42  44
ENDBRANCH  41  42
ENDBRANCH  38  40
ENDBRANCH   1  38
TORSDOF 11
ENDMDL
