MODEL 1
REMARK minimizedAffinity -9.18280029
REMARK CNNscore 0.433551311
REMARK CNNaffinity 7.13144159
REMARK  18 active torsions:
REMARK  status: ('A' for Active; 'I' for Inactive)
REMARK    1  A    between atoms: C2_2  and  C4_4 
REMARK    2  A    between atoms: C4_4  and  N1_5 
REMARK    3  A    between atoms: C4_4  and  C30_38 
REMARK       I    between atoms: N1_5  and  C5_6 
REMARK    4  A    between atoms: C5_6  and  C6_8 
REMARK    5  A    between atoms: C6_8  and  C7_9 
REMARK    6  A    between atoms: C7_9  and  C8_10 
REMARK    7  A    between atoms: C8_10  and  O3_12 
REMARK    8  A    between atoms: O3_12  and  C9_13 
REMARK    9  A    between atoms: C9_13  and  C10_14 
REMARK   10  A    between atoms: C10_14  and  C11_16 
REMARK   11  A    between atoms: C11_16  and  O5_17 
REMARK   12  A    between atoms: C26_33  and  O7_34 
REMARK       I    between atoms: C30_38  and  N2_40 
REMARK   13  A    between atoms: N2_40  and  C31_41 
REMARK   14  A    between atoms: C31_41  and  C32_42 
REMARK   15  A    between atoms: C32_42  and  C33_43 
REMARK   16  A    between atoms: C32_42  and  C35_47 
REMARK   17  A    between atoms: C33_43  and  C34_44 
REMARK   18  A    between atoms: C34_44  and  O10_46 
ROOT
HETATM    1  C8  UNL     1      -1.057  50.823 -19.883  1.00  0.00     0.259 C 
HETATM    2  O2  UNL     1      -2.214  50.463 -19.699  1.00  0.00    -0.265 OA
ENDROOT
BRANCH   1   3
HETATM    3  C7  UNL     1      -0.348  50.739 -21.211  1.00  0.00     0.120 C 
BRANCH   3   4
HETATM    4  C6  UNL     1       0.701  51.826 -21.413  1.00  0.00     0.112 C 
BRANCH   4   5
HETATM    5  C5  UNL     1       0.406  52.650 -22.649  1.00  0.00     0.218 C 
HETATM    6  N1  UNL     1      -0.517  52.079 -23.496  1.00  0.00    -0.347 N 
HETATM    7  H9  UNL     1      -0.923  51.179 -23.272  1.00  0.00     0.163 HD
HETATM    8  O1  UNL     1       0.926  53.738 -22.857  1.00  0.00    -0.274 OA
BRANCH   6   9
HETATM    9  C4  UNL     1      -0.844  52.698 -24.792  1.00  0.00     0.179 C 
BRANCH   9  10
HETATM   10  C2  UNL     1       0.156  52.211 -25.871  1.00  0.00     0.009 C 
HETATM   11  C1  UNL     1      -0.200  50.820 -26.409  1.00  0.00     0.012 C 
HETATM   12  C3  UNL     1       0.210  53.189 -27.052  1.00  0.00     0.012 C 
ENDBRANCH   9  10
BRANCH   9  13
HETATM   13  C30 UNL     1      -2.300  52.356 -25.196  1.00  0.00     0.240 C 
HETATM   14  O8  UNL     1      -2.847  52.851 -26.180  1.00  0.00    -0.271 OA
HETATM   15  N2  UNL     1      -2.866  51.316 -24.484  1.00  0.00    -0.359 N 
HETATM   16  H43 UNL     1      -2.317  50.889 -23.748  1.00  0.00     0.162 HD
BRANCH  15  17
HETATM   17  C31 UNL     1      -4.076  50.649 -24.931  1.00  0.00     0.132 C 
BRANCH  17  18
HETATM   18  C32 UNL     1      -3.876  49.118 -25.015  1.00  0.00     0.046 C 
BRANCH  18  19
HETATM   19  C33 UNL     1      -4.862  48.427 -25.966  1.00  0.00     0.120 C 
BRANCH  19  20
HETATM   20  C34 UNL     1      -4.467  48.444 -27.417  1.00  0.00     0.140 C 
HETATM   21  O9  UNL     1      -3.342  48.344 -27.875  1.00  0.00    -0.650 OA
BRANCH  20  22
HETATM   22  O10 UNL     1      -5.534  48.532 -28.233  1.00  0.00    -0.776 OA
HETATM   23  H49 UNL     1      -5.155  48.517 -29.136  1.00  0.00     0.167 HD
ENDBRANCH  20  22
ENDBRANCH  19  20
ENDBRANCH  18  19
BRANCH  18  24
HETATM   24  C35 UNL     1      -3.797  48.426 -23.658  1.00  0.00    -0.052 A 
HETATM   25  C36 UNL     1      -2.582  48.228 -22.986  1.00  0.00     0.007 A 
HETATM   26  C37 UNL     1      -2.550  47.586 -21.745  1.00  0.00     0.001 A 
HETATM   27  C38 UNL     1      -3.729  47.132 -21.159  1.00  0.00     0.000 A 
HETATM   28  C39 UNL     1      -4.944  47.328 -21.809  1.00  0.00     0.001 A 
HETATM   29  C40 UNL     1      -4.979  47.976 -23.045  1.00  0.00     0.007 A 
ENDBRANCH  18  24
ENDBRANCH  17  18
ENDBRANCH  15  17
ENDBRANCH   9  13
ENDBRANCH   6   9
ENDBRANCH   4   5
ENDBRANCH   3   4
ENDBRANCH   1   3
BRANCH   1  30
HETATM   30  O3  UNL     1      -0.267  51.404 -18.937  1.00  0.00    -0.314 OA
BRANCH  30  31
HETATM   31  C9  UNL     1      -0.762  51.225 -17.608  1.00  0.00     0.260 C 
BRANCH  31  32
HETATM   32  C10 UNL     1       0.351  51.038 -16.575  1.00  0.00     0.185 C 
HETATM   33  O4  UNL     1       1.482  51.518 -16.763  1.00  0.00    -0.292 OA
BRANCH  32  34
HETATM   34  C11 UNL     1       0.109  50.192 -15.305  1.00  0.00     0.128 C 
HETATM   35  C12 UNL     1       1.342  49.549 -14.624  1.00  0.00     0.047 C 
HETATM   36  C13 UNL     1       1.051  49.536 -13.109  1.00  0.00     0.009 C 
HETATM   37  C14 UNL     1      -0.424  49.902 -13.004  1.00  0.00     0.002 C 
HETATM   38  C15 UNL     1      -0.981  50.368 -11.651  1.00  0.00    -0.002 C 
HETATM   39  C28 UNL     1      -0.621  50.935 -14.141  1.00  0.00     0.001 C 
HETATM   40  C16 UNL     1      -0.646  49.349 -10.539  1.00  0.00     0.010 C 
HETATM   41  C25 UNL     1      -2.531  50.585 -11.805  1.00  0.00     0.031 C 
HETATM   42  C17 UNL     1      -1.342  49.658  -9.214  1.00  0.00     0.035 C 
HETATM   43  C18 UNL     1      -2.820  49.805  -9.471  1.00  0.00    -0.068 C 
HETATM   44  C19 UNL     1      -3.682  48.890  -8.995  1.00  0.00     0.053 C 
HETATM   45  C23 UNL     1      -3.203  50.946 -10.426  1.00  0.00    -0.014 C 
HETATM   46  C20 UNL     1      -5.080  48.824  -9.485  1.00  0.00     0.149 C 
HETATM   47  O6  UNL     1      -5.842  47.976  -9.034  1.00  0.00    -0.293 OA
HETATM   48  C21 UNL     1      -5.466  49.725 -10.630  1.00  0.00     0.084 C 
HETATM   49  C22 UNL     1      -4.750  51.061 -10.505  1.00  0.00     0.022 C 
HETATM   50  C24 UNL     1      -2.714  52.297  -9.846  1.00  0.00     0.020 C 
HETATM   51  C26 UNL     1      -2.875  51.517 -13.004  1.00  0.00     0.124 C 
HETATM   52  C27 UNL     1      -2.146  51.133 -14.315  1.00  0.00     0.045 C 
HETATM   53  C29 UNL     1       0.074  52.289 -13.856  1.00  0.00     0.019 C 
BRANCH  34  54
HETATM   54  O5  UNL     1      -0.722  49.088 -15.738  1.00  0.00    -0.381 OA
HETATM   55  H16 UNL     1      -1.264  49.425 -16.479  1.00  0.00     0.211 HD
ENDBRANCH  34  54
BRANCH  51  56
HETATM   56  O7  UNL     1      -2.598  52.877 -12.700  1.00  0.00    -0.395 OA
HETATM   57  H37 UNL     1      -2.957  53.417 -13.424  1.00  0.00     0.210 HD
ENDBRANCH  51  56
ENDBRANCH  32  34
ENDBRANCH  31  32
ENDBRANCH  30  31
ENDBRANCH   1  30
TORSDOF 18
ENDMDL
MODEL 2
REMARK minimizedAffinity -8.84611225
REMARK CNNscore 0.363567978
REMARK CNNaffinity 6.10214281
REMARK  18 active torsions:
REMARK  status: ('A' for Active; 'I' for Inactive)
REMARK    1  A    between atoms: C2_2  and  C4_4 
REMARK    2  A    between atoms: C4_4  and  N1_5 
REMARK    3  A    between atoms: C4_4  and  C30_38 
REMARK       I    between atoms: N1_5  and  C5_6 
REMARK    4  A    between atoms: C5_6  and  C6_8 
REMARK    5  A    between atoms: C6_8  and  C7_9 
REMARK    6  A    between atoms: C7_9  and  C8_10 
REMARK    7  A    between atoms: C8_10  and  O3_12 
REMARK    8  A    between atoms: O3_12  and  C9_13 
REMARK    9  A    between atoms: C9_13  and  C10_14 
REMARK   10  A    between atoms: C10_14  and  C11_16 
REMARK   11  A    between atoms: C11_16  and  O5_17 
REMARK   12  A    between atoms: C26_33  and  O7_34 
REMARK       I    between atoms: C30_38  and  N2_40 
REMARK   13  A    between atoms: N2_40  and  C31_41 
REMARK   14  A    between atoms: C31_41  and  C32_42 
REMARK   15  A    between atoms: C32_42  and  C33_43 
REMARK   16  A    between atoms: C32_42  and  C35_47 
REMARK   17  A    between atoms: C33_43  and  C34_44 
REMARK   18  A    between atoms: C34_44  and  O10_46 
ROOT
HETATM    1  C8  UNL     1      -8.871  45.560 -23.387  1.00  0.00     0.259 C 
HETATM    2  O2  UNL     1      -8.607  44.460 -23.860  1.00  0.00    -0.265 OA
ENDROOT
BRANCH   1   3
HETATM    3  C7  UNL     1      -9.739  45.772 -22.172  1.00  0.00     0.120 C 
BRANCH   3   4
HETATM    4  C6  UNL     1     -10.806  46.842 -22.363  1.00  0.00     0.112 C 
BRANCH   4   5
HETATM    5  C5  UNL     1     -12.168  46.341 -21.928  1.00  0.00     0.218 C 
HETATM    6  N1  UNL     1     -13.060  47.341 -21.613  1.00  0.00    -0.347 N 
HETATM    7  H9  UNL     1     -12.775  48.311 -21.671  1.00  0.00     0.163 HD
HETATM    8  O1  UNL     1     -12.452  45.151 -21.888  1.00  0.00    -0.274 OA
BRANCH   6   9
HETATM    9  C4  UNL     1     -14.394  47.028 -21.076  1.00  0.00     0.179 C 
BRANCH   9  10
HETATM   10  C2  UNL     1     -14.814  48.114 -20.053  1.00  0.00     0.009 C 
HETATM   11  C1  UNL     1     -15.571  47.524 -18.857  1.00  0.00     0.012 C 
HETATM   12  C3  UNL     1     -13.592  48.877 -19.527  1.00  0.00     0.012 C 
ENDBRANCH   9  10
BRANCH   9  13
HETATM   13  C30 UNL     1     -15.425  46.929 -22.228  1.00  0.00     0.240 C 
HETATM   14  O8  UNL     1     -15.357  47.627 -23.238  1.00  0.00    -0.271 OA
HETATM   15  N2  UNL     1     -16.305  45.870 -22.123  1.00  0.00    -0.359 N 
HETATM   16  H43 UNL     1     -16.239  45.275 -21.307  1.00  0.00     0.162 HD
BRANCH  15  17
HETATM   17  C31 UNL     1     -17.113  45.428 -23.247  1.00  0.00     0.132 C 
BRANCH  17  18
HETATM   18  C32 UNL     1     -18.562  45.112 -22.808  1.00  0.00     0.046 C 
BRANCH  18  19
HETATM   19  C33 UNL     1     -19.622  45.657 -23.775  1.00  0.00     0.120 C 
BRANCH  19  20
HETATM   20  C34 UNL     1     -19.077  46.379 -24.976  1.00  0.00     0.140 C 
HETATM   21  O9  UNL     1     -18.781  45.896 -26.056  1.00  0.00    -0.650 OA
BRANCH  20  22
HETATM   22  O10 UNL     1     -18.983  47.706 -24.771  1.00  0.00    -0.776 OA
HETATM   23  H49 UNL     1     -18.638  48.062 -25.616  1.00  0.00     0.167 HD
ENDBRANCH  20  22
ENDBRANCH  19  20
ENDBRANCH  18  19
BRANCH  18  24
HETATM   24  C35 UNL     1     -18.863  45.471 -21.356  1.00  0.00    -0.052 A 
HETATM   25  C36 UNL     1     -19.118  44.496 -20.381  1.00  0.00     0.007 A 
HETATM   26  C37 UNL     1     -19.395  44.864 -19.061  1.00  0.00     0.001 A 
HETATM   27  C38 UNL     1     -19.420  46.208 -18.697  1.00  0.00     0.000 A 
HETATM   28  C39 UNL     1     -19.161  47.188 -19.653  1.00  0.00     0.001 A 
HETATM   29  C40 UNL     1     -18.878  46.822 -20.969  1.00  0.00     0.007 A 
ENDBRANCH  18  24
ENDBRANCH  17  18
ENDBRANCH  15  17
ENDBRANCH   9  13
ENDBRANCH   6   9
ENDBRANCH   4   5
ENDBRANCH   3   4
ENDBRANCH   1   3
BRANCH   1  30
HETATM   30  O3  UNL     1      -8.374  46.741 -23.850  1.00  0.00    -0.314 OA
BRANCH  30  31
HETATM   31  C9  UNL     1      -7.031  46.988 -23.424  1.00  0.00     0.260 C 
BRANCH  31  32
HETATM   32  C10 UNL     1      -6.440  48.266 -24.021  1.00  0.00     0.185 C 
HETATM   33  O4  UNL     1      -6.295  48.388 -25.249  1.00  0.00    -0.292 OA
BRANCH  32  34
HETATM   34  C11 UNL     1      -5.949  49.407 -23.102  1.00  0.00     0.128 C 
HETATM   35  C12 UNL     1      -6.868  49.835 -21.932  1.00  0.00     0.047 C 
HETATM   36  C13 UNL     1      -5.939  50.262 -20.776  1.00  0.00     0.009 C 
HETATM   37  C14 UNL     1      -4.556  50.335 -21.410  1.00  0.00     0.002 C 
HETATM   38  C15 UNL     1      -3.320  50.348 -20.499  1.00  0.00    -0.002 C 
HETATM   39  C28 UNL     1      -4.562  49.165 -22.425  1.00  0.00     0.001 C 
HETATM   40  C16 UNL     1      -3.433  51.463 -19.436  1.00  0.00     0.010 C 
HETATM   41  C25 UNL     1      -2.044  50.522 -21.403  1.00  0.00     0.031 C 
HETATM   42  C17 UNL     1      -2.150  51.653 -18.629  1.00  0.00     0.035 C 
HETATM   43  C18 UNL     1      -1.005  51.850 -19.589  1.00  0.00    -0.068 C 
HETATM   44  C19 UNL     1      -0.391  53.044 -19.671  1.00  0.00     0.053 C 
HETATM   45  C23 UNL     1      -0.738  50.669 -20.534  1.00  0.00    -0.014 C 
HETATM   46  C20 UNL     1       0.509  53.367 -20.804  1.00  0.00     0.149 C 
HETATM   47  O6  UNL     1       1.052  54.466 -20.853  1.00  0.00    -0.293 OA
HETATM   48  C21 UNL     1       0.609  52.370 -21.929  1.00  0.00     0.084 C 
HETATM   49  C22 UNL     1       0.535  50.955 -21.377  1.00  0.00     0.022 C 
HETATM   50  C24 UNL     1      -0.412  49.401 -19.704  1.00  0.00     0.020 C 
HETATM   51  C26 UNL     1      -1.993  49.471 -22.551  1.00  0.00     0.124 C 
HETATM   52  C27 UNL     1      -3.323  49.345 -23.333  1.00  0.00     0.045 C 
HETATM   53  C29 UNL     1      -4.539  47.774 -21.744  1.00  0.00     0.019 C 
BRANCH  34  54
HETATM   54  O5  UNL     1      -5.842  50.567 -23.963  1.00  0.00    -0.381 OA
HETATM   55  H16 UNL     1      -5.621  50.229 -24.855  1.00  0.00     0.211 HD
ENDBRANCH  34  54
BRANCH  51  56
HETATM   56  O7  UNL     1      -1.616  48.190 -22.065  1.00  0.00    -0.395 OA
HETATM   57  H37 UNL     1      -1.469  47.617 -22.836  1.00  0.00     0.210 HD
ENDBRANCH  51  56
ENDBRANCH  32  34
ENDBRANCH  31  32
ENDBRANCH  30  31
ENDBRANCH   1  30
TORSDOF 18
ENDMDL
MODEL 3
REMARK minimizedAffinity -9.36139297
REMARK CNNscore 0.341088444
REMARK CNNaffinity 6.51700974
REMARK  18 active torsions:
REMARK  status: ('A' for Active; 'I' for Inactive)
REMARK    1  A    between atoms: C2_2  and  C4_4 
REMARK    2  A    between atoms: C4_4  and  N1_5 
REMARK    3  A    between atoms: C4_4  and  C30_38 
REMARK       I    between atoms: N1_5  and  C5_6 
REMARK    4  A    between atoms: C5_6  and  C6_8 
REMARK    5  A    between atoms: C6_8  and  C7_9 
REMARK    6  A    between atoms: C7_9  and  C8_10 
REMARK    7  A    between atoms: C8_10  and  O3_12 
REMARK    8  A    between atoms: O3_12  and  C9_13 
REMARK    9  A    between atoms: C9_13  and  C10_14 
REMARK   10  A    between atoms: C10_14  and  C11_16 
REMARK   11  A    between atoms: C11_16  and  O5_17 
REMARK   12  A    between atoms: C26_33  and  O7_34 
REMARK       I    between atoms: C30_38  and  N2_40 
REMARK   13  A    between atoms: N2_40  and  C31_41 
REMARK   14  A    between atoms: C31_41  and  C32_42 
REMARK   15  A    between atoms: C32_42  and  C33_43 
REMARK   16  A    between atoms: C32_42  and  C35_47 
REMARK   17  A    between atoms: C33_43  and  C34_44 
REMARK   18  A    between atoms: C34_44  and  O10_46 
ROOT
HETATM    1  C8  UNL     1      -8.885  47.506 -25.921  1.00  0.00     0.259 C 
HETATM    2  O2  UNL     1      -8.806  46.283 -25.916  1.00  0.00    -0.265 OA
ENDROOT
BRANCH   1   3
HETATM    3  C7  UNL     1      -9.716  48.295 -26.901  1.00  0.00     0.120 C 
BRANCH   3   4
HETATM    4  C6  UNL     1     -10.505  47.426 -27.873  1.00  0.00     0.112 C 
BRANCH   4   5
HETATM    5  C5  UNL     1     -11.990  47.489 -27.583  1.00  0.00     0.218 C 
HETATM    6  N1  UNL     1     -12.582  46.257 -27.417  1.00  0.00    -0.347 N 
HETATM    7  H9  UNL     1     -12.029  45.413 -27.504  1.00  0.00     0.163 HD
HETATM    8  O1  UNL     1     -12.599  48.546 -27.480  1.00  0.00    -0.274 OA
BRANCH   6   9
HETATM    9  C4  UNL     1     -14.036  46.132 -27.229  1.00  0.00     0.179 C 
BRANCH   9  10
HETATM   10  C2  UNL     1     -14.505  44.728 -27.687  1.00  0.00     0.009 C 
HETATM   11  C1  UNL     1     -14.401  43.686 -26.567  1.00  0.00     0.012 C 
HETATM   12  C3  UNL     1     -15.957  44.767 -28.181  1.00  0.00     0.012 C 
ENDBRANCH   9  10
BRANCH   9  13
HETATM   13  C30 UNL     1     -14.407  46.380 -25.745  1.00  0.00     0.240 C 
HETATM   14  O8  UNL     1     -13.563  46.619 -24.883  1.00  0.00    -0.271 OA
HETATM   15  N2  UNL     1     -15.762  46.502 -25.503  1.00  0.00    -0.359 N 
HETATM   16  H43 UNL     1     -16.397  46.388 -26.283  1.00  0.00     0.162 HD
BRANCH  15  17
HETATM   17  C31 UNL     1     -16.273  47.051 -24.259  1.00  0.00     0.132 C 
BRANCH  17  18
HETATM   18  C32 UNL     1     -16.913  45.950 -23.381  1.00  0.00     0.046 C 
BRANCH  18  19
HETATM   19  C33 UNL     1     -18.138  45.291 -24.030  1.00  0.00     0.120 C 
BRANCH  19  20
HETATM   20  C34 UNL     1     -18.757  46.070 -25.157  1.00  0.00     0.140 C 
HETATM   21  O9  UNL     1     -18.806  45.751 -26.333  1.00  0.00    -0.650 OA
BRANCH  20  22
HETATM   22  O10 UNL     1     -19.342  47.204 -24.730  1.00  0.00    -0.776 OA
HETATM   23  H49 UNL     1     -19.718  47.607 -25.539  1.00  0.00     0.167 HD
ENDBRANCH  20  22
ENDBRANCH  19  20
ENDBRANCH  18  19
BRANCH  18  24
HETATM   24  C35 UNL     1     -17.180  46.380 -21.942  1.00  0.00    -0.052 A 
HETATM   25  C36 UNL     1     -16.145  46.696 -21.050  1.00  0.00     0.007 A 
HETATM   26  C37 UNL     1     -16.429  47.082 -19.737  1.00  0.00     0.001 A 
HETATM   27  C38 UNL     1     -17.748  47.157 -19.297  1.00  0.00     0.000 A 
HETATM   28  C39 UNL     1     -18.787  46.854 -20.173  1.00  0.00     0.001 A 
HETATM   29  C40 UNL     1     -18.505  46.475 -21.486  1.00  0.00     0.007 A 
ENDBRANCH  18  24
ENDBRANCH  17  18
ENDBRANCH  15  17
ENDBRANCH   9  13
ENDBRANCH   6   9
ENDBRANCH   4   5
ENDBRANCH   3   4
ENDBRANCH   1   3
BRANCH   1  30
HETATM   30  O3  UNL     1      -8.288  48.325 -25.010  1.00  0.00    -0.314 OA
BRANCH  30  31
HETATM   31  C9  UNL     1      -6.862  48.340 -25.122  1.00  0.00     0.260 C 
BRANCH  31  32
HETATM   32  C10 UNL     1      -6.158  48.487 -23.772  1.00  0.00     0.185 C 
HETATM   33  O4  UNL     1      -6.347  47.663 -22.861  1.00  0.00    -0.292 OA
BRANCH  32  34
HETATM   34  C11 UNL     1      -5.245  49.702 -23.491  1.00  0.00     0.128 C 
HETATM   35  C12 UNL     1      -4.839  49.972 -22.022  1.00  0.00     0.047 C 
HETATM   36  C13 UNL     1      -3.413  50.560 -22.060  1.00  0.00     0.009 C 
HETATM   37  C14 UNL     1      -3.170  50.866 -23.533  1.00  0.00     0.002 C 
HETATM   38  C15 UNL     1      -1.731  51.097 -24.016  1.00  0.00    -0.002 C 
HETATM   39  C28 UNL     1      -3.888  49.706 -24.265  1.00  0.00     0.001 C 
HETATM   40  C16 UNL     1      -1.034  52.183 -23.167  1.00  0.00     0.010 C 
HETATM   41  C25 UNL     1      -1.781  51.483 -25.541  1.00  0.00     0.031 C 
HETATM   42  C17 UNL     1       0.327  52.597 -23.724  1.00  0.00     0.035 C 
HETATM   43  C18 UNL     1       0.156  52.982 -25.171  1.00  0.00    -0.068 C 
HETATM   44  C19 UNL     1       0.308  54.263 -25.550  1.00  0.00     0.053 C 
HETATM   45  C23 UNL     1      -0.351  51.859 -26.087  1.00  0.00    -0.014 C 
HETATM   46  C20 UNL     1      -0.155  54.730 -26.879  1.00  0.00     0.149 C 
HETATM   47  O6  UNL     1      -0.006  55.906 -27.195  1.00  0.00    -0.293 OA
HETATM   48  C21 UNL     1      -0.923  53.757 -27.737  1.00  0.00     0.084 C 
HETATM   49  C22 UNL     1      -0.364  52.354 -27.560  1.00  0.00     0.022 C 
HETATM   50  C24 UNL     1       0.644  50.671 -26.057  1.00  0.00     0.020 C 
HETATM   51  C26 UNL     1      -2.589  50.449 -26.380  1.00  0.00     0.124 C 
HETATM   52  C27 UNL     1      -3.963  50.091 -25.762  1.00  0.00     0.045 C 
HETATM   53  C29 UNL     1      -3.172  48.344 -24.090  1.00  0.00     0.019 C 
BRANCH  34  54
HETATM   54  O5  UNL     1      -6.013  50.857 -23.906  1.00  0.00    -0.381 OA
HETATM   55  H16 UNL     1      -6.589  50.557 -24.638  1.00  0.00     0.211 HD
ENDBRANCH  34  54
BRANCH  51  56
HETATM   56  O7  UNL     1      -1.847  49.256 -26.587  1.00  0.00    -0.395 OA
HETATM   57  H37 UNL     1      -2.341  48.712 -27.223  1.00  0.00     0.210 HD
ENDBRANCH  51  56
ENDBRANCH  32  34
ENDBRANCH  31  32
ENDBRANCH  30  31
ENDBRANCH   1  30
TORSDOF 18
ENDMDL
MODEL 4
REMARK minimizedAffinity -8.70561695
REMARK CNNscore 0.274224162
REMARK CNNaffinity 6.6291275
REMARK  18 active torsions:
REMARK  status: ('A' for Active; 'I' for Inactive)
REMARK    1  A    between atoms: C2_2  and  C4_4 
REMARK    2  A    between atoms: C4_4  and  N1_5 
REMARK    3  A    between atoms: C4_4  and  C30_38 
REMARK       I    between atoms: N1_5  and  C5_6 
REMARK    4  A    between atoms: C5_6  and  C6_8 
REMARK    5  A    between atoms: C6_8  and  C7_9 
REMARK    6  A    between atoms: C7_9  and  C8_10 
REMARK    7  A    between atoms: C8_10  and  O3_12 
REMARK    8  A    between atoms: O3_12  and  C9_13 
REMARK    9  A    between atoms: C9_13  and  C10_14 
REMARK   10  A    between atoms: C10_14  and  C11_16 
REMARK   11  A    between atoms: C11_16  and  O5_17 
REMARK   12  A    between atoms: C26_33  and  O7_34 
REMARK       I    between atoms: C30_38  and  N2_40 
REMARK   13  A    between atoms: N2_40  and  C31_41 
REMARK   14  A    between atoms: C31_41  and  C32_42 
REMARK   15  A    between atoms: C32_42  and  C33_43 
REMARK   16  A    between atoms: C32_42  and  C35_47 
REMARK   17  A    between atoms: C33_43  and  C34_44 
REMARK   18  A    between atoms: C34_44  and  O10_46 
ROOT
HETATM    1  C8  UNL     1      -3.409  49.102 -26.713  1.00  0.00     0.259 C 
HETATM    2  O2  UNL     1      -2.361  49.659 -27.017  1.00  0.00    -0.265 OA
ENDROOT
BRANCH   1   3
HETATM    3  C7  UNL     1      -3.648  48.411 -25.394  1.00  0.00     0.120 C 
BRANCH   3   4
HETATM    4  C6  UNL     1      -5.091  48.491 -24.914  1.00  0.00     0.112 C 
BRANCH   4   5
HETATM    5  C5  UNL     1      -5.167  48.487 -23.401  1.00  0.00     0.218 C 
HETATM    6  N1  UNL     1      -3.970  48.759 -22.779  1.00  0.00    -0.347 N 
HETATM    7  H9  UNL     1      -3.138  48.927 -23.331  1.00  0.00     0.163 HD
HETATM    8  O1  UNL     1      -6.210  48.285 -22.792  1.00  0.00    -0.274 OA
BRANCH   6   9
HETATM    9  C4  UNL     1      -3.843  48.695 -21.313  1.00  0.00     0.179 C 
BRANCH   9  10
HETATM   10  C2  UNL     1      -3.069  47.415 -20.910  1.00  0.00     0.009 C 
HETATM   11  C1  UNL     1      -3.964  46.170 -20.910  1.00  0.00     0.012 C 
HETATM   12  C3  UNL     1      -1.888  47.165 -21.857  1.00  0.00     0.012 C 
ENDBRANCH   9  10
BRANCH   9  13
HETATM   13  C30 UNL     1      -3.126  49.962 -20.783  1.00  0.00     0.240 C 
HETATM   14  O8  UNL     1      -3.274  51.070 -21.296  1.00  0.00    -0.271 OA
HETATM   15  N2  UNL     1      -2.468  49.790 -19.581  1.00  0.00    -0.359 N 
HETATM   16  H43 UNL     1      -2.470  48.867 -19.165  1.00  0.00     0.162 HD
BRANCH  15  17
HETATM   17  C31 UNL     1      -2.025  50.918 -18.779  1.00  0.00     0.132 C 
BRANCH  17  18
HETATM   18  C32 UNL     1      -0.483  51.028 -18.768  1.00  0.00     0.046 C 
BRANCH  18  19
HETATM   19  C33 UNL     1       0.094  51.358 -17.385  1.00  0.00     0.120 C 
BRANCH  19  20
HETATM   20  C34 UNL     1       0.361  50.167 -16.506  1.00  0.00     0.140 C 
HETATM   21  O9  UNL     1       0.127  48.998 -16.758  1.00  0.00    -0.650 OA
BRANCH  20  22
HETATM   22  O10 UNL     1       0.971  50.512 -15.356  1.00  0.00    -0.776 OA
HETATM   23  H49 UNL     1       1.105  49.663 -14.885  1.00  0.00     0.167 HD
ENDBRANCH  20  22
ENDBRANCH  19  20
ENDBRANCH  18  19
BRANCH  18  24
HETATM   24  C35 UNL     1       0.084  51.928 -19.862  1.00  0.00    -0.052 A 
HETATM   25  C36 UNL     1       0.272  51.482 -21.177  1.00  0.00     0.007 A 
HETATM   26  C37 UNL     1       0.798  52.334 -22.152  1.00  0.00     0.001 A 
HETATM   27  C38 UNL     1       1.143  53.644 -21.826  1.00  0.00     0.000 A 
HETATM   28  C39 UNL     1       0.955  54.105 -20.525  1.00  0.00     0.001 A 
HETATM   29  C40 UNL     1       0.423  53.256 -19.554  1.00  0.00     0.007 A 
ENDBRANCH  18  24
ENDBRANCH  17  18
ENDBRANCH  15  17
ENDBRANCH   9  13
ENDBRANCH   6   9
ENDBRANCH   4   5
ENDBRANCH   3   4
ENDBRANCH   1   3
BRANCH   1  30
HETATM   30  O3  UNL     1      -4.528  49.079 -27.491  1.00  0.00    -0.314 OA
BRANCH  30  31
HETATM   31  C9  UNL     1      -4.484  48.068 -28.502  1.00  0.00     0.260 C 
BRANCH  31  32
HETATM   32  C10 UNL     1      -5.305  48.427 -29.741  1.00  0.00     0.185 C 
HETATM   33  O4  UNL     1      -4.776  48.984 -30.718  1.00  0.00    -0.292 OA
BRANCH  32  34
HETATM   34  C11 UNL     1      -6.828  48.162 -29.779  1.00  0.00     0.128 C 
HETATM   35  C12 UNL     1      -7.651  48.851 -30.894  1.00  0.00     0.047 C 
HETATM   36  C13 UNL     1      -8.790  47.878 -31.265  1.00  0.00     0.009 C 
HETATM   37  C14 UNL     1      -8.749  46.815 -30.174  1.00  0.00     0.002 C 
HETATM   38  C15 UNL     1      -9.470  45.480 -30.410  1.00  0.00    -0.002 C 
HETATM   39  C28 UNL     1      -7.237  46.658 -29.880  1.00  0.00     0.001 C 
HETATM   40  C16 UNL     1     -10.942  45.714 -30.815  1.00  0.00     0.010 C 
HETATM   41  C25 UNL     1      -9.348  44.617 -29.100  1.00  0.00     0.031 C 
HETATM   42  C17 UNL     1     -11.760  44.425 -30.870  1.00  0.00     0.035 C 
HETATM   43  C18 UNL     1     -11.604  43.701 -29.557  1.00  0.00    -0.068 C 
HETATM   44  C19 UNL     1     -12.649  43.594 -28.717  1.00  0.00     0.053 C 
HETATM   45  C23 UNL     1     -10.168  43.277 -29.215  1.00  0.00    -0.014 C 
HETATM   46  C20 UNL     1     -12.460  43.179 -27.306  1.00  0.00     0.149 C 
HETATM   47  O6  UNL     1     -13.433  43.094 -26.564  1.00  0.00    -0.293 OA
HETATM   48  C21 UNL     1     -11.049  43.014 -26.805  1.00  0.00     0.084 C 
HETATM   49  C22 UNL     1     -10.170  42.441 -27.905  1.00  0.00     0.022 C 
HETATM   50  C24 UNL     1      -9.631  42.326 -30.314  1.00  0.00     0.020 C 
HETATM   51  C26 UNL     1      -7.871  44.483 -28.624  1.00  0.00     0.124 C 
HETATM   52  C27 UNL     1      -7.111  45.831 -28.578  1.00  0.00     0.045 C 
HETATM   53  C29 UNL     1      -6.465  45.973 -31.035  1.00  0.00     0.019 C 
BRANCH  34  54
HETATM   54  O5  UNL     1      -7.335  48.692 -28.530  1.00  0.00    -0.381 OA
HETATM   55  H16 UNL     1      -6.614  48.595 -27.876  1.00  0.00     0.211 HD
ENDBRANCH  34  54
BRANCH  51  56
HETATM   56  O7  UNL     1      -7.146  43.567 -29.432  1.00  0.00    -0.395 OA
HETATM   57  H37 UNL     1      -6.284  43.423 -29.008  1.00  0.00     0.210 HD
ENDBRANCH  51  56
ENDBRANCH  32  34
ENDBRANCH  31  32
ENDBRANCH  30  31
ENDBRANCH   1  30
TORSDOF 18
ENDMDL
MODEL 5
REMARK minimizedAffinity -9.64800453
REMARK CNNscore 0.260628074
REMARK CNNaffinity 6.12373686
REMARK  18 active torsions:
REMARK  status: ('A' for Active; 'I' for Inactive)
REMARK    1  A    between atoms: C2_2  and  C4_4 
REMARK    2  A    between atoms: C4_4  and  N1_5 
REMARK    3  A    between atoms: C4_4  and  C30_38 
REMARK       I    between atoms: N1_5  and  C5_6 
REMARK    4  A    between atoms: C5_6  and  C6_8 
REMARK    5  A    between atoms: C6_8  and  C7_9 
REMARK    6  A    between atoms: C7_9  and  C8_10 
REMARK    7  A    between atoms: C8_10  and  O3_12 
REMARK    8  A    between atoms: O3_12  and  C9_13 
REMARK    9  A    between atoms: C9_13  and  C10_14 
REMARK   10  A    between atoms: C10_14  and  C11_16 
REMARK   11  A    between atoms: C11_16  and  O5_17 
REMARK   12  A    between atoms: C26_33  and  O7_34 
REMARK       I    between atoms: C30_38  and  N2_40 
REMARK   13  A    between atoms: N2_40  and  C31_41 
REMARK   14  A    between atoms: C31_41  and  C32_42 
REMARK   15  A    between atoms: C32_42  and  C33_43 
REMARK   16  A    between atoms: C32_42  and  C35_47 
REMARK   17  A    between atoms: C33_43  and  C34_44 
REMARK   18  A    between atoms: C34_44  and  O10_46 
ROOT
HETATM    1  C8  UNL     1      -7.160  47.290 -27.183  1.00  0.00     0.259 C 
HETATM    2  O2  UNL     1      -6.913  47.121 -28.372  1.00  0.00    -0.265 OA
ENDROOT
BRANCH   1   3
HETATM    3  C7  UNL     1      -6.165  47.817 -26.179  1.00  0.00     0.120 C 
BRANCH   3   4
HETATM    4  C6  UNL     1      -4.794  48.111 -26.774  1.00  0.00     0.112 C 
BRANCH   4   5
HETATM    5  C5  UNL     1      -4.015  49.078 -25.906  1.00  0.00     0.218 C 
HETATM    6  N1  UNL     1      -4.797  50.020 -25.276  1.00  0.00    -0.347 N 
HETATM    7  H9  UNL     1      -5.798  50.029 -25.425  1.00  0.00     0.163 HD
HETATM    8  O1  UNL     1      -2.802  49.005 -25.761  1.00  0.00    -0.274 OA
BRANCH   6   9
HETATM    9  C4  UNL     1      -4.191  51.097 -24.476  1.00  0.00     0.179 C 
BRANCH   9  10
HETATM   10  C2  UNL     1      -4.340  50.776 -22.968  1.00  0.00     0.009 C 
HETATM   11  C1  UNL     1      -3.345  49.707 -22.499  1.00  0.00     0.012 C 
HETATM   12  C3  UNL     1      -4.138  52.035 -22.114  1.00  0.00     0.012 C 
ENDBRANCH   9  10
BRANCH   9  13
HETATM   13  C30 UNL     1      -2.700  51.272 -24.857  1.00  0.00     0.240 C 
HETATM   14  O8  UNL     1      -2.339  51.920 -25.838  1.00  0.00    -0.271 OA
HETATM   15  N2  UNL     1      -1.805  50.813 -23.910  1.00  0.00    -0.359 N 
HETATM   16  H43 UNL     1      -2.178  50.375 -23.076  1.00  0.00     0.162 HD
BRANCH  15  17
HETATM   17  C31 UNL     1      -0.400  51.180 -23.938  1.00  0.00     0.132 C 
BRANCH  17  18
HETATM   18  C32 UNL     1      -0.181  52.610 -23.393  1.00  0.00     0.046 C 
BRANCH  18  19
HETATM   19  C33 UNL     1       0.864  53.409 -24.184  1.00  0.00     0.120 C 
BRANCH  19  20
HETATM   20  C34 UNL     1       0.305  54.485 -25.073  1.00  0.00     0.140 C 
HETATM   21  O9  UNL     1       0.644  55.655 -25.116  1.00  0.00    -0.650 OA
BRANCH  20  22
HETATM   22  O10 UNL     1      -0.631  54.011 -25.916  1.00  0.00    -0.776 OA
HETATM   23  H49 UNL     1      -0.902  54.790 -26.446  1.00  0.00     0.167 HD
ENDBRANCH  20  22
ENDBRANCH  19  20
ENDBRANCH  18  19
BRANCH  18  24
HETATM   24  C35 UNL     1       0.058  52.672 -21.888  1.00  0.00    -0.052 A 
HETATM   25  C36 UNL     1       1.123  53.393 -21.328  1.00  0.00     0.007 A 
HETATM   26  C37 UNL     1       1.314  53.423 -19.944  1.00  0.00     0.001 A 
HETATM   27  C38 UNL     1       0.445  52.734 -19.101  1.00  0.00     0.000 A 
HETATM   28  C39 UNL     1      -0.622  52.020 -19.641  1.00  0.00     0.001 A 
HETATM   29  C40 UNL     1      -0.817  51.995 -21.022  1.00  0.00     0.007 A 
ENDBRANCH  18  24
ENDBRANCH  17  18
ENDBRANCH  15  17
ENDBRANCH   9  13
ENDBRANCH   6   9
ENDBRANCH   4   5
ENDBRANCH   3   4
ENDBRANCH   1   3
BRANCH   1  30
HETATM   30  O3  UNL     1      -8.378  47.085 -26.608  1.00  0.00    -0.314 OA
BRANCH  30  31
HETATM   31  C9  UNL     1      -9.463  47.230 -27.529  1.00  0.00     0.260 C 
BRANCH  31  32
HETATM   32  C10 UNL     1     -10.675  47.934 -26.919  1.00  0.00     0.185 C 
HETATM   33  O4  UNL     1     -10.544  48.717 -25.962  1.00  0.00    -0.292 OA
BRANCH  32  34
HETATM   34  C11 UNL     1     -12.100  47.637 -27.439  1.00  0.00     0.128 C 
HETATM   35  C12 UNL     1     -12.249  47.185 -28.912  1.00  0.00     0.047 C 
HETATM   36  C13 UNL     1     -13.436  46.200 -28.953  1.00  0.00     0.009 C 
HETATM   37  C14 UNL     1     -14.091  46.341 -27.584  1.00  0.00     0.002 C 
HETATM   38  C15 UNL     1     -15.061  45.250 -27.108  1.00  0.00    -0.002 C 
HETATM   39  C28 UNL     1     -12.890  46.558 -26.631  1.00  0.00     0.001 C 
HETATM   40  C16 UNL     1     -16.165  45.000 -28.159  1.00  0.00     0.010 C 
HETATM   41  C25 UNL     1     -15.656  45.692 -25.721  1.00  0.00     0.031 C 
HETATM   42  C17 UNL     1     -17.269  44.070 -27.658  1.00  0.00     0.035 C 
HETATM   43  C18 UNL     1     -17.792  44.608 -26.350  1.00  0.00    -0.068 C 
HETATM   44  C19 UNL     1     -19.038  45.108 -26.277  1.00  0.00     0.053 C 
HETATM   45  C23 UNL     1     -16.757  44.684 -25.218  1.00  0.00    -0.014 C 
HETATM   46  C20 UNL     1     -19.471  45.922 -25.115  1.00  0.00     0.149 C 
HETATM   47  O6  UNL     1     -20.613  46.367 -25.079  1.00  0.00    -0.293 OA
HETATM   48  C21 UNL     1     -18.432  46.286 -24.086  1.00  0.00     0.084 C 
HETATM   49  C22 UNL     1     -17.454  45.136 -23.905  1.00  0.00     0.022 C 
HETATM   50  C24 UNL     1     -16.199  43.268 -24.926  1.00  0.00     0.020 C 
HETATM   51  C26 UNL     1     -14.541  46.062 -24.697  1.00  0.00     0.124 C 
HETATM   52  C27 UNL     1     -13.468  47.019 -25.271  1.00  0.00     0.045 C 
HETATM   53  C29 UNL     1     -12.023  45.288 -26.451  1.00  0.00     0.019 C 
BRANCH  34  54
HETATM   54  O5  UNL     1     -12.810  48.895 -27.340  1.00  0.00    -0.381 OA
HETATM   55  H16 UNL     1     -12.417  49.375 -26.583  1.00  0.00     0.211 HD
ENDBRANCH  34  54
BRANCH  51  56
HETATM   56  O7  UNL     1     -13.903  44.901 -24.184  1.00  0.00    -0.395 OA
HETATM   57  H37 UNL     1     -13.321  45.184 -23.459  1.00  0.00     0.210 HD
ENDBRANCH  51  56
ENDBRANCH  32  34
ENDBRANCH  31  32
ENDBRANCH  30  31
ENDBRANCH   1  30
TORSDOF 18
ENDMDL
MODEL 6
REMARK minimizedAffinity -9.54085255
REMARK CNNscore 0.260266185
REMARK CNNaffinity 6.44952583
REMARK  18 active torsions:
REMARK  status: ('A' for Active; 'I' for Inactive)
REMARK    1  A    between atoms: C2_2  and  C4_4 
REMARK    2  A    between atoms: C4_4  and  N1_5 
REMARK    3  A    between atoms: C4_4  and  C30_38 
REMARK       I    between atoms: N1_5  and  C5_6 
REMARK    4  A    between atoms: C5_6  and  C6_8 
REMARK    5  A    between atoms: C6_8  and  C7_9 
REMARK    6  A    between atoms: C7_9  and  C8_10 
REMARK    7  A    between atoms: C8_10  and  O3_12 
REMARK    8  A    between atoms: O3_12  and  C9_13 
REMARK    9  A    between atoms: C9_13  and  C10_14 
REMARK   10  A    between atoms: C10_14  and  C11_16 
REMARK   11  A    between atoms: C11_16  and  O5_17 
REMARK   12  A    between atoms: C26_33  and  O7_34 
REMARK       I    between atoms: C30_38  and  N2_40 
REMARK   13  A    between atoms: N2_40  and  C31_41 
REMARK   14  A    between atoms: C31_41  and  C32_42 
REMARK   15  A    between atoms: C32_42  and  C33_43 
REMARK   16  A    between atoms: C32_42  and  C35_47 
REMARK   17  A    between atoms: C33_43  and  C34_44 
REMARK   18  A    between atoms: C34_44  and  O10_46 
ROOT
HETATM    1  C8  UNL     1      -7.855  47.300 -26.148  1.00  0.00     0.259 C 
HETATM    2  O2  UNL     1      -7.676  46.087 -26.168  1.00  0.00    -0.265 OA
ENDROOT
BRANCH   1   3
HETATM    3  C7  UNL     1      -7.533  48.183 -24.969  1.00  0.00     0.120 C 
BRANCH   3   4
HETATM    4  C6  UNL     1      -6.937  47.430 -23.786  1.00  0.00     0.112 C 
BRANCH   4   5
HETATM    5  C5  UNL     1      -5.485  47.805 -23.573  1.00  0.00     0.218 C 
HETATM    6  N1  UNL     1      -4.852  48.264 -24.705  1.00  0.00    -0.347 N 
HETATM    7  H9  UNL     1      -5.355  48.315 -25.583  1.00  0.00     0.163 HD
HETATM    8  O1  UNL     1      -4.937  47.730 -22.480  1.00  0.00    -0.274 OA
BRANCH   6   9
HETATM    9  C4  UNL     1      -3.413  48.577 -24.698  1.00  0.00     0.179 C 
BRANCH   9  10
HETATM   10  C2  UNL     1      -2.878  48.614 -26.151  1.00  0.00     0.009 C 
HETATM   11  C1  UNL     1      -4.007  48.659 -27.186  1.00  0.00     0.012 C 
HETATM   12  C3  UNL     1      -1.968  49.829 -26.371  1.00  0.00     0.012 C 
ENDBRANCH   9  10
BRANCH   9  13
HETATM   13  C30 UNL     1      -3.163  49.929 -23.984  1.00  0.00     0.240 C 
HETATM   14  O8  UNL     1      -3.789  50.950 -24.263  1.00  0.00    -0.271 OA
HETATM   15  N2  UNL     1      -2.328  49.855 -22.886  1.00  0.00    -0.359 N 
HETATM   16  H43 UNL     1      -1.923  48.956 -22.657  1.00  0.00     0.162 HD
BRANCH  15  17
HETATM   17  C31 UNL     1      -2.238  50.932 -21.915  1.00  0.00     0.132 C 
BRANCH  17  18
HETATM   18  C32 UNL     1      -0.908  50.870 -21.129  1.00  0.00     0.046 C 
BRANCH  18  19
HETATM   19  C33 UNL     1      -1.090  50.486 -19.655  1.00  0.00     0.120 C 
BRANCH  19  20
HETATM   20  C34 UNL     1      -2.414  50.873 -19.055  1.00  0.00     0.140 C 
HETATM   21  O9  UNL     1      -2.729  51.961 -18.604  1.00  0.00    -0.650 OA
BRANCH  20  22
HETATM   22  O10 UNL     1      -3.308  49.869 -19.106  1.00  0.00    -0.776 OA
HETATM   23  H49 UNL     1      -4.122  50.242 -18.708  1.00  0.00     0.167 HD
ENDBRANCH  20  22
ENDBRANCH  19  20
ENDBRANCH  18  19
BRANCH  18  24
HETATM   24  C35 UNL     1      -0.026  52.102 -21.302  1.00  0.00    -0.052 A 
HETATM   25  C36 UNL     1       0.274  52.638 -22.563  1.00  0.00     0.007 A 
HETATM   26  C37 UNL     1       1.090  53.766 -22.683  1.00  0.00     0.001 A 
HETATM   27  C38 UNL     1       1.617  54.374 -21.546  1.00  0.00     0.000 A 
HETATM   28  C39 UNL     1       1.322  53.859 -20.286  1.00  0.00     0.001 A 
HETATM   29  C40 UNL     1       0.502  52.737 -20.166  1.00  0.00     0.007 A 
ENDBRANCH  18  24
ENDBRANCH  17  18
ENDBRANCH  15  17
ENDBRANCH   9  13
ENDBRANCH   6   9
ENDBRANCH   4   5
ENDBRANCH   3   4
ENDBRANCH   1   3
BRANCH   1  30
HETATM   30  O3  UNL     1      -8.311  48.033 -27.202  1.00  0.00    -0.314 OA
BRANCH  30  31
HETATM   31  C9  UNL     1      -9.530  47.524 -27.751  1.00  0.00     0.260 C 
BRANCH  31  32
HETATM   32  C10 UNL     1     -10.772  48.002 -26.997  1.00  0.00     0.185 C 
HETATM   33  O4  UNL     1     -10.667  48.631 -25.930  1.00  0.00    -0.292 OA
BRANCH  32  34
HETATM   34  C11 UNL     1     -12.186  47.656 -27.514  1.00  0.00     0.128 C 
HETATM   35  C12 UNL     1     -12.313  47.123 -28.962  1.00  0.00     0.047 C 
HETATM   36  C13 UNL     1     -13.486  46.120 -28.960  1.00  0.00     0.009 C 
HETATM   37  C14 UNL     1     -14.157  46.326 -27.609  1.00  0.00     0.002 C 
HETATM   38  C15 UNL     1     -15.117  45.249 -27.083  1.00  0.00    -0.002 C 
HETATM   39  C28 UNL     1     -12.970  46.612 -26.656  1.00  0.00     0.001 C 
HETATM   40  C16 UNL     1     -16.206  44.927 -28.130  1.00  0.00     0.010 C 
HETATM   41  C25 UNL     1     -15.733  45.758 -25.728  1.00  0.00     0.031 C 
HETATM   42  C17 UNL     1     -17.303  44.009 -27.590  1.00  0.00     0.035 C 
HETATM   43  C18 UNL     1     -17.847  44.610 -26.319  1.00  0.00    -0.068 C 
HETATM   44  C19 UNL     1     -19.101  45.096 -26.285  1.00  0.00     0.053 C 
HETATM   45  C23 UNL     1     -16.826  44.762 -25.182  1.00  0.00    -0.014 C 
HETATM   46  C20 UNL     1     -19.557  45.965 -25.174  1.00  0.00     0.149 C 
HETATM   47  O6  UNL     1     -20.706  46.396 -25.173  1.00  0.00    -0.293 OA
HETATM   48  C21 UNL     1     -18.535  46.400 -24.156  1.00  0.00     0.084 C 
HETATM   49  C22 UNL     1     -17.543  45.275 -23.902  1.00  0.00     0.022 C 
HETATM   50  C24 UNL     1     -16.252  43.372 -24.808  1.00  0.00     0.020 C 
HETATM   51  C26 UNL     1     -14.635  46.198 -24.715  1.00  0.00     0.124 C 
HETATM   52  C27 UNL     1     -13.569  47.138 -25.329  1.00  0.00     0.045 C 
HETATM   53  C29 UNL     1     -12.087  45.366 -26.398  1.00  0.00     0.019 C 
BRANCH  34  54
HETATM   54  O5  UNL     1     -12.915  48.908 -27.491  1.00  0.00    -0.381 OA
HETATM   55  H16 UNL     1     -12.536  49.434 -26.758  1.00  0.00     0.211 HD
ENDBRANCH  34  54
BRANCH  51  56
HETATM   56  O7  UNL     1     -13.986  45.076 -24.133  1.00  0.00    -0.395 OA
HETATM   57  H37 UNL     1     -13.416  45.407 -23.419  1.00  0.00     0.210 HD
ENDBRANCH  51  56
ENDBRANCH  32  34
ENDBRANCH  31  32
ENDBRANCH  30  31
ENDBRANCH   1  30
TORSDOF 18
ENDMDL
MODEL 7
REMARK minimizedAffinity -9.87994194
REMARK CNNscore 0.258148789
REMARK CNNaffinity 6.39520836
REMARK  18 active torsions:
REMARK  status: ('A' for Active; 'I' for Inactive)
REMARK    1  A    between atoms: C2_2  and  C4_4 
REMARK    2  A    between atoms: C4_4  and  N1_5 
REMARK    3  A    between atoms: C4_4  and  C30_38 
REMARK       I    between atoms: N1_5  and  C5_6 
REMARK    4  A    between atoms: C5_6  and  C6_8 
REMARK    5  A    between atoms: C6_8  and  C7_9 
REMARK    6  A    between atoms: C7_9  and  C8_10 
REMARK    7  A    between atoms: C8_10  and  O3_12 
REMARK    8  A    between atoms: O3_12  and  C9_13 
REMARK    9  A    between atoms: C9_13  and  C10_14 
REMARK   10  A    between atoms: C10_14  and  C11_16 
REMARK   11  A    between atoms: C11_16  and  O5_17 
REMARK   12  A    between atoms: C26_33  and  O7_34 
REMARK       I    between atoms: C30_38  and  N2_40 
REMARK   13  A    between atoms: N2_40  and  C31_41 
REMARK   14  A    between atoms: C31_41  and  C32_42 
REMARK   15  A    between atoms: C32_42  and  C33_43 
REMARK   16  A    between atoms: C32_42  and  C35_47 
REMARK   17  A    between atoms: C33_43  and  C34_44 
REMARK   18  A    between atoms: C34_44  and  O10_46 
ROOT
HETATM    1  C8  UNL     1      -7.403  48.073 -23.642  1.00  0.00     0.259 C 
HETATM    2  O2  UNL     1      -7.193  46.867 -23.583  1.00  0.00    -0.265 OA
ENDROOT
BRANCH   1   3
HETATM    3  C7  UNL     1      -7.040  49.048 -22.551  1.00  0.00     0.120 C 
BRANCH   3   4
HETATM    4  C6  UNL     1      -6.430  50.345 -23.068  1.00  0.00     0.112 C 
BRANCH   4   5
HETATM    5  C5  UNL     1      -5.011  50.128 -23.552  1.00  0.00     0.218 C 
HETATM    6  N1  UNL     1      -4.733  50.727 -24.760  1.00  0.00    -0.347 N 
HETATM    7  H9  UNL     1      -5.454  51.245 -25.247  1.00  0.00     0.163 HD
HETATM    8  O1  UNL     1      -4.183  49.497 -22.909  1.00  0.00    -0.274 OA
BRANCH   6   9
HETATM    9  C4  UNL     1      -3.434  50.531 -25.423  1.00  0.00     0.179 C 
BRANCH   9  10
HETATM   10  C2  UNL     1      -3.625  49.698 -26.715  1.00  0.00     0.009 C 
HETATM   11  C1  UNL     1      -3.141  50.443 -27.965  1.00  0.00     0.012 C 
HETATM   12  C3  UNL     1      -2.876  48.362 -26.625  1.00  0.00     0.012 C 
ENDBRANCH   9  10
BRANCH   9  13
HETATM   13  C30 UNL     1      -2.785  51.902 -25.743  1.00  0.00     0.240 C 
HETATM   14  O8  UNL     1      -3.449  52.917 -25.944  1.00  0.00    -0.271 OA
HETATM   15  N2  UNL     1      -1.412  51.938 -25.595  1.00  0.00    -0.359 N 
HETATM   16  H43 UNL     1      -0.940  51.082 -25.331  1.00  0.00     0.162 HD
BRANCH  15  17
HETATM   17  C31 UNL     1      -0.679  53.190 -25.531  1.00  0.00     0.132 C 
BRANCH  17  18
HETATM   18  C32 UNL     1       0.704  52.998 -24.867  1.00  0.00     0.046 C 
BRANCH  18  19
HETATM   19  C33 UNL     1       1.456  51.760 -25.376  1.00  0.00     0.120 C 
BRANCH  19  20
HETATM   20  C34 UNL     1       1.783  51.774 -26.844  1.00  0.00     0.140 C 
HETATM   21  O9  UNL     1       1.003  51.667 -27.775  1.00  0.00    -0.650 OA
BRANCH  20  22
HETATM   22  O10 UNL     1       3.094  51.982 -27.070  1.00  0.00    -0.776 OA
HETATM   23  H49 UNL     1       3.178  51.987 -28.046  1.00  0.00     0.167 HD
ENDBRANCH  20  22
ENDBRANCH  19  20
ENDBRANCH  18  19
BRANCH  18  24
HETATM   24  C35 UNL     1       0.678  53.073 -23.344  1.00  0.00    -0.052 A 
HETATM   25  C36 UNL     1      -0.056  52.171 -22.561  1.00  0.00     0.007 A 
HETATM   26  C37 UNL     1      -0.059  52.274 -21.167  1.00  0.00     0.001 A 
HETATM   27  C38 UNL     1       0.669  53.280 -20.536  1.00  0.00     0.000 A 
HETATM   28  C39 UNL     1       1.410  54.179 -21.299  1.00  0.00     0.001 A 
HETATM   29  C40 UNL     1       1.420  54.072 -22.690  1.00  0.00     0.007 A 
ENDBRANCH  18  24
ENDBRANCH  17  18
ENDBRANCH  15  17
ENDBRANCH   9  13
ENDBRANCH   6   9
ENDBRANCH   4   5
ENDBRANCH   3   4
ENDBRANCH   1   3
BRANCH   1  30
HETATM   30  O3  UNL     1      -7.936  48.715 -24.720  1.00  0.00    -0.314 OA
BRANCH  30  31
HETATM   31  C9  UNL     1      -9.286  48.330 -24.989  1.00  0.00     0.260 C 
BRANCH  31  32
HETATM   32  C10 UNL     1      -9.500  47.866 -26.431  1.00  0.00     0.185 C 
HETATM   33  O4  UNL     1      -8.533  47.623 -27.173  1.00  0.00    -0.292 OA
BRANCH  32  34
HETATM   34  C11 UNL     1     -10.926  47.753 -27.016  1.00  0.00     0.128 C 
HETATM   35  C12 UNL     1     -11.062  47.540 -28.543  1.00  0.00     0.047 C 
HETATM   36  C13 UNL     1     -12.312  46.660 -28.755  1.00  0.00     0.009 C 
HETATM   37  C14 UNL     1     -12.995  46.639 -27.394  1.00  0.00     0.002 C 
HETATM   38  C15 UNL     1     -14.050  45.561 -27.107  1.00  0.00    -0.002 C 
HETATM   39  C28 UNL     1     -11.810  46.624 -26.396  1.00  0.00     0.001 C 
HETATM   40  C16 UNL     1     -15.137  45.552 -28.204  1.00  0.00     0.010 C 
HETATM   41  C25 UNL     1     -14.653  45.830 -25.680  1.00  0.00     0.031 C 
HETATM   42  C17 UNL     1     -16.316  44.638 -27.871  1.00  0.00     0.035 C 
HETATM   43  C18 UNL     1     -16.839  45.008 -26.507  1.00  0.00    -0.068 C 
HETATM   44  C19 UNL     1     -18.050  45.579 -26.380  1.00  0.00     0.053 C 
HETATM   45  C23 UNL     1     -15.835  44.838 -25.357  1.00  0.00    -0.014 C 
HETATM   46  C20 UNL     1     -18.460  46.237 -25.116  1.00  0.00     0.149 C 
HETATM   47  O6  UNL     1     -19.570  46.752 -25.033  1.00  0.00    -0.293 OA
HETATM   48  C21 UNL     1     -17.429  46.366 -24.025  1.00  0.00     0.084 C 
HETATM   49  C22 UNL     1     -16.537  45.135 -24.003  1.00  0.00     0.022 C 
HETATM   50  C24 UNL     1     -15.382  43.358 -25.275  1.00  0.00     0.020 C 
HETATM   51  C26 UNL     1     -13.546  45.960 -24.592  1.00  0.00     0.124 C 
HETATM   52  C27 UNL     1     -12.394  46.914 -24.993  1.00  0.00     0.045 C 
HETATM   53  C29 UNL     1     -11.036  45.282 -26.396  1.00  0.00     0.019 C 
BRANCH  34  54
HETATM   54  O5  UNL     1     -11.552  49.030 -26.739  1.00  0.00    -0.381 OA
HETATM   55  H16 UNL     1     -11.149  49.360 -25.911  1.00  0.00     0.211 HD
ENDBRANCH  34  54
BRANCH  51  56
HETATM   56  O7  UNL     1     -13.003  44.692 -24.250  1.00  0.00    -0.395 OA
HETATM   57  H37 UNL     1     -12.425  44.821 -23.480  1.00  0.00     0.210 HD
ENDBRANCH  51  56
ENDBRANCH  32  34
ENDBRANCH  31  32
ENDBRANCH  30  31
ENDBRANCH   1  30
TORSDOF 18
ENDMDL
MODEL 8
REMARK minimizedAffinity -9.37889671
REMARK CNNscore 0.250911415
REMARK CNNaffinity 6.39927673
REMARK  18 active torsions:
REMARK  status: ('A' for Active; 'I' for Inactive)
REMARK    1  A    between atoms: C2_2  and  C4_4 
REMARK    2  A    between atoms: C4_4  and  N1_5 
REMARK    3  A    between atoms: C4_4  and  C30_38 
REMARK       I    between atoms: N1_5  and  C5_6 
REMARK    4  A    between atoms: C5_6  and  C6_8 
REMARK    5  A    between atoms: C6_8  and  C7_9 
REMARK    6  A    between atoms: C7_9  and  C8_10 
REMARK    7  A    between atoms: C8_10  and  O3_12 
REMARK    8  A    between atoms: O3_12  and  C9_13 
REMARK    9  A    between atoms: C9_13  and  C10_14 
REMARK   10  A    between atoms: C10_14  and  C11_16 
REMARK   11  A    between atoms: C11_16  and  O5_17 
REMARK   12  A    between atoms: C26_33  and  O7_34 
REMARK       I    between atoms: C30_38  and  N2_40 
REMARK   13  A    between atoms: N2_40  and  C31_41 
REMARK   14  A    between atoms: C31_41  and  C32_42 
REMARK   15  A    between atoms: C32_42  and  C33_43 
REMARK   16  A    between atoms: C32_42  and  C35_47 
REMARK   17  A    between atoms: C33_43  and  C34_44 
REMARK   18  A    between atoms: C34_44  and  O10_46 
ROOT
HETATM    1  C8  UNL     1      -7.914  48.455 -24.563  1.00  0.00     0.259 C 
HETATM    2  O2  UNL     1      -7.287  47.462 -24.913  1.00  0.00    -0.265 OA
ENDROOT
BRANCH   1   3
HETATM    3  C7  UNL     1      -7.606  49.255 -23.322  1.00  0.00     0.120 C 
BRANCH   3   4
HETATM    4  C6  UNL     1      -6.636  48.563 -22.373  1.00  0.00     0.112 C 
BRANCH   4   5
HETATM    5  C5  UNL     1      -5.472  49.467 -22.023  1.00  0.00     0.218 C 
HETATM    6  N1  UNL     1      -4.236  48.898 -22.232  1.00  0.00    -0.347 N 
HETATM    7  H9  UNL     1      -4.167  47.948 -22.579  1.00  0.00     0.163 HD
HETATM    8  O1  UNL     1      -5.624  50.612 -21.617  1.00  0.00    -0.274 OA
BRANCH   6   9
HETATM    9  C4  UNL     1      -3.001  49.601 -21.850  1.00  0.00     0.179 C 
BRANCH   9  10
HETATM   10  C2  UNL     1      -2.071  48.639 -21.069  1.00  0.00     0.009 C 
HETATM   11  C1  UNL     1      -1.995  47.251 -21.715  1.00  0.00     0.012 C 
HETATM   12  C3  UNL     1      -0.649  49.207 -20.971  1.00  0.00     0.012 C 
ENDBRANCH   9  10
BRANCH   9  13
HETATM   13  C30 UNL     1      -2.289  50.154 -23.109  1.00  0.00     0.240 C 
HETATM   14  O8  UNL     1      -2.277  49.551 -24.181  1.00  0.00    -0.271 OA
HETATM   15  N2  UNL     1      -1.838  51.455 -22.992  1.00  0.00    -0.359 N 
HETATM   16  H43 UNL     1      -1.970  51.925 -22.105  1.00  0.00     0.162 HD
BRANCH  15  17
HETATM   17  C31 UNL     1      -1.448  52.241 -24.150  1.00  0.00     0.132 C 
BRANCH  17  18
HETATM   18  C32 UNL     1       0.089  52.395 -24.231  1.00  0.00     0.046 C 
BRANCH  18  19
HETATM   19  C33 UNL     1       0.607  53.674 -23.560  1.00  0.00     0.120 C 
BRANCH  19  20
HETATM   20  C34 UNL     1       1.160  53.487 -22.174  1.00  0.00     0.140 C 
HETATM   21  O9  UNL     1       1.280  52.438 -21.564  1.00  0.00    -0.650 OA
BRANCH  20  22
HETATM   22  O10 UNL     1       1.592  54.644 -21.639  1.00  0.00    -0.776 OA
HETATM   23  H49 UNL     1       1.939  54.393 -20.758  1.00  0.00     0.167 HD
ENDBRANCH  20  22
ENDBRANCH  19  20
ENDBRANCH  18  19
BRANCH  18  24
HETATM   24  C35 UNL     1       0.659  52.204 -25.633  1.00  0.00    -0.052 A 
HETATM   25  C36 UNL     1      -0.065  52.533 -26.788  1.00  0.00     0.007 A 
HETATM   26  C37 UNL     1       0.490  52.340 -28.056  1.00  0.00     0.001 A 
HETATM   27  C38 UNL     1       1.773  51.815 -28.188  1.00  0.00     0.000 A 
HETATM   28  C39 UNL     1       2.508  51.490 -27.051  1.00  0.00     0.001 A 
HETATM   29  C40 UNL     1       1.958  51.690 -25.784  1.00  0.00     0.007 A 
ENDBRANCH  18  24
ENDBRANCH  17  18
ENDBRANCH  15  17
ENDBRANCH   9  13
ENDBRANCH   6   9
ENDBRANCH   4   5
ENDBRANCH   3   4
ENDBRANCH   1   3
BRANCH   1  30
HETATM   30  O3  UNL     1      -8.936  49.015 -25.269  1.00  0.00    -0.314 OA
BRANCH  30  31
HETATM   31  C9  UNL     1     -10.015  48.107 -25.506  1.00  0.00     0.260 C 
BRANCH  31  32
HETATM   32  C10 UNL     1     -10.266  47.852 -26.993  1.00  0.00     0.185 C 
HETATM   33  O4  UNL     1      -9.332  47.885 -27.813  1.00  0.00    -0.292 OA
BRANCH  32  34
HETATM   34  C11 UNL     1     -11.700  47.613 -27.518  1.00  0.00     0.128 C 
HETATM   35  C12 UNL     1     -11.866  47.227 -29.007  1.00  0.00     0.047 C 
HETATM   36  C13 UNL     1     -13.079  46.275 -29.083  1.00  0.00     0.009 C 
HETATM   37  C14 UNL     1     -13.724  46.376 -27.706  1.00  0.00     0.002 C 
HETATM   38  C15 UNL     1     -14.720  45.292 -27.271  1.00  0.00    -0.002 C 
HETATM   39  C28 UNL     1     -12.515  46.523 -26.751  1.00  0.00     0.001 C 
HETATM   40  C16 UNL     1     -15.835  45.114 -28.325  1.00  0.00     0.010 C 
HETATM   41  C25 UNL     1     -15.298  45.691 -25.863  1.00  0.00     0.031 C 
HETATM   42  C17 UNL     1     -16.961  44.193 -27.857  1.00  0.00     0.035 C 
HETATM   43  C18 UNL     1     -17.464  44.689 -26.526  1.00  0.00    -0.068 C 
HETATM   44  C19 UNL     1     -18.697  45.218 -26.425  1.00  0.00     0.053 C 
HETATM   45  C23 UNL     1     -16.423  44.692 -25.397  1.00  0.00    -0.014 C 
HETATM   46  C20 UNL     1     -19.103  45.994 -25.229  1.00  0.00     0.149 C 
HETATM   47  O6  UNL     1     -20.233  46.466 -25.168  1.00  0.00    -0.293 OA
HETATM   48  C21 UNL     1     -18.051  46.288 -24.191  1.00  0.00     0.084 C 
HETATM   49  C22 UNL     1     -17.103  45.106 -24.062  1.00  0.00     0.022 C 
HETATM   50  C24 UNL     1     -15.901  43.250 -25.167  1.00  0.00     0.020 C 
HETATM   51  C26 UNL     1     -14.170  45.989 -24.831  1.00  0.00     0.124 C 
HETATM   52  C27 UNL     1     -13.074  46.941 -25.370  1.00  0.00     0.045 C 
HETATM   53  C29 UNL     1     -11.680  45.224 -26.628  1.00  0.00     0.019 C 
BRANCH  34  54
HETATM   54  O5  UNL     1     -12.377  48.885 -27.363  1.00  0.00    -0.381 OA
HETATM   55  H16 UNL     1     -11.968  49.322 -26.589  1.00  0.00     0.211 HD
ENDBRANCH  34  54
BRANCH  51  56
HETATM   56  O7  UNL     1     -13.560  44.792 -24.370  1.00  0.00    -0.395 OA
HETATM   57  H37 UNL     1     -12.968  45.030 -23.637  1.00  0.00     0.210 HD
ENDBRANCH  51  56
ENDBRANCH  32  34
ENDBRANCH  31  32
ENDBRANCH  30  31
ENDBRANCH   1  30
TORSDOF 18
ENDMDL
MODEL 9
REMARK minimizedAffinity -9.43211651
REMARK CNNscore 0.24514778
REMARK CNNaffinity 6.65744638
REMARK  18 active torsions:
REMARK  status: ('A' for Active; 'I' for Inactive)
REMARK    1  A    between atoms: C2_2  and  C4_4 
REMARK    2  A    between atoms: C4_4  and  N1_5 
REMARK    3  A    between atoms: C4_4  and  C30_38 
REMARK       I    between atoms: N1_5  and  C5_6 
REMARK    4  A    between atoms: C5_6  and  C6_8 
REMARK    5  A    between atoms: C6_8  and  C7_9 
REMARK    6  A    between atoms: C7_9  and  C8_10 
REMARK    7  A    between atoms: C8_10  and  O3_12 
REMARK    8  A    between atoms: O3_12  and  C9_13 
REMARK    9  A    between atoms: C9_13  and  C10_14 
REMARK   10  A    between atoms: C10_14  and  C11_16 
REMARK   11  A    between atoms: C11_16  and  O5_17 
REMARK   12  A    between atoms: C26_33  and  O7_34 
REMARK       I    between atoms: C30_38  and  N2_40 
REMARK   13  A    between atoms: N2_40  and  C31_41 
REMARK   14  A    between atoms: C31_41  and  C32_42 
REMARK   15  A    between atoms: C32_42  and  C33_43 
REMARK   16  A    between atoms: C32_42  and  C35_47 
REMARK   17  A    between atoms: C33_43  and  C34_44 
REMARK   18  A    between atoms: C34_44  and  O10_46 
ROOT
HETATM    1  C8  UNL     1      -6.198  47.507 -29.239  1.00  0.00     0.259 C 
HETATM    2  O2  UNL     1      -6.300  47.155 -30.408  1.00  0.00    -0.265 OA
ENDROOT
BRANCH   1   3
HETATM    3  C7  UNL     1      -4.972  48.167 -28.658  1.00  0.00     0.120 C 
BRANCH   3   4
HETATM    4  C6  UNL     1      -4.901  48.094 -27.138  1.00  0.00     0.112 C 
BRANCH   4   5
HETATM    5  C5  UNL     1      -4.178  49.295 -26.565  1.00  0.00     0.218 C 
HETATM    6  N1  UNL     1      -4.588  49.645 -25.298  1.00  0.00    -0.347 N 
HETATM    7  H9  UNL     1      -5.322  49.120 -24.839  1.00  0.00     0.163 HD
HETATM    8  O1  UNL     1      -3.290  49.882 -27.170  1.00  0.00    -0.274 OA
BRANCH   6   9
HETATM    9  C4  UNL     1      -4.060  50.849 -24.635  1.00  0.00     0.179 C 
BRANCH   9  10
HETATM   10  C2  UNL     1      -5.157  51.475 -23.737  1.00  0.00     0.009 C 
HETATM   11  C1  UNL     1      -5.990  50.412 -23.010  1.00  0.00     0.012 C 
HETATM   12  C3  UNL     1      -4.542  52.410 -22.688  1.00  0.00     0.012 C 
ENDBRANCH   9  10
BRANCH   9  13
HETATM   13  C30 UNL     1      -2.803  50.493 -23.802  1.00  0.00     0.240 C 
HETATM   14  O8  UNL     1      -2.600  49.364 -23.361  1.00  0.00    -0.271 OA
HETATM   15  N2  UNL     1      -1.842  51.484 -23.758  1.00  0.00    -0.359 N 
HETATM   16  H43 UNL     1      -2.039  52.359 -24.229  1.00  0.00     0.162 HD
BRANCH  15  17
HETATM   17  C31 UNL     1      -0.485  51.219 -23.312  1.00  0.00     0.132 C 
BRANCH  17  18
HETATM   18  C32 UNL     1       0.511  52.242 -23.908  1.00  0.00     0.046 C 
BRANCH  18  19
HETATM   19  C33 UNL     1       0.455  53.614 -23.223  1.00  0.00     0.120 C 
BRANCH  19  20
HETATM   20  C34 UNL     1       1.331  53.756 -22.009  1.00  0.00     0.140 C 
HETATM   21  O9  UNL     1       1.522  52.926 -21.136  1.00  0.00    -0.650 OA
BRANCH  20  22
HETATM   22  O10 UNL     1       1.977  54.937 -21.984  1.00  0.00    -0.776 OA
HETATM   23  H49 UNL     1       2.520  54.903 -21.169  1.00  0.00     0.167 HD
ENDBRANCH  20  22
ENDBRANCH  19  20
ENDBRANCH  18  19
BRANCH  18  24
HETATM   24  C35 UNL     1       0.456  52.350 -25.428  1.00  0.00    -0.052 A 
HETATM   25  C36 UNL     1       0.811  51.285 -26.268  1.00  0.00     0.007 A 
HETATM   26  C37 UNL     1       0.752  51.423 -27.658  1.00  0.00     0.001 A 
HETATM   27  C38 UNL     1       0.338  52.626 -28.227  1.00  0.00     0.000 A 
HETATM   28  C39 UNL     1      -0.025  53.690 -27.406  1.00  0.00     0.001 A 
HETATM   29  C40 UNL     1       0.026  53.550 -26.018  1.00  0.00     0.007 A 
ENDBRANCH  18  24
ENDBRANCH  17  18
ENDBRANCH  15  17
ENDBRANCH   9  13
ENDBRANCH   6   9
ENDBRANCH   4   5
ENDBRANCH   3   4
ENDBRANCH   1   3
BRANCH   1  30
HETATM   30  O3  UNL     1      -7.192  47.411 -28.311  1.00  0.00    -0.314 OA
BRANCH  30  31
HETATM   31  C9  UNL     1      -8.488  47.259 -28.895  1.00  0.00     0.260 C 
BRANCH  31  32
HETATM   32  C10 UNL     1      -9.622  47.633 -27.939  1.00  0.00     0.185 C 
HETATM   33  O4  UNL     1      -9.381  48.153 -26.836  1.00  0.00    -0.292 OA
BRANCH  32  34
HETATM   34  C11 UNL     1     -11.091  47.312 -28.299  1.00  0.00     0.128 C 
HETATM   35  C12 UNL     1     -11.363  46.612 -29.653  1.00  0.00     0.047 C 
HETATM   36  C13 UNL     1     -12.581  45.691 -29.434  1.00  0.00     0.009 C 
HETATM   37  C14 UNL     1     -13.127  46.102 -28.073  1.00  0.00     0.002 C 
HETATM   38  C15 UNL     1     -14.094  45.158 -27.342  1.00  0.00    -0.002 C 
HETATM   39  C28 UNL     1     -11.852  46.432 -27.257  1.00  0.00     0.001 C 
HETATM   40  C16 UNL     1     -15.280  44.776 -28.253  1.00  0.00     0.010 C 
HETATM   41  C25 UNL     1     -14.568  45.867 -26.021  1.00  0.00     0.031 C 
HETATM   42  C17 UNL     1     -16.374  44.000 -27.519  1.00  0.00     0.035 C 
HETATM   43  C18 UNL     1     -16.780  44.785 -26.298  1.00  0.00    -0.068 C 
HETATM   44  C19 UNL     1     -18.000  45.347 -26.232  1.00  0.00     0.053 C 
HETATM   45  C23 UNL     1     -15.661  45.015 -25.270  1.00  0.00    -0.014 C 
HETATM   46  C20 UNL     1     -18.318  46.373 -25.210  1.00  0.00     0.149 C 
HETATM   47  O6  UNL     1     -19.440  46.869 -25.177  1.00  0.00    -0.293 OA
HETATM   48  C21 UNL     1     -17.195  46.867 -24.336  1.00  0.00     0.084 C 
HETATM   49  C22 UNL     1     -16.243  45.724 -24.017  1.00  0.00     0.022 C 
HETATM   50  C24 UNL     1     -15.129  43.650 -24.766  1.00  0.00     0.020 C 
HETATM   51  C26 UNL     1     -13.369  46.362 -25.159  1.00  0.00     0.124 C 
HETATM   52  C27 UNL     1     -12.312  47.152 -25.968  1.00  0.00     0.045 C 
HETATM   53  C29 UNL     1     -11.015  45.176 -26.910  1.00  0.00     0.019 C 
BRANCH  34  54
HETATM   54  O5  UNL     1     -11.751  48.599 -28.381  1.00  0.00    -0.381 OA
HETATM   55  H16 UNL     1     -11.287  49.188 -27.752  1.00  0.00     0.211 HD
ENDBRANCH  34  54
BRANCH  51  56
HETATM   56  O7  UNL     1     -12.732  45.284 -24.489  1.00  0.00    -0.395 OA
HETATM   57  H37 UNL     1     -12.089  45.665 -23.868  1.00  0.00     0.210 HD
ENDBRANCH  51  56
ENDBRANCH  32  34
ENDBRANCH  31  32
ENDBRANCH  30  31
ENDBRANCH   1  30
TORSDOF 18
ENDMDL
