MODEL 1
REMARK minimizedAffinity -10.2500238
REMARK  2 active torsions:
REMARK  status: ('A' for Active; 'I' for Inactive)
REMARK    1  A    between atoms: C1_2  and  C2_3 
REMARK       I    between atoms: C1_2  and  N2_16 
REMARK    2  A    between atoms: C10_14  and  O2_15 
ROOT
HETATM    1  O1  UNL     1      -0.184  50.194 -21.130  1.00  0.00    -0.267 OA
HETATM    2  C1  UNL     1      -0.978  50.510 -20.248  1.00  0.00     0.258 C 
HETATM    3  N2  UNL     1      -2.242  51.064 -20.457  1.00  0.00    -0.339 N 
HETATM    4  C11 UNL     1      -3.357  50.713 -19.557  1.00  0.00     0.127 C 
HETATM    5  C12 UNL     1      -4.634  50.297 -20.300  1.00  0.00     0.024 C 
HETATM    6  C13 UNL     1      -4.310  49.570 -21.602  1.00  0.00     0.037 C 
HETATM    7  C14 UNL     1      -3.500  50.467 -22.497  1.00  0.00    -0.060 C 
HETATM    8  C15 UNL     1      -3.407  50.288 -23.857  1.00  0.00    -0.015 C 
HETATM    9  C16 UNL     1      -2.661  51.293 -24.808  1.00  0.00     0.031 C 
HETATM   10  C17 UNL     1      -2.596  52.541 -23.981  1.00  0.00     0.019 C 
HETATM   11  C18 UNL     1      -1.693  51.996 -22.838  1.00  0.00     0.031 C 
HETATM   12  C19 UNL     1      -0.336  52.517 -23.182  1.00  0.00     0.124 C 
HETATM   13  N3  UNL     1      -0.039  51.897 -24.536  1.00  0.00    -0.407 N 
HETATM   14  C20 UNL     1       0.734  52.765 -25.409  1.00  0.00     0.117 C 
HETATM   15  C21 UNL     1       1.381  51.970 -26.542  1.00  0.00     0.019 C 
HETATM   16  C22 UNL     1       0.427  50.997 -27.235  1.00  0.00     0.004 C 
HETATM   17  C23 UNL     1      -1.010  51.155 -26.760  1.00  0.00     0.026 C 
HETATM   18  C24 UNL     1      -1.118  51.046 -25.225  1.00  0.00     0.086 C 
HETATM   19  C25 UNL     1      -2.670  51.600 -21.752  1.00  0.00     0.122 C 
ENDROOT
BRANCH   2  20
HETATM   20  C2  UNL     1      -0.511  50.256 -18.867  1.00  0.00     0.081 A 
HETATM   21  C3  UNL     1      -0.811  49.081 -18.210  1.00  0.00     0.108 A 
HETATM   22  N1  UNL     1      -0.400  48.795 -16.952  1.00  0.00    -0.363 N 
HETATM   23  C4  UNL     1       0.322  49.717 -16.265  1.00  0.00     0.067 A 
ATOM     24  H1  UNL     1      -0.630  47.897 -16.525  1.00  0.00     0.165 HD
HETATM   25  C5  UNL     1       0.779  49.474 -14.960  1.00  0.00     0.061 A 
HETATM   26  C9  UNL     1       0.637  50.970 -16.838  1.00  0.00     0.026 A 
HETATM   27 CL1  UNL     1       0.445  47.961 -14.176  1.00  0.00    -0.082 Cl
HETATM   28  C6  UNL     1       1.513  50.418 -14.233  1.00  0.00     0.026 A 
HETATM   29  C7  UNL     1       1.812  51.647 -14.804  1.00  0.00     0.003 A 
HETATM   30  C8  UNL     1       1.376  51.919 -16.097  1.00  0.00     0.017 A 
HETATM   31  C10 UNL     1       0.188  51.225 -18.150  1.00  0.00     0.095 A 
BRANCH  31  32
HETATM   32  O2  UNL     1       0.457  52.460 -18.701  1.00  0.00    -0.359 OA
HETATM   33  H5  UNL     1      -0.143  52.584 -19.473  1.00  0.00     0.217 HD
ENDBRANCH  31  32
ENDBRANCH   2  20
TORSDOF 2
ENDMDL
MODEL 2
REMARK minimizedAffinity -9.97702694
REMARK  2 active torsions:
REMARK  status: ('A' for Active; 'I' for Inactive)
REMARK    1  A    between atoms: C1_2  and  C2_3 
REMARK       I    between atoms: C1_2  and  N2_16 
REMARK    2  A    between atoms: C10_14  and  O2_15 
ROOT
HETATM    1  O1  UNL     1       0.029  50.525 -20.821  1.00  0.00    -0.267 OA
HETATM    2  C1  UNL     1      -0.775  50.873 -19.961  1.00  0.00     0.258 C 
HETATM    3  N2  UNL     1      -2.069  51.339 -20.203  1.00  0.00    -0.339 N 
HETATM    4  C11 UNL     1      -3.157  51.007 -19.263  1.00  0.00     0.127 C 
HETATM    5  C12 UNL     1      -4.415  50.460 -19.952  1.00  0.00     0.024 C 
HETATM    6  C13 UNL     1      -4.060  49.641 -21.191  1.00  0.00     0.037 C 
HETATM    7  C14 UNL     1      -3.306  50.499 -22.169  1.00  0.00    -0.060 C 
HETATM    8  C15 UNL     1      -3.213  50.207 -23.509  1.00  0.00    -0.015 C 
HETATM    9  C16 UNL     1      -2.530  51.164 -24.553  1.00  0.00     0.031 C 
HETATM   10  C17 UNL     1      -2.527  52.481 -23.838  1.00  0.00     0.019 C 
HETATM   11  C18 UNL     1      -1.588  52.087 -22.662  1.00  0.00     0.031 C 
HETATM   12  C19 UNL     1      -0.264  52.649 -23.066  1.00  0.00     0.124 C 
HETATM   13  N3  UNL     1       0.058  51.929 -24.364  1.00  0.00    -0.407 N 
HETATM   14  C20 UNL     1       0.776  52.758 -25.318  1.00  0.00     0.117 C 
HETATM   15  C21 UNL     1       1.457  51.903 -26.385  1.00  0.00     0.019 C 
HETATM   16  C22 UNL     1       0.554  50.824 -26.980  1.00  0.00     0.004 C 
HETATM   17  C23 UNL     1      -0.887  50.946 -26.504  1.00  0.00     0.026 C 
HETATM   18  C24 UNL     1      -0.979  50.965 -24.964  1.00  0.00     0.086 C 
HETATM   19  C25 UNL     1      -2.535  51.735 -21.535  1.00  0.00     0.122 C 
ENDROOT
BRANCH   2  20
HETATM   20  C2  UNL     1      -0.286  50.766 -18.569  1.00  0.00     0.081 A 
HETATM   21  C3  UNL     1       0.350  51.818 -17.945  1.00  0.00     0.108 A 
HETATM   22  N1  UNL     1       0.806  51.775 -16.671  1.00  0.00    -0.363 N 
HETATM   23  C4  UNL     1       0.670  50.629 -15.957  1.00  0.00     0.067 A 
ATOM     24  H1  UNL     1       1.246  52.595 -16.253  1.00  0.00     0.165 HD
HETATM   25  C5  UNL     1       1.120  50.528 -14.631  1.00  0.00     0.061 A 
HETATM   26  C9  UNL     1       0.074  49.481 -16.528  1.00  0.00     0.026 A 
HETATM   27 CL1  UNL     1       1.860  51.887 -13.845  1.00  0.00    -0.082 Cl
HETATM   28  C6  UNL     1       0.999  49.349 -13.885  1.00  0.00     0.026 A 
HETATM   29  C7  UNL     1       0.417  48.227 -14.457  1.00  0.00     0.003 A 
HETATM   30  C8  UNL     1      -0.041  48.294 -15.770  1.00  0.00     0.017 A 
HETATM   31  C10 UNL     1      -0.385  49.570 -17.857  1.00  0.00     0.095 A 
BRANCH  31  32
HETATM   32  O2  UNL     1      -0.931  48.444 -18.435  1.00  0.00    -0.359 OA
HETATM   33  H5  UNL     1      -0.939  48.577 -19.412  1.00  0.00     0.217 HD
ENDBRANCH  31  32
ENDBRANCH   2  20
TORSDOF 2
ENDMDL
MODEL 3
REMARK minimizedAffinity -9.70303249
REMARK  2 active torsions:
REMARK  status: ('A' for Active; 'I' for Inactive)
REMARK    1  A    between atoms: C1_2  and  C2_3 
REMARK       I    between atoms: C1_2  and  N2_16 
REMARK    2  A    between atoms: C10_14  and  O2_15 
ROOT
HETATM    1  O1  UNL     1      -2.778  48.900 -21.839  1.00  0.00    -0.267 OA
HETATM    2  C1  UNL     1      -3.192  49.739 -22.634  1.00  0.00     0.258 C 
HETATM    3  N2  UNL     1      -2.912  51.106 -22.587  1.00  0.00    -0.339 N 
HETATM    4  C11 UNL     1      -2.751  51.866 -23.842  1.00  0.00     0.127 C 
HETATM    5  C12 UNL     1      -1.485  52.734 -23.872  1.00  0.00     0.024 C 
HETATM    6  C13 UNL     1      -0.341  52.077 -23.104  1.00  0.00     0.037 C 
HETATM    7  C14 UNL     1      -0.747  51.864 -21.672  1.00  0.00    -0.060 C 
HETATM    8  C15 UNL     1       0.158  51.692 -20.651  1.00  0.00    -0.015 C 
HETATM    9  C16 UNL     1      -0.259  51.590 -19.139  1.00  0.00     0.031 C 
HETATM   10  C17 UNL     1      -1.632  52.192 -19.136  1.00  0.00     0.019 C 
HETATM   11  C18 UNL     1      -2.333  51.135 -20.038  1.00  0.00     0.031 C 
HETATM   12  C19 UNL     1      -3.046  50.257 -19.061  1.00  0.00     0.124 C 
HETATM   13  N3  UNL     1      -1.932  49.680 -18.207  1.00  0.00    -0.407 N 
HETATM   14  C20 UNL     1      -2.316  49.483 -16.818  1.00  0.00     0.117 C 
HETATM   15  C21 UNL     1      -1.363  48.516 -16.117  1.00  0.00     0.019 C 
HETATM   16  C22 UNL     1       0.114  48.815 -16.370  1.00  0.00     0.004 C 
HETATM   17  C23 UNL     1       0.322  50.119 -17.127  1.00  0.00     0.026 C 
HETATM   18  C24 UNL     1      -0.486  50.150 -18.440  1.00  0.00     0.086 C 
HETATM   19  C25 UNL     1      -2.312  51.755 -21.418  1.00  0.00     0.122 C 
ENDROOT
BRANCH   2  20
HETATM   20  C2  UNL     1      -4.051  49.206 -23.715  1.00  0.00     0.081 A 
HETATM   21  C3  UNL     1      -5.337  48.776 -23.467  1.00  0.00     0.108 A 
HETATM   22  N1  UNL     1      -6.166  48.291 -24.421  1.00  0.00    -0.363 N 
HETATM   23  C4  UNL     1      -5.716  48.181 -25.698  1.00  0.00     0.067 A 
ATOM     24  H1  UNL     1      -7.119  48.011 -24.184  1.00  0.00     0.165 HD
HETATM   25  C5  UNL     1      -6.532  47.690 -26.728  1.00  0.00     0.061 A 
HETATM   26  C9  UNL     1      -4.396  48.552 -26.038  1.00  0.00     0.026 A 
HETATM   27 CL1  UNL     1      -8.171  47.214 -26.406  1.00  0.00    -0.082 Cl
HETATM   28  C6  UNL     1      -6.080  47.558 -28.046  1.00  0.00     0.026 A 
HETATM   29  C7  UNL     1      -4.780  47.920 -28.368  1.00  0.00     0.003 A 
HETATM   30  C8  UNL     1      -3.945  48.413 -27.370  1.00  0.00     0.017 A 
HETATM   31  C10 UNL     1      -3.567  49.051 -25.013  1.00  0.00     0.095 A 
BRANCH  31  32
HETATM   32  O2  UNL     1      -2.265  49.377 -25.329  1.00  0.00    -0.359 OA
HETATM   33  H5  UNL     1      -1.754  49.433 -24.488  1.00  0.00     0.217 HD
ENDBRANCH  31  32
ENDBRANCH   2  20
TORSDOF 2
ENDMDL
MODEL 4
REMARK minimizedAffinity -9.66150379
REMARK  2 active torsions:
REMARK  status: ('A' for Active; 'I' for Inactive)
REMARK    1  A    between atoms: C1_2  and  C2_3 
REMARK       I    between atoms: C1_2  and  N2_16 
REMARK    2  A    between atoms: C10_14  and  O2_15 
ROOT
HETATM    1  O1  UNL     1      -3.406  50.401 -23.056  1.00  0.00    -0.267 OA
HETATM    2  C1  UNL     1      -3.784  49.234 -22.991  1.00  0.00     0.258 C 
HETATM    3  N2  UNL     1      -3.520  48.355 -21.940  1.00  0.00    -0.339 N 
HETATM    4  C11 UNL     1      -4.536  47.361 -21.541  1.00  0.00     0.127 C 
HETATM    5  C12 UNL     1      -4.807  47.337 -20.030  1.00  0.00     0.024 C 
HETATM    6  C13 UNL     1      -4.666  48.727 -19.416  1.00  0.00     0.037 C 
HETATM    7  C14 UNL     1      -3.275  49.249 -19.651  1.00  0.00    -0.060 C 
HETATM    8  C15 UNL     1      -2.709  50.247 -18.894  1.00  0.00    -0.015 C 
HETATM    9  C16 UNL     1      -1.216  50.709 -19.058  1.00  0.00     0.031 C 
HETATM   10  C17 UNL     1      -0.589  49.548 -19.770  1.00  0.00     0.019 C 
HETATM   11  C18 UNL     1      -1.407  49.638 -21.091  1.00  0.00     0.031 C 
HETATM   12  C19 UNL     1      -0.476  50.328 -22.035  1.00  0.00     0.124 C 
HETATM   13  N3  UNL     1      -0.229  51.677 -21.383  1.00  0.00    -0.407 N 
HETATM   14  C20 UNL     1       1.119  52.180 -21.597  1.00  0.00     0.117 C 
HETATM   15  C21 UNL     1       1.193  53.682 -21.330  1.00  0.00     0.019 C 
HETATM   16  C22 UNL     1       0.514  54.112 -20.031  1.00  0.00     0.004 C 
HETATM   17  C23 UNL     1       0.059  52.925 -19.193  1.00  0.00     0.026 C 
HETATM   18  C24 UNL     1      -0.839  51.967 -20.002  1.00  0.00     0.086 C 
HETATM   19  C25 UNL     1      -2.520  48.630 -20.905  1.00  0.00     0.122 C 
ENDROOT
BRANCH   2  20
HETATM   20  C2  UNL     1      -4.586  48.772 -24.146  1.00  0.00     0.081 A 
HETATM   21  C3  UNL     1      -5.872  48.300 -23.988  1.00  0.00     0.108 A 
HETATM   22  N1  UNL     1      -6.651  47.877 -25.010  1.00  0.00    -0.363 N 
HETATM   23  C4  UNL     1      -6.147  47.876 -26.271  1.00  0.00     0.067 A 
ATOM     24  H1  UNL     1      -7.606  47.562 -24.836  1.00  0.00     0.165 HD
HETATM   25  C5  UNL     1      -6.910  47.453 -27.371  1.00  0.00     0.061 A 
HETATM   26  C9  UNL     1      -4.822  48.297 -26.526  1.00  0.00     0.026 A 
HETATM   27 CL1  UNL     1      -8.549  46.924 -27.156  1.00  0.00    -0.082 Cl
HETATM   28  C6  UNL     1      -6.401  47.434 -28.675  1.00  0.00     0.026 A 
HETATM   29  C7  UNL     1      -5.097  47.844 -28.912  1.00  0.00     0.003 A 
HETATM   30  C8  UNL     1      -4.314  48.272 -27.844  1.00  0.00     0.017 A 
HETATM   31  C10 UNL     1      -4.046  48.729 -25.431  1.00  0.00     0.095 A 
BRANCH  31  32
HETATM   32  O2  UNL     1      -2.740  49.102 -25.665  1.00  0.00    -0.359 OA
HETATM   33  H5  UNL     1      -2.265  49.102 -24.801  1.00  0.00     0.217 HD
ENDBRANCH  31  32
ENDBRANCH   2  20
TORSDOF 2
ENDMDL
MODEL 5
REMARK minimizedAffinity -9.57545471
REMARK  2 active torsions:
REMARK  status: ('A' for Active; 'I' for Inactive)
REMARK    1  A    between atoms: C1_2  and  C2_3 
REMARK       I    between atoms: C1_2  and  N2_16 
REMARK    2  A    between atoms: C10_14  and  O2_15 
ROOT
HETATM    1  O1  UNL     1      -3.370  48.713 -24.726  1.00  0.00    -0.267 OA
HETATM    2  C1  UNL     1      -3.659  49.305 -25.761  1.00  0.00     0.258 C 
HETATM    3  N2  UNL     1      -3.197  50.571 -26.126  1.00  0.00    -0.339 N 
HETATM    4  C11 UNL     1      -2.922  50.874 -27.544  1.00  0.00     0.127 C 
HETATM    5  C12 UNL     1      -1.551  51.523 -27.775  1.00  0.00     0.024 C 
HETATM    6  C13 UNL     1      -0.514  51.004 -26.782  1.00  0.00     0.037 C 
HETATM    7  C14 UNL     1      -0.960  51.303 -25.377  1.00  0.00    -0.060 C 
HETATM    8  C15 UNL     1      -0.098  51.350 -24.308  1.00  0.00    -0.015 C 
HETATM    9  C16 UNL     1      -0.542  51.780 -22.863  1.00  0.00     0.031 C 
HETATM   10  C17 UNL     1      -1.822  52.518 -23.119  1.00  0.00     0.019 C 
HETATM   11  C18 UNL     1      -2.648  51.327 -23.684  1.00  0.00     0.031 C 
HETATM   12  C19 UNL     1      -3.484  50.896 -22.523  1.00  0.00     0.124 C 
HETATM   13  N3  UNL     1      -2.467  50.483 -21.474  1.00  0.00    -0.407 N 
HETATM   14  C20 UNL     1      -2.888  50.780 -20.115  1.00  0.00     0.117 C 
HETATM   15  C21 UNL     1      -2.082  49.972 -19.100  1.00  0.00     0.019 C 
HETATM   16  C22 UNL     1      -0.576  49.990 -19.355  1.00  0.00     0.004 C 
HETATM   17  C23 UNL     1      -0.186  50.954 -20.466  1.00  0.00     0.026 C 
HETATM   18  C24 UNL     1      -0.968  50.672 -21.765  1.00  0.00     0.086 C 
HETATM   19  C25 UNL     1      -2.529  51.474 -25.185  1.00  0.00     0.122 C 
ENDROOT
BRANCH   2  20
HETATM   20  C2  UNL     1      -4.569  48.571 -26.668  1.00  0.00     0.081 A 
HETATM   21  C3  UNL     1      -4.271  48.396 -28.003  1.00  0.00     0.108 A 
HETATM   22  N1  UNL     1      -5.063  47.724 -28.870  1.00  0.00    -0.363 N 
HETATM   23  C4  UNL     1      -6.242  47.212 -28.432  1.00  0.00     0.067 A 
ATOM     24  H1  UNL     1      -4.778  47.603 -29.843  1.00  0.00     0.165 HD
HETATM   25  C5  UNL     1      -7.101  46.503 -29.285  1.00  0.00     0.061 A 
HETATM   26  C9  UNL     1      -6.656  47.383 -27.091  1.00  0.00     0.026 A 
HETATM   27 CL1  UNL     1      -6.674  46.238 -30.947  1.00  0.00    -0.082 Cl
HETATM   28  C6  UNL     1      -8.325  45.980 -28.853  1.00  0.00     0.026 A 
HETATM   29  C7  UNL     1      -8.724  46.158 -27.536  1.00  0.00     0.003 A 
HETATM   30  C8  UNL     1      -7.894  46.855 -26.663  1.00  0.00     0.017 A 
HETATM   31  C10 UNL     1      -5.800  48.090 -26.223  1.00  0.00     0.095 A 
BRANCH  31  32
HETATM   32  O2  UNL     1      -6.215  48.295 -24.925  1.00  0.00    -0.359 OA
HETATM   33  H5  UNL     1      -5.666  49.020 -24.542  1.00  0.00     0.217 HD
ENDBRANCH  31  32
ENDBRANCH   2  20
TORSDOF 2
ENDMDL
MODEL 6
REMARK minimizedAffinity -9.32927132
REMARK  2 active torsions:
REMARK  status: ('A' for Active; 'I' for Inactive)
REMARK    1  A    between atoms: C1_2  and  C2_3 
REMARK       I    between atoms: C1_2  and  N2_16 
REMARK    2  A    between atoms: C10_14  and  O2_15 
ROOT
HETATM    1  O1  UNL     1      -1.734  49.155 -21.214  1.00  0.00    -0.267 OA
HETATM    2  C1  UNL     1      -2.293  49.429 -20.155  1.00  0.00     0.258 C 
HETATM    3  N2  UNL     1      -3.673  49.506 -19.964  1.00  0.00    -0.339 N 
HETATM    4  C11 UNL     1      -4.263  49.074 -18.682  1.00  0.00     0.127 C 
HETATM    5  C12 UNL     1      -5.454  48.121 -18.848  1.00  0.00     0.024 C 
HETATM    6  C13 UNL     1      -5.282  47.221 -20.070  1.00  0.00     0.037 C 
HETATM    7  C14 UNL     1      -5.161  48.065 -21.309  1.00  0.00    -0.060 C 
HETATM    8  C15 UNL     1      -5.411  47.585 -22.573  1.00  0.00    -0.015 C 
HETATM    9  C16 UNL     1      -5.403  48.493 -23.856  1.00  0.00     0.031 C 
HETATM   10  C17 UNL     1      -5.563  49.870 -23.284  1.00  0.00     0.019 C 
HETATM   11  C18 UNL     1      -4.231  49.928 -22.483  1.00  0.00     0.031 C 
HETATM   12  C19 UNL     1      -3.327  50.729 -23.363  1.00  0.00     0.124 C 
HETATM   13  N3  UNL     1      -3.233  49.907 -24.636  1.00  0.00    -0.407 N 
HETATM   14  C20 UNL     1      -3.127  50.718 -25.838  1.00  0.00     0.117 C 
HETATM   15  C21 UNL     1      -2.595  49.895 -27.011  1.00  0.00     0.019 C 
HETATM   16  C22 UNL     1      -3.281  48.539 -27.173  1.00  0.00     0.004 C 
HETATM   17  C23 UNL     1      -4.468  48.372 -26.235  1.00  0.00     0.026 C 
HETATM   18  C24 UNL     1      -4.073  48.625 -24.766  1.00  0.00     0.086 C 
HETATM   19  C25 UNL     1      -4.628  49.544 -21.075  1.00  0.00     0.122 C 
ENDROOT
BRANCH   2  20
HETATM   20  C2  UNL     1      -1.382  49.683 -19.016  1.00  0.00     0.081 A 
HETATM   21  C3  UNL     1      -1.195  48.748 -18.020  1.00  0.00     0.108 A 
HETATM   22  N1  UNL     1      -0.366  48.927 -16.965  1.00  0.00    -0.363 N 
HETATM   23  C4  UNL     1       0.304  50.101 -16.840  1.00  0.00     0.067 A 
ATOM     24  H1  UNL     1      -0.247  48.188 -16.271  1.00  0.00     0.165 HD
HETATM   25  C5  UNL     1       1.179  50.340 -15.769  1.00  0.00     0.061 A 
HETATM   26  C9  UNL     1       0.138  51.138 -17.785  1.00  0.00     0.026 A 
HETATM   27 CL1  UNL     1       1.449  49.123 -14.561  1.00  0.00    -0.082 Cl
HETATM   28  C6  UNL     1       1.868  51.550 -15.618  1.00  0.00     0.026 A 
HETATM   29  C7  UNL     1       1.693  52.563 -16.549  1.00  0.00     0.003 A 
HETATM   30  C8  UNL     1       0.834  52.358 -17.624  1.00  0.00     0.017 A 
HETATM   31  C10 UNL     1      -0.735  50.909 -18.868  1.00  0.00     0.095 A 
BRANCH  31  32
HETATM   32  O2  UNL     1      -0.933  51.930 -19.772  1.00  0.00    -0.359 OA
HETATM   33  H5  UNL     1      -1.751  51.729 -20.283  1.00  0.00     0.217 HD
ENDBRANCH  31  32
ENDBRANCH   2  20
TORSDOF 2
ENDMDL
MODEL 7
REMARK minimizedAffinity -9.32146263
REMARK  2 active torsions:
REMARK  status: ('A' for Active; 'I' for Inactive)
REMARK    1  A    between atoms: C1_2  and  C2_3 
REMARK       I    between atoms: C1_2  and  N2_16 
REMARK    2  A    between atoms: C10_14  and  O2_15 
ROOT
HETATM    1  O1  UNL     1       2.515  65.943 -37.841  1.00  0.00    -0.267 OA
HETATM    2  C1  UNL     1       2.641  67.124 -38.153  1.00  0.00     0.258 C 
HETATM    3  N2  UNL     1       3.792  67.892 -37.968  1.00  0.00    -0.339 N 
HETATM    4  C11 UNL     1       4.157  68.919 -38.962  1.00  0.00     0.127 C 
HETATM    5  C12 UNL     1       5.622  68.837 -39.415  1.00  0.00     0.024 C 
HETATM    6  C13 UNL     1       6.119  67.394 -39.437  1.00  0.00     0.037 C 
HETATM    7  C14 UNL     1       6.003  66.795 -38.062  1.00  0.00    -0.060 C 
HETATM    8  C15 UNL     1       6.727  65.700 -37.655  1.00  0.00    -0.015 C 
HETATM    9  C16 UNL     1       6.698  65.147 -36.184  1.00  0.00     0.031 C 
HETATM   10  C17 UNL     1       6.173  66.316 -35.405  1.00  0.00     0.019 C 
HETATM   11  C18 UNL     1       4.763  66.395 -36.057  1.00  0.00     0.031 C 
HETATM   12  C19 UNL     1       3.876  65.721 -35.061  1.00  0.00     0.124 C 
HETATM   13  N3  UNL     1       4.426  64.308 -34.979  1.00  0.00    -0.407 N 
HETATM   14  C20 UNL     1       4.328  63.729 -33.648  1.00  0.00     0.117 C 
HETATM   15  C21 UNL     1       4.463  62.209 -33.700  1.00  0.00     0.019 C 
HETATM   16  C22 UNL     1       5.630  61.723 -34.559  1.00  0.00     0.004 C 
HETATM   17  C23 UNL     1       6.513  62.865 -35.040  1.00  0.00     0.026 C 
HETATM   18  C24 UNL     1       5.694  63.949 -35.771  1.00  0.00     0.086 C 
HETATM   19  C25 UNL     1       4.908  67.461 -37.122  1.00  0.00     0.122 C 
ENDROOT
BRANCH   2  20
HETATM   20  C2  UNL     1       1.447  67.736 -38.777  1.00  0.00     0.081 A 
HETATM   21  C3  UNL     1       0.638  68.610 -38.082  1.00  0.00     0.108 A 
HETATM   22  N1  UNL     1      -0.457  69.205 -38.609  1.00  0.00    -0.363 N 
HETATM   23  C4  UNL     1      -0.821  68.914 -39.884  1.00  0.00     0.067 A 
ATOM     24  H1  UNL     1      -1.004  69.865 -38.054  1.00  0.00     0.165 HD
HETATM   25  C5  UNL     1      -1.944  69.503 -40.484  1.00  0.00     0.061 A 
HETATM   26  C9  UNL     1      -0.082  67.992 -40.659  1.00  0.00     0.026 A 
HETATM   27 CL1  UNL     1      -2.911  70.651 -39.611  1.00  0.00    -0.082 Cl
HETATM   28  C6  UNL     1      -2.340  69.204 -41.793  1.00  0.00     0.026 A 
HETATM   29  C7  UNL     1      -1.610  68.294 -42.543  1.00  0.00     0.003 A 
HETATM   30  C8  UNL     1      -0.489  67.692 -41.978  1.00  0.00     0.017 A 
HETATM   31  C10 UNL     1       1.051  67.396 -40.070  1.00  0.00     0.095 A 
BRANCH  31  32
HETATM   32  O2  UNL     1       1.755  66.466 -40.805  1.00  0.00    -0.359 OA
HETATM   33  H5  UNL     1       2.319  65.951 -40.182  1.00  0.00     0.217 HD
ENDBRANCH  31  32
ENDBRANCH   2  20
TORSDOF 2
ENDMDL
MODEL 8
REMARK minimizedAffinity -9.22020912
REMARK  2 active torsions:
REMARK  status: ('A' for Active; 'I' for Inactive)
REMARK    1  A    between atoms: C1_2  and  C2_3 
REMARK       I    between atoms: C1_2  and  N2_16 
REMARK    2  A    between atoms: C10_14  and  O2_15 
ROOT
HETATM    1  O1  UNL     1      -1.536  49.629 -21.402  1.00  0.00    -0.267 OA
HETATM    2  C1  UNL     1      -2.549  49.880 -20.756  1.00  0.00     0.258 C 
HETATM    3  N2  UNL     1      -3.691  50.511 -21.253  1.00  0.00    -0.339 N 
HETATM    4  C11 UNL     1      -5.024  50.113 -20.761  1.00  0.00     0.127 C 
HETATM    5  C12 UNL     1      -6.034  49.839 -21.885  1.00  0.00     0.024 C 
HETATM    6  C13 UNL     1      -5.351  49.247 -23.116  1.00  0.00     0.037 C 
HETATM    7  C14 UNL     1      -4.305  50.201 -23.625  1.00  0.00    -0.060 C 
HETATM    8  C15 UNL     1      -3.821  50.169 -24.911  1.00  0.00    -0.015 C 
HETATM    9  C16 UNL     1      -2.820  51.238 -25.481  1.00  0.00     0.031 C 
HETATM   10  C17 UNL     1      -2.986  52.383 -24.527  1.00  0.00     0.019 C 
HETATM   11  C18 UNL     1      -2.462  51.675 -23.245  1.00  0.00     0.031 C 
HETATM   12  C19 UNL     1      -1.057  52.169 -23.119  1.00  0.00     0.124 C 
HETATM   13  N3  UNL     1      -0.385  51.690 -24.393  1.00  0.00    -0.407 N 
HETATM   14  C20 UNL     1       0.619  52.614 -24.897  1.00  0.00     0.117 C 
HETATM   15  C21 UNL     1       1.559  51.920 -25.881  1.00  0.00     0.019 C 
HETATM   16  C22 UNL     1       0.839  51.075 -26.930  1.00  0.00     0.004 C 
HETATM   17  C23 UNL     1      -0.673  51.244 -26.875  1.00  0.00     0.026 C 
HETATM   18  C24 UNL     1      -1.225  50.970 -25.461  1.00  0.00     0.086 C 
HETATM   19  C25 UNL     1      -3.717  51.205 -22.543  1.00  0.00     0.122 C 
ENDROOT
BRANCH   2  20
HETATM   20  C2  UNL     1      -2.509  49.454 -19.339  1.00  0.00     0.081 A 
HETATM   21  C3  UNL     1      -2.382  48.126 -18.989  1.00  0.00     0.108 A 
HETATM   22  N1  UNL     1      -2.330  47.685 -17.711  1.00  0.00    -0.363 N 
HETATM   23  C4  UNL     1      -2.439  48.581 -16.696  1.00  0.00     0.067 A 
ATOM     24  H1  UNL     1      -2.209  46.692 -17.512  1.00  0.00     0.165 HD
HETATM   25  C5  UNL     1      -2.387  48.182 -15.351  1.00  0.00     0.061 A 
HETATM   26  C9  UNL     1      -2.621  49.958 -16.956  1.00  0.00     0.026 A 
HETATM   27 CL1  UNL     1      -2.162  46.512 -14.934  1.00  0.00    -0.082 Cl
HETATM   28  C6  UNL     1      -2.512  49.090 -14.293  1.00  0.00     0.026 A 
HETATM   29  C7  UNL     1      -2.695  50.439 -14.561  1.00  0.00     0.003 A 
HETATM   30  C8  UNL     1      -2.749  50.868 -15.883  1.00  0.00     0.017 A 
HETATM   31  C10 UNL     1      -2.671  50.372 -18.303  1.00  0.00     0.095 A 
BRANCH  31  32
HETATM   32  O2  UNL     1      -2.888  51.708 -18.565  1.00  0.00    -0.359 OA
HETATM   33  H5  UNL     1      -3.173  51.790 -19.505  1.00  0.00     0.217 HD
ENDBRANCH  31  32
ENDBRANCH   2  20
TORSDOF 2
ENDMDL
MODEL 9
REMARK minimizedAffinity -9.05691624
REMARK  2 active torsions:
REMARK  status: ('A' for Active; 'I' for Inactive)
REMARK    1  A    between atoms: C1_2  and  C2_3 
REMARK       I    between atoms: C1_2  and  N2_16 
REMARK    2  A    between atoms: C10_14  and  O2_15 
ROOT
HETATM    1  O1  UNL     1      -5.423  47.545 -28.809  1.00  0.00    -0.267 OA
HETATM    2  C1  UNL     1      -5.733  47.909 -27.679  1.00  0.00     0.258 C 
HETATM    3  N2  UNL     1      -6.995  47.765 -27.099  1.00  0.00    -0.339 N 
HETATM    4  C11 UNL     1      -7.113  47.488 -25.654  1.00  0.00     0.127 C 
HETATM    5  C12 UNL     1      -8.050  46.316 -25.332  1.00  0.00     0.024 C 
HETATM    6  C13 UNL     1      -7.998  45.245 -26.419  1.00  0.00     0.037 C 
HETATM    7  C14 UNL     1      -8.404  45.840 -27.739  1.00  0.00    -0.060 C 
HETATM    8  C15 UNL     1      -8.857  45.087 -28.796  1.00  0.00    -0.015 C 
HETATM    9  C16 UNL     1      -9.395  45.716 -30.132  1.00  0.00     0.031 C 
HETATM   10  C17 UNL     1      -9.717  47.123 -29.727  1.00  0.00     0.019 C 
HETATM   11  C18 UNL     1      -8.273  47.581 -29.372  1.00  0.00     0.031 C 
HETATM   12  C19 UNL     1      -7.842  48.350 -30.579  1.00  0.00     0.124 C 
HETATM   13  N3  UNL     1      -7.894  47.328 -31.701  1.00  0.00    -0.407 N 
HETATM   14  C20 UNL     1      -8.298  47.896 -32.978  1.00  0.00     0.117 C 
HETATM   15  C21 UNL     1      -7.914  46.976 -34.135  1.00  0.00     0.019 C 
HETATM   16  C22 UNL     1      -8.284  45.511 -33.905  1.00  0.00     0.004 C 
HETATM   17  C23 UNL     1      -9.112  45.311 -32.644  1.00  0.00     0.026 C 
HETATM   18  C24 UNL     1      -8.418  45.913 -31.405  1.00  0.00     0.086 C 
HETATM   19  C25 UNL     1      -8.188  47.409 -27.871  1.00  0.00     0.122 C 
ENDROOT
BRANCH   2  20
HETATM   20  C2  UNL     1      -4.643  48.544 -26.905  1.00  0.00     0.081 A 
HETATM   21  C3  UNL     1      -4.514  48.347 -25.547  1.00  0.00     0.108 A 
HETATM   22  N1  UNL     1      -3.530  48.894 -24.796  1.00  0.00    -0.363 N 
HETATM   23  C4  UNL     1      -2.624  49.716 -25.387  1.00  0.00     0.067 A 
ATOM     24  H1  UNL     1      -3.469  48.692 -23.798  1.00  0.00     0.165 HD
HETATM   25  C5  UNL     1      -1.580  50.308 -24.659  1.00  0.00     0.061 A 
HETATM   26  C9  UNL     1      -2.704  50.015 -26.766  1.00  0.00     0.026 A 
HETATM   27 CL1  UNL     1      -1.399  49.994 -22.961  1.00  0.00    -0.082 Cl
HETATM   28  C6  UNL     1      -0.646  51.167 -25.250  1.00  0.00     0.026 A 
HETATM   29  C7  UNL     1      -0.737  51.458 -26.604  1.00  0.00     0.003 A 
HETATM   30  C8  UNL     1      -1.760  50.886 -27.354  1.00  0.00     0.017 A 
HETATM   31  C10 UNL     1      -3.745  49.424 -27.509  1.00  0.00     0.095 A 
BRANCH  31  32
HETATM   32  O2  UNL     1      -3.854  49.743 -28.845  1.00  0.00    -0.359 OA
HETATM   33  H5  UNL     1      -4.759  49.491 -29.144  1.00  0.00     0.217 HD
ENDBRANCH  31  32
ENDBRANCH   2  20
TORSDOF 2
ENDMDL
