MODEL 1
REMARK minimizedAffinity -10.1854563
REMARK  10 active torsions:
REMARK  status: ('A' for Active; 'I' for Inactive)
REMARK    1  A    between atoms: C2_2  and  C3_3 
REMARK    2  A    between atoms: C2_2  and  C9_12 
REMARK    3  A    between atoms: C3_3  and  C4_4 
REMARK    4  A    between atoms: C4_4  and  O1_5 
REMARK    5  A    between atoms: C4_4  and  C5_6 
REMARK    6  A    between atoms: C5_6  and  O2_7 
REMARK    7  A    between atoms: C5_6  and  C6_8 
REMARK    8  A    between atoms: C6_8  and  O3_11 
REMARK    9  A    between atoms: C23_27  and  C25_29 
REMARK   10  A    between atoms: C25_29  and  O5_30 
ROOT
HETATM    1  C9  UNL     1       0.883   6.850  12.619  1.00  0.00    -0.002 C 
HETATM    2  C10 UNL     1       1.044   5.385  12.138  1.00  0.00     0.007 C 
HETATM    3  C11 UNL     1      -0.320   4.690  12.368  1.00  0.00     0.015 C 
HETATM    4  C12 UNL     1      -1.147   5.688  13.209  1.00  0.00    -0.013 C 
HETATM    5  C13 UNL     1      -0.751   5.430  14.701  1.00  0.00     0.021 C 
HETATM    6  C14 UNL     1      -2.669   5.595  13.178  1.00  0.00    -0.070 C 
HETATM    7  C15 UNL     1      -3.311   4.419  13.043  1.00  0.00    -0.022 C 
HETATM    8  C16 UNL     1      -4.799   4.243  13.151  1.00  0.00     0.034 C 
HETATM    9  C17 UNL     1      -5.604   5.562  13.218  1.00  0.00     0.015 C 
HETATM   10  C18 UNL     1      -4.852   6.639  14.084  1.00  0.00    -0.031 C 
HETATM   11  C19 UNL     1      -4.670   6.182  15.551  1.00  0.00     0.016 C 
HETATM   12  C20 UNL     1      -5.695   7.932  14.026  1.00  0.00     0.017 C 
HETATM   13  C21 UNL     1      -7.080   7.796  14.627  1.00  0.00     0.080 C 
HETATM   14  C22 UNL     1      -7.663   6.406  14.563  1.00  0.00     0.137 C 
HETATM   15  O4  UNL     1      -8.611   6.132  15.308  1.00  0.00    -0.297 OA
HETATM   16  C23 UNL     1      -7.152   5.409  13.513  1.00  0.00     0.043 C 
HETATM   17  C24 UNL     1      -7.939   5.735  12.221  1.00  0.00     0.026 C 
HETATM   18  C26 UNL     1      -3.448   6.896  13.398  1.00  0.00     0.024 C 
HETATM   19  C27 UNL     1      -2.598   8.016  14.054  1.00  0.00     0.010 C 
HETATM   20  C28 UNL     1      -1.166   8.211  13.497  1.00  0.00     0.011 C 
HETATM   21  C29 UNL     1      -0.665   7.057  12.609  1.00  0.00    -0.029 C 
HETATM   22  C30 UNL     1      -1.151   7.304  11.151  1.00  0.00     0.016 C 
ENDROOT
BRANCH   1  23
HETATM   23  C2  UNL     1       1.808   7.922  11.963  1.00  0.00    -0.011 C 
HETATM   24  C1  UNL     1       1.907   9.128  12.916  1.00  0.00     0.010 C 
BRANCH  23  25
HETATM   25  C3  UNL     1       3.227   7.439  11.557  1.00  0.00     0.039 C 
BRANCH  25  26
HETATM   26  C4  UNL     1       3.577   7.709  10.077  1.00  0.00     0.150 C 
BRANCH  26  27
HETATM   27  O1  UNL     1       4.942   7.307   9.873  1.00  0.00    -0.393 OA
HETATM   28  H8  UNL     1       5.078   7.237   8.902  1.00  0.00     0.210 HD
ENDBRANCH  26  27
BRANCH  26  29
HETATM   29  C5  UNL     1       2.656   6.911   9.113  1.00  0.00     0.180 C 
BRANCH  29  30
HETATM   30  O2  UNL     1       3.409   5.800   8.592  1.00  0.00    -0.390 OA
HETATM   31  H10 UNL     1       4.268   6.178   8.311  1.00  0.00     0.210 HD
ENDBRANCH  29  30
BRANCH  29  32
HETATM   32  C6  UNL     1       2.098   7.750   7.921  1.00  0.00     0.079 C 
HETATM   33  C7  UNL     1       0.747   8.389   8.256  1.00  0.00     0.048 C 
HETATM   34  C8  UNL     1       1.961   6.882   6.662  1.00  0.00     0.048 C 
BRANCH  32  35
HETATM   35  O3  UNL     1       3.019   8.818   7.637  1.00  0.00    -0.388 OA
HETATM   36  H17 UNL     1       2.770   9.197   6.775  1.00  0.00     0.210 HD
ENDBRANCH  32  35
ENDBRANCH  29  32
ENDBRANCH  26  29
ENDBRANCH  25  26
ENDBRANCH  23  25
ENDBRANCH   1  23
BRANCH  16  37
HETATM   37  C25 UNL     1      -7.583   4.000  13.999  1.00  0.00     0.181 C 
BRANCH  37  38
HETATM   38  O5  UNL     1      -8.623   3.442  13.204  1.00  0.00    -0.400 OA
HETATM   39  H42 UNL     1      -9.470   3.717  13.596  1.00  0.00     0.209 HD
ENDBRANCH  37  38
ENDBRANCH  16  37
TORSDOF 10
ENDMDL
MODEL 2
REMARK minimizedAffinity -9.53331566
REMARK  10 active torsions:
REMARK  status: ('A' for Active; 'I' for Inactive)
REMARK    1  A    between atoms: C2_2  and  C3_3 
REMARK    2  A    between atoms: C2_2  and  C9_12 
REMARK    3  A    between atoms: C3_3  and  C4_4 
REMARK    4  A    between atoms: C4_4  and  O1_5 
REMARK    5  A    between atoms: C4_4  and  C5_6 
REMARK    6  A    between atoms: C5_6  and  O2_7 
REMARK    7  A    between atoms: C5_6  and  C6_8 
REMARK    8  A    between atoms: C6_8  and  O3_11 
REMARK    9  A    between atoms: C23_27  and  C25_29 
REMARK   10  A    between atoms: C25_29  and  O5_30 
ROOT
HETATM    1  C9  UNL     1       0.954   7.252  12.579  1.00  0.00    -0.002 C 
HETATM    2  C10 UNL     1       1.205   5.771  12.197  1.00  0.00     0.007 C 
HETATM    3  C11 UNL     1      -0.118   5.013  12.465  1.00  0.00     0.015 C 
HETATM    4  C12 UNL     1      -1.010   6.014  13.233  1.00  0.00    -0.013 C 
HETATM    5  C13 UNL     1      -0.614   5.878  14.741  1.00  0.00     0.021 C 
HETATM    6  C14 UNL     1      -2.523   5.829  13.200  1.00  0.00    -0.070 C 
HETATM    7  C15 UNL     1      -3.094   4.611  13.139  1.00  0.00    -0.022 C 
HETATM    8  C16 UNL     1      -4.570   4.356  13.251  1.00  0.00     0.034 C 
HETATM    9  C17 UNL     1      -5.451   5.626  13.225  1.00  0.00     0.015 C 
HETATM   10  C18 UNL     1      -4.772   6.800  14.023  1.00  0.00    -0.031 C 
HETATM   11  C19 UNL     1      -4.578   6.452  15.518  1.00  0.00     0.016 C 
HETATM   12  C20 UNL     1      -5.689   8.034  13.875  1.00  0.00     0.017 C 
HETATM   13  C21 UNL     1      -7.069   7.857  14.476  1.00  0.00     0.080 C 
HETATM   14  C22 UNL     1      -7.570   6.434  14.500  1.00  0.00     0.137 C 
HETATM   15  O4  UNL     1      -8.506   6.154  15.256  1.00  0.00    -0.297 OA
HETATM   16  C23 UNL     1      -6.991   5.402  13.521  1.00  0.00     0.043 C 
HETATM   17  C24 UNL     1      -7.783   5.596  12.207  1.00  0.00     0.026 C 
HETATM   18  C26 UNL     1      -3.379   7.093  13.329  1.00  0.00     0.024 C 
HETATM   19  C27 UNL     1      -2.602   8.303  13.914  1.00  0.00     0.010 C 
HETATM   20  C28 UNL     1      -1.179   8.545  13.354  1.00  0.00     0.011 C 
HETATM   21  C29 UNL     1      -0.603   7.366  12.547  1.00  0.00    -0.029 C 
HETATM   22  C30 UNL     1      -1.088   7.488  11.073  1.00  0.00     0.016 C 
ENDROOT
BRANCH   1  23
HETATM   23  C2  UNL     1       1.822   8.331  11.859  1.00  0.00    -0.011 C 
HETATM   24  C1  UNL     1       2.869   8.859  12.857  1.00  0.00     0.010 C 
BRANCH  23  25
HETATM   25  C3  UNL     1       2.511   7.882  10.543  1.00  0.00     0.039 C 
BRANCH  25  26
HETATM   26  C4  UNL     1       2.963   6.405  10.547  1.00  0.00     0.150 C 
BRANCH  26  27
HETATM   27  O1  UNL     1       2.095   5.682   9.658  1.00  0.00    -0.393 OA
HETATM   28  H8  UNL     1       2.533   4.823   9.466  1.00  0.00     0.210 HD
ENDBRANCH  26  27
BRANCH  26  29
HETATM   29  C5  UNL     1       4.434   6.253  10.067  1.00  0.00     0.180 C 
BRANCH  29  30
HETATM   30  O2  UNL     1       4.639   4.881   9.683  1.00  0.00    -0.390 OA
HETATM   31  H10 UNL     1       4.263   4.348  10.415  1.00  0.00     0.210 HD
ENDBRANCH  29  30
BRANCH  29  32
HETATM   32  C6  UNL     1       5.500   6.646  11.137  1.00  0.00     0.079 C 
HETATM   33  C7  UNL     1       5.951   8.102  10.985  1.00  0.00     0.048 C 
HETATM   34  C8  UNL     1       6.718   5.716  11.058  1.00  0.00     0.048 C 
BRANCH  32  35
HETATM   35  O3  UNL     1       4.913   6.514  12.444  1.00  0.00    -0.388 OA
HETATM   36  H17 UNL     1       5.636   6.557  13.095  1.00  0.00     0.210 HD
ENDBRANCH  32  35
ENDBRANCH  29  32
ENDBRANCH  26  29
ENDBRANCH  25  26
ENDBRANCH  23  25
ENDBRANCH   1  23
BRANCH  16  37
HETATM   37  C25 UNL     1      -7.343   4.005  14.097  1.00  0.00     0.181 C 
BRANCH  37  38
HETATM   38  O5  UNL     1      -8.521   3.456  13.517  1.00  0.00    -0.400 OA
HETATM   39  H42 UNL     1      -9.276   3.748  14.056  1.00  0.00     0.209 HD
ENDBRANCH  37  38
ENDBRANCH  16  37
TORSDOF 10
ENDMDL
MODEL 3
REMARK minimizedAffinity -9.29090881
REMARK  10 active torsions:
REMARK  status: ('A' for Active; 'I' for Inactive)
REMARK    1  A    between atoms: C2_2  and  C3_3 
REMARK    2  A    between atoms: C2_2  and  C9_12 
REMARK    3  A    between atoms: C3_3  and  C4_4 
REMARK    4  A    between atoms: C4_4  and  O1_5 
REMARK    5  A    between atoms: C4_4  and  C5_6 
REMARK    6  A    between atoms: C5_6  and  O2_7 
REMARK    7  A    between atoms: C5_6  and  C6_8 
REMARK    8  A    between atoms: C6_8  and  O3_11 
REMARK    9  A    between atoms: C23_27  and  C25_29 
REMARK   10  A    between atoms: C25_29  and  O5_30 
ROOT
HETATM    1  C9  UNL     1       0.900   6.790  12.429  1.00  0.00    -0.002 C 
HETATM    2  C10 UNL     1       1.049   5.312  11.986  1.00  0.00     0.007 C 
HETATM    3  C11 UNL     1      -0.311   4.626  12.263  1.00  0.00     0.015 C 
HETATM    4  C12 UNL     1      -1.120   5.649  13.092  1.00  0.00    -0.013 C 
HETATM    5  C13 UNL     1      -0.694   5.432  14.582  1.00  0.00     0.021 C 
HETATM    6  C14 UNL     1      -2.642   5.558  13.094  1.00  0.00    -0.070 C 
HETATM    7  C15 UNL     1      -3.288   4.380  13.004  1.00  0.00    -0.022 C 
HETATM    8  C16 UNL     1      -4.773   4.210  13.147  1.00  0.00     0.034 C 
HETATM    9  C17 UNL     1      -5.575   5.532  13.193  1.00  0.00     0.015 C 
HETATM   10  C18 UNL     1      -4.805   6.632  14.014  1.00  0.00    -0.031 C 
HETATM   11  C19 UNL     1      -4.594   6.215  15.489  1.00  0.00     0.016 C 
HETATM   12  C20 UNL     1      -5.647   7.923  13.936  1.00  0.00     0.017 C 
HETATM   13  C21 UNL     1      -7.020   7.807  14.568  1.00  0.00     0.080 C 
HETATM   14  C22 UNL     1      -7.606   6.417  14.555  1.00  0.00     0.137 C 
HETATM   15  O4  UNL     1      -8.539   6.166  15.326  1.00  0.00    -0.297 OA
HETATM   16  C23 UNL     1      -7.118   5.390  13.523  1.00  0.00     0.043 C 
HETATM   17  C24 UNL     1      -7.929   5.682  12.239  1.00  0.00     0.026 C 
HETATM   18  C26 UNL     1      -3.415   6.866  13.293  1.00  0.00     0.024 C 
HETATM   19  C27 UNL     1      -2.550   8.003  13.900  1.00  0.00     0.010 C 
HETATM   20  C28 UNL     1      -1.129   8.179  13.309  1.00  0.00     0.011 C 
HETATM   21  C29 UNL     1      -0.647   6.999  12.444  1.00  0.00    -0.029 C 
HETATM   22  C30 UNL     1      -1.162   7.207  10.990  1.00  0.00     0.016 C 
ENDROOT
BRANCH   1  23
HETATM   23  C2  UNL     1       1.814   7.841  11.725  1.00  0.00    -0.011 C 
HETATM   24  C1  UNL     1       1.688   9.178  12.480  1.00  0.00     0.010 C 
BRANCH  23  25
HETATM   25  C3  UNL     1       3.308   7.448  11.570  1.00  0.00     0.039 C 
BRANCH  25  26
HETATM   26  C4  UNL     1       4.195   7.891  12.755  1.00  0.00     0.150 C 
BRANCH  26  27
HETATM   27  O1  UNL     1       3.737   7.196  13.926  1.00  0.00    -0.393 OA
HETATM   28  H8  UNL     1       4.445   7.276  14.602  1.00  0.00     0.210 HD
ENDBRANCH  26  27
BRANCH  26  29
HETATM   29  C5  UNL     1       5.692   7.553  12.509  1.00  0.00     0.180 C 
BRANCH  29  30
HETATM   30  O2  UNL     1       5.782   6.168  12.128  1.00  0.00    -0.390 OA
HETATM   31  H10 UNL     1       5.230   5.685  12.777  1.00  0.00     0.210 HD
ENDBRANCH  29  30
BRANCH  29  32
HETATM   32  C6  UNL     1       6.615   7.802  13.743  1.00  0.00     0.079 C 
HETATM   33  C7  UNL     1       6.351   9.166  14.388  1.00  0.00     0.048 C 
HETATM   34  C8  UNL     1       8.094   7.694  13.347  1.00  0.00     0.048 C 
BRANCH  32  35
HETATM   35  O3  UNL     1       6.338   6.798  14.736  1.00  0.00    -0.388 OA
HETATM   36  H17 UNL     1       7.052   6.836  15.397  1.00  0.00     0.210 HD
ENDBRANCH  32  35
ENDBRANCH  29  32
ENDBRANCH  26  29
ENDBRANCH  25  26
ENDBRANCH  23  25
ENDBRANCH   1  23
BRANCH  16  37
HETATM   37  C25 UNL     1      -7.540   3.996  14.057  1.00  0.00     0.181 C 
BRANCH  37  38
HETATM   38  O5  UNL     1      -8.529   3.376  13.242  1.00  0.00    -0.400 OA
HETATM   39  H42 UNL     1      -9.400   3.649  13.581  1.00  0.00     0.209 HD
ENDBRANCH  37  38
ENDBRANCH  16  37
TORSDOF 10
ENDMDL
MODEL 4
REMARK minimizedAffinity -8.97267532
REMARK  10 active torsions:
REMARK  status: ('A' for Active; 'I' for Inactive)
REMARK    1  A    between atoms: C2_2  and  C3_3 
REMARK    2  A    between atoms: C2_2  and  C9_12 
REMARK    3  A    between atoms: C3_3  and  C4_4 
REMARK    4  A    between atoms: C4_4  and  O1_5 
REMARK    5  A    between atoms: C4_4  and  C5_6 
REMARK    6  A    between atoms: C5_6  and  O2_7 
REMARK    7  A    between atoms: C5_6  and  C6_8 
REMARK    8  A    between atoms: C6_8  and  O3_11 
REMARK    9  A    between atoms: C23_27  and  C25_29 
REMARK   10  A    between atoms: C25_29  and  O5_30 
ROOT
HETATM    1  C9  UNL     1      -2.939   8.123  15.474  1.00  0.00    -0.002 C 
HETATM    2  C10 UNL     1      -1.968   8.372  16.655  1.00  0.00     0.007 C 
HETATM    3  C11 UNL     1      -0.544   8.063  16.132  1.00  0.00     0.015 C 
HETATM    4  C12 UNL     1      -0.754   7.398  14.753  1.00  0.00    -0.013 C 
HETATM    5  C13 UNL     1      -0.993   5.878  15.037  1.00  0.00     0.021 C 
HETATM    6  C14 UNL     1       0.379   7.441  13.734  1.00  0.00    -0.070 C 
HETATM    7  C15 UNL     1       1.673   7.406  14.101  1.00  0.00    -0.022 C 
HETATM    8  C16 UNL     1       2.827   7.298  13.146  1.00  0.00     0.034 C 
HETATM    9  C17 UNL     1       2.450   7.447  11.654  1.00  0.00     0.015 C 
HETATM   10  C18 UNL     1       1.077   6.742  11.346  1.00  0.00    -0.031 C 
HETATM   11  C19 UNL     1       1.131   5.220  11.616  1.00  0.00     0.016 C 
HETATM   12  C20 UNL     1       0.757   7.012   9.859  1.00  0.00     0.017 C 
HETATM   13  C21 UNL     1       1.763   6.421   8.891  1.00  0.00     0.080 C 
HETATM   14  C22 UNL     1       3.161   6.283   9.440  1.00  0.00     0.137 C 
HETATM   15  O4  UNL     1       3.946   5.521   8.863  1.00  0.00    -0.297 OA
HETATM   16  C23 UNL     1       3.612   7.159  10.617  1.00  0.00     0.043 C 
HETATM   17  C24 UNL     1       4.056   8.499   9.984  1.00  0.00     0.026 C 
HETATM   18  C26 UNL     1      -0.019   7.435  12.254  1.00  0.00     0.024 C 
HETATM   19  C27 UNL     1      -1.471   6.943  12.011  1.00  0.00     0.010 C 
HETATM   20  C28 UNL     1      -2.556   7.498  12.967  1.00  0.00     0.011 C 
HETATM   21  C29 UNL     1      -2.003   8.191  14.226  1.00  0.00    -0.029 C 
HETATM   22  C30 UNL     1      -1.697   9.678  13.881  1.00  0.00     0.016 C 
ENDROOT
BRANCH   1  23
HETATM   23  C2  UNL     1      -4.282   8.918  15.474  1.00  0.00    -0.011 C 
HETATM   24  C1  UNL     1      -3.967  10.407  15.239  1.00  0.00     0.010 C 
BRANCH  23  25
HETATM   25  C3  UNL     1      -5.361   8.431  14.471  1.00  0.00     0.039 C 
BRANCH  25  26
HETATM   26  C4  UNL     1      -5.845   6.987  14.727  1.00  0.00     0.150 C 
BRANCH  26  27
HETATM   27  O1  UNL     1      -6.192   6.884  16.117  1.00  0.00    -0.393 OA
HETATM   28  H8  UNL     1      -6.729   6.067  16.219  1.00  0.00     0.210 HD
ENDBRANCH  26  27
BRANCH  26  29
HETATM   29  C5  UNL     1      -7.085   6.633  13.860  1.00  0.00     0.180 C 
BRANCH  29  30
HETATM   30  O2  UNL     1      -8.255   7.150  14.520  1.00  0.00    -0.390 OA
HETATM   31  H10 UNL     1      -8.168   6.873  15.456  1.00  0.00     0.210 HD
ENDBRANCH  29  30
BRANCH  29  32
HETATM   32  C6  UNL     1      -7.276   5.105  13.609  1.00  0.00     0.079 C 
HETATM   33  C7  UNL     1      -5.966   4.425  13.201  1.00  0.00     0.048 C 
HETATM   34  C8  UNL     1      -8.344   4.859  12.534  1.00  0.00     0.048 C 
BRANCH  32  35
HETATM   35  O3  UNL     1      -7.716   4.488  14.833  1.00  0.00    -0.388 OA
HETATM   36  H17 UNL     1      -8.028   3.592  14.613  1.00  0.00     0.210 HD
ENDBRANCH  32  35
ENDBRANCH  29  32
ENDBRANCH  26  29
ENDBRANCH  25  26
ENDBRANCH  23  25
ENDBRANCH   1  23
BRANCH  16  37
HETATM   37  C25 UNL     1       4.864   6.471  11.223  1.00  0.00     0.181 C 
BRANCH  37  38
HETATM   38  O5  UNL     1       6.038   6.693  10.448  1.00  0.00    -0.400 OA
HETATM   39  H42 UNL     1       6.095   5.976   9.793  1.00  0.00     0.209 HD
ENDBRANCH  37  38
ENDBRANCH  16  37
TORSDOF 10
ENDMDL
MODEL 5
REMARK minimizedAffinity -8.94310474
REMARK  10 active torsions:
REMARK  status: ('A' for Active; 'I' for Inactive)
REMARK    1  A    between atoms: C2_2  and  C3_3 
REMARK    2  A    between atoms: C2_2  and  C9_12 
REMARK    3  A    between atoms: C3_3  and  C4_4 
REMARK    4  A    between atoms: C4_4  and  O1_5 
REMARK    5  A    between atoms: C4_4  and  C5_6 
REMARK    6  A    between atoms: C5_6  and  O2_7 
REMARK    7  A    between atoms: C5_6  and  C6_8 
REMARK    8  A    between atoms: C6_8  and  O3_11 
REMARK    9  A    between atoms: C23_27  and  C25_29 
REMARK   10  A    between atoms: C25_29  and  O5_30 
ROOT
HETATM    1  C9  UNL     1      -5.275   7.803  15.362  1.00  0.00    -0.002 C 
HETATM    2  C10 UNL     1      -5.031   9.301  15.676  1.00  0.00     0.007 C 
HETATM    3  C11 UNL     1      -3.600   9.630  15.186  1.00  0.00     0.015 C 
HETATM    4  C12 UNL     1      -2.964   8.264  14.843  1.00  0.00    -0.013 C 
HETATM    5  C13 UNL     1      -2.388   7.706  16.186  1.00  0.00     0.021 C 
HETATM    6  C14 UNL     1      -1.800   8.219  13.859  1.00  0.00    -0.070 C 
HETATM    7  C15 UNL     1      -0.898   9.215  13.773  1.00  0.00    -0.022 C 
HETATM    8  C16 UNL     1       0.347   9.165  12.934  1.00  0.00     0.034 C 
HETATM    9  C17 UNL     1       0.435   7.955  11.975  1.00  0.00     0.015 C 
HETATM   10  C18 UNL     1      -0.133   6.654  12.655  1.00  0.00    -0.031 C 
HETATM   11  C19 UNL     1       0.674   6.255  13.913  1.00  0.00     0.016 C 
HETATM   12  C20 UNL     1      -0.070   5.530  11.598  1.00  0.00     0.017 C 
HETATM   13  C21 UNL     1       1.334   5.190  11.139  1.00  0.00     0.080 C 
HETATM   14  C22 UNL     1       2.318   6.330  11.215  1.00  0.00     0.137 C 
HETATM   15  O4  UNL     1       3.526   6.067  11.189  1.00  0.00    -0.297 OA
HETATM   16  C23 UNL     1       1.812   7.780  11.212  1.00  0.00     0.043 C 
HETATM   17  C24 UNL     1       1.603   8.137   9.722  1.00  0.00     0.026 C 
HETATM   18  C26 UNL     1      -1.645   6.943  13.026  1.00  0.00     0.024 C 
HETATM   19  C27 UNL     1      -2.414   5.729  13.615  1.00  0.00     0.010 C 
HETATM   20  C28 UNL     1      -3.855   6.001  14.113  1.00  0.00     0.011 C 
HETATM   21  C29 UNL     1      -4.205   7.493  14.267  1.00  0.00    -0.029 C 
HETATM   22  C30 UNL     1      -4.692   8.034  12.892  1.00  0.00     0.016 C 
ENDROOT
BRANCH   1  23
HETATM   23  C2  UNL     1      -6.752   7.350  15.146  1.00  0.00    -0.011 C 
HETATM   24  C1  UNL     1      -7.658   8.594  15.214  1.00  0.00     0.010 C 
BRANCH  23  25
HETATM   25  C3  UNL     1      -7.035   6.548  13.848  1.00  0.00     0.039 C 
BRANCH  25  26
HETATM   26  C4  UNL     1      -6.989   5.016  14.038  1.00  0.00     0.150 C 
BRANCH  26  27
HETATM   27  O1  UNL     1      -7.826   4.691  15.160  1.00  0.00    -0.393 OA
HETATM   28  H8  UNL     1      -7.998   3.724  15.119  1.00  0.00     0.210 HD
ENDBRANCH  26  27
BRANCH  26  29
HETATM   29  C5  UNL     1      -7.502   4.264  12.779  1.00  0.00     0.180 C 
BRANCH  29  30
HETATM   30  O2  UNL     1      -8.702   3.555  13.139  1.00  0.00    -0.390 OA
HETATM   31  H10 UNL     1      -8.490   3.097  13.978  1.00  0.00     0.210 HD
ENDBRANCH  29  30
BRANCH  29  32
HETATM   32  C6  UNL     1      -6.477   3.253  12.175  1.00  0.00     0.079 C 
HETATM   33  C7  UNL     1      -6.977   1.809  12.267  1.00  0.00     0.048 C 
HETATM   34  C8  UNL     1      -5.117   3.376  12.875  1.00  0.00     0.048 C 
BRANCH  32  35
HETATM   35  O3  UNL     1      -6.297   3.557  10.780  1.00  0.00    -0.388 OA
HETATM   36  H17 UNL     1      -5.515   3.066  10.472  1.00  0.00     0.210 HD
ENDBRANCH  32  35
ENDBRANCH  29  32
ENDBRANCH  26  29
ENDBRANCH  25  26
ENDBRANCH  23  25
ENDBRANCH   1  23
BRANCH  16  37
HETATM   37  C25 UNL     1       2.972   8.652  11.762  1.00  0.00     0.181 C 
BRANCH  37  38
HETATM   38  O5  UNL     1       4.080   8.710  10.870  1.00  0.00    -0.400 OA
HETATM   39  H42 UNL     1       4.674   7.973  11.093  1.00  0.00     0.209 HD
ENDBRANCH  37  38
ENDBRANCH  16  37
TORSDOF 10
ENDMDL
MODEL 6
REMARK minimizedAffinity -8.8817358
REMARK  10 active torsions:
REMARK  status: ('A' for Active; 'I' for Inactive)
REMARK    1  A    between atoms: C2_2  and  C3_3 
REMARK    2  A    between atoms: C2_2  and  C9_12 
REMARK    3  A    between atoms: C3_3  and  C4_4 
REMARK    4  A    between atoms: C4_4  and  O1_5 
REMARK    5  A    between atoms: C4_4  and  C5_6 
REMARK    6  A    between atoms: C5_6  and  O2_7 
REMARK    7  A    between atoms: C5_6  and  C6_8 
REMARK    8  A    between atoms: C6_8  and  O3_11 
REMARK    9  A    between atoms: C23_27  and  C25_29 
REMARK   10  A    between atoms: C25_29  and  O5_30 
ROOT
HETATM    1  C9  UNL     1      -4.836   5.605  13.121  1.00  0.00    -0.002 C 
HETATM    2  C10 UNL     1      -3.740   4.541  13.385  1.00  0.00     0.007 C 
HETATM    3  C11 UNL     1      -2.567   5.274  14.081  1.00  0.00     0.015 C 
HETATM    4  C12 UNL     1      -2.904   6.778  13.966  1.00  0.00    -0.013 C 
HETATM    5  C13 UNL     1      -2.374   7.235  12.567  1.00  0.00     0.021 C 
HETATM    6  C14 UNL     1      -2.285   7.750  14.965  1.00  0.00    -0.070 C 
HETATM    7  C15 UNL     1      -1.055   7.562  15.478  1.00  0.00    -0.022 C 
HETATM    8  C16 UNL     1      -0.334   8.552  16.347  1.00  0.00     0.034 C 
HETATM    9  C17 UNL     1      -1.193   9.751  16.814  1.00  0.00     0.015 C 
HETATM   10  C18 UNL     1      -2.158  10.233  15.668  1.00  0.00    -0.031 C 
HETATM   11  C19 UNL     1      -1.382  10.729  14.425  1.00  0.00     0.016 C 
HETATM   12  C20 UNL     1      -3.016  11.375  16.255  1.00  0.00     0.017 C 
HETATM   13  C21 UNL     1      -2.221  12.593  16.680  1.00  0.00     0.080 C 
HETATM   14  C22 UNL     1      -0.801  12.306  17.102  1.00  0.00     0.137 C 
HETATM   15  O4  UNL     1       0.002  13.244  17.136  1.00  0.00    -0.297 OA
HETATM   16  C23 UNL     1      -0.415  10.898  17.579  1.00  0.00     0.043 C 
HETATM   17  C24 UNL     1      -0.805  10.852  19.075  1.00  0.00     0.026 C 
HETATM   18  C26 UNL     1      -3.092   9.010  15.297  1.00  0.00     0.024 C 
HETATM   19  C27 UNL     1      -4.193   9.327  14.250  1.00  0.00     0.010 C 
HETATM   20  C28 UNL     1      -5.044   8.129  13.760  1.00  0.00     0.011 C 
HETATM   21  C29 UNL     1      -4.466   6.747  14.120  1.00  0.00    -0.029 C 
HETATM   22  C30 UNL     1      -4.945   6.365  15.551  1.00  0.00     0.016 C 
ENDROOT
BRANCH   1  23
HETATM   23  C2  UNL     1      -6.310   5.104  13.033  1.00  0.00    -0.011 C 
HETATM   24  C1  UNL     1      -6.298   3.566  12.948  1.00  0.00     0.010 C 
BRANCH  23  25
HETATM   25  C3  UNL     1      -7.258   5.574  14.170  1.00  0.00     0.039 C 
BRANCH  25  26
HETATM   26  C4  UNL     1      -8.614   6.116  13.668  1.00  0.00     0.150 C 
BRANCH  26  27
HETATM   27  O1  UNL     1      -9.429   4.987  13.310  1.00  0.00    -0.393 OA
HETATM   28  H8  UNL     1     -10.353   5.311  13.241  1.00  0.00     0.210 HD
ENDBRANCH  26  27
BRANCH  26  29
HETATM   29  C5  UNL     1      -9.341   6.948  14.761  1.00  0.00     0.180 C 
BRANCH  29  30
HETATM   30  O2  UNL     1      -9.340   6.184  15.980  1.00  0.00    -0.390 OA
HETATM   31  H10 UNL     1      -9.628   5.284  15.722  1.00  0.00     0.210 HD
ENDBRANCH  29  30
BRANCH  29  32
HETATM   32  C6  UNL     1     -10.811   7.331  14.401  1.00  0.00     0.079 C 
HETATM   33  C7  UNL     1     -10.970   7.650  12.912  1.00  0.00     0.048 C 
HETATM   34  C8  UNL     1     -11.282   8.527  15.240  1.00  0.00     0.048 C 
BRANCH  32  35
HETATM   35  O3  UNL     1     -11.664   6.209  14.693  1.00  0.00    -0.388 OA
HETATM   36  H17 UNL     1     -12.584   6.527  14.665  1.00  0.00     0.210 HD
ENDBRANCH  32  35
ENDBRANCH  29  32
ENDBRANCH  26  29
ENDBRANCH  25  26
ENDBRANCH  23  25
ENDBRANCH   1  23
BRANCH  16  37
HETATM   37  C25 UNL     1       1.132  10.810  17.479  1.00  0.00     0.181 C 
BRANCH  37  38
HETATM   38  O5  UNL     1       1.719  10.203  18.625  1.00  0.00    -0.400 OA
HETATM   39  H42 UNL     1       1.909  10.910  19.265  1.00  0.00     0.209 HD
ENDBRANCH  37  38
ENDBRANCH  16  37
TORSDOF 10
ENDMDL
MODEL 7
REMARK minimizedAffinity -8.87114906
REMARK  10 active torsions:
REMARK  status: ('A' for Active; 'I' for Inactive)
REMARK    1  A    between atoms: C2_2  and  C3_3 
REMARK    2  A    between atoms: C2_2  and  C9_12 
REMARK    3  A    between atoms: C3_3  and  C4_4 
REMARK    4  A    between atoms: C4_4  and  O1_5 
REMARK    5  A    between atoms: C4_4  and  C5_6 
REMARK    6  A    between atoms: C5_6  and  O2_7 
REMARK    7  A    between atoms: C5_6  and  C6_8 
REMARK    8  A    between atoms: C6_8  and  O3_11 
REMARK    9  A    between atoms: C23_27  and  C25_29 
REMARK   10  A    between atoms: C25_29  and  O5_30 
ROOT
HETATM    1  C9  UNL     1      -3.907   5.190  12.515  1.00  0.00    -0.002 C 
HETATM    2  C10 UNL     1      -2.643   4.357  12.847  1.00  0.00     0.007 C 
HETATM    3  C11 UNL     1      -1.707   5.278  13.668  1.00  0.00     0.015 C 
HETATM    4  C12 UNL     1      -2.334   6.687  13.566  1.00  0.00    -0.013 C 
HETATM    5  C13 UNL     1      -1.794   7.306  12.234  1.00  0.00     0.021 C 
HETATM    6  C14 UNL     1      -2.012   7.716  14.644  1.00  0.00    -0.070 C 
HETATM    7  C15 UNL     1      -0.817   7.756  15.262  1.00  0.00    -0.022 C 
HETATM    8  C16 UNL     1      -0.389   8.829  16.221  1.00  0.00     0.034 C 
HETATM    9  C17 UNL     1      -1.510   9.807  16.642  1.00  0.00     0.015 C 
HETATM   10  C18 UNL     1      -2.455  10.139  15.427  1.00  0.00    -0.031 C 
HETATM   11  C19 UNL     1      -1.696  10.838  14.274  1.00  0.00     0.016 C 
HETATM   12  C20 UNL     1      -3.574  11.055  15.966  1.00  0.00     0.017 C 
HETATM   13  C21 UNL     1      -3.083  12.388  16.497  1.00  0.00     0.080 C 
HETATM   14  C22 UNL     1      -1.675  12.373  17.037  1.00  0.00     0.137 C 
HETATM   15  O4  UNL     1      -1.086  13.451  17.171  1.00  0.00    -0.297 OA
HETATM   16  C23 UNL     1      -1.050  11.052  17.507  1.00  0.00     0.043 C 
HETATM   17  C24 UNL     1      -1.546  10.858  18.959  1.00  0.00     0.026 C 
HETATM   18  C26 UNL     1      -3.084   8.771  14.937  1.00  0.00     0.024 C 
HETATM   19  C27 UNL     1      -4.136   8.908  13.804  1.00  0.00     0.010 C 
HETATM   20  C28 UNL     1      -4.681   7.588  13.205  1.00  0.00     0.011 C 
HETATM   21  C29 UNL     1      -3.864   6.336  13.576  1.00  0.00    -0.029 C 
HETATM   22  C30 UNL     1      -4.372   5.799  14.946  1.00  0.00     0.016 C 
ENDROOT
BRANCH   1  23
HETATM   23  C2  UNL     1      -5.236   4.407  12.279  1.00  0.00    -0.011 C 
HETATM   24  C1  UNL     1      -4.927   3.175  11.408  1.00  0.00     0.010 C 
BRANCH  23  25
HETATM   25  C3  UNL     1      -6.012   3.984  13.555  1.00  0.00     0.039 C 
BRANCH  25  26
HETATM   26  C4  UNL     1      -7.437   4.575  13.643  1.00  0.00     0.150 C 
BRANCH  26  27
HETATM   27  O1  UNL     1      -8.366   3.481  13.591  1.00  0.00    -0.393 OA
HETATM   28  H8  UNL     1      -9.233   3.826  13.902  1.00  0.00     0.210 HD
ENDBRANCH  26  27
BRANCH  26  29
HETATM   29  C5  UNL     1      -7.649   5.368  14.963  1.00  0.00     0.180 C 
BRANCH  29  30
HETATM   30  O2  UNL     1      -8.075   4.442  15.979  1.00  0.00    -0.390 OA
HETATM   31  H10 UNL     1      -8.784   3.909  15.562  1.00  0.00     0.210 HD
ENDBRANCH  29  30
BRANCH  29  32
HETATM   32  C6  UNL     1      -8.696   6.521  14.855  1.00  0.00     0.079 C 
HETATM   33  C7  UNL     1      -9.382   6.543  13.486  1.00  0.00     0.048 C 
HETATM   34  C8  UNL     1      -8.037   7.881  15.125  1.00  0.00     0.048 C 
BRANCH  32  35
HETATM   35  O3  UNL     1      -9.719   6.310  15.844  1.00  0.00    -0.388 OA
HETATM   36  H17 UNL     1     -10.240   7.131  15.906  1.00  0.00     0.210 HD
ENDBRANCH  32  35
ENDBRANCH  29  32
ENDBRANCH  26  29
ENDBRANCH  25  26
ENDBRANCH  23  25
ENDBRANCH   1  23
BRANCH  16  37
HETATM   37  C25 UNL     1       0.485  11.281  17.546  1.00  0.00     0.181 C 
BRANCH  37  38
HETATM   38  O5  UNL     1       0.974  11.899  16.360  1.00  0.00    -0.400 OA
HETATM   39  H42 UNL     1       1.206  11.190  15.736  1.00  0.00     0.209 HD
ENDBRANCH  37  38
ENDBRANCH  16  37
TORSDOF 10
ENDMDL
MODEL 8
REMARK minimizedAffinity -8.86325455
REMARK  10 active torsions:
REMARK  status: ('A' for Active; 'I' for Inactive)
REMARK    1  A    between atoms: C2_2  and  C3_3 
REMARK    2  A    between atoms: C2_2  and  C9_12 
REMARK    3  A    between atoms: C3_3  and  C4_4 
REMARK    4  A    between atoms: C4_4  and  O1_5 
REMARK    5  A    between atoms: C4_4  and  C5_6 
REMARK    6  A    between atoms: C5_6  and  O2_7 
REMARK    7  A    between atoms: C5_6  and  C6_8 
REMARK    8  A    between atoms: C6_8  and  O3_11 
REMARK    9  A    between atoms: C23_27  and  C25_29 
REMARK   10  A    between atoms: C25_29  and  O5_30 
ROOT
HETATM    1  C9  UNL     1      -5.497   7.798  15.485  1.00  0.00    -0.002 C 
HETATM    2  C10 UNL     1      -5.244   9.321  15.619  1.00  0.00     0.007 C 
HETATM    3  C11 UNL     1      -3.857   9.598  14.991  1.00  0.00     0.015 C 
HETATM    4  C12 UNL     1      -3.236   8.204  14.748  1.00  0.00    -0.013 C 
HETATM    5  C13 UNL     1      -2.556   7.792  16.096  1.00  0.00     0.021 C 
HETATM    6  C14 UNL     1      -2.147   8.056  13.690  1.00  0.00    -0.070 C 
HETATM    7  C15 UNL     1      -1.263   9.037  13.432  1.00  0.00    -0.022 C 
HETATM    8  C16 UNL     1      -0.084   8.900  12.512  1.00  0.00     0.034 C 
HETATM    9  C17 UNL     1      -0.057   7.594  11.683  1.00  0.00     0.015 C 
HETATM   10  C18 UNL     1      -0.561   6.373  12.537  1.00  0.00    -0.031 C 
HETATM   11  C19 UNL     1       0.341   6.111  13.766  1.00  0.00     0.016 C 
HETATM   12  C20 UNL     1      -0.566   5.143  11.604  1.00  0.00     0.017 C 
HETATM   13  C21 UNL     1       0.803   4.757  11.080  1.00  0.00     0.080 C 
HETATM   14  C22 UNL     1       1.779   5.900  10.960  1.00  0.00     0.137 C 
HETATM   15  O4  UNL     1       2.984   5.637  10.871  1.00  0.00    -0.297 OA
HETATM   16  C23 UNL     1       1.261   7.340  10.841  1.00  0.00     0.043 C 
HETATM   17  C24 UNL     1       0.939   7.537   9.341  1.00  0.00     0.026 C 
HETATM   18  C26 UNL     1      -2.044   6.697  12.988  1.00  0.00     0.024 C 
HETATM   19  C27 UNL     1      -2.755   5.553  13.758  1.00  0.00     0.010 C 
HETATM   20  C28 UNL     1      -4.158   5.875  14.331  1.00  0.00     0.011 C 
HETATM   21  C29 UNL     1      -4.509   7.374  14.352  1.00  0.00    -0.029 C 
HETATM   22  C30 UNL     1      -5.102   7.765  12.967  1.00  0.00     0.016 C 
ENDROOT
BRANCH   1  23
HETATM   23  C2  UNL     1      -6.982   7.323  15.430  1.00  0.00    -0.011 C 
HETATM   24  C1  UNL     1      -7.158   6.158  16.422  1.00  0.00     0.010 C 
BRANCH  23  25
HETATM   25  C3  UNL     1      -8.055   8.415  15.686  1.00  0.00     0.039 C 
BRANCH  25  26
HETATM   26  C4  UNL     1      -9.478   7.853  15.899  1.00  0.00     0.150 C 
BRANCH  26  27
HETATM   27  O1  UNL     1      -9.949   8.331  17.170  1.00  0.00    -0.393 OA
HETATM   28  H8  UNL     1     -10.922   8.193  17.185  1.00  0.00     0.210 HD
ENDBRANCH  26  27
BRANCH  26  29
HETATM   29  C5  UNL     1     -10.453   8.319  14.781  1.00  0.00     0.180 C 
BRANCH  29  30
HETATM   30  O2  UNL     1     -11.576   8.967  15.408  1.00  0.00    -0.390 OA
HETATM   31  H10 UNL     1     -11.849   8.367  16.132  1.00  0.00     0.210 HD
ENDBRANCH  29  30
BRANCH  29  32
HETATM   32  C6  UNL     1     -10.976   7.167  13.868  1.00  0.00     0.079 C 
HETATM   33  C7  UNL     1      -9.830   6.411  13.189  1.00  0.00     0.048 C 
HETATM   34  C8  UNL     1     -11.939   7.711  12.803  1.00  0.00     0.048 C 
BRANCH  32  35
HETATM   35  O3  UNL     1     -11.691   6.220  14.682  1.00  0.00    -0.388 OA
HETATM   36  H17 UNL     1     -12.181   5.630  14.082  1.00  0.00     0.210 HD
ENDBRANCH  32  35
ENDBRANCH  29  32
ENDBRANCH  26  29
ENDBRANCH  25  26
ENDBRANCH  23  25
ENDBRANCH   1  23
BRANCH  16  37
HETATM   37  C25 UNL     1       2.451   8.267  11.207  1.00  0.00     0.181 C 
BRANCH  37  38
HETATM   38  O5  UNL     1       3.457   8.285  10.200  1.00  0.00    -0.400 OA
HETATM   39  H42 UNL     1       4.089   7.575  10.405  1.00  0.00     0.209 HD
ENDBRANCH  37  38
ENDBRANCH  16  37
TORSDOF 10
ENDMDL
MODEL 9
REMARK minimizedAffinity -8.79446316
REMARK  10 active torsions:
REMARK  status: ('A' for Active; 'I' for Inactive)
REMARK    1  A    between atoms: C2_2  and  C3_3 
REMARK    2  A    between atoms: C2_2  and  C9_12 
REMARK    3  A    between atoms: C3_3  and  C4_4 
REMARK    4  A    between atoms: C4_4  and  O1_5 
REMARK    5  A    between atoms: C4_4  and  C5_6 
REMARK    6  A    between atoms: C5_6  and  O2_7 
REMARK    7  A    between atoms: C5_6  and  C6_8 
REMARK    8  A    between atoms: C6_8  and  O3_11 
REMARK    9  A    between atoms: C23_27  and  C25_29 
REMARK   10  A    between atoms: C25_29  and  O5_30 
ROOT
HETATM    1  C9  UNL     1      -3.310   6.702  14.077  1.00  0.00    -0.002 C 
HETATM    2  C10 UNL     1      -3.581   5.474  13.171  1.00  0.00     0.007 C 
HETATM    3  C11 UNL     1      -5.119   5.318  13.084  1.00  0.00     0.015 C 
HETATM    4  C12 UNL     1      -5.686   6.291  14.141  1.00  0.00    -0.013 C 
HETATM    5  C13 UNL     1      -5.673   5.512  15.498  1.00  0.00     0.021 C 
HETATM    6  C14 UNL     1      -7.116   6.797  13.985  1.00  0.00    -0.070 C 
HETATM    7  C15 UNL     1      -8.089   6.039  13.447  1.00  0.00    -0.022 C 
HETATM    8  C16 UNL     1      -9.540   6.422  13.400  1.00  0.00     0.034 C 
HETATM    9  C17 UNL     1      -9.840   7.878  13.826  1.00  0.00     0.015 C 
HETATM   10  C18 UNL     1      -8.929   8.312  15.033  1.00  0.00    -0.031 C 
HETATM   11  C19 UNL     1      -9.177   7.445  16.290  1.00  0.00     0.016 C 
HETATM   12  C20 UNL     1      -9.251   9.793  15.330  1.00  0.00     0.017 C 
HETATM   13  C21 UNL     1     -10.681  10.040  15.769  1.00  0.00     0.080 C 
HETATM   14  C22 UNL     1     -11.686   9.051  15.234  1.00  0.00     0.137 C 
HETATM   15  O4  UNL     1     -12.785   8.970  15.793  1.00  0.00    -0.297 OA
HETATM   16  C23 UNL     1     -11.373   8.255  13.959  1.00  0.00     0.043 C 
HETATM   17  C24 UNL     1     -11.758   9.190  12.788  1.00  0.00     0.026 C 
HETATM   18  C26 UNL     1      -7.425   8.187  14.553  1.00  0.00     0.024 C 
HETATM   19  C27 UNL     1      -6.371   8.678  15.581  1.00  0.00     0.010 C 
HETATM   20  C28 UNL     1      -4.885   8.453  15.206  1.00  0.00     0.011 C 
HETATM   21  C29 UNL     1      -4.664   7.478  14.034  1.00  0.00    -0.029 C 
HETATM   22  C30 UNL     1      -4.770   8.273  12.700  1.00  0.00     0.016 C 
ENDROOT
BRANCH   1  23
HETATM   23  C2  UNL     1      -1.972   7.472  13.852  1.00  0.00    -0.011 C 
HETATM   24  C1  UNL     1      -2.226   8.604  12.839  1.00  0.00     0.010 C 
BRANCH  23  25
HETATM   25  C3  UNL     1      -1.288   8.034  15.127  1.00  0.00     0.039 C 
BRANCH  25  26
HETATM   26  C4  UNL     1      -0.084   7.196  15.611  1.00  0.00     0.150 C 
BRANCH  26  27
HETATM   27  O1  UNL     1      -0.517   5.829  15.709  1.00  0.00    -0.393 OA
HETATM   28  H8  UNL     1       0.293   5.275  15.762  1.00  0.00     0.210 HD
ENDBRANCH  26  27
BRANCH  26  29
HETATM   29  C5  UNL     1       1.113   7.286  14.623  1.00  0.00     0.180 C 
BRANCH  29  30
HETATM   30  O2  UNL     1       1.292   5.993  14.017  1.00  0.00    -0.390 OA
HETATM   31  H10 UNL     1       1.265   5.354  14.759  1.00  0.00     0.210 HD
ENDBRANCH  29  30
BRANCH  29  32
HETATM   32  C6  UNL     1       2.456   7.728  15.285  1.00  0.00     0.079 C 
HETATM   33  C7  UNL     1       2.223   8.594  16.526  1.00  0.00     0.048 C 
HETATM   34  C8  UNL     1       3.333   8.488  14.280  1.00  0.00     0.048 C 
BRANCH  32  35
HETATM   35  O3  UNL     1       3.170   6.553  15.710  1.00  0.00    -0.388 OA
HETATM   36  H17 UNL     1       4.080   6.825  15.924  1.00  0.00     0.210 HD
ENDBRANCH  32  35
ENDBRANCH  29  32
ENDBRANCH  26  29
ENDBRANCH  25  26
ENDBRANCH  23  25
ENDBRANCH   1  23
BRANCH  16  37
HETATM   37  C25 UNL     1     -12.341   7.042  13.949  1.00  0.00     0.181 C 
BRANCH  37  38
HETATM   38  O5  UNL     1     -12.125   6.162  15.047  1.00  0.00    -0.400 OA
HETATM   39  H42 UNL     1     -11.468   5.502  14.767  1.00  0.00     0.209 HD
ENDBRANCH  37  38
ENDBRANCH  16  37
TORSDOF 10
ENDMDL
