MODEL 1
REMARK minimizedAffinity -8.98270226
REMARK CNNscore 0.465632409
REMARK CNNaffinity 7.18216753
REMARK  10 active torsions:
REMARK  status: ('A' for Active; 'I' for Inactive)
REMARK    1  A    between atoms: C3_3  and  O1_4 
REMARK    2  A    between atoms: N1_14  and  O2_16 
REMARK    3  A    between atoms: O2_16  and  C13_17 
REMARK    4  A    between atoms: C13_17  and  C14_18 
REMARK       I    between atoms: C14_18  and  N2_20 
REMARK    5  A    between atoms: N2_20  and  C15_21 
REMARK    6  A    between atoms: C15_21  and  C16_22 
REMARK       I    between atoms: C16_22  and  N3_24 
REMARK    7  A    between atoms: N3_24  and  C17_25 
REMARK    8  A    between atoms: C17_25  and  C18_26 
REMARK    9  A    between atoms: C17_25  and  C19_29 
REMARK   10  A    between atoms: C18_26  and  O6_28 
ROOT
HETATM    1  C1  UNL     1       0.202   9.040  13.035  1.00  0.00     0.015 C 
HETATM    2  C2  UNL     1      -0.635   8.230  13.334  1.00  0.00    -0.078 C 
HETATM    3  C3  UNL     1      -1.649   7.225  13.686  1.00  0.00     0.128 C 
HETATM    4  C4  UNL     1      -1.102   6.165  14.648  1.00  0.00     0.052 C 
HETATM    5  C5  UNL     1      -2.362   5.452  15.130  1.00  0.00     0.010 C 
HETATM    6  C6  UNL     1      -3.395   6.579  15.300  1.00  0.00     0.002 C 
HETATM    7  C7  UNL     1      -4.878   6.185  15.117  1.00  0.00    -0.004 C 
HETATM    8  C8  UNL     1      -5.213   5.274  13.922  1.00  0.00     0.010 C 
HETATM    9  C9  UNL     1      -6.480   5.632  13.130  1.00  0.00     0.035 C 
HETATM   10  C10 UNL     1      -7.617   6.263  13.895  1.00  0.00    -0.069 C 
HETATM   11  C11 UNL     1      -8.871   6.180  13.416  1.00  0.00     0.030 C 
HETATM   12  C12 UNL     1     -10.000   6.910  14.054  1.00  0.00     0.032 C 
HETATM   13  N1  UNL     1     -11.210   6.570  13.709  1.00  0.00    -0.271 N 
ATOM     14  H1  UNL     1     -11.432   5.808  13.067  1.00  0.00     0.194 HD
HETATM   15  C22 UNL     1      -9.692   8.002  15.068  1.00  0.00     0.060 C 
HETATM   16  C23 UNL     1      -8.202   8.313  15.192  1.00  0.00     0.020 C 
HETATM   17  C24 UNL     1      -7.300   7.054  15.153  1.00  0.00    -0.016 C 
HETATM   18  C25 UNL     1      -7.632   6.164  16.385  1.00  0.00     0.020 C 
HETATM   19  C26 UNL     1      -5.779   7.445  15.182  1.00  0.00     0.002 C 
HETATM   20  C27 UNL     1      -5.371   8.505  14.124  1.00  0.00     0.007 C 
HETATM   21  C28 UNL     1      -4.004   8.286  13.469  1.00  0.00     0.014 C 
HETATM   22  C29 UNL     1      -2.907   7.787  14.432  1.00  0.00     0.003 C 
HETATM   23  C30 UNL     1      -2.534   8.946  15.399  1.00  0.00     0.020 C 
ENDROOT
BRANCH   3  24
HETATM   24  O1  UNL     1      -2.032   6.539  12.488  1.00  0.00    -0.377 OA
HETATM   25  H2  UNL     1      -1.217   6.377  11.983  1.00  0.00     0.211 HD
ENDBRANCH   3  24
BRANCH  13  26
HETATM   26  O2  UNL     1     -12.170   7.384  14.331  1.00  0.00    -0.271 OA
BRANCH  26  27
HETATM   27  C13 UNL     1     -13.451   7.095  13.792  1.00  0.00     0.303 C 
BRANCH  27  28
HETATM   28  C14 UNL     1     -14.433   6.404  14.749  1.00  0.00     0.244 C 
HETATM   29  O3  UNL     1     -14.518   6.640  15.949  1.00  0.00    -0.271 OA
HETATM   30  N2  UNL     1     -15.229   5.463  14.110  1.00  0.00    -0.350 N 
HETATM   31  H16 UNL     1     -14.835   5.034  13.277  1.00  0.00     0.163 HD
BRANCH  30  32
HETATM   32  C15 UNL     1     -16.148   4.641  14.873  1.00  0.00     0.225 C 
BRANCH  32  33
HETATM   33  C16 UNL     1     -15.634   3.202  14.989  1.00  0.00     0.236 C 
HETATM   34  O4  UNL     1     -14.459   2.885  14.796  1.00  0.00    -0.272 OA
HETATM   35  N3  UNL     1     -16.626   2.283  15.283  1.00  0.00    -0.345 N 
HETATM   36  H19 UNL     1     -17.579   2.585  15.130  1.00  0.00     0.163 HD
BRANCH  35  37
HETATM   37  C17 UNL     1     -16.369   0.841  15.150  1.00  0.00     0.185 C 
BRANCH  37  38
HETATM   38  C18 UNL     1     -15.396   0.449  16.267  1.00  0.00     0.163 C 
HETATM   39  O5  UNL     1     -15.700   0.171  17.419  1.00  0.00    -0.648 OA
BRANCH  38  40
HETATM   40  O6  UNL     1     -14.107   0.437  15.883  1.00  0.00    -0.775 OA
HETATM   41  H21 UNL     1     -13.616   0.162  16.687  1.00  0.00     0.167 HD
ENDBRANCH  38  40
ENDBRANCH  37  38
BRANCH  37  42
HETATM   42  C19 UNL     1     -15.846   0.505  13.738  1.00  0.00     0.010 C 
HETATM   43  C20 UNL     1     -16.756   1.090  12.652  1.00  0.00     0.012 C 
HETATM   44  C21 UNL     1     -15.639  -0.993  13.497  1.00  0.00     0.012 C 
ENDBRANCH  37  42
ENDBRANCH  35  37
ENDBRANCH  32  33
ENDBRANCH  30  32
ENDBRANCH  27  28
ENDBRANCH  26  27
ENDBRANCH  13  26
TORSDOF 10
ENDMDL
MODEL 2
REMARK minimizedAffinity -8.76298428
REMARK CNNscore 0.429157197
REMARK CNNaffinity 6.82397509
REMARK  10 active torsions:
REMARK  status: ('A' for Active; 'I' for Inactive)
REMARK    1  A    between atoms: C3_3  and  O1_4 
REMARK    2  A    between atoms: N1_14  and  O2_16 
REMARK    3  A    between atoms: O2_16  and  C13_17 
REMARK    4  A    between atoms: C13_17  and  C14_18 
REMARK       I    between atoms: C14_18  and  N2_20 
REMARK    5  A    between atoms: N2_20  and  C15_21 
REMARK    6  A    between atoms: C15_21  and  C16_22 
REMARK       I    between atoms: C16_22  and  N3_24 
REMARK    7  A    between atoms: N3_24  and  C17_25 
REMARK    8  A    between atoms: C17_25  and  C18_26 
REMARK    9  A    between atoms: C17_25  and  C19_29 
REMARK   10  A    between atoms: C18_26  and  O6_28 
ROOT
HETATM    1  C1  UNL     1       3.763   5.645  10.615  1.00  0.00     0.015 C 
HETATM    2  C2  UNL     1       2.989   6.297  11.263  1.00  0.00    -0.078 C 
HETATM    3  C3  UNL     1       2.059   7.100  12.072  1.00  0.00     0.128 C 
HETATM    4  C4  UNL     1       2.295   8.605  11.901  1.00  0.00     0.052 C 
HETATM    5  C5  UNL     1       1.051   9.224  12.532  1.00  0.00     0.010 C 
HETATM    6  C6  UNL     1      -0.096   8.294  12.104  1.00  0.00     0.002 C 
HETATM    7  C7  UNL     1      -1.309   8.214  13.058  1.00  0.00    -0.004 C 
HETATM    8  C8  UNL     1      -1.003   8.094  14.562  1.00  0.00     0.010 C 
HETATM    9  C9  UNL     1      -1.868   7.100  15.353  1.00  0.00     0.035 C 
HETATM   10  C10 UNL     1      -3.290   6.901  14.889  1.00  0.00    -0.069 C 
HETATM   11  C11 UNL     1      -4.214   6.440  15.751  1.00  0.00     0.030 C 
HETATM   12  C12 UNL     1      -5.589   6.089  15.304  1.00  0.00     0.032 C 
HETATM   13  N1  UNL     1      -6.496   5.914  16.225  1.00  0.00    -0.271 N 
ATOM     14  H1  UNL     1      -6.334   6.048  17.223  1.00  0.00     0.194 HD
HETATM   15  C22 UNL     1      -5.869   5.953  13.815  1.00  0.00     0.060 C 
HETATM   16  C23 UNL     1      -4.615   6.060  12.949  1.00  0.00     0.020 C 
HETATM   17  C24 UNL     1      -3.622   7.149  13.427  1.00  0.00    -0.016 C 
HETATM   18  C25 UNL     1      -4.312   8.539  13.314  1.00  0.00     0.020 C 
HETATM   19  C26 UNL     1      -2.311   7.140  12.562  1.00  0.00     0.002 C 
HETATM   20  C27 UNL     1      -1.646   5.745  12.422  1.00  0.00     0.007 C 
HETATM   21  C28 UNL     1      -0.114   5.742  12.459  1.00  0.00     0.014 C 
HETATM   22  C29 UNL     1       0.544   6.920  11.713  1.00  0.00     0.003 C 
HETATM   23  C30 UNL     1       0.334   6.716  10.185  1.00  0.00     0.020 C 
ENDROOT
BRANCH   3  24
HETATM   24  O1  UNL     1       2.293   6.798  13.453  1.00  0.00    -0.377 OA
HETATM   25  H2  UNL     1       3.257   6.748  13.570  1.00  0.00     0.211 HD
ENDBRANCH   3  24
BRANCH  13  26
HETATM   26  O2  UNL     1      -7.723   5.519  15.668  1.00  0.00    -0.271 OA
BRANCH  26  27
HETATM   27  C13 UNL     1      -8.538   6.663  15.467  1.00  0.00     0.303 C 
BRANCH  27  28
HETATM   28  C14 UNL     1      -9.398   6.650  14.196  1.00  0.00     0.244 C 
HETATM   29  O3  UNL     1      -9.127   6.023  13.178  1.00  0.00    -0.271 OA
HETATM   30  N2  UNL     1     -10.536   7.439  14.311  1.00  0.00    -0.350 N 
HETATM   31  H16 UNL     1     -10.476   8.218  14.962  1.00  0.00     0.163 HD
BRANCH  30  32
HETATM   32  C15 UNL     1     -11.416   7.626  13.175  1.00  0.00     0.225 C 
BRANCH  32  33
HETATM   33  C16 UNL     1     -12.780   8.168  13.617  1.00  0.00     0.236 C 
HETATM   34  O4  UNL     1     -13.210   8.062  14.767  1.00  0.00    -0.272 OA
HETATM   35  N3  UNL     1     -13.504   8.747  12.590  1.00  0.00    -0.345 N 
HETATM   36  H19 UNL     1     -13.206   8.526  11.649  1.00  0.00     0.163 HD
BRANCH  35  37
HETATM   37  C17 UNL     1     -14.930   9.057  12.767  1.00  0.00     0.185 C 
BRANCH  37  38
HETATM   38  C18 UNL     1     -15.662   8.552  11.519  1.00  0.00     0.163 C 
HETATM   39  O5  UNL     1     -16.232   9.248  10.690  1.00  0.00    -0.648 OA
BRANCH  38  40
HETATM   40  O6  UNL     1     -15.647   7.214  11.388  1.00  0.00    -0.775 OA
HETATM   41  H21 UNL     1     -16.136   7.045  10.553  1.00  0.00     0.167 HD
ENDBRANCH  38  40
ENDBRANCH  37  38
BRANCH  37  42
HETATM   42  C19 UNL     1     -15.136  10.564  13.028  1.00  0.00     0.010 C 
HETATM   43  C20 UNL     1     -13.933  11.383  12.548  1.00  0.00     0.012 C 
HETATM   44  C21 UNL     1     -15.449  10.899  14.490  1.00  0.00     0.012 C 
ENDBRANCH  37  42
ENDBRANCH  35  37
ENDBRANCH  32  33
ENDBRANCH  30  32
ENDBRANCH  27  28
ENDBRANCH  26  27
ENDBRANCH  13  26
TORSDOF 10
ENDMDL
MODEL 3
REMARK minimizedAffinity -8.36735535
REMARK CNNscore 0.423310459
REMARK CNNaffinity 7.18584633
REMARK  10 active torsions:
REMARK  status: ('A' for Active; 'I' for Inactive)
REMARK    1  A    between atoms: C3_3  and  O1_4 
REMARK    2  A    between atoms: N1_14  and  O2_16 
REMARK    3  A    between atoms: O2_16  and  C13_17 
REMARK    4  A    between atoms: C13_17  and  C14_18 
REMARK       I    between atoms: C14_18  and  N2_20 
REMARK    5  A    between atoms: N2_20  and  C15_21 
REMARK    6  A    between atoms: C15_21  and  C16_22 
REMARK       I    between atoms: C16_22  and  N3_24 
REMARK    7  A    between atoms: N3_24  and  C17_25 
REMARK    8  A    between atoms: C17_25  and  C18_26 
REMARK    9  A    between atoms: C17_25  and  C19_29 
REMARK   10  A    between atoms: C18_26  and  O6_28 
ROOT
HETATM    1  C1  UNL     1       0.535   8.832  12.330  1.00  0.00     0.015 C 
HETATM    2  C2  UNL     1      -0.277   8.048  12.745  1.00  0.00    -0.078 C 
HETATM    3  C3  UNL     1      -1.261   7.072  13.238  1.00  0.00     0.128 C 
HETATM    4  C4  UNL     1      -0.648   6.094  14.247  1.00  0.00     0.052 C 
HETATM    5  C5  UNL     1      -1.872   5.421  14.862  1.00  0.00     0.010 C 
HETATM    6  C6  UNL     1      -2.900   6.555  15.003  1.00  0.00     0.002 C 
HETATM    7  C7  UNL     1      -4.388   6.145  14.945  1.00  0.00    -0.004 C 
HETATM    8  C8  UNL     1      -4.790   5.140  13.850  1.00  0.00     0.010 C 
HETATM    9  C9  UNL     1      -6.105   5.431  13.111  1.00  0.00     0.035 C 
HETATM   10  C10 UNL     1      -7.198   6.119  13.892  1.00  0.00    -0.069 C 
HETATM   11  C11 UNL     1      -8.478   5.995  13.499  1.00  0.00     0.030 C 
HETATM   12  C12 UNL     1      -9.570   6.772  14.146  1.00  0.00     0.032 C 
HETATM   13  N1  UNL     1     -10.797   6.403  13.904  1.00  0.00    -0.271 N 
ATOM     14  H1  UNL     1     -11.053   5.592  13.340  1.00  0.00     0.194 HD
HETATM   15  C22 UNL     1      -9.209   7.943  15.047  1.00  0.00     0.060 C 
HETATM   16  C23 UNL     1      -7.716   8.266  15.053  1.00  0.00     0.020 C 
HETATM   17  C24 UNL     1      -6.809   7.010  15.061  1.00  0.00    -0.016 C 
HETATM   18  C25 UNL     1      -7.059   6.221  16.378  1.00  0.00     0.020 C 
HETATM   19  C26 UNL     1      -5.292   7.405  14.963  1.00  0.00     0.002 C 
HETATM   20  C27 UNL     1      -4.957   8.377  13.801  1.00  0.00     0.007 C 
HETATM   21  C28 UNL     1      -3.631   8.108  13.082  1.00  0.00     0.014 C 
HETATM   22  C29 UNL     1      -2.475   7.690  14.013  1.00  0.00     0.003 C 
HETATM   23  C30 UNL     1      -2.051   8.925  14.859  1.00  0.00     0.020 C 
ENDROOT
BRANCH   3  24
HETATM   24  O1  UNL     1      -1.712   6.292  12.125  1.00  0.00    -0.377 OA
HETATM   25  H2  UNL     1      -0.928   6.091  11.585  1.00  0.00     0.211 HD
ENDBRANCH   3  24
BRANCH  13  26
HETATM   26  O2  UNL     1     -11.723   7.263  14.517  1.00  0.00    -0.271 OA
BRANCH  26  27
HETATM   27  C13 UNL     1     -13.027   6.965  14.042  1.00  0.00     0.303 C 
BRANCH  27  28
HETATM   28  C14 UNL     1     -13.635   7.996  13.081  1.00  0.00     0.244 C 
HETATM   29  O3  UNL     1     -14.610   7.791  12.366  1.00  0.00    -0.271 OA
HETATM   30  N2  UNL     1     -12.957   9.208  13.097  1.00  0.00    -0.350 N 
HETATM   31  H16 UNL     1     -11.975   9.167  13.357  1.00  0.00     0.163 HD
BRANCH  30  32
HETATM   32  C15 UNL     1     -13.329  10.268  12.181  1.00  0.00     0.225 C 
BRANCH  32  33
HETATM   33  C16 UNL     1     -13.742  11.533  12.940  1.00  0.00     0.236 C 
HETATM   34  O4  UNL     1     -14.670  11.564  13.750  1.00  0.00    -0.272 OA
HETATM   35  N3  UNL     1     -13.005  12.652  12.594  1.00  0.00    -0.345 N 
HETATM   36  H19 UNL     1     -12.483  12.597  11.729  1.00  0.00     0.163 HD
BRANCH  35  37
HETATM   37  C17 UNL     1     -13.447  13.992  13.005  1.00  0.00     0.185 C 
BRANCH  37  38
HETATM   38  C18 UNL     1     -13.411  14.883  11.759  1.00  0.00     0.163 C 
HETATM   39  O5  UNL     1     -14.023  15.931  11.607  1.00  0.00    -0.648 OA
BRANCH  38  40
HETATM   40  O6  UNL     1     -12.623  14.409  10.777  1.00  0.00    -0.775 OA
HETATM   41  H21 UNL     1     -12.692  15.079  10.064  1.00  0.00     0.167 HD
ENDBRANCH  38  40
ENDBRANCH  37  38
BRANCH  37  42
HETATM   42  C19 UNL     1     -12.579  14.526  14.163  1.00  0.00     0.010 C 
HETATM   43  C20 UNL     1     -12.982  15.953  14.550  1.00  0.00     0.012 C 
HETATM   44  C21 UNL     1     -11.074  14.463  13.886  1.00  0.00     0.012 C 
ENDBRANCH  37  42
ENDBRANCH  35  37
ENDBRANCH  32  33
ENDBRANCH  30  32
ENDBRANCH  27  28
ENDBRANCH  26  27
ENDBRANCH  13  26
TORSDOF 10
ENDMDL
MODEL 4
REMARK minimizedAffinity -7.99073982
REMARK CNNscore 0.363902956
REMARK CNNaffinity 7.15734053
REMARK  10 active torsions:
REMARK  status: ('A' for Active; 'I' for Inactive)
REMARK    1  A    between atoms: C3_3  and  O1_4 
REMARK    2  A    between atoms: N1_14  and  O2_16 
REMARK    3  A    between atoms: O2_16  and  C13_17 
REMARK    4  A    between atoms: C13_17  and  C14_18 
REMARK       I    between atoms: C14_18  and  N2_20 
REMARK    5  A    between atoms: N2_20  and  C15_21 
REMARK    6  A    between atoms: C15_21  and  C16_22 
REMARK       I    between atoms: C16_22  and  N3_24 
REMARK    7  A    between atoms: N3_24  and  C17_25 
REMARK    8  A    between atoms: C17_25  and  C18_26 
REMARK    9  A    between atoms: C17_25  and  C19_29 
REMARK   10  A    between atoms: C18_26  and  O6_28 
ROOT
HETATM    1  C1  UNL     1       0.906   8.753  12.063  1.00  0.00     0.015 C 
HETATM    2  C2  UNL     1       0.111   7.965  12.500  1.00  0.00    -0.078 C 
HETATM    3  C3  UNL     1      -0.853   6.984  13.022  1.00  0.00     0.128 C 
HETATM    4  C4  UNL     1      -0.210   6.019  14.023  1.00  0.00     0.052 C 
HETATM    5  C5  UNL     1      -1.414   5.339  14.670  1.00  0.00     0.010 C 
HETATM    6  C6  UNL     1      -2.448   6.466  14.826  1.00  0.00     0.002 C 
HETATM    7  C7  UNL     1      -3.934   6.042  14.804  1.00  0.00    -0.004 C 
HETATM    8  C8  UNL     1      -4.352   5.026  13.725  1.00  0.00     0.010 C 
HETATM    9  C9  UNL     1      -5.685   5.300  13.013  1.00  0.00     0.035 C 
HETATM   10  C10 UNL     1      -6.766   5.985  13.813  1.00  0.00    -0.069 C 
HETATM   11  C11 UNL     1      -8.054   5.847  13.450  1.00  0.00     0.030 C 
HETATM   12  C12 UNL     1      -9.138   6.619  14.115  1.00  0.00     0.032 C 
HETATM   13  N1  UNL     1     -10.367   6.238  13.903  1.00  0.00    -0.271 N 
ATOM     14  H1  UNL     1     -10.627   5.421  13.351  1.00  0.00     0.194 HD
HETATM   15  C22 UNL     1      -8.767   7.799  15.000  1.00  0.00     0.060 C 
HETATM   16  C23 UNL     1      -7.277   8.135  14.972  1.00  0.00     0.020 C 
HETATM   17  C24 UNL     1      -6.360   6.887  14.967  1.00  0.00    -0.016 C 
HETATM   18  C25 UNL     1      -6.573   6.105  16.295  1.00  0.00     0.020 C 
HETATM   19  C26 UNL     1      -4.848   7.294  14.834  1.00  0.00     0.002 C 
HETATM   20  C27 UNL     1      -4.548   8.261  13.657  1.00  0.00     0.007 C 
HETATM   21  C28 UNL     1      -3.236   7.999  12.912  1.00  0.00     0.014 C 
HETATM   22  C29 UNL     1      -2.055   7.597  13.819  1.00  0.00     0.003 C 
HETATM   23  C30 UNL     1      -1.624   8.841  14.647  1.00  0.00     0.020 C 
ENDROOT
BRANCH   3  24
HETATM   24  O1  UNL     1      -1.322   6.192  11.924  1.00  0.00    -0.377 OA
HETATM   25  H2  UNL     1      -0.549   5.995  11.369  1.00  0.00     0.211 HD
ENDBRANCH   3  24
BRANCH  13  26
HETATM   26  O2  UNL     1     -11.286   7.094  14.531  1.00  0.00    -0.271 OA
BRANCH  26  27
HETATM   27  C13 UNL     1     -12.604   6.620  14.298  1.00  0.00     0.303 C 
BRANCH  27  28
HETATM   28  C14 UNL     1     -13.539   7.593  13.565  1.00  0.00     0.244 C 
HETATM   29  O3  UNL     1     -13.207   8.697  13.148  1.00  0.00    -0.271 OA
HETATM   30  N2  UNL     1     -14.826   7.092  13.423  1.00  0.00    -0.350 N 
HETATM   31  H16 UNL     1     -15.125   6.419  14.124  1.00  0.00     0.163 HD
BRANCH  30  32
HETATM   32  C15 UNL     1     -15.872   7.912  12.843  1.00  0.00     0.225 C 
BRANCH  32  33
HETATM   33  C16 UNL     1     -17.096   7.067  12.476  1.00  0.00     0.236 C 
HETATM   34  O4  UNL     1     -17.885   7.373  11.580  1.00  0.00    -0.272 OA
HETATM   35  N3  UNL     1     -17.260   5.952  13.278  1.00  0.00    -0.345 N 
HETATM   36  H19 UNL     1     -16.749   5.948  14.152  1.00  0.00     0.163 HD
BRANCH  35  37
HETATM   37  C17 UNL     1     -18.520   5.196  13.255  1.00  0.00     0.185 C 
BRANCH  37  38
HETATM   38  C18 UNL     1     -19.446   5.826  14.301  1.00  0.00     0.163 C 
HETATM   39  O5  UNL     1     -19.112   6.224  15.410  1.00  0.00    -0.648 OA
BRANCH  38  40
HETATM   40  O6  UNL     1     -20.728   5.914  13.907  1.00  0.00    -0.775 OA
HETATM   41  H21 UNL     1     -21.188   6.339  14.663  1.00  0.00     0.167 HD
ENDBRANCH  38  40
ENDBRANCH  37  38
BRANCH  37  42
HETATM   42  C19 UNL     1     -18.264   3.693  13.493  1.00  0.00     0.010 C 
HETATM   43  C20 UNL     1     -16.841   3.445  14.005  1.00  0.00     0.012 C 
HETATM   44  C21 UNL     1     -18.539   2.819  12.265  1.00  0.00     0.012 C 
ENDBRANCH  37  42
ENDBRANCH  35  37
ENDBRANCH  32  33
ENDBRANCH  30  32
ENDBRANCH  27  28
ENDBRANCH  26  27
ENDBRANCH  13  26
TORSDOF 10
ENDMDL
MODEL 5
REMARK minimizedAffinity -9.43862724
REMARK CNNscore 0.33559978
REMARK CNNaffinity 7.08661842
REMARK  10 active torsions:
REMARK  status: ('A' for Active; 'I' for Inactive)
REMARK    1  A    between atoms: C3_3  and  O1_4 
REMARK    2  A    between atoms: N1_14  and  O2_16 
REMARK    3  A    between atoms: O2_16  and  C13_17 
REMARK    4  A    between atoms: C13_17  and  C14_18 
REMARK       I    between atoms: C14_18  and  N2_20 
REMARK    5  A    between atoms: N2_20  and  C15_21 
REMARK    6  A    between atoms: C15_21  and  C16_22 
REMARK       I    between atoms: C16_22  and  N3_24 
REMARK    7  A    between atoms: N3_24  and  C17_25 
REMARK    8  A    between atoms: C17_25  and  C18_26 
REMARK    9  A    between atoms: C17_25  and  C19_29 
REMARK   10  A    between atoms: C18_26  and  O6_28 
ROOT
HETATM    1  C1  UNL     1       3.061   5.286   7.113  1.00  0.00     0.015 C 
HETATM    2  C2  UNL     1       2.941   5.568   8.276  1.00  0.00    -0.078 C 
HETATM    3  C3  UNL     1       2.807   5.894   9.704  1.00  0.00     0.128 C 
HETATM    4  C4  UNL     1       4.097   6.480  10.287  1.00  0.00     0.052 C 
HETATM    5  C5  UNL     1       3.645   7.042  11.631  1.00  0.00     0.010 C 
HETATM    6  C6  UNL     1       2.261   7.649  11.344  1.00  0.00     0.002 C 
HETATM    7  C7  UNL     1       1.269   7.686  12.528  1.00  0.00    -0.004 C 
HETATM    8  C8  UNL     1       1.170   6.417  13.394  1.00  0.00     0.010 C 
HETATM    9  C9  UNL     1      -0.245   5.987  13.811  1.00  0.00     0.035 C 
HETATM   10  C10 UNL     1      -1.265   7.080  14.017  1.00  0.00    -0.069 C 
HETATM   11  C11 UNL     1      -2.336   6.854  14.799  1.00  0.00     0.030 C 
HETATM   12  C12 UNL     1      -3.440   7.845  14.914  1.00  0.00     0.032 C 
HETATM   13  N1  UNL     1      -4.296   7.683  15.883  1.00  0.00    -0.271 N 
ATOM     14  H1  UNL     1      -4.230   6.952  16.592  1.00  0.00     0.194 HD
HETATM   15  C22 UNL     1      -3.516   8.985  13.908  1.00  0.00     0.060 C 
HETATM   16  C23 UNL     1      -2.488   8.872  12.784  1.00  0.00     0.020 C 
HETATM   17  C24 UNL     1      -1.096   8.389  13.262  1.00  0.00    -0.016 C 
HETATM   18  C25 UNL     1      -0.510   9.444  14.243  1.00  0.00     0.020 C 
HETATM   19  C26 UNL     1      -0.116   8.195  12.050  1.00  0.00     0.002 C 
HETATM   20  C27 UNL     1      -0.687   7.326  10.897  1.00  0.00     0.007 C 
HETATM   21  C28 UNL     1       0.316   6.381  10.230  1.00  0.00     0.014 C 
HETATM   22  C29 UNL     1       1.725   6.977  10.036  1.00  0.00     0.003 C 
HETATM   23  C30 UNL     1       1.650   8.074   8.936  1.00  0.00     0.020 C 
ENDROOT
BRANCH   3  24
HETATM   24  O1  UNL     1       2.545   4.678  10.416  1.00  0.00    -0.377 OA
HETATM   25  H2  UNL     1       3.128   3.999  10.037  1.00  0.00     0.211 HD
ENDBRANCH   3  24
BRANCH  13  26
HETATM   26  O2  UNL     1      -5.320   8.643  15.830  1.00  0.00    -0.271 OA
BRANCH  26  27
HETATM   27  C13 UNL     1      -6.574   7.986  15.731  1.00  0.00     0.303 C 
BRANCH  27  28
HETATM   28  C14 UNL     1      -6.779   7.131  14.472  1.00  0.00     0.244 C 
HETATM   29  O3  UNL     1      -6.161   7.278  13.424  1.00  0.00    -0.271 OA
HETATM   30  N2  UNL     1      -7.756   6.159  14.639  1.00  0.00    -0.350 N 
HETATM   31  H16 UNL     1      -8.479   6.364  15.323  1.00  0.00     0.163 HD
BRANCH  30  32
HETATM   32  C15 UNL     1      -8.154   5.321  13.525  1.00  0.00     0.225 C 
BRANCH  32  33
HETATM   33  C16 UNL     1      -7.233   4.104  13.392  1.00  0.00     0.236 C 
HETATM   34  O4  UNL     1      -7.347   3.090  14.083  1.00  0.00    -0.272 OA
HETATM   35  N3  UNL     1      -6.229   4.270  12.455  1.00  0.00    -0.345 N 
HETATM   36  H19 UNL     1      -6.038   5.220  12.163  1.00  0.00     0.163 HD
BRANCH  35  37
HETATM   37  C17 UNL     1      -5.098   3.332  12.400  1.00  0.00     0.185 C 
BRANCH  37  38
HETATM   38  C18 UNL     1      -3.814   4.168  12.425  1.00  0.00     0.163 C 
HETATM   39  O5  UNL     1      -2.672   3.730  12.409  1.00  0.00    -0.648 OA
BRANCH  38  40
HETATM   40  O6  UNL     1      -4.032   5.494  12.477  1.00  0.00    -0.775 OA
HETATM   41  H21 UNL     1      -3.134   5.890  12.476  1.00  0.00     0.167 HD
ENDBRANCH  38  40
ENDBRANCH  37  38
BRANCH  37  42
HETATM   42  C19 UNL     1      -5.206   2.414  11.165  1.00  0.00     0.010 C 
HETATM   43  C20 UNL     1      -5.560   3.212   9.906  1.00  0.00     0.012 C 
HETATM   44  C21 UNL     1      -6.189   1.253  11.343  1.00  0.00     0.012 C 
ENDBRANCH  37  42
ENDBRANCH  35  37
ENDBRANCH  32  33
ENDBRANCH  30  32
ENDBRANCH  27  28
ENDBRANCH  26  27
ENDBRANCH  13  26
TORSDOF 10
ENDMDL
MODEL 6
REMARK minimizedAffinity -8.57405663
REMARK CNNscore 0.279931366
REMARK CNNaffinity 6.76760864
REMARK  10 active torsions:
REMARK  status: ('A' for Active; 'I' for Inactive)
REMARK    1  A    between atoms: C3_3  and  O1_4 
REMARK    2  A    between atoms: N1_14  and  O2_16 
REMARK    3  A    between atoms: O2_16  and  C13_17 
REMARK    4  A    between atoms: C13_17  and  C14_18 
REMARK       I    between atoms: C14_18  and  N2_20 
REMARK    5  A    between atoms: N2_20  and  C15_21 
REMARK    6  A    between atoms: C15_21  and  C16_22 
REMARK       I    between atoms: C16_22  and  N3_24 
REMARK    7  A    between atoms: N3_24  and  C17_25 
REMARK    8  A    between atoms: C17_25  and  C18_26 
REMARK    9  A    between atoms: C17_25  and  C19_29 
REMARK   10  A    between atoms: C18_26  and  O6_28 
ROOT
HETATM    1  C1  UNL     1       1.043   8.843  12.166  1.00  0.00     0.015 C 
HETATM    2  C2  UNL     1       0.251   8.043  12.588  1.00  0.00    -0.078 C 
HETATM    3  C3  UNL     1      -0.709   7.048  13.092  1.00  0.00     0.128 C 
HETATM    4  C4  UNL     1      -0.076   6.102  14.117  1.00  0.00     0.052 C 
HETATM    5  C5  UNL     1      -1.283   5.405  14.737  1.00  0.00     0.010 C 
HETATM    6  C6  UNL     1      -2.342   6.514  14.857  1.00  0.00     0.002 C 
HETATM    7  C7  UNL     1      -3.819   6.063  14.799  1.00  0.00    -0.004 C 
HETATM    8  C8  UNL     1      -4.189   5.031  13.717  1.00  0.00     0.010 C 
HETATM    9  C9  UNL     1      -5.507   5.276  12.968  1.00  0.00     0.035 C 
HETATM   10  C10 UNL     1      -6.622   5.946  13.734  1.00  0.00    -0.069 C 
HETATM   11  C11 UNL     1      -7.897   5.782  13.337  1.00  0.00     0.030 C 
HETATM   12  C12 UNL     1      -9.012   6.539  13.967  1.00  0.00     0.032 C 
HETATM   13  N1  UNL     1     -10.227   6.133  13.726  1.00  0.00    -0.271 N 
ATOM     14  H1  UNL     1     -10.458   5.308  13.173  1.00  0.00     0.194 HD
HETATM   15  C22 UNL     1      -8.686   7.732  14.853  1.00  0.00     0.060 C 
HETATM   16  C23 UNL     1      -7.202   8.095  14.861  1.00  0.00     0.020 C 
HETATM   17  C24 UNL     1      -6.263   6.864  14.891  1.00  0.00    -0.016 C 
HETATM   18  C25 UNL     1      -6.497   6.088  16.219  1.00  0.00     0.020 C 
HETATM   19  C26 UNL     1      -4.756   7.298  14.794  1.00  0.00     0.002 C 
HETATM   20  C27 UNL     1      -4.442   8.262  13.619  1.00  0.00     0.007 C 
HETATM   21  C28 UNL     1      -3.106   8.018  12.911  1.00  0.00     0.014 C 
HETATM   22  C29 UNL     1      -1.943   7.645  13.852  1.00  0.00     0.003 C 
HETATM   23  C30 UNL     1      -1.556   8.902  14.682  1.00  0.00     0.020 C 
ENDROOT
BRANCH   3  24
HETATM   24  O1  UNL     1      -1.134   6.240  11.988  1.00  0.00    -0.377 OA
HETATM   25  H2  UNL     1      -0.343   6.053  11.456  1.00  0.00     0.211 HD
ENDBRANCH   3  24
BRANCH  13  26
HETATM   26  O2  UNL     1     -11.178   6.977  14.322  1.00  0.00    -0.271 OA
BRANCH  26  27
HETATM   27  C13 UNL     1     -11.982   7.567  13.312  1.00  0.00     0.303 C 
BRANCH  27  28
HETATM   28  C14 UNL     1     -13.416   7.923  13.728  1.00  0.00     0.244 C 
HETATM   29  O3  UNL     1     -13.988   7.469  14.713  1.00  0.00    -0.271 OA
HETATM   30  N2  UNL     1     -14.017   8.826  12.860  1.00  0.00    -0.350 N 
HETATM   31  H16 UNL     1     -13.677   8.819  11.902  1.00  0.00     0.163 HD
BRANCH  30  32
HETATM   32  C15 UNL     1     -15.405   9.202  13.039  1.00  0.00     0.225 C 
BRANCH  32  33
HETATM   33  C16 UNL     1     -16.276   8.656  11.903  1.00  0.00     0.236 C 
HETATM   34  O4  UNL     1     -15.865   7.857  11.060  1.00  0.00    -0.272 OA
HETATM   35  N3  UNL     1     -17.556   9.181  11.886  1.00  0.00    -0.345 N 
HETATM   36  H19 UNL     1     -17.702  10.029  12.419  1.00  0.00     0.163 HD
BRANCH  35  37
HETATM   37  C17 UNL     1     -18.423   8.991  10.714  1.00  0.00     0.185 C 
BRANCH  37  38
HETATM   38  C18 UNL     1     -18.334  10.267   9.872  1.00  0.00     0.163 C 
HETATM   39  O5  UNL     1     -18.149  11.399  10.299  1.00  0.00    -0.648 OA
BRANCH  38  40
HETATM   40  O6  UNL     1     -18.489  10.057   8.552  1.00  0.00    -0.775 OA
HETATM   41  H21 UNL     1     -18.398  10.948   8.151  1.00  0.00     0.167 HD
ENDBRANCH  38  40
ENDBRANCH  37  38
BRANCH  37  42
HETATM   42  C19 UNL     1     -19.863   8.644  11.148  1.00  0.00     0.010 C 
HETATM   43  C20 UNL     1     -20.650   7.998  10.002  1.00  0.00     0.012 C 
HETATM   44  C21 UNL     1     -20.642   9.837  11.711  1.00  0.00     0.012 C 
ENDBRANCH  37  42
ENDBRANCH  35  37
ENDBRANCH  32  33
ENDBRANCH  30  32
ENDBRANCH  27  28
ENDBRANCH  26  27
ENDBRANCH  13  26
TORSDOF 10
ENDMDL
MODEL 7
REMARK minimizedAffinity -8.04509926
REMARK CNNscore 0.244694337
REMARK CNNaffinity 5.61179924
REMARK  10 active torsions:
REMARK  status: ('A' for Active; 'I' for Inactive)
REMARK    1  A    between atoms: C3_3  and  O1_4 
REMARK    2  A    between atoms: N1_14  and  O2_16 
REMARK    3  A    between atoms: O2_16  and  C13_17 
REMARK    4  A    between atoms: C13_17  and  C14_18 
REMARK       I    between atoms: C14_18  and  N2_20 
REMARK    5  A    between atoms: N2_20  and  C15_21 
REMARK    6  A    between atoms: C15_21  and  C16_22 
REMARK       I    between atoms: C16_22  and  N3_24 
REMARK    7  A    between atoms: N3_24  and  C17_25 
REMARK    8  A    between atoms: C17_25  and  C18_26 
REMARK    9  A    between atoms: C17_25  and  C19_29 
REMARK   10  A    between atoms: C18_26  and  O6_28 
ROOT
HETATM    1  C1  UNL     1       2.084   8.077  22.748  1.00  0.00     0.015 C 
HETATM    2  C2  UNL     1       2.406   9.092  22.189  1.00  0.00    -0.078 C 
HETATM    3  C3  UNL     1       2.797  10.323  21.486  1.00  0.00     0.128 C 
HETATM    4  C4  UNL     1       1.586  11.086  20.940  1.00  0.00     0.052 C 
HETATM    5  C5  UNL     1       2.171  12.444  20.566  1.00  0.00     0.010 C 
HETATM    6  C6  UNL     1       3.173  12.749  21.693  1.00  0.00     0.002 C 
HETATM    7  C7  UNL     1       4.375  13.645  21.319  1.00  0.00    -0.004 C 
HETATM    8  C8  UNL     1       5.085  13.338  19.988  1.00  0.00     0.010 C 
HETATM    9  C9  UNL     1       6.620  13.387  20.009  1.00  0.00     0.035 C 
HETATM   10  C10 UNL     1       7.266  14.366  20.960  1.00  0.00    -0.069 C 
HETATM   11  C11 UNL     1       8.517  14.798  20.724  1.00  0.00     0.030 C 
HETATM   12  C12 UNL     1       9.248  15.644  21.707  1.00  0.00     0.032 C 
HETATM   13  N1  UNL     1      10.332  16.242  21.299  1.00  0.00    -0.271 N 
ATOM     14  H1  UNL     1      10.683  16.205  20.342  1.00  0.00     0.194 HD
HETATM   15  C22 UNL     1       8.702  15.770  23.121  1.00  0.00     0.060 C 
HETATM   16  C23 UNL     1       7.506  14.859  23.394  1.00  0.00     0.020 C 
HETATM   17  C24 UNL     1       6.508  14.775  22.213  1.00  0.00    -0.016 C 
HETATM   18  C25 UNL     1       5.896  16.185  21.974  1.00  0.00     0.020 C 
HETATM   19  C26 UNL     1       5.359  13.747  22.514  1.00  0.00     0.002 C 
HETATM   20  C27 UNL     1       5.854  12.351  22.978  1.00  0.00     0.007 C 
HETATM   21  C28 UNL     1       5.059  11.159  22.436  1.00  0.00     0.014 C 
HETATM   22  C29 UNL     1       3.535  11.385  22.371  1.00  0.00     0.003 C 
HETATM   23  C30 UNL     1       2.977  11.415  23.822  1.00  0.00     0.020 C 
ENDROOT
BRANCH   3  24
HETATM   24  O1  UNL     1       3.600   9.956  20.357  1.00  0.00    -0.377 OA
HETATM   25  H2  UNL     1       3.181   9.176  19.955  1.00  0.00     0.211 HD
ENDBRANCH   3  24
BRANCH  13  26
HETATM   26  O2  UNL     1      10.955  16.945  22.343  1.00  0.00    -0.271 OA
BRANCH  26  27
HETATM   27  C13 UNL     1      11.483  18.162  21.839  1.00  0.00     0.303 C 
BRANCH  27  28
HETATM   28  C14 UNL     1      12.369  18.036  20.591  1.00  0.00     0.244 C 
HETATM   29  O3  UNL     1      11.991  18.253  19.445  1.00  0.00    -0.271 OA
HETATM   30  N2  UNL     1      13.664  17.637  20.893  1.00  0.00    -0.350 N 
HETATM   31  H16 UNL     1      13.778  17.089  21.741  1.00  0.00     0.163 HD
BRANCH  30  32
HETATM   32  C15 UNL     1      14.615  17.370  19.831  1.00  0.00     0.225 C 
BRANCH  32  33
HETATM   33  C16 UNL     1      14.726  15.867  19.556  1.00  0.00     0.236 C 
HETATM   34  O4  UNL     1      13.765  15.165  19.235  1.00  0.00    -0.272 OA
HETATM   35  N3  UNL     1      15.999  15.362  19.748  1.00  0.00    -0.345 N 
HETATM   36  H19 UNL     1      16.635  15.937  20.286  1.00  0.00     0.163 HD
BRANCH  35  37
HETATM   37  C17 UNL     1      16.224  13.910  19.808  1.00  0.00     0.185 C 
BRANCH  37  38
HETATM   38  C18 UNL     1      15.881  13.456  21.231  1.00  0.00     0.163 C 
HETATM   39  O5  UNL     1      15.368  12.389  21.541  1.00  0.00    -0.648 OA
BRANCH  38  40
HETATM   40  O6  UNL     1      16.189  14.362  22.177  1.00  0.00    -0.775 OA
HETATM   41  H21 UNL     1      15.926  13.933  23.020  1.00  0.00     0.167 HD
ENDBRANCH  38  40
ENDBRANCH  37  38
BRANCH  37  42
HETATM   42  C19 UNL     1      17.666  13.560  19.386  1.00  0.00     0.010 C 
HETATM   43  C20 UNL     1      17.791  12.081  19.003  1.00  0.00     0.012 C 
HETATM   44  C21 UNL     1      18.721  13.921  20.436  1.00  0.00     0.012 C 
ENDBRANCH  37  42
ENDBRANCH  35  37
ENDBRANCH  32  33
ENDBRANCH  30  32
ENDBRANCH  27  28
ENDBRANCH  26  27
ENDBRANCH  13  26
TORSDOF 10
ENDMDL
MODEL 8
REMARK minimizedAffinity -7.22715092
REMARK CNNscore 0.238269076
REMARK CNNaffinity 4.83281088
REMARK  10 active torsions:
REMARK  status: ('A' for Active; 'I' for Inactive)
REMARK    1  A    between atoms: C3_3  and  O1_4 
REMARK    2  A    between atoms: N1_14  and  O2_16 
REMARK    3  A    between atoms: O2_16  and  C13_17 
REMARK    4  A    between atoms: C13_17  and  C14_18 
REMARK       I    between atoms: C14_18  and  N2_20 
REMARK    5  A    between atoms: N2_20  and  C15_21 
REMARK    6  A    between atoms: C15_21  and  C16_22 
REMARK       I    between atoms: C16_22  and  N3_24 
REMARK    7  A    between atoms: N3_24  and  C17_25 
REMARK    8  A    between atoms: C17_25  and  C18_26 
REMARK    9  A    between atoms: C17_25  and  C19_29 
REMARK   10  A    between atoms: C18_26  and  O6_28 
ROOT
HETATM    1  C1  UNL     1       1.909   8.255   9.881  1.00  0.00     0.015 C 
HETATM    2  C2  UNL     1       2.857   7.867  10.510  1.00  0.00    -0.078 C 
HETATM    3  C3  UNL     1       4.005   7.374  11.286  1.00  0.00     0.128 C 
HETATM    4  C4  UNL     1       4.694   6.185  10.608  1.00  0.00     0.052 C 
HETATM    5  C5  UNL     1       6.007   6.062  11.376  1.00  0.00     0.010 C 
HETATM    6  C6  UNL     1       6.441   7.516  11.622  1.00  0.00     0.002 C 
HETATM    7  C7  UNL     1       7.299   7.772  12.882  1.00  0.00    -0.004 C 
HETATM    8  C8  UNL     1       6.851   7.079  14.182  1.00  0.00     0.010 C 
HETATM    9  C9  UNL     1       6.912   7.928  15.461  1.00  0.00     0.035 C 
HETATM   10  C10 UNL     1       7.995   8.977  15.541  1.00  0.00    -0.069 C 
HETATM   11  C11 UNL     1       8.407   9.420  16.742  1.00  0.00     0.030 C 
HETATM   12  C12 UNL     1       9.361  10.555  16.869  1.00  0.00     0.032 C 
HETATM   13  N1  UNL     1       9.918  10.747  18.032  1.00  0.00    -0.271 N 
ATOM     14  H1  UNL     1       9.777  10.144  18.842  1.00  0.00     0.194 HD
HETATM   15  C22 UNL     1       9.640  11.424  15.651  1.00  0.00     0.060 C 
HETATM   16  C23 UNL     1       8.757  11.089  14.451  1.00  0.00     0.020 C 
HETATM   17  C24 UNL     1       8.535   9.568  14.249  1.00  0.00    -0.016 C 
HETATM   18  C25 UNL     1       9.906   8.900  13.943  1.00  0.00     0.020 C 
HETATM   19  C26 UNL     1       7.539   9.293  13.066  1.00  0.00     0.002 C 
HETATM   20  C27 UNL     1       6.207  10.085  13.153  1.00  0.00     0.007 C 
HETATM   21  C28 UNL     1       4.957   9.316  12.714  1.00  0.00     0.014 C 
HETATM   22  C29 UNL     1       5.164   8.410  11.484  1.00  0.00     0.003 C 
HETATM   23  C30 UNL     1       5.350   9.312  10.231  1.00  0.00     0.020 C 
ENDROOT
BRANCH   3  24
HETATM   24  O1  UNL     1       3.520   6.906  12.551  1.00  0.00    -0.377 OA
HETATM   25  H2  UNL     1       2.698   6.419  12.374  1.00  0.00     0.211 HD
ENDBRANCH   3  24
BRANCH  13  26
HETATM   26  O2  UNL     1      10.737  11.888  18.027  1.00  0.00    -0.271 OA
BRANCH  26  27
HETATM   27  C13 UNL     1      11.647  11.817  19.114  1.00  0.00     0.303 C 
BRANCH  27  28
HETATM   28  C14 UNL     1      13.134  11.901  18.742  1.00  0.00     0.244 C 
HETATM   29  O3  UNL     1      13.645  11.330  17.785  1.00  0.00    -0.271 OA
HETATM   30  N2  UNL     1      13.860  12.699  19.616  1.00  0.00    -0.350 N 
HETATM   31  H16 UNL     1      13.495  12.774  20.562  1.00  0.00     0.163 HD
BRANCH  30  32
HETATM   32  C15 UNL     1      15.298  12.816  19.479  1.00  0.00     0.225 C 
BRANCH  32  33
HETATM   33  C16 UNL     1      15.922  13.446  20.728  1.00  0.00     0.236 C 
HETATM   34  O4  UNL     1      15.820  12.958  21.855  1.00  0.00    -0.272 OA
HETATM   35  N3  UNL     1      16.571  14.642  20.479  1.00  0.00    -0.345 N 
HETATM   36  H19 UNL     1      16.350  15.101  19.605  1.00  0.00     0.163 HD
BRANCH  35  37
HETATM   37  C17 UNL     1      16.974  15.517  21.590  1.00  0.00     0.185 C 
BRANCH  37  38
HETATM   38  C18 UNL     1      16.053  16.741  21.560  1.00  0.00     0.163 C 
HETATM   39  O5  UNL     1      16.204  17.737  20.866  1.00  0.00    -0.648 OA
BRANCH  38  40
HETATM   40  O6  UNL     1      15.008  16.652  22.402  1.00  0.00    -0.775 OA
HETATM   41  H21 UNL     1      14.513  17.489  22.265  1.00  0.00     0.167 HD
ENDBRANCH  38  40
ENDBRANCH  37  38
BRANCH  37  42
HETATM   42  C19 UNL     1      18.472  15.876  21.491  1.00  0.00     0.010 C 
HETATM   43  C20 UNL     1      19.286  14.715  20.911  1.00  0.00     0.012 C 
HETATM   44  C21 UNL     1      19.085  16.335  22.817  1.00  0.00     0.012 C 
ENDBRANCH  37  42
ENDBRANCH  35  37
ENDBRANCH  32  33
ENDBRANCH  30  32
ENDBRANCH  27  28
ENDBRANCH  26  27
ENDBRANCH  13  26
TORSDOF 10
ENDMDL
MODEL 9
REMARK minimizedAffinity -7.32494259
REMARK CNNscore 0.20250462
REMARK CNNaffinity 6.37379789
REMARK  10 active torsions:
REMARK  status: ('A' for Active; 'I' for Inactive)
REMARK    1  A    between atoms: C3_3  and  O1_4 
REMARK    2  A    between atoms: N1_14  and  O2_16 
REMARK    3  A    between atoms: O2_16  and  C13_17 
REMARK    4  A    between atoms: C13_17  and  C14_18 
REMARK       I    between atoms: C14_18  and  N2_20 
REMARK    5  A    between atoms: N2_20  and  C15_21 
REMARK    6  A    between atoms: C15_21  and  C16_22 
REMARK       I    between atoms: C16_22  and  N3_24 
REMARK    7  A    between atoms: N3_24  and  C17_25 
REMARK    8  A    between atoms: C17_25  and  C18_26 
REMARK    9  A    between atoms: C17_25  and  C19_29 
REMARK   10  A    between atoms: C18_26  and  O6_28 
ROOT
HETATM    1  C1  UNL     1      -9.315   5.798  12.400  1.00  0.00     0.015 C 
HETATM    2  C2  UNL     1      -8.564   6.202  13.247  1.00  0.00    -0.078 C 
HETATM    3  C3  UNL     1      -7.661   6.707  14.293  1.00  0.00     0.128 C 
HETATM    4  C4  UNL     1      -7.887   6.009  15.638  1.00  0.00     0.052 C 
HETATM    5  C5  UNL     1      -6.665   6.424  16.453  1.00  0.00     0.010 C 
HETATM    6  C6  UNL     1      -5.506   6.390  15.443  1.00  0.00     0.002 C 
HETATM    7  C7  UNL     1      -4.328   7.353  15.718  1.00  0.00    -0.004 C 
HETATM    8  C8  UNL     1      -4.687   8.791  16.132  1.00  0.00     0.010 C 
HETATM    9  C9  UNL     1      -3.854   9.911  15.489  1.00  0.00     0.035 C 
HETATM   10  C10 UNL     1      -2.417   9.596  15.154  1.00  0.00    -0.069 C 
HETATM   11  C11 UNL     1      -1.525  10.596  15.036  1.00  0.00     0.030 C 
HETATM   12  C12 UNL     1      -0.136  10.349  14.564  1.00  0.00     0.032 C 
HETATM   13  N1  UNL     1       0.737  11.302  14.734  1.00  0.00    -0.271 N 
ATOM     14  H1  UNL     1       0.540  12.183  15.209  1.00  0.00     0.194 HD
HETATM   15  C22 UNL     1       0.197   9.013  13.915  1.00  0.00     0.060 C 
HETATM   16  C23 UNL     1      -1.026   8.123  13.697  1.00  0.00     0.020 C 
HETATM   17  C24 UNL     1      -2.032   8.152  14.875  1.00  0.00    -0.016 C 
HETATM   18  C25 UNL     1      -1.335   7.580  16.142  1.00  0.00     0.020 C 
HETATM   19  C26 UNL     1      -3.311   7.301  14.548  1.00  0.00     0.002 C 
HETATM   20  C27 UNL     1      -3.974   7.639  13.186  1.00  0.00     0.007 C 
HETATM   21  C28 UNL     1      -5.506   7.622  13.181  1.00  0.00     0.014 C 
HETATM   22  C29 UNL     1      -6.135   6.487  14.013  1.00  0.00     0.003 C 
HETATM   23  C30 UNL     1      -5.871   5.137  13.287  1.00  0.00     0.020 C 
ENDROOT
BRANCH   3  24
HETATM   24  O1  UNL     1      -7.945   8.097  14.494  1.00  0.00    -0.377 OA
HETATM   25  H2  UNL     1      -8.913   8.191  14.479  1.00  0.00     0.211 HD
ENDBRANCH   3  24
BRANCH  13  26
HETATM   26  O2  UNL     1       1.982  10.964  14.181  1.00  0.00    -0.271 OA
BRANCH  26  27
HETATM   27  C13 UNL     1       3.008  11.258  15.117  1.00  0.00     0.303 C 
BRANCH  27  28
HETATM   28  C14 UNL     1       2.871  10.578  16.487  1.00  0.00     0.244 C 
HETATM   29  O3  UNL     1       3.051   9.383  16.691  1.00  0.00    -0.271 OA
HETATM   30  N2  UNL     1       2.512  11.466  17.492  1.00  0.00    -0.350 N 
HETATM   31  H16 UNL     1       1.987  12.286  17.198  1.00  0.00     0.163 HD
BRANCH  30  32
HETATM   32  C15 UNL     1       2.241  10.986  18.832  1.00  0.00     0.225 C 
BRANCH  32  33
HETATM   33  C16 UNL     1       3.474  11.129  19.730  1.00  0.00     0.236 C 
HETATM   34  O4  UNL     1       4.003  10.178  20.310  1.00  0.00    -0.272 OA
HETATM   35  N3  UNL     1       3.910  12.434  19.867  1.00  0.00    -0.345 N 
HETATM   36  H19 UNL     1       3.253  13.158  19.605  1.00  0.00     0.163 HD
BRANCH  35  37
HETATM   37  C17 UNL     1       4.890  12.788  20.904  1.00  0.00     0.185 C 
BRANCH  37  38
HETATM   38  C18 UNL     1       6.283  12.633  20.283  1.00  0.00     0.163 C 
HETATM   39  O5  UNL     1       7.170  13.476  20.289  1.00  0.00    -0.648 OA
BRANCH  38  40
HETATM   40  O6  UNL     1       6.481  11.444  19.687  1.00  0.00    -0.775 OA
HETATM   41  H21 UNL     1       7.402  11.489  19.352  1.00  0.00     0.167 HD
ENDBRANCH  38  40
ENDBRANCH  37  38
BRANCH  37  42
HETATM   42  C19 UNL     1       4.686  11.927  22.169  1.00  0.00     0.010 C 
HETATM   43  C20 UNL     1       3.546  12.473  23.036  1.00  0.00     0.012 C 
HETATM   44  C21 UNL     1       5.953  11.761  23.013  1.00  0.00     0.012 C 
ENDBRANCH  37  42
ENDBRANCH  35  37
ENDBRANCH  32  33
ENDBRANCH  30  32
ENDBRANCH  27  28
ENDBRANCH  26  27
ENDBRANCH  13  26
TORSDOF 10
ENDMDL
