MODEL 1
REMARK minimizedAffinity -9.87632465
REMARK  4 active torsions:
REMARK  status: ('A' for Active; 'I' for Inactive)
REMARK    1  A    between atoms: C2_2  and  C4_4 
REMARK    2  A    between atoms: C4_4  and  C5_5 
REMARK    3  A    between atoms: C5_5  and  O1_6 
REMARK    4  A    between atoms: C8_9  and  C9_10 
ROOT
HETATM    1  C9  UNL     1      -3.361   8.141  15.059  1.00  0.00     0.001 C 
HETATM    2  C10 UNL     1      -2.441   7.792  16.259  1.00  0.00     0.007 C 
HETATM    3  C11 UNL     1      -1.038   7.510  15.687  1.00  0.00     0.011 C 
HETATM    4  C12 UNL     1      -1.076   8.050  14.242  1.00  0.00    -0.032 C 
HETATM    5  C13 UNL     1      -0.792   9.582  14.342  1.00  0.00     0.016 C 
HETATM    6  C14 UNL     1      -0.070   7.376  13.272  1.00  0.00     0.004 C 
HETATM    7  C15 UNL     1       1.399   7.740  13.532  1.00  0.00     0.007 C 
HETATM    8  C16 UNL     1       2.312   6.957  12.589  1.00  0.00     0.007 C 
HETATM    9  C17 UNL     1       2.129   7.448  11.145  1.00  0.00     0.010 C 
HETATM   10  C18 UNL     1       2.980   6.687  10.074  1.00  0.00     0.018 C 
HETATM   11  C19 UNL     1       2.919   5.156  10.205  1.00  0.00     0.023 C 
HETATM   12  C20 UNL     1       4.454   7.126  10.163  1.00  0.00     0.023 C 
HETATM   13  C21 UNL     1       2.482   7.081   8.672  1.00  0.00     0.135 C 
HETATM   14  O2  UNL     1       2.732   6.414   7.666  1.00  0.00    -0.297 OA
HETATM   15  C22 UNL     1       1.742   8.390   8.562  1.00  0.00     0.080 C 
HETATM   16  C23 UNL     1       0.488   8.363   9.427  1.00  0.00     0.018 C 
HETATM   17  C24 UNL     1       0.661   7.551  10.710  1.00  0.00    -0.026 A 
HETATM   18  C25 UNL     1      -0.270   6.376  10.894  1.00  0.00     0.021 A 
HETATM   19  C26 UNL     1      -0.459   7.589  11.787  1.00  0.00    -0.027 A 
HETATM   20  C27 UNL     1      -1.684   8.464  11.503  1.00  0.00     0.011 C 
HETATM   21  C28 UNL     1      -2.861   8.384  12.493  1.00  0.00     0.011 C 
HETATM   22  C29 UNL     1      -2.544   7.669  13.814  1.00  0.00    -0.032 C 
HETATM   23  C30 UNL     1      -2.757   6.145  13.588  1.00  0.00     0.016 C 
ENDROOT
BRANCH   1  24
HETATM   24  C8  UNL     1      -4.850   7.757  15.274  1.00  0.00     0.014 C 
HETATM   25  C7  UNL     1      -5.843   8.779  14.718  1.00  0.00     0.010 C 
HETATM   26  C6  UNL     1      -7.246   8.430  15.205  1.00  0.00     0.041 C 
HETATM   27  C4  UNL     1      -7.633   6.953  14.911  1.00  0.00     0.085 C 
HETATM   28  O3  UNL     1      -6.548   6.249  14.271  1.00  0.00    -0.377 OA
HETATM   29  C31 UNL     1      -5.269   6.326  14.907  1.00  0.00     0.174 C 
BRANCH  27  30
HETATM   30  C2  UNL     1      -8.846   6.913  13.910  1.00  0.00     0.014 C 
HETATM   31  C1  UNL     1     -10.228   6.949  14.579  1.00  0.00     0.012 C 
HETATM   32  C3  UNL     1      -8.809   5.670  13.001  1.00  0.00     0.012 C 
ENDBRANCH  27  30
BRANCH  27  33
HETATM   33  C5  UNL     1      -7.972   6.246  16.255  1.00  0.00     0.202 C 
BRANCH  33  34
HETATM   34  O1  UNL     1      -8.014   4.827  16.123  1.00  0.00    -0.398 OA
HETATM   35  H10 UNL     1      -7.395   4.609  15.401  1.00  0.00     0.209 HD
ENDBRANCH  33  34
ENDBRANCH  27  33
ENDBRANCH   1  24
TORSDOF 4
ENDMDL
MODEL 2
REMARK minimizedAffinity -9.65803051
REMARK  4 active torsions:
REMARK  status: ('A' for Active; 'I' for Inactive)
REMARK    1  A    between atoms: C2_2  and  C4_4 
REMARK    2  A    between atoms: C4_4  and  C5_5 
REMARK    3  A    between atoms: C5_5  and  O1_6 
REMARK    4  A    between atoms: C8_9  and  C9_10 
ROOT
HETATM    1  C9  UNL     1       0.577   6.291  13.139  1.00  0.00     0.001 C 
HETATM    2  C10 UNL     1       0.915   7.027  14.464  1.00  0.00     0.007 C 
HETATM    3  C11 UNL     1      -0.417   7.267  15.200  1.00  0.00     0.011 C 
HETATM    4  C12 UNL     1      -1.441   6.360  14.488  1.00  0.00    -0.032 C 
HETATM    5  C13 UNL     1      -1.280   4.941  15.119  1.00  0.00     0.016 C 
HETATM    6  C14 UNL     1      -2.914   6.836  14.595  1.00  0.00     0.004 C 
HETATM    7  C15 UNL     1      -3.526   6.683  15.997  1.00  0.00     0.007 C 
HETATM    8  C16 UNL     1      -4.940   7.263  16.021  1.00  0.00     0.007 C 
HETATM    9  C17 UNL     1      -5.885   6.390  15.182  1.00  0.00     0.010 C 
HETATM   10  C18 UNL     1      -7.359   6.908  15.091  1.00  0.00     0.018 C 
HETATM   11  C19 UNL     1      -7.471   8.407  14.767  1.00  0.00     0.023 C 
HETATM   12  C20 UNL     1      -8.095   6.639  16.417  1.00  0.00     0.023 C 
HETATM   13  C21 UNL     1      -8.100   6.112  14.001  1.00  0.00     0.135 C 
HETATM   14  O2  UNL     1      -9.148   6.505  13.488  1.00  0.00    -0.297 OA
HETATM   15  C22 UNL     1      -7.529   4.762  13.647  1.00  0.00     0.080 C 
HETATM   16  C23 UNL     1      -6.106   4.909  13.123  1.00  0.00     0.018 C 
HETATM   17  C24 UNL     1      -5.335   6.047  13.791  1.00  0.00    -0.026 A 
HETATM   18  C25 UNL     1      -4.829   7.142  12.883  1.00  0.00     0.021 A 
HETATM   19  C26 UNL     1      -3.815   6.200  13.506  1.00  0.00    -0.027 A 
HETATM   20  C27 UNL     1      -3.164   5.178  12.569  1.00  0.00     0.011 C 
HETATM   21  C28 UNL     1      -1.698   5.417  12.163  1.00  0.00     0.011 C 
HETATM   22  C29 UNL     1      -0.966   6.483  12.990  1.00  0.00    -0.032 C 
HETATM   23  C30 UNL     1      -1.267   7.867  12.347  1.00  0.00     0.016 C 
ENDROOT
BRANCH   1  24
HETATM   24  C8  UNL     1       1.570   6.588  11.983  1.00  0.00     0.014 C 
HETATM   25  C7  UNL     1       1.586   5.522  10.887  1.00  0.00     0.010 C 
HETATM   26  C6  UNL     1       2.761   5.783   9.950  1.00  0.00     0.041 C 
HETATM   27  C4  UNL     1       2.784   7.240   9.409  1.00  0.00     0.085 C 
HETATM   28  O3  UNL     1       1.696   8.015   9.956  1.00  0.00    -0.377 OA
HETATM   29  C31 UNL     1       1.547   7.999  11.378  1.00  0.00     0.174 C 
BRANCH  27  30
HETATM   30  C2  UNL     1       2.588   7.229   7.849  1.00  0.00     0.014 C 
HETATM   31  C1  UNL     1       1.240   7.787   7.370  1.00  0.00     0.012 C 
HETATM   32  C3  UNL     1       2.738   5.816   7.254  1.00  0.00     0.012 C 
ENDBRANCH  27  30
BRANCH  27  33
HETATM   33  C5  UNL     1       4.132   7.905   9.815  1.00  0.00     0.202 C 
BRANCH  33  34
HETATM   34  O1  UNL     1       5.117   6.944  10.188  1.00  0.00    -0.398 OA
HETATM   35  H10 UNL     1       4.906   6.137   9.680  1.00  0.00     0.209 HD
ENDBRANCH  33  34
ENDBRANCH  27  33
ENDBRANCH   1  24
TORSDOF 4
ENDMDL
MODEL 3
REMARK minimizedAffinity -9.28088379
REMARK  4 active torsions:
REMARK  status: ('A' for Active; 'I' for Inactive)
REMARK    1  A    between atoms: C2_2  and  C4_4 
REMARK    2  A    between atoms: C4_4  and  C5_5 
REMARK    3  A    between atoms: C5_5  and  O1_6 
REMARK    4  A    between atoms: C8_9  and  C9_10 
ROOT
HETATM    1  C9  UNL     1       1.151   6.956  13.126  1.00  0.00     0.001 C 
HETATM    2  C10 UNL     1       0.384   8.064  13.896  1.00  0.00     0.007 C 
HETATM    3  C11 UNL     1      -1.094   7.636  13.953  1.00  0.00     0.011 C 
HETATM    4  C12 UNL     1      -1.099   6.147  13.551  1.00  0.00    -0.032 C 
HETATM    5  C13 UNL     1      -0.756   5.344  14.846  1.00  0.00     0.016 C 
HETATM    6  C14 UNL     1      -2.434   5.643  12.941  1.00  0.00     0.004 C 
HETATM    7  C15 UNL     1      -3.586   5.531  13.951  1.00  0.00     0.007 C 
HETATM    8  C16 UNL     1      -4.874   5.120  13.238  1.00  0.00     0.007 C 
HETATM    9  C17 UNL     1      -4.765   3.671  12.742  1.00  0.00     0.010 C 
HETATM   10  C18 UNL     1      -6.010   3.146  11.951  1.00  0.00     0.018 C 
HETATM   11  C19 UNL     1      -6.516   4.119  10.873  1.00  0.00     0.023 C 
HETATM   12  C20 UNL     1      -7.166   2.851  12.924  1.00  0.00     0.023 C 
HETATM   13  C21 UNL     1      -5.644   1.811  11.276  1.00  0.00     0.135 C 
HETATM   14  O2  UNL     1      -6.295   1.337  10.344  1.00  0.00    -0.297 OA
HETATM   15  C22 UNL     1      -4.491   1.047  11.875  1.00  0.00     0.080 C 
HETATM   16  C23 UNL     1      -3.215   1.878  11.812  1.00  0.00     0.018 C 
HETATM   17  C24 UNL     1      -3.465   3.376  11.981  1.00  0.00    -0.026 A 
HETATM   18  C25 UNL     1      -3.036   4.263  10.838  1.00  0.00     0.021 A 
HETATM   19  C26 UNL     1      -2.250   4.333  12.134  1.00  0.00    -0.027 A 
HETATM   20  C27 UNL     1      -0.851   3.709  12.122  1.00  0.00     0.011 C 
HETATM   21  C28 UNL     1       0.355   4.666  12.118  1.00  0.00     0.011 C 
HETATM   22  C29 UNL     1       0.018   6.129  12.439  1.00  0.00    -0.032 C 
HETATM   23  C30 UNL     1      -0.408   6.817  11.111  1.00  0.00     0.016 C 
ENDROOT
BRANCH   1  24
HETATM   24  C8  UNL     1       2.394   7.471  12.351  1.00  0.00     0.014 C 
HETATM   25  C7  UNL     1       3.557   7.893  13.250  1.00  0.00     0.010 C 
HETATM   26  C6  UNL     1       4.607   8.611  12.408  1.00  0.00     0.041 C 
HETATM   27  C4  UNL     1       5.042   7.788  11.163  1.00  0.00     0.085 C 
HETATM   28  O3  UNL     1       4.315   6.543  11.083  1.00  0.00    -0.377 OA
HETATM   29  C31 UNL     1       2.890   6.625  11.170  1.00  0.00     0.174 C 
BRANCH  27  30
HETATM   30  C2  UNL     1       6.564   7.412  11.281  1.00  0.00     0.014 C 
HETATM   31  C1  UNL     1       6.871   5.918  11.096  1.00  0.00     0.012 C 
HETATM   32  C3  UNL     1       7.165   7.838  12.635  1.00  0.00     0.012 C 
ENDBRANCH  27  30
BRANCH  27  33
HETATM   33  C5  UNL     1       4.754   8.625   9.883  1.00  0.00     0.202 C 
BRANCH  33  34
HETATM   34  O1  UNL     1       5.483   9.849   9.863  1.00  0.00    -0.398 OA
HETATM   35  H10 UNL     1       6.300   9.681  10.371  1.00  0.00     0.209 HD
ENDBRANCH  33  34
ENDBRANCH  27  33
ENDBRANCH   1  24
TORSDOF 4
ENDMDL
MODEL 4
REMARK minimizedAffinity -9.23655891
REMARK  4 active torsions:
REMARK  status: ('A' for Active; 'I' for Inactive)
REMARK    1  A    between atoms: C2_2  and  C4_4 
REMARK    2  A    between atoms: C4_4  and  C5_5 
REMARK    3  A    between atoms: C5_5  and  O1_6 
REMARK    4  A    between atoms: C8_9  and  C9_10 
ROOT
HETATM    1  C9  UNL     1      -2.345   5.791  13.163  1.00  0.00     0.001 C 
HETATM    2  C10 UNL     1      -2.398   4.998  11.830  1.00  0.00     0.007 C 
HETATM    3  C11 UNL     1      -1.007   5.118  11.178  1.00  0.00     0.011 C 
HETATM    4  C12 UNL     1      -0.083   5.651  12.292  1.00  0.00    -0.032 C 
HETATM    5  C13 UNL     1       0.352   4.407  13.130  1.00  0.00     0.016 C 
HETATM    6  C14 UNL     1       1.163   6.424  11.786  1.00  0.00     0.004 C 
HETATM    7  C15 UNL     1       2.227   5.540  11.118  1.00  0.00     0.007 C 
HETATM    8  C16 UNL     1       3.365   6.403  10.574  1.00  0.00     0.007 C 
HETATM    9  C17 UNL     1       4.165   7.015  11.732  1.00  0.00     0.010 C 
HETATM   10  C18 UNL     1       5.335   7.962  11.301  1.00  0.00     0.018 C 
HETATM   11  C19 UNL     1       4.938   8.990  10.228  1.00  0.00     0.023 C 
HETATM   12  C20 UNL     1       6.516   7.130  10.767  1.00  0.00     0.023 C 
HETATM   13  C21 UNL     1       5.847   8.718  12.540  1.00  0.00     0.135 C 
HETATM   14  O2  UNL     1       6.522   9.745  12.461  1.00  0.00    -0.297 OA
HETATM   15  C22 UNL     1       5.562   8.086  13.880  1.00  0.00     0.080 C 
HETATM   16  C23 UNL     1       4.059   7.956  14.095  1.00  0.00     0.018 C 
HETATM   17  C24 UNL     1       3.290   7.676  12.805  1.00  0.00    -0.026 A 
HETATM   18  C25 UNL     1       2.243   8.690  12.412  1.00  0.00     0.021 A 
HETATM   19  C26 UNL     1       1.778   7.326  12.887  1.00  0.00    -0.027 A 
HETATM   20  C27 UNL     1       1.139   7.265  14.278  1.00  0.00     0.011 C 
HETATM   21  C28 UNL     1      -0.386   7.071  14.353  1.00  0.00     0.011 C 
HETATM   22  C29 UNL     1      -1.048   6.652  13.033  1.00  0.00    -0.032 C 
HETATM   23  C30 UNL     1      -1.351   7.946  12.227  1.00  0.00     0.016 C 
ENDROOT
BRANCH   1  24
HETATM   24  C8  UNL     1      -3.709   6.398  13.589  1.00  0.00     0.014 C 
HETATM   25  C7  UNL     1      -4.906   5.480  13.335  1.00  0.00     0.010 C 
HETATM   26  C6  UNL     1      -6.196   6.266  13.549  1.00  0.00     0.041 C 
HETATM   27  C4  UNL     1      -6.237   6.985  14.927  1.00  0.00     0.085 C 
HETATM   28  O3  UNL     1      -5.018   6.762  15.667  1.00  0.00    -0.377 OA
HETATM   29  C31 UNL     1      -3.793   7.037  14.983  1.00  0.00     0.174 C 
BRANCH  27  30
HETATM   30  C2  UNL     1      -7.406   6.394  15.798  1.00  0.00     0.014 C 
HETATM   31  C1  UNL     1      -7.593   4.874  15.670  1.00  0.00     0.012 C 
HETATM   32  C3  UNL     1      -8.761   7.051  15.476  1.00  0.00     0.012 C 
ENDBRANCH  27  30
BRANCH  27  33
HETATM   33  C5  UNL     1      -6.413   8.513  14.691  1.00  0.00     0.202 C 
BRANCH  33  34
HETATM   34  O1  UNL     1      -5.169   9.170  14.460  1.00  0.00    -0.398 OA
HETATM   35  H10 UNL     1      -4.587   8.502  14.050  1.00  0.00     0.209 HD
ENDBRANCH  33  34
ENDBRANCH  27  33
ENDBRANCH   1  24
TORSDOF 4
ENDMDL
MODEL 5
REMARK minimizedAffinity -9.03787422
REMARK  4 active torsions:
REMARK  status: ('A' for Active; 'I' for Inactive)
REMARK    1  A    between atoms: C2_2  and  C4_4 
REMARK    2  A    between atoms: C4_4  and  C5_5 
REMARK    3  A    between atoms: C5_5  and  O1_6 
REMARK    4  A    between atoms: C8_9  and  C9_10 
ROOT
HETATM    1  C9  UNL     1       0.531   6.590  13.320  1.00  0.00     0.001 C 
HETATM    2  C10 UNL     1       0.755   7.248  14.708  1.00  0.00     0.007 C 
HETATM    3  C11 UNL     1      -0.624   7.348  15.388  1.00  0.00     0.011 C 
HETATM    4  C12 UNL     1      -1.550   6.432  14.562  1.00  0.00    -0.032 C 
HETATM    5  C13 UNL     1      -1.324   4.984  15.101  1.00  0.00     0.016 C 
HETATM    6  C14 UNL     1      -3.055   6.804  14.625  1.00  0.00     0.004 C 
HETATM    7  C15 UNL     1      -3.721   6.511  15.978  1.00  0.00     0.007 C 
HETATM    8  C16 UNL     1      -5.170   6.996  15.969  1.00  0.00     0.007 C 
HETATM    9  C17 UNL     1      -6.013   6.128  15.023  1.00  0.00     0.010 C 
HETATM   10  C18 UNL     1      -7.512   6.556  14.891  1.00  0.00     0.018 C 
HETATM   11  C19 UNL     1      -7.710   8.065  14.666  1.00  0.00     0.023 C 
HETATM   12  C20 UNL     1      -8.291   6.145  16.155  1.00  0.00     0.023 C 
HETATM   13  C21 UNL     1      -8.145   5.797  13.711  1.00  0.00     0.135 C 
HETATM   14  O2  UNL     1      -9.192   6.158  13.172  1.00  0.00    -0.297 OA
HETATM   15  C22 UNL     1      -7.469   4.515  13.295  1.00  0.00     0.080 C 
HETATM   16  C23 UNL     1      -6.036   4.790  12.857  1.00  0.00     0.018 C 
HETATM   17  C24 UNL     1      -5.375   5.923  13.643  1.00  0.00    -0.026 A 
HETATM   18  C25 UNL     1      -4.902   7.111  12.840  1.00  0.00     0.021 A 
HETATM   19  C26 UNL     1      -3.857   6.193  13.448  1.00  0.00    -0.027 A 
HETATM   20  C27 UNL     1      -3.095   5.285  12.478  1.00  0.00     0.011 C 
HETATM   21  C28 UNL     1      -1.631   5.646  12.168  1.00  0.00     0.011 C 
HETATM   22  C29 UNL     1      -1.012   6.693  13.104  1.00  0.00    -0.032 C 
HETATM   23  C30 UNL     1      -1.375   8.098  12.543  1.00  0.00     0.016 C 
ENDROOT
BRANCH   1  24
HETATM   24  C8  UNL     1       1.556   7.032  12.240  1.00  0.00     0.014 C 
HETATM   25  C7  UNL     1       2.631   7.988  12.758  1.00  0.00     0.010 C 
HETATM   26  C6  UNL     1       3.416   8.548  11.575  1.00  0.00     0.041 C 
HETATM   27  C4  UNL     1       3.963   7.435  10.637  1.00  0.00     0.085 C 
HETATM   28  O3  UNL     1       3.564   6.126  11.097  1.00  0.00    -0.377 OA
HETATM   29  C31 UNL     1       2.172   5.935  11.361  1.00  0.00     0.174 C 
BRANCH  27  30
HETATM   30  C2  UNL     1       5.535   7.457  10.651  1.00  0.00     0.014 C 
HETATM   31  C1  UNL     1       6.188   6.173  11.185  1.00  0.00     0.012 C 
HETATM   32  C3  UNL     1       6.093   8.632  11.476  1.00  0.00     0.012 C 
ENDBRANCH  27  30
BRANCH  27  33
HETATM   33  C5  UNL     1       3.397   7.662   9.206  1.00  0.00     0.202 C 
BRANCH  33  34
HETATM   34  O1  UNL     1       3.304   6.449   8.463  1.00  0.00    -0.398 OA
HETATM   35  H10 UNL     1       3.164   5.743   9.123  1.00  0.00     0.209 HD
ENDBRANCH  33  34
ENDBRANCH  27  33
ENDBRANCH   1  24
TORSDOF 4
ENDMDL
MODEL 6
REMARK minimizedAffinity -9.00461578
REMARK  4 active torsions:
REMARK  status: ('A' for Active; 'I' for Inactive)
REMARK    1  A    between atoms: C2_2  and  C4_4 
REMARK    2  A    between atoms: C4_4  and  C5_5 
REMARK    3  A    between atoms: C5_5  and  O1_6 
REMARK    4  A    between atoms: C8_9  and  C9_10 
ROOT
HETATM    1  C9  UNL     1       3.419   7.698  11.243  1.00  0.00     0.001 C 
HETATM    2  C10 UNL     1       3.616   6.215  10.831  1.00  0.00     0.007 C 
HETATM    3  C11 UNL     1       2.277   5.495  11.079  1.00  0.00     0.011 C 
HETATM    4  C12 UNL     1       1.243   6.623  11.272  1.00  0.00    -0.032 C 
HETATM    5  C13 UNL     1       0.807   7.067   9.840  1.00  0.00     0.016 C 
HETATM    6  C14 UNL     1       0.002   6.227  12.116  1.00  0.00     0.004 C 
HETATM    7  C15 UNL     1      -0.960   5.260  11.409  1.00  0.00     0.007 C 
HETATM    8  C16 UNL     1      -2.094   4.860  12.352  1.00  0.00     0.007 C 
HETATM    9  C17 UNL     1      -3.013   6.062  12.615  1.00  0.00     0.010 C 
HETATM   10  C18 UNL     1      -4.192   5.789  13.607  1.00  0.00     0.018 C 
HETATM   11  C19 UNL     1      -3.766   5.061  14.893  1.00  0.00     0.023 C 
HETATM   12  C20 UNL     1      -5.284   4.955  12.913  1.00  0.00     0.023 C 
HETATM   13  C21 UNL     1      -4.837   7.132  13.995  1.00  0.00     0.135 C 
HETATM   14  O2  UNL     1      -5.555   7.264  14.987  1.00  0.00    -0.297 OA
HETATM   15  C22 UNL     1      -4.626   8.281  13.041  1.00  0.00     0.080 C 
HETATM   16  C23 UNL     1      -3.140   8.588  12.902  1.00  0.00     0.018 C 
HETATM   17  C24 UNL     1      -2.259   7.343  12.994  1.00  0.00    -0.026 A 
HETATM   18  C25 UNL     1      -1.237   7.323  14.105  1.00  0.00     0.021 A 
HETATM   19  C26 UNL     1      -0.742   7.465  12.677  1.00  0.00    -0.027 A 
HETATM   20  C27 UNL     1      -0.212   8.843  12.271  1.00  0.00     0.011 C 
HETATM   21  C28 UNL     1       1.311   9.001  12.107  1.00  0.00     0.011 C 
HETATM   22  C29 UNL     1       2.094   7.682  12.070  1.00  0.00    -0.032 C 
HETATM   23  C30 UNL     1       2.393   7.270  13.539  1.00  0.00     0.016 C 
ENDROOT
BRANCH   1  24
HETATM   24  C8  UNL     1       4.713   8.387  11.755  1.00  0.00     0.014 C 
HETATM   25  C7  UNL     1       5.068   8.049  13.203  1.00  0.00     0.010 C 
HETATM   26  C6  UNL     1       6.193   8.966  13.672  1.00  0.00     0.041 C 
HETATM   27  C4  UNL     1       7.414   8.958  12.708  1.00  0.00     0.085 C 
HETATM   28  O3  UNL     1       7.172   8.101  11.571  1.00  0.00    -0.377 OA
HETATM   29  C31 UNL     1       5.955   8.315  10.853  1.00  0.00     0.174 C 
BRANCH  27  30
HETATM   30  C2  UNL     1       8.671   8.375  13.451  1.00  0.00     0.014 C 
HETATM   31  C1  UNL     1       8.364   7.702  14.797  1.00  0.00     0.012 C 
HETATM   32  C3  UNL     1       9.744   9.450  13.710  1.00  0.00     0.012 C 
ENDBRANCH  27  30
BRANCH  27  33
HETATM   33  C5  UNL     1       7.664  10.409  12.204  1.00  0.00     0.202 C 
BRANCH  33  34
HETATM   34  O1  UNL     1       8.287  10.435  10.922  1.00  0.00    -0.398 OA
HETATM   35  H10 UNL     1       7.996   9.621  10.468  1.00  0.00     0.209 HD
ENDBRANCH  33  34
ENDBRANCH  27  33
ENDBRANCH   1  24
TORSDOF 4
ENDMDL
MODEL 7
REMARK minimizedAffinity -8.94111443
REMARK  4 active torsions:
REMARK  status: ('A' for Active; 'I' for Inactive)
REMARK    1  A    between atoms: C2_2  and  C4_4 
REMARK    2  A    between atoms: C4_4  and  C5_5 
REMARK    3  A    between atoms: C5_5  and  O1_6 
REMARK    4  A    between atoms: C8_9  and  C9_10 
ROOT
HETATM    1  C9  UNL     1      -4.831   5.718  14.295  1.00  0.00     0.001 C 
HETATM    2  C10 UNL     1      -5.117   4.803  13.074  1.00  0.00     0.007 C 
HETATM    3  C11 UNL     1      -3.840   4.787  12.213  1.00  0.00     0.011 C 
HETATM    4  C12 UNL     1      -2.737   5.377  13.114  1.00  0.00    -0.032 C 
HETATM    5  C13 UNL     1      -2.224   4.200  14.003  1.00  0.00     0.016 C 
HETATM    6  C14 UNL     1      -1.557   6.032  12.350  1.00  0.00     0.004 C 
HETATM    7  C15 UNL     1      -0.641   5.033  11.625  1.00  0.00     0.007 C 
HETATM    8  C16 UNL     1       0.429   5.779  10.830  1.00  0.00     0.007 C 
HETATM    9  C17 UNL     1       1.421   6.459  11.786  1.00  0.00     0.010 C 
HETATM   10  C18 UNL     1       2.544   7.298  11.088  1.00  0.00     0.018 C 
HETATM   11  C19 UNL     1       2.024   8.236   9.986  1.00  0.00     0.023 C 
HETATM   12  C20 UNL     1       3.597   6.358  10.473  1.00  0.00     0.023 C 
HETATM   13  C21 UNL     1       3.267   8.143  12.152  1.00  0.00     0.135 C 
HETATM   14  O2  UNL     1       3.959   9.122  11.866  1.00  0.00    -0.297 OA
HETATM   15  C22 UNL     1       3.170   7.660  13.577  1.00  0.00     0.080 C 
HETATM   16  C23 UNL     1       1.715   7.630  14.028  1.00  0.00     0.018 C 
HETATM   17  C24 UNL     1       0.746   7.265  12.903  1.00  0.00    -0.026 A 
HETATM   18  C25 UNL     1      -0.312   8.290  12.568  1.00  0.00     0.021 A 
HETATM   19  C26 UNL     1      -0.747   7.003  13.246  1.00  0.00    -0.027 A 
HETATM   20  C27 UNL     1      -1.165   7.111  14.716  1.00  0.00     0.011 C 
HETATM   21  C28 UNL     1      -2.667   7.004  15.039  1.00  0.00     0.011 C 
HETATM   22  C29 UNL     1      -3.539   6.494  13.884  1.00  0.00    -0.032 C 
HETATM   23  C30 UNL     1      -3.916   7.717  13.001  1.00  0.00     0.016 C 
ENDROOT
BRANCH   1  24
HETATM   24  C8  UNL     1      -6.091   6.433  14.855  1.00  0.00     0.014 C 
HETATM   25  C7  UNL     1      -6.332   7.823  14.264  1.00  0.00     0.010 C 
HETATM   26  C6  UNL     1      -7.429   8.523  15.061  1.00  0.00     0.041 C 
HETATM   27  C4  UNL     1      -8.718   7.662  15.190  1.00  0.00     0.085 C 
HETATM   28  O3  UNL     1      -8.553   6.380  14.548  1.00  0.00    -0.377 OA
HETATM   29  C31 UNL     1      -7.395   5.625  14.910  1.00  0.00     0.174 C 
BRANCH  27  30
HETATM   30  C2  UNL     1      -9.910   8.382  14.459  1.00  0.00     0.014 C 
HETATM   31  C1  UNL     1     -10.119   9.848  14.866  1.00  0.00     0.012 C 
HETATM   32  C3  UNL     1     -11.249   7.651  14.674  1.00  0.00     0.012 C 
ENDBRANCH  27  30
BRANCH  27  33
HETATM   33  C5  UNL     1      -9.021   7.436  16.700  1.00  0.00     0.202 C 
BRANCH  33  34
HETATM   34  O1  UNL     1      -9.899   8.427  17.228  1.00  0.00    -0.398 OA
HETATM   35  H10 UNL     1     -10.455   8.716  16.481  1.00  0.00     0.209 HD
ENDBRANCH  33  34
ENDBRANCH  27  33
ENDBRANCH   1  24
TORSDOF 4
ENDMDL
MODEL 8
REMARK minimizedAffinity -8.8881197
REMARK  4 active torsions:
REMARK  status: ('A' for Active; 'I' for Inactive)
REMARK    1  A    between atoms: C2_2  and  C4_4 
REMARK    2  A    between atoms: C4_4  and  C5_5 
REMARK    3  A    between atoms: C5_5  and  O1_6 
REMARK    4  A    between atoms: C8_9  and  C9_10 
ROOT
HETATM    1  C9  UNL     1      -1.810   6.459  12.595  1.00  0.00     0.001 C 
HETATM    2  C10 UNL     1      -2.156   7.204  13.912  1.00  0.00     0.007 C 
HETATM    3  C11 UNL     1      -0.919   8.038  14.298  1.00  0.00     0.011 C 
HETATM    4  C12 UNL     1      -0.034   8.056  13.035  1.00  0.00    -0.032 C 
HETATM    5  C13 UNL     1      -0.593   9.196  12.126  1.00  0.00     0.016 C 
HETATM    6  C14 UNL     1       1.478   8.273  13.306  1.00  0.00     0.004 C 
HETATM    7  C15 UNL     1       1.840   9.694  13.764  1.00  0.00     0.007 C 
HETATM    8  C16 UNL     1       3.330   9.779  14.093  1.00  0.00     0.007 C 
HETATM    9  C17 UNL     1       4.164   9.653  12.810  1.00  0.00     0.010 C 
HETATM   10  C18 UNL     1       5.714   9.679  13.022  1.00  0.00     0.018 C 
HETATM   11  C19 UNL     1       6.201   8.759  14.153  1.00  0.00     0.023 C 
HETATM   12  C20 UNL     1       6.181  11.115  13.327  1.00  0.00     0.023 C 
HETATM   13  C21 UNL     1       6.403   9.255  11.713  1.00  0.00     0.135 C 
HETATM   14  O2  UNL     1       7.574   8.874  11.670  1.00  0.00    -0.297 OA
HETATM   15  C22 UNL     1       5.602   9.418  10.446  1.00  0.00     0.080 C 
HETATM   16  C23 UNL     1       4.334   8.575  10.510  1.00  0.00     0.018 C 
HETATM   17  C24 UNL     1       3.750   8.475  11.919  1.00  0.00    -0.026 A 
HETATM   18  C25 UNL     1       3.632   7.087  12.501  1.00  0.00     0.021 A 
HETATM   19  C26 UNL     1       2.357   7.814  12.115  1.00  0.00    -0.027 A 
HETATM   20  C27 UNL     1       1.631   7.307  10.865  1.00  0.00     0.011 C 
HETATM   21  C28 UNL     1       0.326   6.517  11.070  1.00  0.00     0.011 C 
HETATM   22  C29 UNL     1      -0.258   6.595  12.488  1.00  0.00    -0.032 C 
HETATM   23  C30 UNL     1       0.430   5.492  13.342  1.00  0.00     0.016 C 
ENDROOT
BRANCH   1  24
HETATM   24  C8  UNL     1      -2.542   5.100  12.430  1.00  0.00     0.014 C 
HETATM   25  C7  UNL     1      -4.009   5.126  12.860  1.00  0.00     0.010 C 
HETATM   26  C6  UNL     1      -4.547   3.699  12.896  1.00  0.00     0.041 C 
HETATM   27  C4  UNL     1      -4.295   2.930  11.567  1.00  0.00     0.085 C 
HETATM   28  O3  UNL     1      -3.575   3.749  10.622  1.00  0.00    -0.377 OA
HETATM   29  C31 UNL     1      -2.374   4.367  11.091  1.00  0.00     0.174 C 
BRANCH  27  30
HETATM   30  C2  UNL     1      -5.671   2.571  10.895  1.00  0.00     0.014 C 
HETATM   31  C1  UNL     1      -6.105   1.108  11.068  1.00  0.00     0.012 C 
HETATM   32  C3  UNL     1      -5.677   2.875   9.384  1.00  0.00     0.012 C 
ENDBRANCH  27  30
BRANCH  27  33
HETATM   33  C5  UNL     1      -3.456   1.657  11.876  1.00  0.00     0.202 C 
BRANCH  33  34
HETATM   34  O1  UNL     1      -2.396   1.469  10.941  1.00  0.00    -0.398 OA
HETATM   35  H10 UNL     1      -2.150   2.363  10.635  1.00  0.00     0.209 HD
ENDBRANCH  33  34
ENDBRANCH  27  33
ENDBRANCH   1  24
TORSDOF 4
ENDMDL
MODEL 9
REMARK minimizedAffinity -8.74259567
REMARK  4 active torsions:
REMARK  status: ('A' for Active; 'I' for Inactive)
REMARK    1  A    between atoms: C2_2  and  C4_4 
REMARK    2  A    between atoms: C4_4  and  C5_5 
REMARK    3  A    between atoms: C5_5  and  O1_6 
REMARK    4  A    between atoms: C8_9  and  C9_10 
ROOT
HETATM    1  C9  UNL     1      -1.765   6.541  13.341  1.00  0.00     0.001 C 
HETATM    2  C10 UNL     1      -1.053   7.280  12.176  1.00  0.00     0.007 C 
HETATM    3  C11 UNL     1      -1.103   8.786  12.498  1.00  0.00     0.011 C 
HETATM    4  C12 UNL     1      -1.501   8.867  13.986  1.00  0.00    -0.032 C 
HETATM    5  C13 UNL     1      -0.184   8.676  14.802  1.00  0.00     0.016 C 
HETATM    6  C14 UNL     1      -2.205  10.188  14.397  1.00  0.00     0.004 C 
HETATM    7  C15 UNL     1      -1.281  11.415  14.421  1.00  0.00     0.007 C 
HETATM    8  C16 UNL     1      -2.084  12.674  14.744  1.00  0.00     0.007 C 
HETATM    9  C17 UNL     1      -2.570  12.633  16.201  1.00  0.00     0.010 C 
HETATM   10  C18 UNL     1      -3.447  13.852  16.641  1.00  0.00     0.018 C 
HETATM   11  C19 UNL     1      -4.560  14.209  15.641  1.00  0.00     0.023 C 
HETATM   12  C20 UNL     1      -2.559  15.093  16.846  1.00  0.00     0.023 C 
HETATM   13  C21 UNL     1      -4.092  13.535  18.002  1.00  0.00     0.135 C 
HETATM   14  O2  UNL     1      -5.068  14.150  18.435  1.00  0.00    -0.297 OA
HETATM   15  C22 UNL     1      -3.411  12.485  18.843  1.00  0.00     0.080 C 
HETATM   16  C23 UNL     1      -3.383  11.152  18.105  1.00  0.00     0.018 C 
HETATM   17  C24 UNL     1      -3.234  11.306  16.592  1.00  0.00    -0.026 A 
HETATM   18  C25 UNL     1      -4.345  10.734  15.744  1.00  0.00     0.021 A 
HETATM   19  C26 UNL     1      -2.995  10.040  15.722  1.00  0.00    -0.027 A 
HETATM   20  C27 UNL     1      -2.906   8.692  16.444  1.00  0.00     0.011 C 
HETATM   21  C28 UNL     1      -2.824   7.424  15.575  1.00  0.00     0.011 C 
HETATM   22  C29 UNL     1      -2.530   7.678  14.090  1.00  0.00    -0.032 C 
HETATM   23  C30 UNL     1      -3.886   7.957  13.382  1.00  0.00     0.016 C 
ENDROOT
BRANCH   1  24
HETATM   24  C8  UNL     1      -2.448   5.212  12.920  1.00  0.00     0.014 C 
HETATM   25  C7  UNL     1      -3.937   5.143  13.261  1.00  0.00     0.010 C 
HETATM   26  C6  UNL     1      -4.437   3.718  13.039  1.00  0.00     0.041 C 
HETATM   27  C4  UNL     1      -4.091   3.176  11.623  1.00  0.00     0.085 C 
HETATM   28  O3  UNL     1      -3.342   4.148  10.863  1.00  0.00    -0.377 OA
HETATM   29  C31 UNL     1      -2.186   4.705  11.495  1.00  0.00     0.174 C 
BRANCH  27  30
HETATM   30  C2  UNL     1      -5.416   2.903  10.822  1.00  0.00     0.014 C 
HETATM   31  C1  UNL     1      -5.958   1.471  10.951  1.00  0.00     0.012 C 
HETATM   32  C3  UNL     1      -5.258   3.200   9.319  1.00  0.00     0.012 C 
ENDBRANCH  27  30
BRANCH  27  33
HETATM   33  C5  UNL     1      -3.235   1.885  11.776  1.00  0.00     0.202 C 
BRANCH  33  34
HETATM   34  O1  UNL     1      -2.336   1.701  10.685  1.00  0.00    -0.398 OA
HETATM   35  H10 UNL     1      -2.126   2.597  10.360  1.00  0.00     0.209 HD
ENDBRANCH  33  34
ENDBRANCH  27  33
ENDBRANCH   1  24
TORSDOF 4
ENDMDL
