MODEL 1
REMARK minimizedAffinity -8.72266483
REMARK CNNscore 0.468839735
REMARK CNNaffinity 7.11580706
REMARK  19 active torsions:
REMARK  status: ('A' for Active; 'I' for Inactive)
REMARK    1  A    between atoms: C19_20  and  O2_21 
REMARK    2  A    between atoms: C19_20  and  C20_22 
REMARK    3  A    between atoms: C20_22  and  C21_24 
REMARK    4  A    between atoms: C21_24  and  O4_25 
REMARK    5  A    between atoms: O4_25  and  C22_26 
REMARK    6  A    between atoms: C22_26  and  C23_28 
REMARK    7  A    between atoms: C23_28  and  C24_29 
REMARK    8  A    between atoms: C24_29  and  C25_30 
REMARK       I    between atoms: C25_30  and  N1_32 
REMARK    9  A    between atoms: N1_32  and  C26_33 
REMARK   10  A    between atoms: C26_33  and  C27_34 
REMARK   11  A    between atoms: C27_34  and  C28_35 
REMARK   12  A    between atoms: C28_35  and  C29_36 
REMARK   13  A    between atoms: C29_36  and  C30_37 
REMARK   14  A    between atoms: C30_37  and  C31_38 
REMARK       I    between atoms: C31_38  and  N2_40 
REMARK   15  A    between atoms: N2_40  and  C32_41 
REMARK   16  A    between atoms: C32_41  and  C33_42 
REMARK   17  A    between atoms: C32_41  and  C40_49 
REMARK   18  A    between atoms: C33_42  and  C34_43 
REMARK   19  A    between atoms: C40_49  and  O9_51 
ROOT
HETATM    1  C22 UNL     1      -1.841  49.018 -14.749  1.00  0.00     0.259 C 
HETATM    2  O5  UNL     1      -1.205  47.973 -14.809  1.00  0.00    -0.265 OA
ENDROOT
BRANCH   1   3
HETATM    3  O4  UNL     1      -3.023  49.233 -15.381  1.00  0.00    -0.314 OA
BRANCH   3   4
HETATM    4  C21 UNL     1      -3.118  48.624 -16.667  1.00  0.00     0.260 C 
BRANCH   4   5
HETATM    5  C20 UNL     1      -2.751  49.623 -17.758  1.00  0.00     0.185 C 
HETATM    6  O3  UNL     1      -2.707  50.835 -17.531  1.00  0.00    -0.292 OA
BRANCH   5   7
HETATM    7  C19 UNL     1      -2.394  49.027 -19.145  1.00  0.00     0.128 C 
HETATM    8  C14 UNL     1      -2.322  50.081 -20.301  1.00  0.00    -0.002 C 
HETATM    9  C13 UNL     1      -1.005  50.863 -20.467  1.00  0.00     0.013 C 
HETATM   10  C15 UNL     1      -3.497  51.092 -20.177  1.00  0.00     0.019 C 
HETATM   11  C16 UNL     1      -2.450  49.146 -21.527  1.00  0.00     0.002 C 
HETATM   12  C12 UNL     1      -0.952  51.638 -21.797  1.00  0.00     0.007 C 
HETATM   13  C11 UNL     1      -1.217  50.747 -23.036  1.00  0.00     0.002 C 
HETATM   14  C2  UNL     1      -1.172  51.530 -24.405  1.00  0.00    -0.016 C 
HETATM   15  C10 UNL     1      -2.513  49.896 -22.865  1.00  0.00    -0.004 C 
HETATM   16  C1  UNL     1      -2.183  52.697 -24.440  1.00  0.00     0.020 C 
HETATM   17  C3  UNL     1       0.266  52.100 -24.594  1.00  0.00     0.022 C 
HETATM   18  C7  UNL     1      -1.504  50.574 -25.558  1.00  0.00    -0.068 C 
HETATM   19  C4  UNL     1       0.563  52.571 -26.009  1.00  0.00     0.084 C 
HETATM   20  C5  UNL     1       0.284  51.478 -27.005  1.00  0.00     0.149 C 
HETATM   21  O1  UNL     1       0.876  51.402 -28.080  1.00  0.00    -0.293 OA
HETATM   22  C6  UNL     1      -0.813  50.527 -26.709  1.00  0.00     0.053 C 
HETATM   23  C8  UNL     1      -2.701  49.672 -25.372  1.00  0.00     0.035 C 
HETATM   24  C9  UNL     1      -2.660  48.925 -24.044  1.00  0.00     0.010 C 
HETATM   25  C17 UNL     1      -3.615  48.231 -21.161  1.00  0.00     0.009 C 
HETATM   26  C18 UNL     1      -3.498  48.044 -19.636  1.00  0.00     0.047 C 
BRANCH   7  27
HETATM   27  O2  UNL     1      -1.200  48.243 -19.066  1.00  0.00    -0.381 OA
HETATM   28  H27 UNL     1      -0.423  48.819 -18.975  1.00  0.00     0.211 HD
ENDBRANCH   7  27
ENDBRANCH   5   7
ENDBRANCH   4   5
ENDBRANCH   3   4
ENDBRANCH   1   3
BRANCH   1  29
HETATM   29  C23 UNL     1      -1.347  50.264 -14.050  1.00  0.00     0.120 C 
BRANCH  29  30
HETATM   30  C24 UNL     1      -2.311  51.442 -14.139  1.00  0.00     0.112 C 
BRANCH  30  31
HETATM   31  C25 UNL     1      -3.077  51.645 -12.847  1.00  0.00     0.217 C 
HETATM   32  O6  UNL     1      -3.333  50.732 -12.070  1.00  0.00    -0.274 OA
HETATM   33  N1  UNL     1      -3.435  52.959 -12.630  1.00  0.00    -0.361 N 
HETATM   34  H34 UNL     1      -3.132  53.669 -13.283  1.00  0.00     0.162 HD
BRANCH  33  35
HETATM   35  C26 UNL     1      -4.064  53.383 -11.395  1.00  0.00     0.122 C 
BRANCH  35  36
HETATM   36  C27 UNL     1      -3.087  54.180 -10.536  1.00  0.00     0.020 C 
BRANCH  36  37
HETATM   37  C28 UNL     1      -2.309  53.317  -9.539  1.00  0.00     0.002 C 
BRANCH  37  38
HETATM   38  C29 UNL     1      -1.035  52.716 -10.143  1.00  0.00     0.009 C 
BRANCH  38  39
HETATM   39  C30 UNL     1      -0.207  53.741 -10.917  1.00  0.00     0.103 C 
BRANCH  39  40
HETATM   40  C31 UNL     1       1.066  54.159 -10.201  1.00  0.00     0.218 C 
HETATM   41  O7  UNL     1       2.161  53.641 -10.383  1.00  0.00    -0.274 OA
HETATM   42  N2  UNL     1       0.862  55.198  -9.315  1.00  0.00    -0.346 N 
HETATM   43  H45 UNL     1      -0.084  55.300  -8.962  1.00  0.00     0.163 HD
BRANCH  42  44
HETATM   44  C32 UNL     1       1.933  55.603  -8.394  1.00  0.00     0.186 C 
BRANCH  44  45
HETATM   45  C33 UNL     1       3.000  56.406  -9.149  1.00  0.00     0.074 C 
BRANCH  45  46
HETATM   46  C34 UNL     1       4.414  55.982  -8.836  1.00  0.00    -0.056 A 
HETATM   47  C35 UNL     1       5.062  56.462  -7.688  1.00  0.00     0.007 A 
HETATM   48  C36 UNL     1       6.374  56.079  -7.407  1.00  0.00     0.001 A 
HETATM   49  C37 UNL     1       7.051  55.218  -8.267  1.00  0.00     0.000 A 
HETATM   50  C38 UNL     1       6.417  54.737  -9.410  1.00  0.00     0.001 A 
HETATM   51  C39 UNL     1       5.105  55.117  -9.696  1.00  0.00     0.007 A 
ENDBRANCH  45  46
ENDBRANCH  44  45
BRANCH  44  52
HETATM   52  C40 UNL     1       1.289  56.474  -7.319  1.00  0.00     0.163 C 
HETATM   53  O8  UNL     1       1.799  57.461  -6.803  1.00  0.00    -0.648 OA
BRANCH  52  54
HETATM   54  O9  UNL     1       0.065  56.059  -6.946  1.00  0.00    -0.775 OA
HETATM   55  H54 UNL     1      -0.228  56.708  -6.273  1.00  0.00     0.167 HD
ENDBRANCH  52  54
ENDBRANCH  44  52
ENDBRANCH  42  44
ENDBRANCH  39  40
ENDBRANCH  38  39
ENDBRANCH  37  38
ENDBRANCH  36  37
ENDBRANCH  35  36
ENDBRANCH  33  35
ENDBRANCH  30  31
ENDBRANCH  29  30
ENDBRANCH   1  29
TORSDOF 19
ENDMDL
MODEL 2
REMARK minimizedAffinity -8.36795235
REMARK CNNscore 0.409956545
REMARK CNNaffinity 6.50830984
REMARK  19 active torsions:
REMARK  status: ('A' for Active; 'I' for Inactive)
REMARK    1  A    between atoms: C19_20  and  O2_21 
REMARK    2  A    between atoms: C19_20  and  C20_22 
REMARK    3  A    between atoms: C20_22  and  C21_24 
REMARK    4  A    between atoms: C21_24  and  O4_25 
REMARK    5  A    between atoms: O4_25  and  C22_26 
REMARK    6  A    between atoms: C22_26  and  C23_28 
REMARK    7  A    between atoms: C23_28  and  C24_29 
REMARK    8  A    between atoms: C24_29  and  C25_30 
REMARK       I    between atoms: C25_30  and  N1_32 
REMARK    9  A    between atoms: N1_32  and  C26_33 
REMARK   10  A    between atoms: C26_33  and  C27_34 
REMARK   11  A    between atoms: C27_34  and  C28_35 
REMARK   12  A    between atoms: C28_35  and  C29_36 
REMARK   13  A    between atoms: C29_36  and  C30_37 
REMARK   14  A    between atoms: C30_37  and  C31_38 
REMARK       I    between atoms: C31_38  and  N2_40 
REMARK   15  A    between atoms: N2_40  and  C32_41 
REMARK   16  A    between atoms: C32_41  and  C33_42 
REMARK   17  A    between atoms: C32_41  and  C40_49 
REMARK   18  A    between atoms: C33_42  and  C34_43 
REMARK   19  A    between atoms: C40_49  and  O9_51 
ROOT
HETATM    1  C22 UNL     1     -15.769  44.515 -28.305  1.00  0.00     0.259 C 
HETATM    2  O5  UNL     1     -15.892  43.414 -28.828  1.00  0.00    -0.265 OA
ENDROOT
BRANCH   1   3
HETATM    3  O4  UNL     1     -16.733  45.128 -27.574  1.00  0.00    -0.314 OA
BRANCH   3   4
HETATM    4  C21 UNL     1     -18.013  44.501 -27.649  1.00  0.00     0.260 C 
BRANCH   4   5
HETATM    5  C20 UNL     1     -18.399  43.916 -26.296  1.00  0.00     0.185 C 
HETATM    6  O3  UNL     1     -18.395  42.698 -26.099  1.00  0.00    -0.292 OA
BRANCH   5   7
HETATM    7  C19 UNL     1     -18.749  44.934 -25.180  1.00  0.00     0.128 C 
HETATM    8  C14 UNL     1     -17.715  44.983 -24.004  1.00  0.00    -0.002 C 
HETATM    9  C13 UNL     1     -16.461  45.857 -24.197  1.00  0.00     0.013 C 
HETATM   10  C15 UNL     1     -17.273  43.543 -23.621  1.00  0.00     0.019 C 
HETATM   11  C16 UNL     1     -18.578  45.665 -22.915  1.00  0.00     0.002 C 
HETATM   12  C12 UNL     1     -15.684  46.058 -22.883  1.00  0.00     0.007 C 
HETATM   13  C11 UNL     1     -16.561  46.611 -21.732  1.00  0.00     0.002 C 
HETATM   14  C2  UNL     1     -15.779  46.817 -20.378  1.00  0.00    -0.016 C 
HETATM   15  C10 UNL     1     -17.870  45.782 -21.558  1.00  0.00    -0.004 C 
HETATM   16  C1  UNL     1     -15.121  45.510 -19.882  1.00  0.00     0.020 C 
HETATM   17  C3  UNL     1     -14.668  47.884 -20.613  1.00  0.00     0.022 C 
HETATM   18  C7  UNL     1     -16.745  47.308 -19.292  1.00  0.00    -0.068 C 
HETATM   19  C4  UNL     1     -14.067  48.444 -19.333  1.00  0.00     0.084 C 
HETATM   20  C5  UNL     1     -15.142  48.979 -18.428  1.00  0.00     0.149 C 
HETATM   21  O1  UNL     1     -14.933  49.886 -17.624  1.00  0.00    -0.293 OA
HETATM   22  C6  UNL     1     -16.467  48.315 -18.447  1.00  0.00     0.053 C 
HETATM   23  C8  UNL     1     -18.061  46.577 -19.171  1.00  0.00     0.035 C 
HETATM   24  C9  UNL     1     -18.775  46.446 -20.511  1.00  0.00     0.010 C 
HETATM   25  C17 UNL     1     -19.898  44.905 -22.974  1.00  0.00     0.009 C 
HETATM   26  C18 UNL     1     -20.077  44.549 -24.463  1.00  0.00     0.047 C 
BRANCH   7  27
HETATM   27  O2  UNL     1     -18.983  46.232 -25.735  1.00  0.00    -0.381 OA
HETATM   28  H27 UNL     1     -18.145  46.637 -26.013  1.00  0.00     0.211 HD
ENDBRANCH   7  27
ENDBRANCH   5   7
ENDBRANCH   4   5
ENDBRANCH   3   4
ENDBRANCH   1   3
BRANCH   1  29
HETATM   29  C23 UNL     1     -14.560  45.403 -28.493  1.00  0.00     0.120 C 
BRANCH  29  30
HETATM   30  C24 UNL     1     -14.271  46.308 -27.299  1.00  0.00     0.112 C 
BRANCH  30  31
HETATM   31  C25 UNL     1     -13.092  47.224 -27.556  1.00  0.00     0.217 C 
HETATM   32  O6  UNL     1     -12.997  48.346 -27.070  1.00  0.00    -0.274 OA
HETATM   33  N1  UNL     1     -12.135  46.659 -28.372  1.00  0.00    -0.361 N 
HETATM   34  H34 UNL     1     -12.250  45.704 -28.683  1.00  0.00     0.162 HD
BRANCH  33  35
HETATM   35  C26 UNL     1     -10.874  47.322 -28.639  1.00  0.00     0.122 C 
BRANCH  35  36
HETATM   36  C27 UNL     1      -9.703  46.479 -28.140  1.00  0.00     0.020 C 
BRANCH  36  37
HETATM   37  C28 UNL     1      -9.454  46.613 -26.636  1.00  0.00     0.002 C 
BRANCH  37  38
HETATM   38  C29 UNL     1      -7.995  46.338 -26.250  1.00  0.00     0.009 C 
BRANCH  38  39
HETATM   39  C30 UNL     1      -7.094  47.557 -26.445  1.00  0.00     0.103 C 
BRANCH  39  40
HETATM   40  C31 UNL     1      -6.287  47.919 -25.210  1.00  0.00     0.218 C 
HETATM   41  O7  UNL     1      -6.547  47.530 -24.077  1.00  0.00    -0.274 OA
HETATM   42  N2  UNL     1      -5.213  48.739 -25.497  1.00  0.00    -0.346 N 
HETATM   43  H45 UNL     1      -5.293  49.292 -26.343  1.00  0.00     0.163 HD
BRANCH  42  44
HETATM   44  C32 UNL     1      -4.438  49.346 -24.407  1.00  0.00     0.186 C 
BRANCH  44  45
HETATM   45  C33 UNL     1      -3.055  48.689 -24.314  1.00  0.00     0.074 C 
BRANCH  45  46
HETATM   46  C34 UNL     1      -2.427  48.784 -22.945  1.00  0.00    -0.056 A 
HETATM   47  C35 UNL     1      -2.159  47.624 -22.205  1.00  0.00     0.007 A 
HETATM   48  C36 UNL     1      -1.589  47.714 -20.934  1.00  0.00     0.001 A 
HETATM   49  C37 UNL     1      -1.283  48.960 -20.391  1.00  0.00     0.000 A 
HETATM   50  C38 UNL     1      -1.547  50.118 -21.118  1.00  0.00     0.001 A 
HETATM   51  C39 UNL     1      -2.116  50.033 -22.389  1.00  0.00     0.007 A 
ENDBRANCH  45  46
ENDBRANCH  44  45
BRANCH  44  52
HETATM   52  C40 UNL     1      -4.289  50.829 -24.741  1.00  0.00     0.163 C 
HETATM   53  O8  UNL     1      -3.668  51.285 -25.694  1.00  0.00    -0.648 OA
BRANCH  52  54
HETATM   54  O9  UNL     1      -4.907  51.646 -23.869  1.00  0.00    -0.775 OA
HETATM   55  H54 UNL     1      -4.743  52.550 -24.210  1.00  0.00     0.167 HD
ENDBRANCH  52  54
ENDBRANCH  44  52
ENDBRANCH  42  44
ENDBRANCH  39  40
ENDBRANCH  38  39
ENDBRANCH  37  38
ENDBRANCH  36  37
ENDBRANCH  35  36
ENDBRANCH  33  35
ENDBRANCH  30  31
ENDBRANCH  29  30
ENDBRANCH   1  29
TORSDOF 19
ENDMDL
MODEL 3
REMARK minimizedAffinity -8.41697502
REMARK CNNscore 0.379704386
REMARK CNNaffinity 6.58961296
REMARK  19 active torsions:
REMARK  status: ('A' for Active; 'I' for Inactive)
REMARK    1  A    between atoms: C19_20  and  O2_21 
REMARK    2  A    between atoms: C19_20  and  C20_22 
REMARK    3  A    between atoms: C20_22  and  C21_24 
REMARK    4  A    between atoms: C21_24  and  O4_25 
REMARK    5  A    between atoms: O4_25  and  C22_26 
REMARK    6  A    between atoms: C22_26  and  C23_28 
REMARK    7  A    between atoms: C23_28  and  C24_29 
REMARK    8  A    between atoms: C24_29  and  C25_30 
REMARK       I    between atoms: C25_30  and  N1_32 
REMARK    9  A    between atoms: N1_32  and  C26_33 
REMARK   10  A    between atoms: C26_33  and  C27_34 
REMARK   11  A    between atoms: C27_34  and  C28_35 
REMARK   12  A    between atoms: C28_35  and  C29_36 
REMARK   13  A    between atoms: C29_36  and  C30_37 
REMARK   14  A    between atoms: C30_37  and  C31_38 
REMARK       I    between atoms: C31_38  and  N2_40 
REMARK   15  A    between atoms: N2_40  and  C32_41 
REMARK   16  A    between atoms: C32_41  and  C33_42 
REMARK   17  A    between atoms: C32_41  and  C40_49 
REMARK   18  A    between atoms: C33_42  and  C34_43 
REMARK   19  A    between atoms: C40_49  and  O9_51 
ROOT
HETATM    1  C22 UNL     1      -8.598  48.085 -20.012  1.00  0.00     0.259 C 
HETATM    2  O5  UNL     1      -8.637  47.272 -20.927  1.00  0.00    -0.265 OA
ENDROOT
BRANCH   1   3
HETATM    3  O4  UNL     1      -7.462  48.669 -19.554  1.00  0.00    -0.314 OA
BRANCH   3   4
HETATM    4  C21 UNL     1      -6.494  47.751 -19.049  1.00  0.00     0.260 C 
BRANCH   4   5
HETATM    5  C20 UNL     1      -5.108  48.384 -19.046  1.00  0.00     0.185 C 
HETATM    6  O3  UNL     1      -4.717  49.071 -18.099  1.00  0.00    -0.292 OA
BRANCH   5   7
HETATM    7  C19 UNL     1      -4.209  48.077 -20.273  1.00  0.00     0.128 C 
HETATM    8  C14 UNL     1      -3.790  49.340 -21.098  1.00  0.00    -0.002 C 
HETATM    9  C13 UNL     1      -2.574  50.143 -20.600  1.00  0.00     0.013 C 
HETATM   10  C15 UNL     1      -5.002  50.302 -21.254  1.00  0.00     0.019 C 
HETATM   11  C16 UNL     1      -3.373  48.667 -22.428  1.00  0.00     0.002 C 
HETATM   12  C12 UNL     1      -2.087  51.168 -21.641  1.00  0.00     0.007 C 
HETATM   13  C11 UNL     1      -1.794  50.540 -23.027  1.00  0.00     0.002 C 
HETATM   14  C2  UNL     1      -1.298  51.579 -24.105  1.00  0.00    -0.016 C 
HETATM   15  C10 UNL     1      -2.987  49.667 -23.526  1.00  0.00    -0.004 C 
HETATM   16  C1  UNL     1      -2.312  52.728 -24.313  1.00  0.00     0.020 C 
HETATM   17  C3  UNL     1       0.054  52.181 -23.619  1.00  0.00     0.022 C 
HETATM   18  C7  UNL     1      -1.095  50.871 -25.451  1.00  0.00    -0.068 C 
HETATM   19  C4  UNL     1       0.825  52.924 -24.699  1.00  0.00     0.084 C 
HETATM   20  C5  UNL     1       1.029  52.050 -25.906  1.00  0.00     0.149 C 
HETATM   21  O1  UNL     1       1.986  52.192 -26.665  1.00  0.00    -0.293 OA
HETATM   22  C6  UNL     1      -0.020  51.056 -26.235  1.00  0.00     0.053 C 
HETATM   23  C8  UNL     1      -2.199  49.946 -25.907  1.00  0.00     0.035 C 
HETATM   24  C9  UNL     1      -2.601  48.950 -24.826  1.00  0.00     0.010 C 
HETATM   25  C17 UNL     1      -4.513  47.694 -22.711  1.00  0.00     0.009 C 
HETATM   26  C18 UNL     1      -4.965  47.208 -21.321  1.00  0.00     0.047 C 
BRANCH   7  27
HETATM   27  O2  UNL     1      -3.074  47.297 -19.884  1.00  0.00    -0.381 OA
HETATM   28  H27 UNL     1      -2.437  47.845 -19.398  1.00  0.00     0.211 HD
ENDBRANCH   7  27
ENDBRANCH   5   7
ENDBRANCH   4   5
ENDBRANCH   3   4
ENDBRANCH   1   3
BRANCH   1  29
HETATM   29  C23 UNL     1      -9.800  48.475 -19.182  1.00  0.00     0.120 C 
BRANCH  29  30
HETATM   30  C24 UNL     1      -9.965  47.648 -17.912  1.00  0.00     0.112 C 
BRANCH  30  31
HETATM   31  C25 UNL     1     -11.422  47.373 -17.600  1.00  0.00     0.217 C 
HETATM   32  O6  UNL     1     -11.804  46.930 -16.523  1.00  0.00    -0.274 OA
HETATM   33  N1  UNL     1     -12.268  47.692 -18.641  1.00  0.00    -0.361 N 
HETATM   34  H34 UNL     1     -11.887  48.115 -19.477  1.00  0.00     0.162 HD
BRANCH  33  35
HETATM   35  C26 UNL     1     -13.709  47.620 -18.501  1.00  0.00     0.122 C 
BRANCH  35  36
HETATM   36  C27 UNL     1     -14.400  48.418 -19.604  1.00  0.00     0.020 C 
BRANCH  36  37
HETATM   37  C28 UNL     1     -15.283  47.561 -20.513  1.00  0.00     0.002 C 
BRANCH  37  38
HETATM   38  C29 UNL     1     -14.487  46.849 -21.614  1.00  0.00     0.009 C 
BRANCH  38  39
HETATM   39  C30 UNL     1     -15.079  47.067 -23.006  1.00  0.00     0.103 C 
BRANCH  39  40
HETATM   40  C31 UNL     1     -16.001  45.947 -23.455  1.00  0.00     0.218 C 
HETATM   41  O7  UNL     1     -15.617  44.867 -23.884  1.00  0.00    -0.274 OA
HETATM   42  N2  UNL     1     -17.337  46.274 -23.325  1.00  0.00    -0.346 N 
HETATM   43  H45 UNL     1     -17.552  47.266 -23.329  1.00  0.00     0.163 HD
BRANCH  42  44
HETATM   44  C32 UNL     1     -18.369  45.394 -23.890  1.00  0.00     0.186 C 
BRANCH  44  45
HETATM   45  C33 UNL     1     -19.585  45.343 -22.957  1.00  0.00     0.074 C 
BRANCH  45  46
HETATM   46  C34 UNL     1     -19.232  45.116 -21.508  1.00  0.00    -0.056 A 
HETATM   47  C35 UNL     1     -19.311  43.831 -20.950  1.00  0.00     0.007 A 
HETATM   48  C36 UNL     1     -18.996  43.625 -19.607  1.00  0.00     0.001 A 
HETATM   49  C37 UNL     1     -18.599  44.696 -18.809  1.00  0.00     0.000 A 
HETATM   50  C38 UNL     1     -18.518  45.975 -19.353  1.00  0.00     0.001 A 
HETATM   51  C39 UNL     1     -18.832  46.186 -20.696  1.00  0.00     0.007 A 
ENDBRANCH  45  46
ENDBRANCH  44  45
BRANCH  44  52
HETATM   52  C40 UNL     1     -18.770  45.989 -25.238  1.00  0.00     0.163 C 
HETATM   53  O8  UNL     1     -18.136  45.882 -26.280  1.00  0.00    -0.648 OA
BRANCH  52  54
HETATM   54  O9  UNL     1     -19.921  46.686 -25.203  1.00  0.00    -0.775 OA
HETATM   55  H54 UNL     1     -20.060  46.992 -26.123  1.00  0.00     0.167 HD
ENDBRANCH  52  54
ENDBRANCH  44  52
ENDBRANCH  42  44
ENDBRANCH  39  40
ENDBRANCH  38  39
ENDBRANCH  37  38
ENDBRANCH  36  37
ENDBRANCH  35  36
ENDBRANCH  33  35
ENDBRANCH  30  31
ENDBRANCH  29  30
ENDBRANCH   1  29
TORSDOF 19
ENDMDL
MODEL 4
REMARK minimizedAffinity -8.65020847
REMARK CNNscore 0.347108364
REMARK CNNaffinity 6.2567029
REMARK  19 active torsions:
REMARK  status: ('A' for Active; 'I' for Inactive)
REMARK    1  A    between atoms: C19_20  and  O2_21 
REMARK    2  A    between atoms: C19_20  and  C20_22 
REMARK    3  A    between atoms: C20_22  and  C21_24 
REMARK    4  A    between atoms: C21_24  and  O4_25 
REMARK    5  A    between atoms: O4_25  and  C22_26 
REMARK    6  A    between atoms: C22_26  and  C23_28 
REMARK    7  A    between atoms: C23_28  and  C24_29 
REMARK    8  A    between atoms: C24_29  and  C25_30 
REMARK       I    between atoms: C25_30  and  N1_32 
REMARK    9  A    between atoms: N1_32  and  C26_33 
REMARK   10  A    between atoms: C26_33  and  C27_34 
REMARK   11  A    between atoms: C27_34  and  C28_35 
REMARK   12  A    between atoms: C28_35  and  C29_36 
REMARK   13  A    between atoms: C29_36  and  C30_37 
REMARK   14  A    between atoms: C30_37  and  C31_38 
REMARK       I    between atoms: C31_38  and  N2_40 
REMARK   15  A    between atoms: N2_40  and  C32_41 
REMARK   16  A    between atoms: C32_41  and  C33_42 
REMARK   17  A    between atoms: C32_41  and  C40_49 
REMARK   18  A    between atoms: C33_42  and  C34_43 
REMARK   19  A    between atoms: C40_49  and  O9_51 
ROOT
HETATM    1  C22 UNL     1      -8.059  47.073 -26.624  1.00  0.00     0.259 C 
HETATM    2  O5  UNL     1      -7.586  47.018 -25.496  1.00  0.00    -0.265 OA
ENDROOT
BRANCH   1   3
HETATM    3  O4  UNL     1      -9.341  47.418 -26.902  1.00  0.00    -0.314 OA
BRANCH   3   4
HETATM    4  C21 UNL     1     -10.315  46.733 -26.117  1.00  0.00     0.260 C 
BRANCH   4   5
HETATM    5  C20 UNL     1     -11.448  46.223 -26.999  1.00  0.00     0.185 C 
HETATM    6  O3  UNL     1     -11.239  45.419 -27.912  1.00  0.00    -0.292 OA
BRANCH   5   7
HETATM    7  C19 UNL     1     -12.872  46.731 -26.653  1.00  0.00     0.128 C 
HETATM    8  C14 UNL     1     -13.466  46.138 -25.331  1.00  0.00    -0.002 C 
HETATM    9  C13 UNL     1     -13.068  46.816 -24.007  1.00  0.00     0.013 C 
HETATM   10  C15 UNL     1     -13.148  44.619 -25.237  1.00  0.00     0.019 C 
HETATM   11  C16 UNL     1     -14.969  46.432 -25.556  1.00  0.00     0.002 C 
HETATM   12  C12 UNL     1     -13.934  46.341 -22.825  1.00  0.00     0.007 C 
HETATM   13  C11 UNL     1     -15.455  46.496 -23.081  1.00  0.00     0.002 C 
HETATM   14  C2  UNL     1     -16.356  46.008 -21.881  1.00  0.00    -0.016 C 
HETATM   15  C10 UNL     1     -15.874  45.873 -24.448  1.00  0.00    -0.004 C 
HETATM   16  C1  UNL     1     -16.087  44.530 -21.518  1.00  0.00     0.020 C 
HETATM   17  C3  UNL     1     -16.042  46.898 -20.642  1.00  0.00     0.022 C 
HETATM   18  C7  UNL     1     -17.836  46.147 -22.257  1.00  0.00    -0.068 C 
HETATM   19  C4  UNL     1     -17.067  46.786 -19.524  1.00  0.00     0.084 C 
HETATM   20  C5  UNL     1     -18.454  47.055 -20.043  1.00  0.00     0.149 C 
HETATM   21  O1  UNL     1     -19.345  47.509 -19.328  1.00  0.00    -0.293 OA
HETATM   22  C6  UNL     1     -18.767  46.663 -21.437  1.00  0.00     0.053 C 
HETATM   23  C8  UNL     1     -18.245  45.636 -23.618  1.00  0.00     0.035 C 
HETATM   24  C9  UNL     1     -17.352  46.174 -24.729  1.00  0.00     0.010 C 
HETATM   25  C17 UNL     1     -15.216  45.969 -26.987  1.00  0.00     0.009 C 
HETATM   26  C18 UNL     1     -13.905  46.288 -27.731  1.00  0.00     0.047 C 
BRANCH   7  27
HETATM   27  O2  UNL     1     -12.913  48.162 -26.658  1.00  0.00    -0.381 OA
HETATM   28  H27 UNL     1     -12.461  48.515 -25.874  1.00  0.00     0.211 HD
ENDBRANCH   7  27
ENDBRANCH   5   7
ENDBRANCH   4   5
ENDBRANCH   3   4
ENDBRANCH   1   3
BRANCH   1  29
HETATM   29  C23 UNL     1      -7.311  46.655 -27.870  1.00  0.00     0.120 C 
BRANCH  29  30
HETATM   30  C24 UNL     1      -6.956  47.816 -28.793  1.00  0.00     0.112 C 
BRANCH  30  31
HETATM   31  C25 UNL     1      -5.467  48.097 -28.801  1.00  0.00     0.217 C 
HETATM   32  O6  UNL     1      -4.780  48.037 -29.815  1.00  0.00    -0.274 OA
HETATM   33  N1  UNL     1      -4.975  48.446 -27.562  1.00  0.00    -0.361 N 
HETATM   34  H34 UNL     1      -5.614  48.538 -26.783  1.00  0.00     0.162 HD
BRANCH  33  35
HETATM   35  C26 UNL     1      -3.602  48.873 -27.380  1.00  0.00     0.122 C 
BRANCH  35  36
HETATM   36  C27 UNL     1      -3.073  48.427 -26.019  1.00  0.00     0.020 C 
BRANCH  36  37
HETATM   37  C28 UNL     1      -3.836  49.035 -24.840  1.00  0.00     0.002 C 
BRANCH  37  38
HETATM   38  C29 UNL     1      -2.927  49.360 -23.649  1.00  0.00     0.009 C 
BRANCH  38  39
HETATM   39  C30 UNL     1      -2.754  48.176 -22.699  1.00  0.00     0.103 C 
BRANCH  39  40
HETATM   40  C31 UNL     1      -1.885  48.487 -21.493  1.00  0.00     0.218 C 
HETATM   41  O7  UNL     1      -0.909  47.827 -21.157  1.00  0.00    -0.274 OA
HETATM   42  N2  UNL     1      -2.308  49.609 -20.807  1.00  0.00    -0.346 N 
HETATM   43  H45 UNL     1      -3.287  49.852 -20.918  1.00  0.00     0.163 HD
BRANCH  42  44
HETATM   44  C32 UNL     1      -1.709  49.948 -19.508  1.00  0.00     0.186 C 
BRANCH  44  45
HETATM   45  C33 UNL     1      -1.718  51.468 -19.306  1.00  0.00     0.074 C 
BRANCH  45  46
HETATM   46  C34 UNL     1      -0.678  52.196 -20.120  1.00  0.00    -0.056 A 
HETATM   47  C35 UNL     1       0.233  53.063 -19.499  1.00  0.00     0.007 A 
HETATM   48  C36 UNL     1       1.187  53.745 -20.255  1.00  0.00     0.001 A 
HETATM   49  C37 UNL     1       1.240  53.570 -21.636  1.00  0.00     0.000 A 
HETATM   50  C38 UNL     1       0.340  52.712 -22.263  1.00  0.00     0.001 A 
HETATM   51  C39 UNL     1      -0.615  52.027 -21.511  1.00  0.00     0.007 A 
ENDBRANCH  45  46
ENDBRANCH  44  45
BRANCH  44  52
HETATM   52  C40 UNL     1      -2.563  49.274 -18.436  1.00  0.00     0.163 C 
HETATM   53  O8  UNL     1      -2.150  48.504 -17.577  1.00  0.00    -0.648 OA
BRANCH  52  54
HETATM   54  O9  UNL     1      -3.870  49.587 -18.508  1.00  0.00    -0.775 OA
HETATM   55  H54 UNL     1      -4.287  49.104 -17.764  1.00  0.00     0.167 HD
ENDBRANCH  52  54
ENDBRANCH  44  52
ENDBRANCH  42  44
ENDBRANCH  39  40
ENDBRANCH  38  39
ENDBRANCH  37  38
ENDBRANCH  36  37
ENDBRANCH  35  36
ENDBRANCH  33  35
ENDBRANCH  30  31
ENDBRANCH  29  30
ENDBRANCH   1  29
TORSDOF 19
ENDMDL
MODEL 5
REMARK minimizedAffinity -9.08253002
REMARK CNNscore 0.344838172
REMARK CNNaffinity 6.685215
REMARK  19 active torsions:
REMARK  status: ('A' for Active; 'I' for Inactive)
REMARK    1  A    between atoms: C19_20  and  O2_21 
REMARK    2  A    between atoms: C19_20  and  C20_22 
REMARK    3  A    between atoms: C20_22  and  C21_24 
REMARK    4  A    between atoms: C21_24  and  O4_25 
REMARK    5  A    between atoms: O4_25  and  C22_26 
REMARK    6  A    between atoms: C22_26  and  C23_28 
REMARK    7  A    between atoms: C23_28  and  C24_29 
REMARK    8  A    between atoms: C24_29  and  C25_30 
REMARK       I    between atoms: C25_30  and  N1_32 
REMARK    9  A    between atoms: N1_32  and  C26_33 
REMARK   10  A    between atoms: C26_33  and  C27_34 
REMARK   11  A    between atoms: C27_34  and  C28_35 
REMARK   12  A    between atoms: C28_35  and  C29_36 
REMARK   13  A    between atoms: C29_36  and  C30_37 
REMARK   14  A    between atoms: C30_37  and  C31_38 
REMARK       I    between atoms: C31_38  and  N2_40 
REMARK   15  A    between atoms: N2_40  and  C32_41 
REMARK   16  A    between atoms: C32_41  and  C33_42 
REMARK   17  A    between atoms: C32_41  and  C40_49 
REMARK   18  A    between atoms: C33_42  and  C34_43 
REMARK   19  A    between atoms: C40_49  and  O9_51 
ROOT
HETATM    1  C22 UNL     1      -3.826  49.287 -27.579  1.00  0.00     0.259 C 
HETATM    2  O5  UNL     1      -3.818  49.338 -28.802  1.00  0.00    -0.265 OA
ENDROOT
BRANCH   1   3
HETATM    3  O4  UNL     1      -3.249  50.212 -26.770  1.00  0.00    -0.314 OA
BRANCH   3   4
HETATM    4  C21 UNL     1      -2.031  50.754 -27.276  1.00  0.00     0.260 C 
BRANCH   4   5
HETATM    5  C20 UNL     1      -1.690  52.056 -26.562  1.00  0.00     0.185 C 
HETATM    6  O3  UNL     1      -2.234  53.120 -26.872  1.00  0.00    -0.292 OA
BRANCH   5   7
HETATM    7  C19 UNL     1      -0.663  51.958 -25.403  1.00  0.00     0.128 C 
HETATM    8  C14 UNL     1      -1.305  51.770 -23.987  1.00  0.00    -0.002 C 
HETATM    9  C13 UNL     1      -1.689  50.339 -23.566  1.00  0.00     0.013 C 
HETATM   10  C15 UNL     1      -2.549  52.691 -23.837  1.00  0.00     0.019 C 
HETATM   11  C16 UNL     1      -0.117  52.202 -23.094  1.00  0.00     0.002 C 
HETATM   12  C12 UNL     1      -2.027  50.244 -22.066  1.00  0.00     0.007 C 
HETATM   13  C11 UNL     1      -0.907  50.800 -21.150  1.00  0.00     0.002 C 
HETATM   14  C2  UNL     1      -1.242  50.715 -19.611  1.00  0.00    -0.016 C 
HETATM   15  C10 UNL     1      -0.455  52.225 -21.596  1.00  0.00    -0.004 C 
HETATM   16  C1  UNL     1      -2.550  51.458 -19.259  1.00  0.00     0.020 C 
HETATM   17  C3  UNL     1      -1.395  49.213 -19.228  1.00  0.00     0.022 C 
HETATM   18  C7  UNL     1      -0.102  51.342 -18.799  1.00  0.00    -0.068 C 
HETATM   19  C4  UNL     1      -1.368  48.951 -17.730  1.00  0.00     0.084 C 
HETATM   20  C5  UNL     1      -0.133  49.541 -17.107  1.00  0.00     0.149 C 
HETATM   21  O1  UNL     1       0.374  49.077 -16.087  1.00  0.00    -0.293 OA
HETATM   22  C6  UNL     1       0.423  50.782 -17.696  1.00  0.00     0.053 C 
HETATM   23  C8  UNL     1       0.416  52.680 -19.272  1.00  0.00     0.035 C 
HETATM   24  C9  UNL     1       0.749  52.677 -20.759  1.00  0.00     0.010 C 
HETATM   25  C17 UNL     1       0.369  53.494 -23.741  1.00  0.00     0.009 C 
HETATM   26  C18 UNL     1       0.141  53.283 -25.250  1.00  0.00     0.047 C 
BRANCH   7  27
HETATM   27  O2  UNL     1       0.316  50.952 -25.679  1.00  0.00    -0.381 OA
HETATM   28  H27 UNL     1      -0.071  50.068 -25.578  1.00  0.00     0.211 HD
ENDBRANCH   7  27
ENDBRANCH   5   7
ENDBRANCH   4   5
ENDBRANCH   3   4
ENDBRANCH   1   3
BRANCH   1  29
HETATM   29  C23 UNL     1      -4.383  48.125 -26.789  1.00  0.00     0.120 C 
BRANCH  29  30
HETATM   30  C24 UNL     1      -5.907  48.064 -26.778  1.00  0.00     0.112 C 
BRANCH  30  31
HETATM   31  C25 UNL     1      -6.471  47.736 -28.146  1.00  0.00     0.217 C 
HETATM   32  O6  UNL     1      -6.099  46.774 -28.810  1.00  0.00    -0.274 OA
HETATM   33  N1  UNL     1      -7.452  48.614 -28.553  1.00  0.00    -0.361 N 
HETATM   34  H34 UNL     1      -7.753  49.347 -27.924  1.00  0.00     0.162 HD
BRANCH  33  35
HETATM   35  C26 UNL     1      -8.203  48.405 -29.775  1.00  0.00     0.122 C 
BRANCH  35  36
HETATM   36  C27 UNL     1      -9.637  47.984 -29.463  1.00  0.00     0.020 C 
BRANCH  36  37
HETATM   37  C28 UNL     1      -9.771  46.506 -29.092  1.00  0.00     0.002 C 
BRANCH  37  38
HETATM   38  C29 UNL     1      -9.985  46.289 -27.589  1.00  0.00     0.009 C 
BRANCH  38  39
HETATM   39  C30 UNL     1     -11.028  45.212 -27.292  1.00  0.00     0.103 C 
BRANCH  39  40
HETATM   40  C31 UNL     1     -11.994  45.593 -26.184  1.00  0.00     0.218 C 
HETATM   41  O7  UNL     1     -11.769  45.442 -24.989  1.00  0.00    -0.274 OA
HETATM   42  N2  UNL     1     -13.168  46.138 -26.666  1.00  0.00    -0.346 N 
HETATM   43  H45 UNL     1     -13.417  45.884 -27.616  1.00  0.00     0.163 HD
BRANCH  42  44
HETATM   44  C32 UNL     1     -14.295  46.384 -25.755  1.00  0.00     0.186 C 
BRANCH  44  45
HETATM   45  C33 UNL     1     -15.270  45.202 -25.792  1.00  0.00     0.074 C 
BRANCH  45  46
HETATM   46  C34 UNL     1     -16.699  45.582 -25.493  1.00  0.00    -0.056 A 
HETATM   47  C35 UNL     1     -16.990  46.770 -24.806  1.00  0.00     0.007 A 
HETATM   48  C36 UNL     1     -18.311  47.115 -24.519  1.00  0.00     0.001 A 
HETATM   49  C37 UNL     1     -19.353  46.279 -24.915  1.00  0.00     0.000 A 
HETATM   50  C38 UNL     1     -19.075  45.097 -25.598  1.00  0.00     0.001 A 
HETATM   51  C39 UNL     1     -17.756  44.748 -25.886  1.00  0.00     0.007 A 
ENDBRANCH  45  46
ENDBRANCH  44  45
BRANCH  44  52
HETATM   52  C40 UNL     1     -13.707  46.532 -24.353  1.00  0.00     0.163 C 
HETATM   53  O8  UNL     1     -13.188  47.546 -23.902  1.00  0.00    -0.648 OA
BRANCH  52  54
HETATM   54  O9  UNL     1     -13.789  45.414 -23.610  1.00  0.00    -0.775 OA
HETATM   55  H54 UNL     1     -13.394  45.654 -22.746  1.00  0.00     0.167 HD
ENDBRANCH  52  54
ENDBRANCH  44  52
ENDBRANCH  42  44
ENDBRANCH  39  40
ENDBRANCH  38  39
ENDBRANCH  37  38
ENDBRANCH  36  37
ENDBRANCH  35  36
ENDBRANCH  33  35
ENDBRANCH  30  31
ENDBRANCH  29  30
ENDBRANCH   1  29
TORSDOF 19
ENDMDL
MODEL 6
REMARK minimizedAffinity -8.45865631
REMARK CNNscore 0.321778595
REMARK CNNaffinity 6.56810904
REMARK  19 active torsions:
REMARK  status: ('A' for Active; 'I' for Inactive)
REMARK    1  A    between atoms: C19_20  and  O2_21 
REMARK    2  A    between atoms: C19_20  and  C20_22 
REMARK    3  A    between atoms: C20_22  and  C21_24 
REMARK    4  A    between atoms: C21_24  and  O4_25 
REMARK    5  A    between atoms: O4_25  and  C22_26 
REMARK    6  A    between atoms: C22_26  and  C23_28 
REMARK    7  A    between atoms: C23_28  and  C24_29 
REMARK    8  A    between atoms: C24_29  and  C25_30 
REMARK       I    between atoms: C25_30  and  N1_32 
REMARK    9  A    between atoms: N1_32  and  C26_33 
REMARK   10  A    between atoms: C26_33  and  C27_34 
REMARK   11  A    between atoms: C27_34  and  C28_35 
REMARK   12  A    between atoms: C28_35  and  C29_36 
REMARK   13  A    between atoms: C29_36  and  C30_37 
REMARK   14  A    between atoms: C30_37  and  C31_38 
REMARK       I    between atoms: C31_38  and  N2_40 
REMARK   15  A    between atoms: N2_40  and  C32_41 
REMARK   16  A    between atoms: C32_41  and  C33_42 
REMARK   17  A    between atoms: C32_41  and  C40_49 
REMARK   18  A    between atoms: C33_42  and  C34_43 
REMARK   19  A    between atoms: C40_49  and  O9_51 
ROOT
HETATM    1  C22 UNL     1     -15.711  44.508 -28.310  1.00  0.00     0.259 C 
HETATM    2  O5  UNL     1     -15.836  43.398 -28.813  1.00  0.00    -0.265 OA
ENDROOT
BRANCH   1   3
HETATM    3  O4  UNL     1     -16.661  45.119 -27.559  1.00  0.00    -0.314 OA
BRANCH   3   4
HETATM    4  C21 UNL     1     -17.949  44.511 -27.635  1.00  0.00     0.260 C 
BRANCH   4   5
HETATM    5  C20 UNL     1     -18.344  43.928 -26.284  1.00  0.00     0.185 C 
HETATM    6  O3  UNL     1     -18.331  42.711 -26.081  1.00  0.00    -0.292 OA
BRANCH   5   7
HETATM    7  C19 UNL     1     -18.715  44.948 -25.176  1.00  0.00     0.128 C 
HETATM    8  C14 UNL     1     -17.701  45.000 -23.982  1.00  0.00    -0.002 C 
HETATM    9  C13 UNL     1     -16.446  45.875 -24.155  1.00  0.00     0.013 C 
HETATM   10  C15 UNL     1     -17.265  43.561 -23.588  1.00  0.00     0.019 C 
HETATM   11  C16 UNL     1     -18.584  45.683 -22.910  1.00  0.00     0.002 C 
HETATM   12  C12 UNL     1     -15.691  46.080 -22.828  1.00  0.00     0.007 C 
HETATM   13  C11 UNL     1     -16.589  46.634 -21.693  1.00  0.00     0.002 C 
HETATM   14  C2  UNL     1     -15.831  46.844 -20.326  1.00  0.00    -0.016 C 
HETATM   15  C10 UNL     1     -17.900  45.803 -21.541  1.00  0.00    -0.004 C 
HETATM   16  C1  UNL     1     -15.181  45.538 -19.816  1.00  0.00     0.020 C 
HETATM   17  C3  UNL     1     -14.717  47.911 -20.544  1.00  0.00     0.022 C 
HETATM   18  C7  UNL     1     -16.817  47.335 -19.258  1.00  0.00    -0.068 C 
HETATM   19  C4  UNL     1     -14.140  48.474 -19.255  1.00  0.00     0.084 C 
HETATM   20  C5  UNL     1     -15.232  49.010 -18.369  1.00  0.00     0.149 C 
HETATM   21  O1  UNL     1     -15.037  49.918 -17.564  1.00  0.00    -0.293 OA
HETATM   22  C6  UNL     1     -16.555  48.344 -18.410  1.00  0.00     0.053 C 
HETATM   23  C8  UNL     1     -18.134  46.603 -19.159  1.00  0.00     0.035 C 
HETATM   24  C9  UNL     1     -18.824  46.468 -20.511  1.00  0.00     0.010 C 
HETATM   25  C17 UNL     1     -19.902  44.921 -22.991  1.00  0.00     0.009 C 
HETATM   26  C18 UNL     1     -20.054  44.562 -24.481  1.00  0.00     0.047 C 
BRANCH   7  27
HETATM   27  O2  UNL     1     -18.940  46.244 -25.737  1.00  0.00    -0.381 OA
HETATM   28  H27 UNL     1     -18.099  46.649 -26.002  1.00  0.00     0.211 HD
ENDBRANCH   7  27
ENDBRANCH   5   7
ENDBRANCH   4   5
ENDBRANCH   3   4
ENDBRANCH   1   3
BRANCH   1  29
HETATM   29  C23 UNL     1     -14.520  45.408 -28.546  1.00  0.00     0.120 C 
BRANCH  29  30
HETATM   30  C24 UNL     1     -14.168  46.288 -27.351  1.00  0.00     0.112 C 
BRANCH  30  31
HETATM   31  C25 UNL     1     -13.049  47.258 -27.672  1.00  0.00     0.217 C 
HETATM   32  O6  UNL     1     -12.944  48.358 -27.141  1.00  0.00    -0.274 OA
HETATM   33  N1  UNL     1     -12.158  46.769 -28.603  1.00  0.00    -0.361 N 
HETATM   34  H34 UNL     1     -12.272  45.826 -28.951  1.00  0.00     0.162 HD
BRANCH  33  35
HETATM   35  C26 UNL     1     -10.952  47.491 -28.956  1.00  0.00     0.122 C 
BRANCH  35  36
HETATM   36  C27 UNL     1      -9.711  46.671 -28.614  1.00  0.00     0.020 C 
BRANCH  36  37
HETATM   37  C28 UNL     1      -9.203  46.901 -27.189  1.00  0.00     0.002 C 
BRANCH  37  38
HETATM   38  C29 UNL     1      -7.725  46.530 -27.019  1.00  0.00     0.009 C 
BRANCH  38  39
HETATM   39  C30 UNL     1      -6.781  47.619 -27.528  1.00  0.00     0.103 C 
BRANCH  39  40
HETATM   40  C31 UNL     1      -5.717  48.019 -26.521  1.00  0.00     0.218 C 
HETATM   41  O7  UNL     1      -5.814  47.855 -25.312  1.00  0.00    -0.274 OA
HETATM   42  N2  UNL     1      -4.609  48.591 -27.117  1.00  0.00    -0.346 N 
HETATM   43  H45 UNL     1      -4.765  49.017 -28.024  1.00  0.00     0.163 HD
BRANCH  42  44
HETATM   44  C32 UNL     1      -3.567  49.215 -26.289  1.00  0.00     0.186 C 
BRANCH  44  45
HETATM   45  C33 UNL     1      -3.217  50.602 -26.841  1.00  0.00     0.074 C 
BRANCH  45  46
HETATM   46  C34 UNL     1      -1.801  51.033 -26.547  1.00  0.00    -0.056 A 
HETATM   47  C35 UNL     1      -0.899  51.272 -27.594  1.00  0.00     0.007 A 
HETATM   48  C36 UNL     1       0.413  51.659 -27.321  1.00  0.00     0.001 A 
HETATM   49  C37 UNL     1       0.837  51.811 -26.003  1.00  0.00     0.000 A 
HETATM   50  C38 UNL     1      -0.050  51.575 -24.956  1.00  0.00     0.001 A 
HETATM   51  C39 UNL     1      -1.364  51.188 -25.224  1.00  0.00     0.007 A 
ENDBRANCH  45  46
ENDBRANCH  44  45
BRANCH  44  52
HETATM   52  C40 UNL     1      -4.140  49.344 -24.879  1.00  0.00     0.163 C 
HETATM   53  O8  UNL     1      -4.969  50.171 -24.521  1.00  0.00    -0.648 OA
BRANCH  52  54
HETATM   54  O9  UNL     1      -3.639  48.451 -24.006  1.00  0.00    -0.775 OA
HETATM   55  H54 UNL     1      -4.098  48.638 -23.162  1.00  0.00     0.167 HD
ENDBRANCH  52  54
ENDBRANCH  44  52
ENDBRANCH  42  44
ENDBRANCH  39  40
ENDBRANCH  38  39
ENDBRANCH  37  38
ENDBRANCH  36  37
ENDBRANCH  35  36
ENDBRANCH  33  35
ENDBRANCH  30  31
ENDBRANCH  29  30
ENDBRANCH   1  29
TORSDOF 19
ENDMDL
MODEL 7
REMARK minimizedAffinity -8.5755415
REMARK CNNscore 0.269595295
REMARK CNNaffinity 6.8718133
REMARK  19 active torsions:
REMARK  status: ('A' for Active; 'I' for Inactive)
REMARK    1  A    between atoms: C19_20  and  O2_21 
REMARK    2  A    between atoms: C19_20  and  C20_22 
REMARK    3  A    between atoms: C20_22  and  C21_24 
REMARK    4  A    between atoms: C21_24  and  O4_25 
REMARK    5  A    between atoms: O4_25  and  C22_26 
REMARK    6  A    between atoms: C22_26  and  C23_28 
REMARK    7  A    between atoms: C23_28  and  C24_29 
REMARK    8  A    between atoms: C24_29  and  C25_30 
REMARK       I    between atoms: C25_30  and  N1_32 
REMARK    9  A    between atoms: N1_32  and  C26_33 
REMARK   10  A    between atoms: C26_33  and  C27_34 
REMARK   11  A    between atoms: C27_34  and  C28_35 
REMARK   12  A    between atoms: C28_35  and  C29_36 
REMARK   13  A    between atoms: C29_36  and  C30_37 
REMARK   14  A    between atoms: C30_37  and  C31_38 
REMARK       I    between atoms: C31_38  and  N2_40 
REMARK   15  A    between atoms: N2_40  and  C32_41 
REMARK   16  A    between atoms: C32_41  and  C33_42 
REMARK   17  A    between atoms: C32_41  and  C40_49 
REMARK   18  A    between atoms: C33_42  and  C34_43 
REMARK   19  A    between atoms: C40_49  and  O9_51 
ROOT
HETATM    1  C22 UNL     1       0.379  50.715 -16.880  1.00  0.00     0.259 C 
HETATM    2  O5  UNL     1       0.561  51.668 -17.628  1.00  0.00    -0.265 OA
ENDROOT
BRANCH   1   3
HETATM    3  O4  UNL     1      -0.656  49.844 -16.987  1.00  0.00    -0.314 OA
BRANCH   3   4
HETATM    4  C21 UNL     1      -1.912  50.459 -17.270  1.00  0.00     0.260 C 
BRANCH   4   5
HETATM    5  C20 UNL     1      -2.868  49.453 -17.899  1.00  0.00     0.185 C 
HETATM    6  O3  UNL     1      -3.924  49.137 -17.345  1.00  0.00    -0.292 OA
BRANCH   5   7
HETATM    7  C19 UNL     1      -2.461  48.892 -19.287  1.00  0.00     0.128 C 
HETATM    8  C14 UNL     1      -2.404  49.966 -20.426  1.00  0.00    -0.002 C 
HETATM    9  C13 UNL     1      -1.114  50.797 -20.554  1.00  0.00     0.013 C 
HETATM   10  C15 UNL     1      -3.618  50.931 -20.312  1.00  0.00     0.019 C 
HETATM   11  C16 UNL     1      -2.473  49.045 -21.668  1.00  0.00     0.002 C 
HETATM   12  C12 UNL     1      -1.062  51.594 -21.870  1.00  0.00     0.007 C 
HETATM   13  C11 UNL     1      -1.270  50.713 -23.128  1.00  0.00     0.002 C 
HETATM   14  C2  UNL     1      -1.225  51.517 -24.484  1.00  0.00    -0.016 C 
HETATM   15  C10 UNL     1      -2.536  49.812 -22.996  1.00  0.00    -0.004 C 
HETATM   16  C1  UNL     1      -2.278  52.648 -24.523  1.00  0.00     0.020 C 
HETATM   17  C3  UNL     1       0.194  52.143 -24.634  1.00  0.00     0.022 C 
HETATM   18  C7  UNL     1      -1.499  50.568 -25.657  1.00  0.00    -0.068 C 
HETATM   19  C4  UNL     1       0.503  52.645 -26.036  1.00  0.00     0.084 C 
HETATM   20  C5  UNL     1       0.284  51.558 -27.053  1.00  0.00     0.149 C 
HETATM   21  O1  UNL     1       0.900  51.521 -28.117  1.00  0.00    -0.293 OA
HETATM   22  C6  UNL     1      -0.783  50.563 -26.795  1.00  0.00     0.053 C 
HETATM   23  C8  UNL     1      -2.665  49.620 -25.509  1.00  0.00     0.035 C 
HETATM   24  C9  UNL     1      -2.623  48.854 -24.192  1.00  0.00     0.010 C 
HETATM   25  C17 UNL     1      -3.610  48.083 -21.339  1.00  0.00     0.009 C 
HETATM   26  C18 UNL     1      -3.518  47.877 -19.815  1.00  0.00     0.047 C 
BRANCH   7  27
HETATM   27  O2  UNL     1      -1.240  48.152 -19.195  1.00  0.00    -0.381 OA
HETATM   28  H27 UNL     1      -0.488  48.753 -19.079  1.00  0.00     0.211 HD
ENDBRANCH   7  27
ENDBRANCH   5   7
ENDBRANCH   4   5
ENDBRANCH   3   4
ENDBRANCH   1   3
BRANCH   1  29
HETATM   29  C23 UNL     1       1.220  50.435 -15.656  1.00  0.00     0.120 C 
BRANCH  29  30
HETATM   30  C24 UNL     1       0.405  50.214 -14.386  1.00  0.00     0.112 C 
BRANCH  30  31
HETATM   31  C25 UNL     1      -0.033  51.523 -13.760  1.00  0.00     0.217 C 
HETATM   32  O6  UNL     1       0.418  52.611 -14.099  1.00  0.00    -0.274 OA
HETATM   33  N1  UNL     1      -0.998  51.363 -12.789  1.00  0.00    -0.361 N 
HETATM   34  H34 UNL     1      -1.370  50.440 -12.607  1.00  0.00     0.162 HD
BRANCH  33  35
HETATM   35  C26 UNL     1      -1.638  52.500 -12.156  1.00  0.00     0.122 C 
BRANCH  35  36
HETATM   36  C27 UNL     1      -0.918  52.874 -10.863  1.00  0.00     0.020 C 
BRANCH  36  37
HETATM   37  C28 UNL     1      -0.258  54.253 -10.910  1.00  0.00     0.002 C 
BRANCH  37  38
HETATM   38  C29 UNL     1      -0.467  55.056  -9.621  1.00  0.00     0.009 C 
BRANCH  38  39
HETATM   39  C30 UNL     1      -0.464  54.176  -8.371  1.00  0.00     0.103 C 
BRANCH  39  40
HETATM   40  C31 UNL     1       0.652  54.511  -7.396  1.00  0.00     0.218 C 
HETATM   41  O7  UNL     1       1.148  53.710  -6.613  1.00  0.00    -0.274 OA
HETATM   42  N2  UNL     1       1.061  55.827  -7.487  1.00  0.00    -0.346 N 
HETATM   43  H45 UNL     1       0.378  56.477  -7.862  1.00  0.00     0.163 HD
BRANCH  42  44
HETATM   44  C32 UNL     1       1.990  56.380  -6.492  1.00  0.00     0.186 C 
BRANCH  44  45
HETATM   45  C33 UNL     1       3.046  57.250  -7.185  1.00  0.00     0.074 C 
BRANCH  45  46
HETATM   46  C34 UNL     1       3.737  56.565  -8.338  1.00  0.00    -0.056 A 
HETATM   47  C35 UNL     1       3.182  56.606  -9.625  1.00  0.00     0.007 A 
HETATM   48  C36 UNL     1       3.815  55.961 -10.688  1.00  0.00     0.001 A 
HETATM   49  C37 UNL     1       5.007  55.271 -10.477  1.00  0.00     0.000 A 
HETATM   50  C38 UNL     1       5.567  55.224  -9.203  1.00  0.00     0.001 A 
HETATM   51  C39 UNL     1       4.936  55.867  -8.137  1.00  0.00     0.007 A 
ENDBRANCH  45  46
ENDBRANCH  44  45
BRANCH  44  52
HETATM   52  C40 UNL     1       1.160  57.231  -5.534  1.00  0.00     0.163 C 
HETATM   53  O8  UNL     1       1.610  57.956  -4.654  1.00  0.00    -0.648 OA
BRANCH  52  54
HETATM   54  O9  UNL     1      -0.167  57.119  -5.720  1.00  0.00    -0.775 OA
HETATM   55  H54 UNL     1      -0.567  57.720  -5.058  1.00  0.00     0.167 HD
ENDBRANCH  52  54
ENDBRANCH  44  52
ENDBRANCH  42  44
ENDBRANCH  39  40
ENDBRANCH  38  39
ENDBRANCH  37  38
ENDBRANCH  36  37
ENDBRANCH  35  36
ENDBRANCH  33  35
ENDBRANCH  30  31
ENDBRANCH  29  30
ENDBRANCH   1  29
TORSDOF 19
ENDMDL
MODEL 8
REMARK minimizedAffinity -8.92606354
REMARK CNNscore 0.263875932
REMARK CNNaffinity 7.45713806
REMARK  19 active torsions:
REMARK  status: ('A' for Active; 'I' for Inactive)
REMARK    1  A    between atoms: C19_20  and  O2_21 
REMARK    2  A    between atoms: C19_20  and  C20_22 
REMARK    3  A    between atoms: C20_22  and  C21_24 
REMARK    4  A    between atoms: C21_24  and  O4_25 
REMARK    5  A    between atoms: O4_25  and  C22_26 
REMARK    6  A    between atoms: C22_26  and  C23_28 
REMARK    7  A    between atoms: C23_28  and  C24_29 
REMARK    8  A    between atoms: C24_29  and  C25_30 
REMARK       I    between atoms: C25_30  and  N1_32 
REMARK    9  A    between atoms: N1_32  and  C26_33 
REMARK   10  A    between atoms: C26_33  and  C27_34 
REMARK   11  A    between atoms: C27_34  and  C28_35 
REMARK   12  A    between atoms: C28_35  and  C29_36 
REMARK   13  A    between atoms: C29_36  and  C30_37 
REMARK   14  A    between atoms: C30_37  and  C31_38 
REMARK       I    between atoms: C31_38  and  N2_40 
REMARK   15  A    between atoms: N2_40  and  C32_41 
REMARK   16  A    between atoms: C32_41  and  C33_42 
REMARK   17  A    between atoms: C32_41  and  C40_49 
REMARK   18  A    between atoms: C33_42  and  C34_43 
REMARK   19  A    between atoms: C40_49  and  O9_51 
ROOT
HETATM    1  C22 UNL     1      -2.467  51.036 -17.186  1.00  0.00     0.259 C 
HETATM    2  O5  UNL     1      -2.853  51.732 -18.117  1.00  0.00    -0.265 OA
ENDROOT
BRANCH   1   3
HETATM    3  O4  UNL     1      -2.946  51.119 -15.919  1.00  0.00    -0.314 OA
BRANCH   3   4
HETATM    4  C21 UNL     1      -2.092  50.543 -14.931  1.00  0.00     0.260 C 
BRANCH   4   5
HETATM    5  C20 UNL     1      -2.798  50.490 -13.582  1.00  0.00     0.185 C 
HETATM    6  O3  UNL     1      -3.389  49.474 -13.206  1.00  0.00    -0.292 OA
BRANCH   5   7
HETATM    7  C19 UNL     1      -2.689  51.759 -12.697  1.00  0.00     0.128 C 
HETATM    8  C14 UNL     1      -1.305  51.932 -11.984  1.00  0.00    -0.002 C 
HETATM    9  C13 UNL     1      -0.167  52.583 -12.791  1.00  0.00     0.013 C 
HETATM   10  C15 UNL     1      -0.815  50.564 -11.430  1.00  0.00     0.019 C 
HETATM   11  C16 UNL     1      -1.700  52.932 -10.871  1.00  0.00     0.002 C 
HETATM   12  C12 UNL     1       1.032  52.964 -11.904  1.00  0.00     0.007 C 
HETATM   13  C11 UNL     1       0.642  53.855 -10.698  1.00  0.00     0.002 C 
HETATM   14  C2  UNL     1       1.859  54.250  -9.776  1.00  0.00    -0.016 C 
HETATM   15  C10 UNL     1      -0.554  53.250  -9.899  1.00  0.00    -0.004 C 
HETATM   16  C1  UNL     1       2.596  53.008  -9.225  1.00  0.00     0.020 C 
HETATM   17  C3  UNL     1       2.858  55.096 -10.621  1.00  0.00     0.022 C 
HETATM   18  C7  UNL     1       1.359  55.077  -8.585  1.00  0.00    -0.068 C 
HETATM   19  C4  UNL     1       3.894  55.839  -9.793  1.00  0.00     0.084 C 
HETATM   20  C5  UNL     1       3.230  56.685  -8.741  1.00  0.00     0.149 C 
HETATM   21  O1  UNL     1       3.747  57.710  -8.300  1.00  0.00    -0.293 OA
HETATM   22  C6  UNL     1       1.959  56.200  -8.153  1.00  0.00     0.053 C 
HETATM   23  C8  UNL     1       0.143  54.557  -7.856  1.00  0.00     0.035 C 
HETATM   24  C9  UNL     1      -1.003  54.229  -8.807  1.00  0.00     0.010 C 
HETATM   25  C17 UNL     1      -2.985  52.345 -10.298  1.00  0.00     0.009 C 
HETATM   26  C18 UNL     1      -3.692  51.703 -11.507  1.00  0.00     0.047 C 
BRANCH   7  27
HETATM   27  O2  UNL     1      -3.051  52.926 -13.441  1.00  0.00    -0.381 OA
HETATM   28  H27 UNL     1      -2.351  53.155 -14.073  1.00  0.00     0.211 HD
ENDBRANCH   7  27
ENDBRANCH   5   7
ENDBRANCH   4   5
ENDBRANCH   3   4
ENDBRANCH   1   3
BRANCH   1  29
HETATM   29  C23 UNL     1      -1.319  50.058 -17.287  1.00  0.00     0.120 C 
BRANCH  29  30
HETATM   30  C24 UNL     1      -1.716  48.701 -17.859  1.00  0.00     0.112 C 
BRANCH  30  31
HETATM   31  C25 UNL     1      -1.959  48.767 -19.354  1.00  0.00     0.217 C 
HETATM   32  O6  UNL     1      -1.147  48.371 -20.182  1.00  0.00    -0.274 OA
HETATM   33  N1  UNL     1      -3.190  49.296 -19.679  1.00  0.00    -0.361 N 
HETATM   34  H34 UNL     1      -3.835  49.542 -18.940  1.00  0.00     0.162 HD
BRANCH  33  35
HETATM   35  C26 UNL     1      -3.666  49.332 -21.048  1.00  0.00     0.122 C 
BRANCH  35  36
HETATM   36  C27 UNL     1      -4.086  50.747 -21.438  1.00  0.00     0.020 C 
BRANCH  36  37
HETATM   37  C28 UNL     1      -4.528  50.871 -22.897  1.00  0.00     0.002 C 
BRANCH  37  38
HETATM   38  C29 UNL     1      -3.846  52.034 -23.627  1.00  0.00     0.009 C 
BRANCH  38  39
HETATM   39  C30 UNL     1      -3.432  51.675 -25.053  1.00  0.00     0.103 C 
BRANCH  39  40
HETATM   40  C31 UNL     1      -1.984  52.006 -25.367  1.00  0.00     0.218 C 
HETATM   41  O7  UNL     1      -1.220  51.261 -25.969  1.00  0.00    -0.274 OA
HETATM   42  N2  UNL     1      -1.610  53.253 -24.903  1.00  0.00    -0.346 N 
HETATM   43  H45 UNL     1      -2.153  53.617 -24.127  1.00  0.00     0.163 HD
BRANCH  42  44
HETATM   44  C32 UNL     1      -0.199  53.661 -24.943  1.00  0.00     0.186 C 
BRANCH  44  45
HETATM   45  C33 UNL     1       0.664  52.649 -24.179  1.00  0.00     0.074 C 
BRANCH  45  46
HETATM   46  C34 UNL     1       0.514  52.731 -22.680  1.00  0.00    -0.056 A 
HETATM   47  C35 UNL     1       1.128  53.765 -21.960  1.00  0.00     0.007 A 
HETATM   48  C36 UNL     1       0.999  53.833 -20.572  1.00  0.00     0.001 A 
HETATM   49  C37 UNL     1       0.258  52.869 -19.891  1.00  0.00     0.000 A 
HETATM   50  C38 UNL     1      -0.355  51.836 -20.597  1.00  0.00     0.001 A 
HETATM   51  C39 UNL     1      -0.229  51.766 -21.985  1.00  0.00     0.007 A 
ENDBRANCH  45  46
ENDBRANCH  44  45
BRANCH  44  52
HETATM   52  C40 UNL     1       0.212  53.693 -26.413  1.00  0.00     0.163 C 
HETATM   53  O8  UNL     1      -0.263  54.431 -27.269  1.00  0.00    -0.648 OA
BRANCH  52  54
HETATM   54  O9  UNL     1       1.171  52.804 -26.728  1.00  0.00    -0.775 OA
HETATM   55  H54 UNL     1       1.342  52.944 -27.682  1.00  0.00     0.167 HD
ENDBRANCH  52  54
ENDBRANCH  44  52
ENDBRANCH  42  44
ENDBRANCH  39  40
ENDBRANCH  38  39
ENDBRANCH  37  38
ENDBRANCH  36  37
ENDBRANCH  35  36
ENDBRANCH  33  35
ENDBRANCH  30  31
ENDBRANCH  29  30
ENDBRANCH   1  29
TORSDOF 19
ENDMDL
MODEL 9
REMARK minimizedAffinity -8.1404438
REMARK CNNscore 0.253892303
REMARK CNNaffinity 6.49656868
REMARK  19 active torsions:
REMARK  status: ('A' for Active; 'I' for Inactive)
REMARK    1  A    between atoms: C19_20  and  O2_21 
REMARK    2  A    between atoms: C19_20  and  C20_22 
REMARK    3  A    between atoms: C20_22  and  C21_24 
REMARK    4  A    between atoms: C21_24  and  O4_25 
REMARK    5  A    between atoms: O4_25  and  C22_26 
REMARK    6  A    between atoms: C22_26  and  C23_28 
REMARK    7  A    between atoms: C23_28  and  C24_29 
REMARK    8  A    between atoms: C24_29  and  C25_30 
REMARK       I    between atoms: C25_30  and  N1_32 
REMARK    9  A    between atoms: N1_32  and  C26_33 
REMARK   10  A    between atoms: C26_33  and  C27_34 
REMARK   11  A    between atoms: C27_34  and  C28_35 
REMARK   12  A    between atoms: C28_35  and  C29_36 
REMARK   13  A    between atoms: C29_36  and  C30_37 
REMARK   14  A    between atoms: C30_37  and  C31_38 
REMARK       I    between atoms: C31_38  and  N2_40 
REMARK   15  A    between atoms: N2_40  and  C32_41 
REMARK   16  A    between atoms: C32_41  and  C33_42 
REMARK   17  A    between atoms: C32_41  and  C40_49 
REMARK   18  A    between atoms: C33_42  and  C34_43 
REMARK   19  A    between atoms: C40_49  and  O9_51 
ROOT
HETATM    1  C22 UNL     1      -9.554  47.508 -25.526  1.00  0.00     0.259 C 
HETATM    2  O5  UNL     1     -10.550  47.719 -24.845  1.00  0.00    -0.265 OA
ENDROOT
BRANCH   1   3
HETATM    3  O4  UNL     1      -8.436  46.884 -25.076  1.00  0.00    -0.314 OA
BRANCH   3   4
HETATM    4  C21 UNL     1      -7.815  47.526 -23.964  1.00  0.00     0.260 C 
BRANCH   4   5
HETATM    5  C20 UNL     1      -6.571  48.282 -24.412  1.00  0.00     0.185 C 
HETATM    6  O3  UNL     1      -5.969  47.976 -25.445  1.00  0.00    -0.292 OA
BRANCH   5   7
HETATM    7  C19 UNL     1      -6.137  49.479 -23.526  1.00  0.00     0.128 C 
HETATM    8  C14 UNL     1      -4.661  49.396 -23.006  1.00  0.00    -0.002 C 
HETATM    9  C13 UNL     1      -3.548  49.888 -23.950  1.00  0.00     0.013 C 
HETATM   10  C15 UNL     1      -4.336  47.945 -22.552  1.00  0.00     0.019 C 
HETATM   11  C16 UNL     1      -4.734  50.400 -21.830  1.00  0.00     0.002 C 
HETATM   12  C12 UNL     1      -2.195  50.033 -23.228  1.00  0.00     0.007 C 
HETATM   13  C11 UNL     1      -2.270  50.924 -21.962  1.00  0.00     0.002 C 
HETATM   14  C2  UNL     1      -0.892  51.078 -21.209  1.00  0.00    -0.016 C 
HETATM   15  C10 UNL     1      -3.433  50.487 -21.019  1.00  0.00    -0.004 C 
HETATM   16  C1  UNL     1      -0.305  49.711 -20.789  1.00  0.00     0.020 C 
HETATM   17  C3  UNL     1       0.112  51.786 -22.167  1.00  0.00     0.022 C 
HETATM   18  C7  UNL     1      -1.086  51.924 -19.945  1.00  0.00    -0.068 C 
HETATM   19  C4  UNL     1       1.358  52.317 -21.475  1.00  0.00     0.084 C 
HETATM   20  C5  UNL     1       0.989  53.214 -20.325  1.00  0.00     0.149 C 
HETATM   21  O1  UNL     1       1.722  54.122 -19.940  1.00  0.00    -0.293 OA
HETATM   22  C6  UNL     1      -0.257  52.916 -19.578  1.00  0.00     0.053 C 
HETATM   23  C8  UNL     1      -2.264  51.578 -19.067  1.00  0.00     0.035 C 
HETATM   24  C9  UNL     1      -3.564  51.479 -19.856  1.00  0.00     0.010 C 
HETATM   25  C17 UNL     1      -6.011  50.005 -21.098  1.00  0.00     0.009 C 
HETATM   26  C18 UNL     1      -6.969  49.536 -22.210  1.00  0.00     0.047 C 
BRANCH   7  27
HETATM   27  O2  UNL     1      -6.396  50.720 -24.190  1.00  0.00    -0.381 OA
HETATM   28  H27 UNL     1      -5.757  50.859 -24.908  1.00  0.00     0.211 HD
ENDBRANCH   7  27
ENDBRANCH   5   7
ENDBRANCH   4   5
ENDBRANCH   3   4
ENDBRANCH   1   3
BRANCH   1  29
HETATM   29  C23 UNL     1      -9.381  48.014 -26.940  1.00  0.00     0.120 C 
BRANCH  29  30
HETATM   30  C24 UNL     1     -10.196  47.242 -27.973  1.00  0.00     0.112 C 
BRANCH  30  31
HETATM   31  C25 UNL     1      -9.455  47.102 -29.288  1.00  0.00     0.217 C 
HETATM   32  O6  UNL     1      -8.285  46.744 -29.363  1.00  0.00    -0.274 OA
HETATM   33  N1  UNL     1     -10.237  47.400 -30.384  1.00  0.00    -0.361 N 
HETATM   34  H34 UNL     1     -11.213  47.626 -30.250  1.00  0.00     0.162 HD
BRANCH  33  35
HETATM   35  C26 UNL     1      -9.754  47.210 -31.738  1.00  0.00     0.122 C 
BRANCH  35  36
HETATM   36  C27 UNL     1      -9.815  45.736 -32.131  1.00  0.00     0.020 C 
BRANCH  36  37
HETATM   37  C28 UNL     1     -10.986  45.400 -33.056  1.00  0.00     0.002 C 
BRANCH  37  38
HETATM   38  C29 UNL     1     -10.759  45.873 -34.497  1.00  0.00     0.009 C 
BRANCH  38  39
HETATM   39  C30 UNL     1     -12.031  45.824 -35.342  1.00  0.00     0.103 C 
BRANCH  39  40
HETATM   40  C31 UNL     1     -11.827  46.287 -36.774  1.00  0.00     0.218 C 
HETATM   41  O7  UNL     1     -12.514  45.925 -37.721  1.00  0.00    -0.274 OA
HETATM   42  N2  UNL     1     -10.776  47.175 -36.902  1.00  0.00    -0.346 N 
HETATM   43  H45 UNL     1     -10.063  47.123 -36.182  1.00  0.00     0.163 HD
BRANCH  42  44
HETATM   44  C32 UNL     1     -10.309  47.577 -38.236  1.00  0.00     0.186 C 
BRANCH  44  45
HETATM   45  C33 UNL     1     -10.922  48.929 -38.623  1.00  0.00     0.074 C 
BRANCH  45  46
HETATM   46  C34 UNL     1     -11.962  48.835 -39.712  1.00  0.00    -0.056 A 
HETATM   47  C35 UNL     1     -11.576  48.646 -41.048  1.00  0.00     0.007 A 
HETATM   48  C36 UNL     1     -12.538  48.572 -42.056  1.00  0.00     0.001 A 
HETATM   49  C37 UNL     1     -13.890  48.686 -41.743  1.00  0.00     0.000 A 
HETATM   50  C38 UNL     1     -14.284  48.875 -40.420  1.00  0.00     0.001 A 
HETATM   51  C39 UNL     1     -13.326  48.950 -39.408  1.00  0.00     0.007 A 
ENDBRANCH  45  46
ENDBRANCH  44  45
BRANCH  44  52
HETATM   52  C40 UNL     1      -8.789  47.699 -38.155  1.00  0.00     0.163 C 
HETATM   53  O8  UNL     1      -7.990  47.116 -38.878  1.00  0.00    -0.648 OA
BRANCH  52  54
HETATM   54  O9  UNL     1      -8.361  48.520 -37.180  1.00  0.00    -0.775 OA
HETATM   55  H54 UNL     1      -7.384  48.513 -37.254  1.00  0.00     0.167 HD
ENDBRANCH  52  54
ENDBRANCH  44  52
ENDBRANCH  42  44
ENDBRANCH  39  40
ENDBRANCH  38  39
ENDBRANCH  37  38
ENDBRANCH  36  37
ENDBRANCH  35  36
ENDBRANCH  33  35
ENDBRANCH  30  31
ENDBRANCH  29  30
ENDBRANCH   1  29
TORSDOF 19
ENDMDL
