MODEL 1
REMARK minimizedAffinity -7.50188208
REMARK CNNscore 0.730562747
REMARK CNNaffinity 6.99285173
REMARK  13 active torsions:
REMARK  status: ('A' for Active; 'I' for Inactive)
REMARK    1  A    between atoms: O1_2  and  C2_3 
REMARK    2  A    between atoms: C2_3  and  C3_4 
REMARK    3  A    between atoms: C3_4  and  C4_5 
REMARK    4  A    between atoms: C4_5  and  O2_6 
REMARK    5  A    between atoms: O2_6  and  C5_7 
REMARK    6  A    between atoms: C20_23  and  C21_24 
REMARK    7  A    between atoms: C21_24  and  O4_26 
REMARK    8  A    between atoms: C21_24  and  C23_27 
REMARK    9  A    between atoms: C23_27  and  O5_28 
REMARK   10  A    between atoms: C23_27  and  C24_29 
REMARK   11  A    between atoms: C25_31  and  C26_32 
REMARK   12  A    between atoms: C26_32  and  O7_33 
REMARK   13  A    between atoms: C35_42  and  O8_43 
ROOT
HETATM    1  C5  UNL     1      -2.220  13.930  17.884  1.00  0.00     0.122 C 
HETATM    2  C6  UNL     1      -1.009  14.239  17.001  1.00  0.00     0.033 C 
HETATM    3  C7  UNL     1      -0.770  13.154  15.948  1.00  0.00     0.013 C 
HETATM    4  C8  UNL     1      -0.615  11.718  16.534  1.00  0.00    -0.026 C 
HETATM    5  C9  UNL     1       0.653  11.696  17.429  1.00  0.00     0.016 C 
HETATM    6  C10 UNL     1      -1.869  11.423  17.414  1.00  0.00     0.071 C 
HETATM    7  C11 UNL     1      -2.133  12.511  18.467  1.00  0.00     0.045 C 
HETATM    8  C12 UNL     1      -3.129  11.197  16.574  1.00  0.00     0.161 C 
HETATM    9  O3  UNL     1      -4.225  11.682  16.847  1.00  0.00    -0.292 OA
HETATM   10  C13 UNL     1      -3.014  10.259  15.432  1.00  0.00    -0.006 C 
HETATM   11  C14 UNL     1      -1.783   9.973  14.976  1.00  0.00    -0.030 C 
HETATM   12  C15 UNL     1      -0.484  10.691  15.327  1.00  0.00     0.027 C 
HETATM   13  C16 UNL     1       0.739   9.722  15.364  1.00  0.00     0.011 C 
HETATM   14  C17 UNL     1       0.802   8.704  14.193  1.00  0.00     0.014 C 
HETATM   15  C18 UNL     1      -0.506   7.897  14.118  1.00  0.00    -0.002 C 
HETATM   16  C19 UNL     1      -0.641   7.083  15.435  1.00  0.00     0.019 C 
HETATM   17  C20 UNL     1      -0.772   7.018  12.833  1.00  0.00     0.034 C 
HETATM   18  C31 UNL     1      -2.349   6.976  12.726  1.00  0.00     0.016 C 
HETATM   19  C32 UNL     1      -2.846   7.988  13.774  1.00  0.00     0.026 C 
HETATM   20  C33 UNL     1      -4.110   8.802  13.580  1.00  0.00     0.013 C 
HETATM   21  C34 UNL     1      -4.296   9.689  14.844  1.00  0.00     0.043 C 
HETATM   22  C35 UNL     1      -1.650   8.924  13.926  1.00  0.00     0.094 C 
ENDROOT
BRANCH  17  23
HETATM   23  C21 UNL     1       0.007   5.678  12.572  1.00  0.00     0.087 C 
HETATM   24  C22 UNL     1      -0.879   4.425  12.553  1.00  0.00     0.049 C 
BRANCH  23  25
HETATM   25  O4  UNL     1       0.927   5.511  13.670  1.00  0.00    -0.387 OA
HETATM   26  H33 UNL     1       1.395   6.355  13.797  1.00  0.00     0.210 HD
ENDBRANCH  23  25
BRANCH  23  27
HETATM   27  C23 UNL     1       0.841   5.812  11.232  1.00  0.00     0.181 C 
BRANCH  27  28
HETATM   28  O5  UNL     1       1.525   4.587  10.940  1.00  0.00    -0.390 OA
HETATM   29  H35 UNL     1       2.315   4.604  11.517  1.00  0.00     0.210 HD
ENDBRANCH  27  28
BRANCH  27  30
HETATM   30  C24 UNL     1       1.863   6.984  11.181  1.00  0.00     0.158 C 
HETATM   31  O6  UNL     1       3.197   6.438  11.000  1.00  0.00    -0.375 OA
HETATM   32  C25 UNL     1       3.824   7.008   9.831  1.00  0.00     0.149 C 
HETATM   33  C27 UNL     1       2.675   7.571   8.996  1.00  0.00     0.019 C 
HETATM   34  C28 UNL     1       3.070   8.641   7.986  1.00  0.00     0.013 C 
HETATM   35  C29 UNL     1       1.677   8.021  10.053  1.00  0.00     0.019 C 
HETATM   36  C30 UNL     1       0.259   8.216   9.527  1.00  0.00     0.013 C 
BRANCH  32  37
HETATM   37  C26 UNL     1       4.925   7.983  10.286  1.00  0.00     0.196 C 
BRANCH  37  38
HETATM   38  O7  UNL     1       5.285   7.788  11.651  1.00  0.00    -0.398 OA
HETATM   39  H40 UNL     1       5.689   6.899  11.689  1.00  0.00     0.209 HD
ENDBRANCH  37  38
ENDBRANCH  32  37
ENDBRANCH  27  30
ENDBRANCH  23  27
ENDBRANCH  17  23
BRANCH  22  40
HETATM   40  O8  UNL     1      -1.452   9.648  12.693  1.00  0.00    -0.384 OA
HETATM   41  H56 UNL     1      -1.964  10.477  12.741  1.00  0.00     0.211 HD
ENDBRANCH  22  40
BRANCH   1  42
HETATM   42  O2  UNL     1      -2.269  14.816  19.007  1.00  0.00    -0.386 OA
BRANCH  42  43
HETATM   43  C4  UNL     1      -1.160  15.701  19.142  1.00  0.00     0.170 C 
BRANCH  43  44
HETATM   44  C3  UNL     1      -0.975  16.135  20.594  1.00  0.00     0.052 C 
BRANCH  44  45
HETATM   45  C2  UNL     1      -2.263  16.610  21.265  1.00  0.00     0.169 C 
BRANCH  45  46
HETATM   46  O1  UNL     1      -2.703  15.702  22.277  1.00  0.00    -0.396 OA
HETATM   47  C1  UNL     1      -4.104  15.761  22.516  1.00  0.00     0.201 C 
ENDBRANCH  45  46
ENDBRANCH  44  45
ENDBRANCH  43  44
ENDBRANCH  42  43
ENDBRANCH   1  42
TORSDOF 13
ENDMDL
MODEL 2
REMARK minimizedAffinity -7.7968235
REMARK CNNscore 0.693217337
REMARK CNNaffinity 7.26947069
REMARK  13 active torsions:
REMARK  status: ('A' for Active; 'I' for Inactive)
REMARK    1  A    between atoms: O1_2  and  C2_3 
REMARK    2  A    between atoms: C2_3  and  C3_4 
REMARK    3  A    between atoms: C3_4  and  C4_5 
REMARK    4  A    between atoms: C4_5  and  O2_6 
REMARK    5  A    between atoms: O2_6  and  C5_7 
REMARK    6  A    between atoms: C20_23  and  C21_24 
REMARK    7  A    between atoms: C21_24  and  O4_26 
REMARK    8  A    between atoms: C21_24  and  C23_27 
REMARK    9  A    between atoms: C23_27  and  O5_28 
REMARK   10  A    between atoms: C23_27  and  C24_29 
REMARK   11  A    between atoms: C25_31  and  C26_32 
REMARK   12  A    between atoms: C26_32  and  O7_33 
REMARK   13  A    between atoms: C35_42  and  O8_43 
ROOT
HETATM    1  C5  UNL     1       2.837   6.692   9.483  1.00  0.00     0.122 C 
HETATM    2  C6  UNL     1       1.576   7.393   8.974  1.00  0.00     0.033 C 
HETATM    3  C7  UNL     1       0.876   8.194  10.074  1.00  0.00     0.013 C 
HETATM    4  C8  UNL     1       0.514   7.360  11.340  1.00  0.00    -0.026 C 
HETATM    5  C9  UNL     1      -0.509   6.271  10.924  1.00  0.00     0.016 C 
HETATM    6  C10 UNL     1       1.818   6.672  11.848  1.00  0.00     0.071 C 
HETATM    7  C11 UNL     1       2.543   5.876  10.751  1.00  0.00     0.045 C 
HETATM    8  C12 UNL     1       2.788   7.667  12.493  1.00  0.00     0.161 C 
HETATM    9  O3  UNL     1       3.999   7.669  12.283  1.00  0.00    -0.292 OA
HETATM   10  C13 UNL     1       2.222   8.600  13.496  1.00  0.00    -0.006 C 
HETATM   11  C14 UNL     1       0.891   8.784  13.501  1.00  0.00    -0.030 C 
HETATM   12  C15 UNL     1      -0.101   8.340  12.432  1.00  0.00     0.027 C 
HETATM   13  C16 UNL     1      -1.482   7.933  13.035  1.00  0.00     0.011 C 
HETATM   14  C17 UNL     1      -2.024   8.891  14.131  1.00  0.00     0.014 C 
HETATM   15  C18 UNL     1      -0.986   9.054  15.256  1.00  0.00    -0.002 C 
HETATM   16  C19 UNL     1      -0.775   7.663  15.917  1.00  0.00     0.019 C 
HETATM   17  C20 UNL     1      -1.206  10.202  16.318  1.00  0.00     0.034 C 
HETATM   18  C31 UNL     1       0.259  10.569  16.784  1.00  0.00     0.016 C 
HETATM   19  C32 UNL     1       1.186   9.805  15.822  1.00  0.00     0.026 C 
HETATM   20  C33 UNL     1       2.537  10.345  15.397  1.00  0.00     0.013 C 
HETATM   21  C34 UNL     1       3.184   9.296  14.447  1.00  0.00     0.043 C 
HETATM   22  C35 UNL     1       0.301   9.607  14.594  1.00  0.00     0.094 C 
ENDROOT
BRANCH  17  23
HETATM   23  C21 UNL     1      -2.314  10.100  17.429  1.00  0.00     0.087 C 
HETATM   24  C22 UNL     1      -1.812  10.382  18.851  1.00  0.00     0.049 C 
BRANCH  23  25
HETATM   25  O4  UNL     1      -2.782   8.735  17.425  1.00  0.00    -0.387 OA
HETATM   26  H33 UNL     1      -2.963   8.485  16.502  1.00  0.00     0.210 HD
ENDBRANCH  23  25
BRANCH  23  27
HETATM   27  C23 UNL     1      -3.524  11.048  17.047  1.00  0.00     0.181 C 
BRANCH  27  28
HETATM   28  O5  UNL     1      -4.334  10.445  16.030  1.00  0.00    -0.390 OA
HETATM   29  H35 UNL     1      -3.848  10.612  15.198  1.00  0.00     0.210 HD
ENDBRANCH  27  28
BRANCH  27  30
HETATM   30  C24 UNL     1      -3.145  12.489  16.598  1.00  0.00     0.158 C 
HETATM   31  O6  UNL     1      -3.522  12.665  15.207  1.00  0.00    -0.375 OA
HETATM   32  C25 UNL     1      -4.402  13.801  15.060  1.00  0.00     0.149 C 
HETATM   33  C27 UNL     1      -4.963  14.055  16.458  1.00  0.00     0.019 C 
HETATM   34  C28 UNL     1      -5.508  15.458  16.693  1.00  0.00     0.013 C 
HETATM   35  C29 UNL     1      -3.808  13.654  17.365  1.00  0.00     0.019 C 
HETATM   36  C30 UNL     1      -4.215  13.381  18.808  1.00  0.00     0.013 C 
BRANCH  32  37
HETATM   37  C26 UNL     1      -3.626  14.942  14.380  1.00  0.00     0.196 C 
BRANCH  37  38
HETATM   38  O7  UNL     1      -2.812  14.474  13.307  1.00  0.00    -0.398 OA
HETATM   39  H40 UNL     1      -3.437  14.142  12.633  1.00  0.00     0.209 HD
ENDBRANCH  37  38
ENDBRANCH  32  37
ENDBRANCH  27  30
ENDBRANCH  23  27
ENDBRANCH  17  23
BRANCH  22  40
HETATM   40  O8  UNL     1       0.026  10.891  13.994  1.00  0.00    -0.384 OA
HETATM   41  H56 UNL     1       0.717  11.070  13.328  1.00  0.00     0.211 HD
ENDBRANCH  22  40
BRANCH   1  42
HETATM   42  O2  UNL     1       3.324   5.757   8.515  1.00  0.00    -0.386 OA
BRANCH  42  43
HETATM   43  C4  UNL     1       2.601   5.707   7.288  1.00  0.00     0.170 C 
BRANCH  43  44
HETATM   44  C3  UNL     1       3.351   4.890   6.239  1.00  0.00     0.052 C 
BRANCH  44  45
HETATM   45  C2  UNL     1       3.720   3.481   6.702  1.00  0.00     0.169 C 
BRANCH  45  46
HETATM   46  O1  UNL     1       5.040   3.426   7.245  1.00  0.00    -0.396 OA
HETATM   47  C1  UNL     1       5.080   2.947   8.583  1.00  0.00     0.201 C 
ENDBRANCH  45  46
ENDBRANCH  44  45
ENDBRANCH  43  44
ENDBRANCH  42  43
ENDBRANCH   1  42
TORSDOF 13
ENDMDL
MODEL 3
REMARK minimizedAffinity -9.34222126
REMARK CNNscore 0.567239761
REMARK CNNaffinity 7.2138238
REMARK  13 active torsions:
REMARK  status: ('A' for Active; 'I' for Inactive)
REMARK    1  A    between atoms: O1_2  and  C2_3 
REMARK    2  A    between atoms: C2_3  and  C3_4 
REMARK    3  A    between atoms: C3_4  and  C4_5 
REMARK    4  A    between atoms: C4_5  and  O2_6 
REMARK    5  A    between atoms: O2_6  and  C5_7 
REMARK    6  A    between atoms: C20_23  and  C21_24 
REMARK    7  A    between atoms: C21_24  and  O4_26 
REMARK    8  A    between atoms: C21_24  and  C23_27 
REMARK    9  A    between atoms: C23_27  and  O5_28 
REMARK   10  A    between atoms: C23_27  and  C24_29 
REMARK   11  A    between atoms: C25_31  and  C26_32 
REMARK   12  A    between atoms: C26_32  and  O7_33 
REMARK   13  A    between atoms: C35_42  and  O8_43 
ROOT
HETATM    1  C5  UNL     1      -5.680   6.825  14.374  1.00  0.00     0.122 C 
HETATM    2  C6  UNL     1      -5.473   8.174  13.684  1.00  0.00     0.033 C 
HETATM    3  C7  UNL     1      -4.124   8.256  12.966  1.00  0.00     0.013 C 
HETATM    4  C8  UNL     1      -2.895   7.962  13.880  1.00  0.00    -0.026 C 
HETATM    5  C9  UNL     1      -2.835   9.060  14.975  1.00  0.00     0.016 C 
HETATM    6  C10 UNL     1      -3.124   6.575  14.556  1.00  0.00     0.071 C 
HETATM    7  C11 UNL     1      -4.482   6.470  15.268  1.00  0.00     0.045 C 
HETATM    8  C12 UNL     1      -2.964   5.414  13.570  1.00  0.00     0.161 C 
HETATM    9  O3  UNL     1      -3.731   4.454  13.520  1.00  0.00    -0.292 OA
HETATM   10  C13 UNL     1      -1.756   5.424  12.712  1.00  0.00    -0.006 C 
HETATM   11  C14 UNL     1      -1.098   6.587  12.568  1.00  0.00    -0.030 C 
HETATM   12  C15 UNL     1      -1.583   7.973  12.981  1.00  0.00     0.027 C 
HETATM   13  C16 UNL     1      -0.416   8.891  13.462  1.00  0.00     0.011 C 
HETATM   14  C17 UNL     1       0.864   8.836  12.584  1.00  0.00     0.014 C 
HETATM   15  C18 UNL     1       1.356   7.384  12.453  1.00  0.00    -0.002 C 
HETATM   16  C19 UNL     1       1.745   6.881  13.871  1.00  0.00     0.019 C 
HETATM   17  C20 UNL     1       2.464   7.063  11.372  1.00  0.00     0.034 C 
HETATM   18  C31 UNL     1       2.188   5.555  10.988  1.00  0.00     0.016 C 
HETATM   19  C32 UNL     1       0.852   5.208  11.669  1.00  0.00     0.026 C 
HETATM   20  C33 UNL     1      -0.136   4.230  11.067  1.00  0.00     0.013 C 
HETATM   21  C34 UNL     1      -1.344   4.122  12.040  1.00  0.00     0.043 C 
HETATM   22  C35 UNL     1       0.193   6.576  11.825  1.00  0.00     0.094 C 
ENDROOT
BRANCH  17  23
HETATM   23  C21 UNL     1       3.962   7.497  11.569  1.00  0.00     0.087 C 
HETATM   24  C22 UNL     1       4.658   7.968  10.286  1.00  0.00     0.049 C 
BRANCH  23  25
HETATM   25  O4  UNL     1       4.678   6.328  12.017  1.00  0.00    -0.387 OA
HETATM   26  H33 UNL     1       4.167   5.923  12.739  1.00  0.00     0.210 HD
ENDBRANCH  23  25
BRANCH  23  27
HETATM   27  C23 UNL     1       4.040   8.600  12.704  1.00  0.00     0.181 C 
BRANCH  27  28
HETATM   28  O5  UNL     1       4.512   9.842  12.166  1.00  0.00    -0.390 OA
HETATM   29  H35 UNL     1       5.482   9.731  12.109  1.00  0.00     0.210 HD
ENDBRANCH  27  28
BRANCH  27  30
HETATM   30  C24 UNL     1       4.895   8.235  13.951  1.00  0.00     0.158 C 
HETATM   31  O6  UNL     1       6.302   8.351  13.610  1.00  0.00    -0.375 OA
HETATM   32  C25 UNL     1       6.969   9.257  14.515  1.00  0.00     0.149 C 
HETATM   33  C27 UNL     1       5.852  10.089  15.144  1.00  0.00     0.019 C 
HETATM   34  C28 UNL     1       6.207  10.757  16.467  1.00  0.00     0.013 C 
HETATM   35  C29 UNL     1       4.694   9.104  15.211  1.00  0.00     0.019 C 
HETATM   36  C30 UNL     1       3.328   9.760  15.381  1.00  0.00     0.013 C 
BRANCH  32  37
HETATM   37  C26 UNL     1       7.872   8.441  15.455  1.00  0.00     0.196 C 
BRANCH  37  38
HETATM   38  O7  UNL     1       7.179   8.004  16.622  1.00  0.00    -0.398 OA
HETATM   39  H40 UNL     1       6.500   7.379  16.302  1.00  0.00     0.209 HD
ENDBRANCH  37  38
ENDBRANCH  32  37
ENDBRANCH  27  30
ENDBRANCH  23  27
ENDBRANCH  17  23
BRANCH  22  40
HETATM   40  O8  UNL     1      -0.118   7.106  10.519  1.00  0.00    -0.384 OA
HETATM   41  H56 UNL     1      -1.021   6.822  10.282  1.00  0.00     0.211 HD
ENDBRANCH  22  40
BRANCH   1  42
HETATM   42  O2  UNL     1      -6.820   6.866  15.239  1.00  0.00    -0.386 OA
BRANCH  42  43
HETATM   43  C4  UNL     1      -7.945   6.104  14.810  1.00  0.00     0.170 C 
BRANCH  43  44
HETATM   44  C3  UNL     1      -7.524   4.711  14.349  1.00  0.00     0.052 C 
BRANCH  44  45
HETATM   45  C2  UNL     1      -8.181   4.268  13.042  1.00  0.00     0.169 C 
BRANCH  45  46
HETATM   46  O1  UNL     1      -8.360   2.852  12.988  1.00  0.00    -0.396 OA
HETATM   47  C1  UNL     1      -7.251   2.166  12.420  1.00  0.00     0.201 C 
ENDBRANCH  45  46
ENDBRANCH  44  45
ENDBRANCH  43  44
ENDBRANCH  42  43
ENDBRANCH   1  42
TORSDOF 13
ENDMDL
MODEL 4
REMARK minimizedAffinity -8.76020908
REMARK CNNscore 0.469793856
REMARK CNNaffinity 6.92916489
REMARK  13 active torsions:
REMARK  status: ('A' for Active; 'I' for Inactive)
REMARK    1  A    between atoms: O1_2  and  C2_3 
REMARK    2  A    between atoms: C2_3  and  C3_4 
REMARK    3  A    between atoms: C3_4  and  C4_5 
REMARK    4  A    between atoms: C4_5  and  O2_6 
REMARK    5  A    between atoms: O2_6  and  C5_7 
REMARK    6  A    between atoms: C20_23  and  C21_24 
REMARK    7  A    between atoms: C21_24  and  O4_26 
REMARK    8  A    between atoms: C21_24  and  C23_27 
REMARK    9  A    between atoms: C23_27  and  O5_28 
REMARK   10  A    between atoms: C23_27  and  C24_29 
REMARK   11  A    between atoms: C25_31  and  C26_32 
REMARK   12  A    between atoms: C26_32  and  O7_33 
REMARK   13  A    between atoms: C35_42  and  O8_43 
ROOT
HETATM    1  C5  UNL     1      -6.043   7.369  14.682  1.00  0.00     0.122 C 
HETATM    2  C6  UNL     1      -5.396   6.080  15.191  1.00  0.00     0.033 C 
HETATM    3  C7  UNL     1      -3.874   6.198  15.295  1.00  0.00     0.013 C 
HETATM    4  C8  UNL     1      -3.174   6.626  13.970  1.00  0.00    -0.026 C 
HETATM    5  C9  UNL     1      -3.418   5.515  12.914  1.00  0.00     0.016 C 
HETATM    6  C10 UNL     1      -3.839   7.951  13.484  1.00  0.00     0.071 C 
HETATM    7  C11 UNL     1      -5.370   7.854  13.389  1.00  0.00     0.045 C 
HETATM    8  C12 UNL     1      -3.448   9.150  14.352  1.00  0.00     0.161 C 
HETATM    9  O3  UNL     1      -4.248  10.001  14.737  1.00  0.00    -0.292 OA
HETATM   10  C13 UNL     1      -2.006   9.325  14.645  1.00  0.00    -0.006 C 
HETATM   11  C14 UNL     1      -1.198   8.264  14.477  1.00  0.00    -0.030 C 
HETATM   12  C15 UNL     1      -1.621   6.815  14.256  1.00  0.00     0.027 C 
HETATM   13  C16 UNL     1      -0.639   6.046  13.317  1.00  0.00     0.011 C 
HETATM   14  C17 UNL     1       0.867   6.296  13.601  1.00  0.00     0.014 C 
HETATM   15  C18 UNL     1       1.173   7.803  13.561  1.00  0.00    -0.002 C 
HETATM   16  C19 UNL     1       0.881   8.313  12.123  1.00  0.00     0.019 C 
HETATM   17  C20 UNL     1       2.571   8.299  14.107  1.00  0.00     0.034 C 
HETATM   18  C31 UNL     1       2.277   9.768  14.613  1.00  0.00     0.016 C 
HETATM   19  C32 UNL     1       0.747   9.915  14.543  1.00  0.00     0.026 C 
HETATM   20  C33 UNL     1      -0.032  10.770  15.523  1.00  0.00     0.013 C 
HETATM   21  C34 UNL     1      -1.533  10.688  15.127  1.00  0.00     0.043 C 
HETATM   22  C35 UNL     1       0.269   8.467  14.631  1.00  0.00     0.094 C 
ENDROOT
BRANCH  17  23
HETATM   23  C21 UNL     1       3.902   8.062  13.306  1.00  0.00     0.087 C 
HETATM   24  C22 UNL     1       4.330   9.243  12.425  1.00  0.00     0.049 C 
BRANCH  23  25
HETATM   25  O4  UNL     1       3.660   6.955  12.414  1.00  0.00    -0.387 OA
HETATM   26  H33 UNL     1       3.243   6.243  12.930  1.00  0.00     0.210 HD
ENDBRANCH  23  25
BRANCH  23  27
HETATM   27  C23 UNL     1       5.052   7.653  14.316  1.00  0.00     0.181 C 
BRANCH  27  28
HETATM   28  O5  UNL     1       4.495   7.227  15.566  1.00  0.00    -0.390 OA
HETATM   29  H35 UNL     1       4.282   8.059  16.036  1.00  0.00     0.210 HD
ENDBRANCH  27  28
BRANCH  27  30
HETATM   30  C24 UNL     1       6.136   8.735  14.590  1.00  0.00     0.158 C 
HETATM   31  O6  UNL     1       6.350   8.835  16.023  1.00  0.00    -0.375 OA
HETATM   32  C25 UNL     1       7.743   8.624  16.343  1.00  0.00     0.149 C 
HETATM   33  C27 UNL     1       8.328   7.909  15.126  1.00  0.00     0.019 C 
HETATM   34  C28 UNL     1       9.842   8.010  14.980  1.00  0.00     0.013 C 
HETATM   35  C29 UNL     1       7.530   8.496  13.971  1.00  0.00     0.019 C 
HETATM   36  C30 UNL     1       7.580   7.666  12.694  1.00  0.00     0.013 C 
BRANCH  32  37
HETATM   37  C26 UNL     1       8.365   9.971  16.752  1.00  0.00     0.196 C 
BRANCH  37  38
HETATM   38  O7  UNL     1       8.687  10.014  18.140  1.00  0.00    -0.398 OA
HETATM   39  H40 UNL     1       9.392   9.350  18.264  1.00  0.00     0.209 HD
ENDBRANCH  37  38
ENDBRANCH  32  37
ENDBRANCH  27  30
ENDBRANCH  23  27
ENDBRANCH  17  23
BRANCH  22  40
HETATM   40  O8  UNL     1       0.589   7.938  15.935  1.00  0.00    -0.384 OA
HETATM   41  H56 UNL     1      -0.169   8.107  16.525  1.00  0.00     0.211 HD
ENDBRANCH  22  40
BRANCH   1  42
HETATM   42  O2  UNL     1      -7.419   7.153  14.354  1.00  0.00    -0.386 OA
BRANCH  42  43
HETATM   43  C4  UNL     1      -7.868   5.803  14.443  1.00  0.00     0.170 C 
BRANCH  43  44
HETATM   44  C3  UNL     1      -8.349   5.293  13.087  1.00  0.00     0.052 C 
BRANCH  44  45
HETATM   45  C2  UNL     1      -7.294   4.503  12.314  1.00  0.00     0.169 C 
BRANCH  45  46
HETATM   46  O1  UNL     1      -7.138   3.178  12.827  1.00  0.00    -0.396 OA
HETATM   47  C1  UNL     1      -6.395   2.325  11.965  1.00  0.00     0.201 C 
ENDBRANCH  45  46
ENDBRANCH  44  45
ENDBRANCH  43  44
ENDBRANCH  42  43
ENDBRANCH   1  42
TORSDOF 13
ENDMDL
MODEL 5
REMARK minimizedAffinity -8.52321339
REMARK CNNscore 0.435447037
REMARK CNNaffinity 6.59737253
REMARK  13 active torsions:
REMARK  status: ('A' for Active; 'I' for Inactive)
REMARK    1  A    between atoms: O1_2  and  C2_3 
REMARK    2  A    between atoms: C2_3  and  C3_4 
REMARK    3  A    between atoms: C3_4  and  C4_5 
REMARK    4  A    between atoms: C4_5  and  O2_6 
REMARK    5  A    between atoms: O2_6  and  C5_7 
REMARK    6  A    between atoms: C20_23  and  C21_24 
REMARK    7  A    between atoms: C21_24  and  O4_26 
REMARK    8  A    between atoms: C21_24  and  C23_27 
REMARK    9  A    between atoms: C23_27  and  O5_28 
REMARK   10  A    between atoms: C23_27  and  C24_29 
REMARK   11  A    between atoms: C25_31  and  C26_32 
REMARK   12  A    between atoms: C26_32  and  O7_33 
REMARK   13  A    between atoms: C35_42  and  O8_43 
ROOT
HETATM    1  C5  UNL     1      -6.190   7.517  15.142  1.00  0.00     0.122 C 
HETATM    2  C6  UNL     1      -5.613   6.101  15.101  1.00  0.00     0.033 C 
HETATM    3  C7  UNL     1      -4.092   6.092  15.269  1.00  0.00     0.013 C 
HETATM    4  C8  UNL     1      -3.331   6.978  14.236  1.00  0.00    -0.026 C 
HETATM    5  C9  UNL     1      -3.583   6.394  12.821  1.00  0.00     0.016 C 
HETATM    6  C10 UNL     1      -3.926   8.417  14.311  1.00  0.00     0.071 C 
HETATM    7  C11 UNL     1      -5.455   8.443  14.161  1.00  0.00     0.045 C 
HETATM    8  C12 UNL     1      -3.517   9.150  15.593  1.00  0.00     0.161 C 
HETATM    9  O3  UNL     1      -4.296   9.815  16.273  1.00  0.00    -0.292 OA
HETATM   10  C13 UNL     1      -2.080   9.120  15.953  1.00  0.00    -0.006 C 
HETATM   11  C14 UNL     1      -1.311   8.176  15.387  1.00  0.00    -0.030 C 
HETATM   12  C15 UNL     1      -1.782   6.958  14.599  1.00  0.00     0.027 C 
HETATM   13  C16 UNL     1      -0.800   6.580  13.446  1.00  0.00     0.011 C 
HETATM   14  C17 UNL     1       0.705   6.620  13.829  1.00  0.00     0.014 C 
HETATM   15  C18 UNL     1       1.071   8.001  14.402  1.00  0.00    -0.002 C 
HETATM   16  C19 UNL     1       0.849   9.056  13.283  1.00  0.00     0.019 C 
HETATM   17  C20 UNL     1       2.468   8.167  15.121  1.00  0.00     0.034 C 
HETATM   18  C31 UNL     1       2.215   9.324  16.168  1.00  0.00     0.016 C 
HETATM   19  C32 UNL     1       0.695   9.563  16.139  1.00  0.00     0.026 C 
HETATM   20  C33 UNL     1      -0.082   9.994  17.367  1.00  0.00     0.013 C 
HETATM   21  C34 UNL     1      -1.571  10.153  16.949  1.00  0.00     0.043 C 
HETATM   22  C35 UNL     1       0.158   8.227  15.633  1.00  0.00     0.094 C 
ENDROOT
BRANCH  17  23
HETATM   23  C21 UNL     1       3.816   8.203  14.314  1.00  0.00     0.087 C 
HETATM   24  C22 UNL     1       3.721   7.617  12.899  1.00  0.00     0.049 C 
BRANCH  23  25
HETATM   25  O4  UNL     1       4.755   7.379  15.034  1.00  0.00    -0.387 OA
HETATM   26  H33 UNL     1       4.717   7.635  15.972  1.00  0.00     0.210 HD
ENDBRANCH  23  25
BRANCH  23  27
HETATM   27  C23 UNL     1       4.367   9.687  14.286  1.00  0.00     0.181 C 
BRANCH  27  28
HETATM   28  O5  UNL     1       4.179  10.270  12.990  1.00  0.00    -0.390 OA
HETATM   29  H35 UNL     1       4.913   9.912  12.451  1.00  0.00     0.210 HD
ENDBRANCH  27  28
BRANCH  27  30
HETATM   30  C24 UNL     1       5.853   9.871  14.709  1.00  0.00     0.158 C 
HETATM   31  O6  UNL     1       6.143   8.974  15.814  1.00  0.00    -0.375 OA
HETATM   32  C25 UNL     1       7.262   8.119  15.492  1.00  0.00     0.149 C 
HETATM   33  C27 UNL     1       7.371   8.161  13.968  1.00  0.00     0.019 C 
HETATM   34  C28 UNL     1       8.731   7.766  13.404  1.00  0.00     0.013 C 
HETATM   35  C29 UNL     1       6.923   9.577  13.635  1.00  0.00     0.019 C 
HETATM   36  C30 UNL     1       6.508   9.772  12.182  1.00  0.00     0.013 C 
BRANCH  32  37
HETATM   37  C26 UNL     1       8.483   8.572  16.311  1.00  0.00     0.196 C 
BRANCH  37  38
HETATM   38  O7  UNL     1       8.974   7.537  17.159  1.00  0.00    -0.398 OA
HETATM   39  H40 UNL     1       9.305   6.842  16.557  1.00  0.00     0.209 HD
ENDBRANCH  37  38
ENDBRANCH  32  37
ENDBRANCH  27  30
ENDBRANCH  23  27
ENDBRANCH  17  23
BRANCH  22  40
HETATM   40  O8  UNL     1       0.412   7.206  16.621  1.00  0.00    -0.384 OA
HETATM   41  H56 UNL     1      -0.359   7.163  17.218  1.00  0.00     0.211 HD
ENDBRANCH  22  40
BRANCH   1  42
HETATM   42  O2  UNL     1      -7.563   7.519  14.733  1.00  0.00    -0.386 OA
BRANCH  42  43
HETATM   43  C4  UNL     1      -8.073   6.265  14.288  1.00  0.00     0.170 C 
BRANCH  43  44
HETATM   44  C3  UNL     1      -9.403   6.440  13.557  1.00  0.00     0.052 C 
BRANCH  44  45
HETATM   45  C2  UNL     1     -10.475   7.146  14.387  1.00  0.00     0.169 C 
BRANCH  45  46
HETATM   46  O1  UNL     1     -10.643   8.509  13.993  1.00  0.00    -0.396 OA
HETATM   47  C1  UNL     1     -11.739   8.709  13.109  1.00  0.00     0.201 C 
ENDBRANCH  45  46
ENDBRANCH  44  45
ENDBRANCH  43  44
ENDBRANCH  42  43
ENDBRANCH   1  42
TORSDOF 13
ENDMDL
MODEL 6
REMARK minimizedAffinity -9.8215704
REMARK CNNscore 0.387278795
REMARK CNNaffinity 6.81124687
REMARK  13 active torsions:
REMARK  status: ('A' for Active; 'I' for Inactive)
REMARK    1  A    between atoms: O1_2  and  C2_3 
REMARK    2  A    between atoms: C2_3  and  C3_4 
REMARK    3  A    between atoms: C3_4  and  C4_5 
REMARK    4  A    between atoms: C4_5  and  O2_6 
REMARK    5  A    between atoms: O2_6  and  C5_7 
REMARK    6  A    between atoms: C20_23  and  C21_24 
REMARK    7  A    between atoms: C21_24  and  O4_26 
REMARK    8  A    between atoms: C21_24  and  C23_27 
REMARK    9  A    between atoms: C23_27  and  O5_28 
REMARK   10  A    between atoms: C23_27  and  C24_29 
REMARK   11  A    between atoms: C25_31  and  C26_32 
REMARK   12  A    between atoms: C26_32  and  O7_33 
REMARK   13  A    between atoms: C35_42  and  O8_43 
ROOT
HETATM    1  C5  UNL     1      -5.534   7.193  14.921  1.00  0.00     0.122 C 
HETATM    2  C6  UNL     1      -4.915   5.835  15.258  1.00  0.00     0.033 C 
HETATM    3  C7  UNL     1      -3.420   5.785  14.937  1.00  0.00     0.013 C 
HETATM    4  C8  UNL     1      -3.071   6.146  13.461  1.00  0.00    -0.026 C 
HETATM    5  C9  UNL     1      -3.716   5.079  12.538  1.00  0.00     0.016 C 
HETATM    6  C10 UNL     1      -3.698   7.540  13.150  1.00  0.00     0.071 C 
HETATM    7  C11 UNL     1      -5.196   7.613  13.482  1.00  0.00     0.045 C 
HETATM    8  C12 UNL     1      -2.954   8.682  13.850  1.00  0.00     0.161 C 
HETATM    9  O3  UNL     1      -3.520   9.611  14.423  1.00  0.00    -0.292 OA
HETATM   10  C13 UNL     1      -1.477   8.694  13.731  1.00  0.00    -0.006 C 
HETATM   11  C14 UNL     1      -0.868   7.552  13.369  1.00  0.00    -0.030 C 
HETATM   12  C15 UNL     1      -1.488   6.161  13.305  1.00  0.00     0.027 C 
HETATM   13  C16 UNL     1      -0.894   5.298  12.148  1.00  0.00     0.011 C 
HETATM   14  C17 UNL     1       0.651   5.377  12.000  1.00  0.00     0.014 C 
HETATM   15  C18 UNL     1       1.095   6.843  11.846  1.00  0.00    -0.002 C 
HETATM   16  C19 UNL     1       0.473   7.395  10.533  1.00  0.00     0.019 C 
HETATM   17  C20 UNL     1       2.634   7.177  11.974  1.00  0.00     0.034 C 
HETATM   18  C31 UNL     1       2.652   8.664  12.510  1.00  0.00     0.016 C 
HETATM   19  C32 UNL     1       1.187   8.979  12.862  1.00  0.00     0.026 C 
HETATM   20  C33 UNL     1       0.807   9.905  14.000  1.00  0.00     0.013 C 
HETATM   21  C34 UNL     1      -0.746   9.992  14.035  1.00  0.00     0.043 C 
HETATM   22  C35 UNL     1       0.599   7.592  13.108  1.00  0.00     0.094 C 
ENDROOT
BRANCH  17  23
HETATM   23  C21 UNL     1       3.658   6.803  10.843  1.00  0.00     0.087 C 
HETATM   24  C22 UNL     1       3.457   7.568   9.528  1.00  0.00     0.049 C 
BRANCH  23  25
HETATM   25  O4  UNL     1       3.452   5.408  10.539  1.00  0.00    -0.387 OA
HETATM   26  H33 UNL     1       3.423   4.921  11.381  1.00  0.00     0.210 HD
ENDBRANCH  23  25
BRANCH  23  27
HETATM   27  C23 UNL     1       5.132   6.984  11.394  1.00  0.00     0.181 C 
BRANCH  27  28
HETATM   28  O5  UNL     1       5.676   5.722  11.801  1.00  0.00    -0.390 OA
HETATM   29  H35 UNL     1       5.290   5.562  12.685  1.00  0.00     0.210 HD
ENDBRANCH  27  28
BRANCH  27  30
HETATM   30  C24 UNL     1       5.304   8.004  12.556  1.00  0.00     0.158 C 
HETATM   31  O6  UNL     1       5.796   7.304  13.730  1.00  0.00    -0.375 OA
HETATM   32  C25 UNL     1       7.023   7.903  14.200  1.00  0.00     0.149 C 
HETATM   33  C27 UNL     1       7.559   8.701  13.013  1.00  0.00     0.019 C 
HETATM   34  C28 UNL     1       8.545   9.807  13.367  1.00  0.00     0.013 C 
HETATM   35  C29 UNL     1       6.288   9.170  12.319  1.00  0.00     0.019 C 
HETATM   36  C30 UNL     1       6.494   9.610  10.874  1.00  0.00     0.013 C 
BRANCH  32  37
HETATM   37  C26 UNL     1       6.732   8.665  15.505  1.00  0.00     0.196 C 
BRANCH  37  38
HETATM   38  O7  UNL     1       7.223   7.974  16.651  1.00  0.00    -0.398 OA
HETATM   39  H40 UNL     1       8.195   7.974  16.558  1.00  0.00     0.209 HD
ENDBRANCH  37  38
ENDBRANCH  32  37
ENDBRANCH  27  30
ENDBRANCH  23  27
ENDBRANCH  17  23
BRANCH  22  40
HETATM   40  O8  UNL     1       1.207   7.019  14.285  1.00  0.00    -0.384 OA
HETATM   41  H56 UNL     1       0.665   7.264  15.058  1.00  0.00     0.211 HD
ENDBRANCH  22  40
BRANCH   1  42
HETATM   42  O2  UNL     1      -6.963   7.132  14.990  1.00  0.00    -0.386 OA
BRANCH  42  43
HETATM   43  C4  UNL     1      -7.533   5.842  14.792  1.00  0.00     0.170 C 
BRANCH  43  44
HETATM   44  C3  UNL     1      -8.470   5.833  13.586  1.00  0.00     0.052 C 
BRANCH  44  45
HETATM   45  C2  UNL     1      -8.099   4.798  12.524  1.00  0.00     0.169 C 
BRANCH  45  46
HETATM   46  O1  UNL     1      -8.561   3.490  12.870  1.00  0.00    -0.396 OA
HETATM   47  C1  UNL     1      -7.532   2.509  12.858  1.00  0.00     0.201 C 
ENDBRANCH  45  46
ENDBRANCH  44  45
ENDBRANCH  43  44
ENDBRANCH  42  43
ENDBRANCH   1  42
TORSDOF 13
ENDMDL
MODEL 7
REMARK minimizedAffinity -7.15969753
REMARK CNNscore 0.385354906
REMARK CNNaffinity 6.37284422
REMARK  13 active torsions:
REMARK  status: ('A' for Active; 'I' for Inactive)
REMARK    1  A    between atoms: O1_2  and  C2_3 
REMARK    2  A    between atoms: C2_3  and  C3_4 
REMARK    3  A    between atoms: C3_4  and  C4_5 
REMARK    4  A    between atoms: C4_5  and  O2_6 
REMARK    5  A    between atoms: O2_6  and  C5_7 
REMARK    6  A    between atoms: C20_23  and  C21_24 
REMARK    7  A    between atoms: C21_24  and  O4_26 
REMARK    8  A    between atoms: C21_24  and  C23_27 
REMARK    9  A    between atoms: C23_27  and  O5_28 
REMARK   10  A    between atoms: C23_27  and  C24_29 
REMARK   11  A    between atoms: C25_31  and  C26_32 
REMARK   12  A    between atoms: C26_32  and  O7_33 
REMARK   13  A    between atoms: C35_42  and  O8_43 
ROOT
HETATM    1  C5  UNL     1      -1.880   6.094  13.231  1.00  0.00     0.122 C 
HETATM    2  C6  UNL     1      -0.756   5.586  14.135  1.00  0.00     0.033 C 
HETATM    3  C7  UNL     1      -0.469   6.544  15.294  1.00  0.00     0.013 C 
HETATM    4  C8  UNL     1      -0.142   8.003  14.851  1.00  0.00    -0.026 C 
HETATM    5  C9  UNL     1       1.169   7.972  14.021  1.00  0.00     0.016 C 
HETATM    6  C10 UNL     1      -1.311   8.501  13.946  1.00  0.00     0.071 C 
HETATM    7  C11 UNL     1      -1.623   7.542  12.786  1.00  0.00     0.045 C 
HETATM    8  C12 UNL     1      -2.587   8.781  14.746  1.00  0.00     0.161 C 
HETATM    9  O3  UNL     1      -3.708   8.437  14.379  1.00  0.00    -0.292 OA
HETATM   10  C13 UNL     1      -2.443   9.599  15.973  1.00  0.00    -0.006 C 
HETATM   11  C14 UNL     1      -1.216   9.715  16.510  1.00  0.00    -0.030 C 
HETATM   12  C15 UNL     1       0.023   8.901  16.153  1.00  0.00     0.027 C 
HETATM   13  C16 UNL     1       1.335   9.738  16.261  1.00  0.00     0.011 C 
HETATM   14  C17 UNL     1       1.435  10.638  17.524  1.00  0.00     0.014 C 
HETATM   15  C18 UNL     1       0.209  11.566  17.613  1.00  0.00    -0.002 C 
HETATM   16  C19 UNL     1       0.227  12.502  16.373  1.00  0.00     0.019 C 
HETATM   17  C20 UNL     1      -0.039  12.351  18.962  1.00  0.00     0.034 C 
HETATM   18  C31 UNL     1      -1.607  12.545  19.000  1.00  0.00     0.016 C 
HETATM   19  C32 UNL     1      -2.143  11.686  17.841  1.00  0.00     0.026 C 
HETATM   20  C33 UNL     1      -3.490  10.993  17.901  1.00  0.00     0.013 C 
HETATM   21  C34 UNL     1      -3.693  10.244  16.553  1.00  0.00     0.043 C 
HETATM   22  C35 UNL     1      -1.039  10.649  17.658  1.00  0.00     0.094 C 
ENDROOT
BRANCH  17  23
HETATM   23  C21 UNL     1       0.853  13.576  19.381  1.00  0.00     0.087 C 
HETATM   24  C22 UNL     1       0.114  14.921  19.395  1.00  0.00     0.049 C 
BRANCH  23  25
HETATM   25  O4  UNL     1       1.893  13.693  18.389  1.00  0.00    -0.387 OA
HETATM   26  H33 UNL     1       2.275  12.808  18.253  1.00  0.00     0.210 HD
ENDBRANCH  23  25
BRANCH  23  27
HETATM   27  C23 UNL     1       1.525  13.275  20.783  1.00  0.00     0.181 C 
BRANCH  27  28
HETATM   28  O5  UNL     1       1.599  14.469  21.572  1.00  0.00    -0.390 OA
HETATM   29  H35 UNL     1       2.378  14.947  21.221  1.00  0.00     0.210 HD
ENDBRANCH  27  28
BRANCH  27  30
HETATM   30  C24 UNL     1       2.934  12.616  20.735  1.00  0.00     0.158 C 
HETATM   31  O6  UNL     1       3.844  13.388  21.563  1.00  0.00    -0.375 OA
HETATM   32  C25 UNL     1       4.456  12.546  22.564  1.00  0.00     0.149 C 
HETATM   33  C27 UNL     1       3.550  11.320  22.664  1.00  0.00     0.019 C 
HETATM   34  C28 UNL     1       4.202  10.077  23.257  1.00  0.00     0.013 C 
HETATM   35  C29 UNL     1       3.038  11.160  21.239  1.00  0.00     0.019 C 
HETATM   36  C30 UNL     1       1.784  10.302  21.120  1.00  0.00     0.013 C 
BRANCH  32  37
HETATM   37  C26 UNL     1       5.930  12.319  22.186  1.00  0.00     0.196 C 
BRANCH  37  38
HETATM   38  O7  UNL     1       6.808  12.537  23.288  1.00  0.00    -0.398 OA
HETATM   39  H40 UNL     1       6.591  11.837  23.935  1.00  0.00     0.209 HD
ENDBRANCH  37  38
ENDBRANCH  32  37
ENDBRANCH  27  30
ENDBRANCH  23  27
ENDBRANCH  17  23
BRANCH  22  40
HETATM   40  O8  UNL     1      -0.980   9.803  18.826  1.00  0.00    -0.384 OA
HETATM   41  H56 UNL     1      -1.568   9.039  18.678  1.00  0.00     0.211 HD
ENDBRANCH  22  40
BRANCH   1  42
HETATM   42  O2  UNL     1      -1.955   5.319  12.029  1.00  0.00    -0.386 OA
BRANCH  42  43
HETATM   43  C4  UNL     1      -3.042   4.401  11.955  1.00  0.00     0.170 C 
BRANCH  43  44
HETATM   44  C3  UNL     1      -3.919   4.485  13.202  1.00  0.00     0.052 C 
BRANCH  44  45
HETATM   45  C2  UNL     1      -5.385   4.800  12.905  1.00  0.00     0.169 C 
BRANCH  45  46
HETATM   46  O1  UNL     1      -6.250   3.732  13.298  1.00  0.00    -0.396 OA
HETATM   47  C1  UNL     1      -7.576   3.870  12.802  1.00  0.00     0.201 C 
ENDBRANCH  45  46
ENDBRANCH  44  45
ENDBRANCH  43  44
ENDBRANCH  42  43
ENDBRANCH   1  42
TORSDOF 13
ENDMDL
MODEL 8
REMARK minimizedAffinity -7.13158226
REMARK CNNscore 0.360604882
REMARK CNNaffinity 6.16426325
REMARK  13 active torsions:
REMARK  status: ('A' for Active; 'I' for Inactive)
REMARK    1  A    between atoms: O1_2  and  C2_3 
REMARK    2  A    between atoms: C2_3  and  C3_4 
REMARK    3  A    between atoms: C3_4  and  C4_5 
REMARK    4  A    between atoms: C4_5  and  O2_6 
REMARK    5  A    between atoms: O2_6  and  C5_7 
REMARK    6  A    between atoms: C20_23  and  C21_24 
REMARK    7  A    between atoms: C21_24  and  O4_26 
REMARK    8  A    between atoms: C21_24  and  C23_27 
REMARK    9  A    between atoms: C23_27  and  O5_28 
REMARK   10  A    between atoms: C23_27  and  C24_29 
REMARK   11  A    between atoms: C25_31  and  C26_32 
REMARK   12  A    between atoms: C26_32  and  O7_33 
REMARK   13  A    between atoms: C35_42  and  O8_43 
ROOT
HETATM    1  C5  UNL     1       6.076  12.449  22.348  1.00  0.00     0.122 C 
HETATM    2  C6  UNL     1       5.091  11.426  22.916  1.00  0.00     0.033 C 
HETATM    3  C7  UNL     1       4.157  10.864  21.842  1.00  0.00     0.013 C 
HETATM    4  C8  UNL     1       3.362  11.950  21.054  1.00  0.00    -0.026 C 
HETATM    5  C9  UNL     1       2.428  12.683  22.053  1.00  0.00     0.016 C 
HETATM    6  C10 UNL     1       4.391  12.967  20.472  1.00  0.00     0.071 C 
HETATM    7  C11 UNL     1       5.347  13.530  21.536  1.00  0.00     0.045 C 
HETATM    8  C12 UNL     1       5.196  12.379  19.309  1.00  0.00     0.161 C 
HETATM    9  O3  UNL     1       6.410  12.525  19.181  1.00  0.00    -0.292 OA
HETATM   10  C13 UNL     1       4.430  11.688  18.245  1.00  0.00    -0.006 C 
HETATM   11  C14 UNL     1       3.180  11.287  18.531  1.00  0.00    -0.030 C 
HETATM   12  C15 UNL     1       2.526  11.232  19.907  1.00  0.00     0.027 C 
HETATM   13  C16 UNL     1       0.999  11.550  19.853  1.00  0.00     0.011 C 
HETATM   14  C17 UNL     1       0.229  10.867  18.690  1.00  0.00     0.014 C 
HETATM   15  C18 UNL     1       0.888  11.212  17.342  1.00  0.00    -0.002 C 
HETATM   16  C19 UNL     1       0.775  12.747  17.134  1.00  0.00     0.019 C 
HETATM   17  C20 UNL     1       0.449  10.394  16.063  1.00  0.00     0.034 C 
HETATM   18  C31 UNL     1       1.729  10.432  15.136  1.00  0.00     0.016 C 
HETATM   19  C32 UNL     1       2.839  11.037  16.014  1.00  0.00     0.026 C 
HETATM   20  C33 UNL     1       4.295  10.638  15.871  1.00  0.00     0.013 C 
HETATM   21  C34 UNL     1       5.112  11.467  16.903  1.00  0.00     0.043 C 
HETATM   22  C35 UNL     1       2.355  10.722  17.427  1.00  0.00     0.094 C 
ENDROOT
BRANCH  17  23
HETATM   23  C21 UNL     1      -0.948  10.617  15.378  1.00  0.00     0.087 C 
HETATM   24  C22 UNL     1      -1.151  12.024  14.800  1.00  0.00     0.049 C 
BRANCH  23  25
HETATM   25  O4  UNL     1      -1.947  10.449  16.404  1.00  0.00    -0.387 OA
HETATM   26  H33 UNL     1      -1.742   9.629  16.887  1.00  0.00     0.210 HD
ENDBRANCH  23  25
BRANCH  23  27
HETATM   27  C23 UNL     1      -1.169   9.504  14.273  1.00  0.00     0.181 C 
BRANCH  27  28
HETATM   28  O5  UNL     1      -1.513  10.104  13.017  1.00  0.00    -0.390 OA
HETATM   29  H35 UNL     1      -2.465  10.313  13.097  1.00  0.00     0.210 HD
ENDBRANCH  27  28
BRANCH  27  30
HETATM   30  C24 UNL     1      -2.221   8.408  14.611  1.00  0.00     0.158 C 
HETATM   31  O6  UNL     1      -3.390   8.601  13.771  1.00  0.00    -0.375 OA
HETATM   32  C25 UNL     1      -3.680   7.400  13.023  1.00  0.00     0.149 C 
HETATM   33  C27 UNL     1      -2.383   6.593  13.043  1.00  0.00     0.019 C 
HETATM   34  C28 UNL     1      -2.542   5.102  12.772  1.00  0.00     0.013 C 
HETATM   35  C29 UNL     1      -1.789   6.941  14.400  1.00  0.00     0.019 C 
HETATM   36  C30 UNL     1      -0.299   6.641  14.523  1.00  0.00     0.013 C 
BRANCH  32  37
HETATM   37  C26 UNL     1      -4.942   6.744  13.612  1.00  0.00     0.196 C 
BRANCH  37  38
HETATM   38  O7  UNL     1      -6.031   7.660  13.702  1.00  0.00    -0.398 OA
HETATM   39  H40 UNL     1      -6.258   7.885  12.778  1.00  0.00     0.209 HD
ENDBRANCH  37  38
ENDBRANCH  32  37
ENDBRANCH  27  30
ENDBRANCH  23  27
ENDBRANCH  17  23
BRANCH  22  40
HETATM   40  O8  UNL     1       2.380   9.293  17.631  1.00  0.00    -0.384 OA
HETATM   41  H56 UNL     1       3.252   9.053  17.996  1.00  0.00     0.211 HD
ENDBRANCH  22  40
BRANCH   1  42
HETATM   42  O2  UNL     1       6.757  13.139  23.402  1.00  0.00    -0.386 OA
BRANCH  42  43
HETATM   43  C4  UNL     1       7.974  13.779  23.032  1.00  0.00     0.170 C 
BRANCH  43  44
HETATM   44  C3  UNL     1       7.821  15.299  23.038  1.00  0.00     0.052 C 
BRANCH  44  45
HETATM   45  C2  UNL     1       9.085  16.045  23.466  1.00  0.00     0.169 C 
BRANCH  45  46
HETATM   46  O1  UNL     1      10.043  16.120  22.408  1.00  0.00    -0.396 OA
HETATM   47  C1  UNL     1      10.545  17.433  22.196  1.00  0.00     0.201 C 
ENDBRANCH  45  46
ENDBRANCH  44  45
ENDBRANCH  43  44
ENDBRANCH  42  43
ENDBRANCH   1  42
TORSDOF 13
ENDMDL
MODEL 9
REMARK minimizedAffinity -7.51669884
REMARK CNNscore 0.35144043
REMARK CNNaffinity 6.99187279
REMARK  13 active torsions:
REMARK  status: ('A' for Active; 'I' for Inactive)
REMARK    1  A    between atoms: O1_2  and  C2_3 
REMARK    2  A    between atoms: C2_3  and  C3_4 
REMARK    3  A    between atoms: C3_4  and  C4_5 
REMARK    4  A    between atoms: C4_5  and  O2_6 
REMARK    5  A    between atoms: O2_6  and  C5_7 
REMARK    6  A    between atoms: C20_23  and  C21_24 
REMARK    7  A    between atoms: C21_24  and  O4_26 
REMARK    8  A    between atoms: C21_24  and  C23_27 
REMARK    9  A    between atoms: C23_27  and  O5_28 
REMARK   10  A    between atoms: C23_27  and  C24_29 
REMARK   11  A    between atoms: C25_31  and  C26_32 
REMARK   12  A    between atoms: C26_32  and  O7_33 
REMARK   13  A    between atoms: C35_42  and  O8_43 
ROOT
HETATM    1  C5  UNL     1       2.814   6.529   8.994  1.00  0.00     0.122 C 
HETATM    2  C6  UNL     1       1.397   6.768   8.469  1.00  0.00     0.033 C 
HETATM    3  C7  UNL     1       0.515   7.488   9.492  1.00  0.00     0.013 C 
HETATM    4  C8  UNL     1       0.429   6.774  10.876  1.00  0.00    -0.026 C 
HETATM    5  C9  UNL     1      -0.247   5.393  10.664  1.00  0.00     0.016 C 
HETATM    6  C10 UNL     1       1.884   6.559  11.394  1.00  0.00     0.071 C 
HETATM    7  C11 UNL     1       2.787   5.852  10.372  1.00  0.00     0.045 C 
HETATM    8  C12 UNL     1       2.539   7.867  11.848  1.00  0.00     0.161 C 
HETATM    9  O3  UNL     1       3.695   8.180  11.571  1.00  0.00    -0.292 OA
HETATM   10  C13 UNL     1       1.747   8.736  12.750  1.00  0.00    -0.006 C 
HETATM   11  C14 UNL     1       0.419   8.538  12.806  1.00  0.00    -0.030 C 
HETATM   12  C15 UNL     1      -0.423   7.686  11.863  1.00  0.00     0.027 C 
HETATM   13  C16 UNL     1      -1.619   6.998  12.591  1.00  0.00     0.011 C 
HETATM   14  C17 UNL     1      -2.394   7.910  13.581  1.00  0.00     0.014 C 
HETATM   15  C18 UNL     1      -1.427   8.515  14.614  1.00  0.00    -0.002 C 
HETATM   16  C19 UNL     1      -0.816   7.349  15.438  1.00  0.00     0.019 C 
HETATM   17  C20 UNL     1      -1.949   9.694  15.528  1.00  0.00     0.034 C 
HETATM   18  C31 UNL     1      -0.642  10.521  15.857  1.00  0.00     0.016 C 
HETATM   19  C32 UNL     1       0.449   9.919  14.953  1.00  0.00     0.026 C 
HETATM   20  C33 UNL     1       1.581  10.751  14.384  1.00  0.00     0.013 C 
HETATM   21  C34 UNL     1       2.485   9.803  13.546  1.00  0.00     0.043 C 
HETATM   22  C35 UNL     1      -0.364   9.309  13.813  1.00  0.00     0.094 C 
ENDROOT
BRANCH  17  23
HETATM   23  C21 UNL     1      -2.962   9.443  16.703  1.00  0.00     0.087 C 
HETATM   24  C22 UNL     1      -3.969  10.579  16.923  1.00  0.00     0.049 C 
BRANCH  23  25
HETATM   25  O4  UNL     1      -2.181   9.350  17.912  1.00  0.00    -0.387 OA
HETATM   26  H33 UNL     1      -1.440   8.744  17.742  1.00  0.00     0.210 HD
ENDBRANCH  23  25
BRANCH  23  27
HETATM   27  C23 UNL     1      -3.697   8.060  16.470  1.00  0.00     0.181 C 
BRANCH  27  28
HETATM   28  O5  UNL     1      -2.842   6.969  16.836  1.00  0.00    -0.390 OA
HETATM   29  H35 UNL     1      -2.243   6.859  16.071  1.00  0.00     0.210 HD
ENDBRANCH  27  28
BRANCH  27  30
HETATM   30  C24 UNL     1      -4.243   7.811  15.035  1.00  0.00     0.158 C 
HETATM   31  O6  UNL     1      -4.115   6.399  14.720  1.00  0.00    -0.375 OA
HETATM   32  C25 UNL     1      -5.396   5.844  14.350  1.00  0.00     0.149 C 
HETATM   33  C27 UNL     1      -6.430   6.823  14.903  1.00  0.00     0.019 C 
HETATM   34  C28 UNL     1      -7.804   6.757  14.246  1.00  0.00     0.013 C 
HETATM   35  C29 UNL     1      -5.724   8.166  14.783  1.00  0.00     0.019 C 
HETATM   36  C30 UNL     1      -6.324   9.265  15.653  1.00  0.00     0.013 C 
BRANCH  32  37
HETATM   37  C26 UNL     1      -5.400   5.577  12.834  1.00  0.00     0.196 C 
BRANCH  37  38
HETATM   38  O7  UNL     1      -5.892   4.277  12.519  1.00  0.00    -0.398 OA
HETATM   39  H40 UNL     1      -6.831   4.282  12.788  1.00  0.00     0.209 HD
ENDBRANCH  37  38
ENDBRANCH  32  37
ENDBRANCH  27  30
ENDBRANCH  23  27
ENDBRANCH  17  23
BRANCH  22  40
HETATM   40  O8  UNL     1      -1.004  10.365  13.067  1.00  0.00    -0.384 OA
HETATM   41  H56 UNL     1      -0.405  10.634  12.345  1.00  0.00     0.211 HD
ENDBRANCH  22  40
BRANCH   1  42
HETATM   42  O2  UNL     1       3.532   5.641   8.131  1.00  0.00    -0.386 OA
BRANCH  42  43
HETATM   43  C4  UNL     1       2.842   5.237   6.951  1.00  0.00     0.170 C 
BRANCH  43  44
HETATM   44  C3  UNL     1       3.706   4.312   6.097  1.00  0.00     0.052 C 
BRANCH  44  45
HETATM   45  C2  UNL     1       4.111   3.018   6.803  1.00  0.00     0.169 C 
BRANCH  45  46
HETATM   46  O1  UNL     1       5.226   3.213   7.675  1.00  0.00    -0.396 OA
HETATM   47  C1  UNL     1       4.911   3.003   9.046  1.00  0.00     0.201 C 
ENDBRANCH  45  46
ENDBRANCH  44  45
ENDBRANCH  43  44
ENDBRANCH  42  43
ENDBRANCH   1  42
TORSDOF 13
ENDMDL
