MODEL 1
REMARK minimizedAffinity -8.8169775
REMARK  9 active torsions:
REMARK  status: ('A' for Active; 'I' for Inactive)
REMARK    1  A    between atoms: C3_3  and  O1_4 
REMARK    2  A    between atoms: N1_14  and  O2_16 
REMARK    3  A    between atoms: O2_16  and  C13_17 
REMARK    4  A    between atoms: C13_17  and  C14_18 
REMARK       I    between atoms: C14_18  and  N2_20 
REMARK    5  A    between atoms: N2_20  and  C15_21 
REMARK    6  A    between atoms: C15_21  and  C16_22 
REMARK    7  A    between atoms: C15_21  and  C17_25 
REMARK    8  A    between atoms: C16_22  and  O5_24 
REMARK    9  A    between atoms: C17_25  and  C19_27 
ROOT
HETATM    1  C1  UNL     1       3.434   5.015   8.244  1.00  0.00     0.015 C 
HETATM    2  C2  UNL     1       2.861   5.950   8.735  1.00  0.00    -0.078 C 
HETATM    3  C3  UNL     1       2.180   7.109   9.331  1.00  0.00     0.128 C 
HETATM    4  C4  UNL     1       0.992   7.590   8.457  1.00  0.00     0.052 C 
HETATM    5  C5  UNL     1      -0.085   8.112   9.435  1.00  0.00     0.010 C 
HETATM    6  C6  UNL     1       0.579   8.060  10.809  1.00  0.00     0.002 C 
HETATM    7  C7  UNL     1      -0.312   8.042  12.056  1.00  0.00    -0.004 C 
HETATM    8  C8  UNL     1      -1.285   9.237  12.080  1.00  0.00     0.010 C 
HETATM    9  C9  UNL     1      -2.081   9.322  13.384  1.00  0.00     0.035 C 
HETATM   10  C10 UNL     1      -1.121   9.298  14.548  1.00  0.00    -0.069 C 
HETATM   11  C11 UNL     1      -0.980  10.388  15.323  1.00  0.00     0.030 C 
HETATM   12  C12 UNL     1       0.152  10.519  16.276  1.00  0.00     0.032 C 
HETATM   13  N1  UNL     1       0.180  11.568  17.047  1.00  0.00    -0.271 N 
ATOM     14  H1  UNL     1      -0.539  12.292  17.054  1.00  0.00     0.194 HD
HETATM   15  C21 UNL     1       1.238   9.464  16.215  1.00  0.00     0.060 C 
HETATM   16  C22 UNL     1       0.616   8.104  15.946  1.00  0.00     0.020 C 
HETATM   17  C23 UNL     1      -0.242   8.047  14.652  1.00  0.00    -0.016 C 
HETATM   18  C24 UNL     1      -1.114   6.773  14.799  1.00  0.00     0.020 C 
HETATM   19  C25 UNL     1       0.609   8.024  13.331  1.00  0.00     0.002 C 
HETATM   20  C26 UNL     1       1.665   6.892  13.262  1.00  0.00     0.007 C 
HETATM   21  C27 UNL     1       2.450   6.869  11.937  1.00  0.00     0.014 C 
HETATM   22  C28 UNL     1       1.517   6.832  10.713  1.00  0.00     0.003 C 
HETATM   23  C29 UNL     1       0.748   5.479  10.695  1.00  0.00     0.020 C 
ENDROOT
BRANCH   3  24
HETATM   24  O1  UNL     1       3.147   8.155   9.433  1.00  0.00    -0.377 OA
HETATM   25  H2  UNL     1       2.694   9.010   9.365  1.00  0.00     0.211 HD
ENDBRANCH   3  24
BRANCH  13  26
HETATM   26  O2  UNL     1       1.316  11.584  17.865  1.00  0.00    -0.271 OA
BRANCH  26  27
HETATM   27  C13 UNL     1       0.920  11.376  19.220  1.00  0.00     0.303 C 
BRANCH  27  28
HETATM   28  C14 UNL     1       1.911  10.451  19.920  1.00  0.00     0.244 C 
HETATM   29  O3  UNL     1       2.629   9.675  19.298  1.00  0.00    -0.271 OA
HETATM   30  N2  UNL     1       1.948  10.607  21.293  1.00  0.00    -0.344 N 
HETATM   31  H16 UNL     1       1.410  11.387  21.655  1.00  0.00     0.163 HD
BRANCH  30  32
HETATM   32  C15 UNL     1       2.957  10.010  22.171  1.00  0.00     0.186 C 
BRANCH  32  33
HETATM   33  C16 UNL     1       2.353   8.733  22.784  1.00  0.00     0.163 C 
HETATM   34  O4  UNL     1       1.828   7.794  22.208  1.00  0.00    -0.648 OA
BRANCH  33  35
HETATM   35  O5  UNL     1       2.488   8.690  24.129  1.00  0.00    -0.775 OA
HETATM   36  H18 UNL     1       2.063   7.839  24.370  1.00  0.00     0.167 HD
ENDBRANCH  33  35
ENDBRANCH  32  33
BRANCH  32  37
HETATM   37  C17 UNL     1       3.617  10.974  23.193  1.00  0.00     0.014 C 
HETATM   38  C18 UNL     1       5.149  10.993  23.051  1.00  0.00     0.012 C 
BRANCH  37  39
HETATM   39  C19 UNL     1       3.119  12.434  23.046  1.00  0.00     0.002 C 
HETATM   40  C20 UNL     1       3.620  13.173  21.815  1.00  0.00     0.005 C 
ENDBRANCH  37  39
ENDBRANCH  32  37
ENDBRANCH  30  32
ENDBRANCH  27  28
ENDBRANCH  26  27
ENDBRANCH  13  26
TORSDOF 9
ENDMDL
MODEL 2
REMARK minimizedAffinity -8.69415379
REMARK  9 active torsions:
REMARK  status: ('A' for Active; 'I' for Inactive)
REMARK    1  A    between atoms: C3_3  and  O1_4 
REMARK    2  A    between atoms: N1_14  and  O2_16 
REMARK    3  A    between atoms: O2_16  and  C13_17 
REMARK    4  A    between atoms: C13_17  and  C14_18 
REMARK       I    between atoms: C14_18  and  N2_20 
REMARK    5  A    between atoms: N2_20  and  C15_21 
REMARK    6  A    between atoms: C15_21  and  C16_22 
REMARK    7  A    between atoms: C15_21  and  C17_25 
REMARK    8  A    between atoms: C16_22  and  O5_24 
REMARK    9  A    between atoms: C17_25  and  C19_27 
ROOT
HETATM    1  C1  UNL     1      -8.555   7.789  15.690  1.00  0.00     0.015 C 
HETATM    2  C2  UNL     1      -7.547   7.178  15.462  1.00  0.00    -0.078 C 
HETATM    3  C3  UNL     1      -6.312   6.422  15.205  1.00  0.00     0.128 C 
HETATM    4  C4  UNL     1      -6.569   5.190  14.296  1.00  0.00     0.052 C 
HETATM    5  C5  UNL     1      -5.301   5.015  13.431  1.00  0.00     0.010 C 
HETATM    6  C6  UNL     1      -4.311   6.040  13.979  1.00  0.00     0.002 C 
HETATM    7  C7  UNL     1      -3.146   6.487  13.089  1.00  0.00    -0.004 C 
HETATM    8  C8  UNL     1      -2.313   5.288  12.595  1.00  0.00     0.010 C 
HETATM    9  C9  UNL     1      -1.061   5.718  11.827  1.00  0.00     0.035 C 
HETATM   10  C10 UNL     1      -0.278   6.694  12.670  1.00  0.00    -0.069 C 
HETATM   11  C11 UNL     1       0.928   6.347  13.152  1.00  0.00     0.030 C 
HETATM   12  C12 UNL     1       1.593   7.138  14.219  1.00  0.00     0.032 C 
HETATM   13  N1  UNL     1       2.793   6.784  14.580  1.00  0.00    -0.271 N 
ATOM     14  H1  UNL     1       3.313   6.014  14.160  1.00  0.00     0.194 HD
HETATM   15  C21 UNL     1       0.787   8.244  14.869  1.00  0.00     0.060 C 
HETATM   16  C22 UNL     1      -0.070   8.936  13.822  1.00  0.00     0.020 C 
HETATM   17  C23 UNL     1      -1.022   7.979  13.051  1.00  0.00    -0.016 C 
HETATM   18  C24 UNL     1      -1.447   8.764  11.784  1.00  0.00     0.020 C 
HETATM   19  C25 UNL     1      -2.263   7.510  13.892  1.00  0.00     0.002 C 
HETATM   20  C26 UNL     1      -3.112   8.660  14.489  1.00  0.00     0.007 C 
HETATM   21  C27 UNL     1      -4.346   8.168  15.269  1.00  0.00     0.014 C 
HETATM   22  C28 UNL     1      -5.215   7.213  14.432  1.00  0.00     0.003 C 
HETATM   23  C29 UNL     1      -5.837   7.997  13.239  1.00  0.00     0.020 C 
ENDROOT
BRANCH   3  24
HETATM   24  O1  UNL     1      -5.821   5.981  16.472  1.00  0.00    -0.377 OA
HETATM   25  H2  UNL     1      -5.335   5.150  16.350  1.00  0.00     0.211 HD
ENDBRANCH   3  24
BRANCH  13  26
HETATM   26  O2  UNL     1       3.283   7.589  15.616  1.00  0.00    -0.271 OA
BRANCH  26  27
HETATM   27  C13 UNL     1       4.653   7.895  15.362  1.00  0.00     0.303 C 
BRANCH  27  28
HETATM   28  C14 UNL     1       4.837   8.312  13.906  1.00  0.00     0.244 C 
HETATM   29  O3  UNL     1       4.946   9.488  13.575  1.00  0.00    -0.271 OA
HETATM   30  N2  UNL     1       4.913   7.249  13.025  1.00  0.00    -0.344 N 
HETATM   31  H16 UNL     1       4.958   6.332  13.455  1.00  0.00     0.163 HD
BRANCH  30  32
HETATM   32  C15 UNL     1       5.307   7.362  11.619  1.00  0.00     0.186 C 
BRANCH  32  33
HETATM   33  C16 UNL     1       6.846   7.328  11.556  1.00  0.00     0.163 C 
HETATM   34  O4  UNL     1       7.644   7.718  12.391  1.00  0.00    -0.648 OA
BRANCH  33  35
HETATM   35  O5  UNL     1       7.305   6.742  10.426  1.00  0.00    -0.775 OA
HETATM   36  H18 UNL     1       8.279   6.796  10.527  1.00  0.00     0.167 HD
ENDBRANCH  33  35
ENDBRANCH  32  33
BRANCH  32  37
HETATM   37  C17 UNL     1       4.648   8.522  10.824  1.00  0.00     0.014 C 
HETATM   38  C18 UNL     1       5.692   9.539  10.331  1.00  0.00     0.012 C 
BRANCH  37  39
HETATM   39  C19 UNL     1       3.861   8.026   9.585  1.00  0.00     0.002 C 
HETATM   40  C20 UNL     1       3.120   6.711   9.767  1.00  0.00     0.005 C 
ENDBRANCH  37  39
ENDBRANCH  32  37
ENDBRANCH  30  32
ENDBRANCH  27  28
ENDBRANCH  26  27
ENDBRANCH  13  26
TORSDOF 9
ENDMDL
MODEL 3
REMARK minimizedAffinity -8.61770248
REMARK  9 active torsions:
REMARK  status: ('A' for Active; 'I' for Inactive)
REMARK    1  A    between atoms: C3_3  and  O1_4 
REMARK    2  A    between atoms: N1_14  and  O2_16 
REMARK    3  A    between atoms: O2_16  and  C13_17 
REMARK    4  A    between atoms: C13_17  and  C14_18 
REMARK       I    between atoms: C14_18  and  N2_20 
REMARK    5  A    between atoms: N2_20  and  C15_21 
REMARK    6  A    between atoms: C15_21  and  C16_22 
REMARK    7  A    between atoms: C15_21  and  C17_25 
REMARK    8  A    between atoms: C16_22  and  O5_24 
REMARK    9  A    between atoms: C17_25  and  C19_27 
ROOT
HETATM    1  C1  UNL     1      -7.651   4.403  15.553  1.00  0.00     0.015 C 
HETATM    2  C2  UNL     1      -6.997   5.031  14.765  1.00  0.00    -0.078 C 
HETATM    3  C3  UNL     1      -6.209   5.788  13.782  1.00  0.00     0.128 C 
HETATM    4  C4  UNL     1      -6.701   7.253  13.651  1.00  0.00     0.052 C 
HETATM    5  C5  UNL     1      -5.448   8.110  13.363  1.00  0.00     0.010 C 
HETATM    6  C6  UNL     1      -4.318   7.099  13.181  1.00  0.00     0.002 C 
HETATM    7  C7  UNL     1      -2.872   7.573  13.355  1.00  0.00    -0.004 C 
HETATM    8  C8  UNL     1      -2.548   8.768  12.437  1.00  0.00     0.010 C 
HETATM    9  C9  UNL     1      -1.071   9.164  12.486  1.00  0.00     0.035 C 
HETATM   10  C10 UNL     1      -0.225   7.944  12.215  1.00  0.00    -0.069 C 
HETATM   11  C11 UNL     1       0.503   7.870  11.086  1.00  0.00     0.030 C 
HETATM   12  C12 UNL     1       1.100   6.588  10.632  1.00  0.00     0.032 C 
HETATM   13  N1  UNL     1       1.855   6.611   9.571  1.00  0.00    -0.271 N 
ATOM     14  H1  UNL     1       2.081   7.457   9.048  1.00  0.00     0.194 HD
HETATM   15  C21 UNL     1       0.712   5.334  11.389  1.00  0.00     0.060 C 
HETATM   16  C22 UNL     1       0.600   5.645  12.871  1.00  0.00     0.020 C 
HETATM   17  C23 UNL     1      -0.401   6.786  13.204  1.00  0.00    -0.016 C 
HETATM   18  C24 UNL     1      -0.043   7.235  14.643  1.00  0.00     0.020 C 
HETATM   19  C25 UNL     1      -1.909   6.360  13.082  1.00  0.00     0.002 C 
HETATM   20  C26 UNL     1      -2.298   5.116  13.920  1.00  0.00     0.007 C 
HETATM   21  C27 UNL     1      -3.790   4.752  13.816  1.00  0.00     0.014 C 
HETATM   22  C28 UNL     1      -4.702   5.948  14.144  1.00  0.00     0.003 C 
HETATM   23  C29 UNL     1      -4.532   6.327  15.643  1.00  0.00     0.020 C 
ENDROOT
BRANCH   3  24
HETATM   24  O1  UNL     1      -6.360   5.124  12.525  1.00  0.00    -0.377 OA
HETATM   25  H2  UNL     1      -6.279   5.777  11.812  1.00  0.00     0.211 HD
ENDBRANCH   3  24
BRANCH  13  26
HETATM   26  O2  UNL     1       2.320   5.333   9.235  1.00  0.00    -0.271 OA
BRANCH  26  27
HETATM   27  C13 UNL     1       3.615   5.143   9.802  1.00  0.00     0.303 C 
BRANCH  27  28
HETATM   28  C14 UNL     1       4.151   6.464  10.344  1.00  0.00     0.244 C 
HETATM   29  O3  UNL     1       4.454   7.396   9.605  1.00  0.00    -0.271 OA
HETATM   30  N2  UNL     1       4.214   6.519  11.723  1.00  0.00    -0.344 N 
HETATM   31  H16 UNL     1       3.792   5.735  12.209  1.00  0.00     0.163 HD
BRANCH  30  32
HETATM   32  C15 UNL     1       4.477   7.736  12.497  1.00  0.00     0.186 C 
BRANCH  32  33
HETATM   33  C16 UNL     1       5.895   7.623  13.086  1.00  0.00     0.163 C 
HETATM   34  O4  UNL     1       6.541   6.612  13.311  1.00  0.00    -0.648 OA
BRANCH  33  35
HETATM   35  O5  UNL     1       6.454   8.831  13.326  1.00  0.00    -0.775 OA
HETATM   36  H18 UNL     1       7.334   8.601  13.694  1.00  0.00     0.167 HD
ENDBRANCH  33  35
ENDBRANCH  32  33
BRANCH  32  37
HETATM   37  C17 UNL     1       3.377   8.138  13.515  1.00  0.00     0.014 C 
HETATM   38  C18 UNL     1       3.869   8.004  14.967  1.00  0.00     0.012 C 
BRANCH  37  39
HETATM   39  C19 UNL     1       2.889   9.597  13.324  1.00  0.00     0.002 C 
HETATM   40  C20 UNL     1       3.582  10.635  14.192  1.00  0.00     0.005 C 
ENDBRANCH  37  39
ENDBRANCH  32  37
ENDBRANCH  30  32
ENDBRANCH  27  28
ENDBRANCH  26  27
ENDBRANCH  13  26
TORSDOF 9
ENDMDL
MODEL 4
REMARK minimizedAffinity -8.59461021
REMARK  9 active torsions:
REMARK  status: ('A' for Active; 'I' for Inactive)
REMARK    1  A    between atoms: C3_3  and  O1_4 
REMARK    2  A    between atoms: N1_14  and  O2_16 
REMARK    3  A    between atoms: O2_16  and  C13_17 
REMARK    4  A    between atoms: C13_17  and  C14_18 
REMARK       I    between atoms: C14_18  and  N2_20 
REMARK    5  A    between atoms: N2_20  and  C15_21 
REMARK    6  A    between atoms: C15_21  and  C16_22 
REMARK    7  A    between atoms: C15_21  and  C17_25 
REMARK    8  A    between atoms: C16_22  and  O5_24 
REMARK    9  A    between atoms: C17_25  and  C19_27 
ROOT
HETATM    1  C1  UNL     1      -9.714   7.069  15.518  1.00  0.00     0.015 C 
HETATM    2  C2  UNL     1      -8.638   6.551  15.389  1.00  0.00    -0.078 C 
HETATM    3  C3  UNL     1      -7.323   5.907  15.255  1.00  0.00     0.128 C 
HETATM    4  C4  UNL     1      -7.381   4.666  14.325  1.00  0.00     0.052 C 
HETATM    5  C5  UNL     1      -6.023   4.610  13.589  1.00  0.00     0.010 C 
HETATM    6  C6  UNL     1      -5.185   5.713  14.232  1.00  0.00     0.002 C 
HETATM    7  C7  UNL     1      -3.983   6.267  13.461  1.00  0.00    -0.004 C 
HETATM    8  C8  UNL     1      -3.003   5.150  13.051  1.00  0.00     0.010 C 
HETATM    9  C9  UNL     1      -1.725   5.695  12.410  1.00  0.00     0.035 C 
HETATM   10  C10 UNL     1      -1.117   6.728  13.325  1.00  0.00    -0.069 C 
HETATM   11  C11 UNL     1       0.062   6.483  13.923  1.00  0.00     0.030 C 
HETATM   12  C12 UNL     1       0.547   7.320  15.051  1.00  0.00     0.032 C 
HETATM   13  N1  UNL     1       1.732   7.069  15.529  1.00  0.00    -0.271 N 
ATOM     14  H1  UNL     1       2.357   6.351  15.161  1.00  0.00     0.194 HD
HETATM   15  C21 UNL     1      -0.413   8.345  15.620  1.00  0.00     0.060 C 
HETATM   16  C22 UNL     1      -1.220   8.969  14.494  1.00  0.00     0.020 C 
HETATM   17  C23 UNL     1      -2.004   7.940  13.633  1.00  0.00    -0.016 C 
HETATM   18  C24 UNL     1      -2.371   8.696  12.330  1.00  0.00     0.020 C 
HETATM   19  C25 UNL     1      -3.275   7.356  14.347  1.00  0.00     0.002 C 
HETATM   20  C26 UNL     1      -4.277   8.423  14.858  1.00  0.00     0.007 C 
HETATM   21  C27 UNL     1      -5.533   7.818  15.512  1.00  0.00     0.014 C 
HETATM   22  C28 UNL     1      -6.229   6.799  14.593  1.00  0.00     0.003 C 
HETATM   23  C29 UNL     1      -6.798   7.535  13.346  1.00  0.00     0.020 C 
ENDROOT
BRANCH   3  24
HETATM   24  O1  UNL     1      -6.921   5.500  16.564  1.00  0.00    -0.377 OA
HETATM   25  H2  UNL     1      -6.355   4.715  16.490  1.00  0.00     0.211 HD
ENDBRANCH   3  24
BRANCH  13  26
HETATM   26  O2  UNL     1       2.047   7.904  16.608  1.00  0.00    -0.271 OA
BRANCH  26  27
HETATM   27  C13 UNL     1       2.669   9.089  16.117  1.00  0.00     0.303 C 
BRANCH  27  28
HETATM   28  C14 UNL     1       2.727  10.146  17.216  1.00  0.00     0.244 C 
HETATM   29  O3  UNL     1       3.456  11.130  17.135  1.00  0.00    -0.271 OA
HETATM   30  N2  UNL     1       1.861   9.909  18.266  1.00  0.00    -0.344 N 
HETATM   31  H16 UNL     1       1.214   9.140  18.129  1.00  0.00     0.163 HD
BRANCH  30  32
HETATM   32  C15 UNL     1       1.560  10.871  19.329  1.00  0.00     0.186 C 
BRANCH  32  33
HETATM   33  C16 UNL     1       2.234  10.373  20.621  1.00  0.00     0.163 C 
HETATM   34  O4  UNL     1       2.732   9.281  20.840  1.00  0.00    -0.648 OA
BRANCH  33  35
HETATM   35  O5  UNL     1       2.284  11.326  21.580  1.00  0.00    -0.775 OA
HETATM   36  H18 UNL     1       2.728  10.870  22.326  1.00  0.00     0.167 HD
ENDBRANCH  33  35
ENDBRANCH  32  33
BRANCH  32  37
HETATM   37  C17 UNL     1       0.065  11.261  19.483  1.00  0.00     0.014 C 
HETATM   38  C18 UNL     1      -0.115  12.782  19.628  1.00  0.00     0.012 C 
BRANCH  37  39
HETATM   39  C19 UNL     1      -0.799  10.804  18.280  1.00  0.00     0.002 C 
HETATM   40  C20 UNL     1      -2.223  10.394  18.620  1.00  0.00     0.005 C 
ENDBRANCH  37  39
ENDBRANCH  32  37
ENDBRANCH  30  32
ENDBRANCH  27  28
ENDBRANCH  26  27
ENDBRANCH  13  26
TORSDOF 9
ENDMDL
MODEL 5
REMARK minimizedAffinity -8.56684303
REMARK  9 active torsions:
REMARK  status: ('A' for Active; 'I' for Inactive)
REMARK    1  A    between atoms: C3_3  and  O1_4 
REMARK    2  A    between atoms: N1_14  and  O2_16 
REMARK    3  A    between atoms: O2_16  and  C13_17 
REMARK    4  A    between atoms: C13_17  and  C14_18 
REMARK       I    between atoms: C14_18  and  N2_20 
REMARK    5  A    between atoms: N2_20  and  C15_21 
REMARK    6  A    between atoms: C15_21  and  C16_22 
REMARK    7  A    between atoms: C15_21  and  C17_25 
REMARK    8  A    between atoms: C16_22  and  O5_24 
REMARK    9  A    between atoms: C17_25  and  C19_27 
ROOT
HETATM    1  C1  UNL     1      -9.305   7.138  15.720  1.00  0.00     0.015 C 
HETATM    2  C2  UNL     1      -8.276   6.565  15.485  1.00  0.00    -0.078 C 
HETATM    3  C3  UNL     1      -7.017   5.853  15.220  1.00  0.00     0.128 C 
HETATM    4  C4  UNL     1      -7.225   4.647  14.267  1.00  0.00     0.052 C 
HETATM    5  C5  UNL     1      -5.942   4.538  13.414  1.00  0.00     0.010 C 
HETATM    6  C6  UNL     1      -4.989   5.572  14.010  1.00  0.00     0.002 C 
HETATM    7  C7  UNL     1      -3.827   6.082  13.151  1.00  0.00    -0.004 C 
HETATM    8  C8  UNL     1      -2.953   4.926  12.629  1.00  0.00     0.010 C 
HETATM    9  C9  UNL     1      -1.705   5.417  11.893  1.00  0.00     0.035 C 
HETATM   10  C10 UNL     1      -0.961   6.387  12.778  1.00  0.00    -0.069 C 
HETATM   11  C11 UNL     1       0.249   6.058  13.265  1.00  0.00     0.030 C 
HETATM   12  C12 UNL     1       0.876   6.832  14.367  1.00  0.00     0.032 C 
HETATM   13  N1  UNL     1       2.081   6.501  14.733  1.00  0.00    -0.271 N 
ATOM     14  H1  UNL     1       2.629   5.761  14.294  1.00  0.00     0.194 HD
HETATM   15  C21 UNL     1       0.030   7.891  15.043  1.00  0.00     0.060 C 
HETATM   16  C22 UNL     1      -0.834   8.593  14.008  1.00  0.00     0.020 C 
HETATM   17  C23 UNL     1      -1.747   7.636  13.193  1.00  0.00    -0.016 C 
HETATM   18  C24 UNL     1      -2.179   8.451  11.947  1.00  0.00     0.020 C 
HETATM   19  C25 UNL     1      -2.984   7.102  14.001  1.00  0.00     0.002 C 
HETATM   20  C26 UNL     1      -3.875   8.207  14.624  1.00  0.00     0.007 C 
HETATM   21  C27 UNL     1      -5.103   7.653  15.369  1.00  0.00     0.014 C 
HETATM   22  C28 UNL     1      -5.933   6.702  14.489  1.00  0.00     0.003 C 
HETATM   23  C29 UNL     1      -6.563   7.507  13.315  1.00  0.00     0.020 C 
ENDROOT
BRANCH   3  24
HETATM   24  O1  UNL     1      -6.529   5.384  16.478  1.00  0.00    -0.377 OA
HETATM   25  H2  UNL     1      -6.017   4.572  16.335  1.00  0.00     0.211 HD
ENDBRANCH   3  24
BRANCH  13  26
HETATM   26  O2  UNL     1       2.535   7.283  15.802  1.00  0.00    -0.271 OA
BRANCH  26  27
HETATM   27  C13 UNL     1       3.863   7.724  15.529  1.00  0.00     0.303 C 
BRANCH  27  28
HETATM   28  C14 UNL     1       3.990   8.134  14.064  1.00  0.00     0.244 C 
HETATM   29  O3  UNL     1       3.319   9.041  13.582  1.00  0.00    -0.271 OA
HETATM   30  N2  UNL     1       4.949   7.425  13.366  1.00  0.00    -0.344 N 
HETATM   31  H16 UNL     1       5.529   6.811  13.928  1.00  0.00     0.163 HD
BRANCH  30  32
HETATM   32  C15 UNL     1       5.423   7.767  12.022  1.00  0.00     0.186 C 
BRANCH  32  33
HETATM   33  C16 UNL     1       5.295   6.510  11.143  1.00  0.00     0.163 C 
HETATM   34  O4  UNL     1       4.607   6.350  10.148  1.00  0.00    -0.648 OA
BRANCH  33  35
HETATM   35  O5  UNL     1       6.102   5.505  11.555  1.00  0.00    -0.775 OA
HETATM   36  H18 UNL     1       5.912   4.788  10.914  1.00  0.00     0.167 HD
ENDBRANCH  33  35
ENDBRANCH  32  33
BRANCH  32  37
HETATM   37  C17 UNL     1       6.803   8.474  11.954  1.00  0.00     0.014 C 
HETATM   38  C18 UNL     1       6.729   9.794  11.166  1.00  0.00     0.012 C 
BRANCH  37  39
HETATM   39  C19 UNL     1       7.378   8.801  13.355  1.00  0.00     0.002 C 
HETATM   40  C20 UNL     1       8.520   7.908  13.816  1.00  0.00     0.005 C 
ENDBRANCH  37  39
ENDBRANCH  32  37
ENDBRANCH  30  32
ENDBRANCH  27  28
ENDBRANCH  26  27
ENDBRANCH  13  26
TORSDOF 9
ENDMDL
MODEL 6
REMARK minimizedAffinity -8.44275379
REMARK  9 active torsions:
REMARK  status: ('A' for Active; 'I' for Inactive)
REMARK    1  A    between atoms: C3_3  and  O1_4 
REMARK    2  A    between atoms: N1_14  and  O2_16 
REMARK    3  A    between atoms: O2_16  and  C13_17 
REMARK    4  A    between atoms: C13_17  and  C14_18 
REMARK       I    between atoms: C14_18  and  N2_20 
REMARK    5  A    between atoms: N2_20  and  C15_21 
REMARK    6  A    between atoms: C15_21  and  C16_22 
REMARK    7  A    between atoms: C15_21  and  C17_25 
REMARK    8  A    between atoms: C16_22  and  O5_24 
REMARK    9  A    between atoms: C17_25  and  C19_27 
ROOT
HETATM    1  C1  UNL     1     -14.821   8.549  12.520  1.00  0.00     0.015 C 
HETATM    2  C2  UNL     1     -13.670   8.824  12.723  1.00  0.00    -0.078 C 
HETATM    3  C3  UNL     1     -12.259   9.171  12.949  1.00  0.00     0.128 C 
HETATM    4  C4  UNL     1     -12.108  10.384  13.904  1.00  0.00     0.052 C 
HETATM    5  C5  UNL     1     -10.818  10.140  14.717  1.00  0.00     0.010 C 
HETATM    6  C6  UNL     1     -10.195   8.892  14.096  1.00  0.00     0.002 C 
HETATM    7  C7  UNL     1      -9.187   8.084  14.920  1.00  0.00    -0.004 C 
HETATM    8  C8  UNL     1      -8.020   8.961  15.413  1.00  0.00     0.010 C 
HETATM    9  C9  UNL     1      -6.928   8.149  16.113  1.00  0.00     0.035 C 
HETATM   10  C10 UNL     1      -6.498   7.021  15.207  1.00  0.00    -0.069 C 
HETATM   11  C11 UNL     1      -5.260   7.016  14.684  1.00  0.00     0.030 C 
HETATM   12  C12 UNL     1      -4.895   6.109  13.565  1.00  0.00     0.032 C 
HETATM   13  N1  UNL     1      -3.657   6.107  13.162  1.00  0.00    -0.271 N 
ATOM     14  H1  UNL     1      -2.918   6.671  13.583  1.00  0.00     0.194 HD
HETATM   15  C21 UNL     1      -6.014   5.319  12.917  1.00  0.00     0.060 C 
HETATM   16  C22 UNL     1      -7.003   4.868  13.979  1.00  0.00     0.020 C 
HETATM   17  C23 UNL     1      -7.602   6.030  14.820  1.00  0.00    -0.016 C 
HETATM   18  C24 UNL     1      -8.199   5.353  16.080  1.00  0.00     0.020 C 
HETATM   19  C25 UNL     1      -8.674   6.880  14.048  1.00  0.00     0.002 C 
HETATM   20  C26 UNL     1      -9.846   6.058  13.455  1.00  0.00     0.007 C 
HETATM   21  C27 UNL     1     -10.903   6.925  12.746  1.00  0.00     0.014 C 
HETATM   22  C28 UNL     1     -11.422   8.058  13.648  1.00  0.00     0.003 C 
HETATM   23  C29 UNL     1     -12.209   7.445  14.842  1.00  0.00     0.020 C 
ENDROOT
BRANCH   3  24
HETATM   24  O1  UNL     1     -11.701   9.499  11.675  1.00  0.00    -0.377 OA
HETATM   25  H2  UNL     1     -10.987  10.144  11.801  1.00  0.00     0.211 HD
ENDBRANCH   3  24
BRANCH  13  26
HETATM   26  O2  UNL     1      -3.462   5.238  12.082  1.00  0.00    -0.271 OA
BRANCH  26  27
HETATM   27  C13 UNL     1      -2.280   4.472  12.305  1.00  0.00     0.303 C 
BRANCH  27  28
HETATM   28  C14 UNL     1      -1.093   5.119  11.598  1.00  0.00     0.244 C 
HETATM   29  O3  UNL     1      -0.530   4.582  10.648  1.00  0.00    -0.271 OA
HETATM   30  N2  UNL     1      -0.755   6.363  12.095  1.00  0.00    -0.344 N 
HETATM   31  H16 UNL     1      -1.399   6.746  12.779  1.00  0.00     0.163 HD
BRANCH  30  32
HETATM   32  C15 UNL     1       0.189   7.285  11.459  1.00  0.00     0.186 C 
BRANCH  32  33
HETATM   33  C16 UNL     1      -0.175   8.714  11.904  1.00  0.00     0.163 C 
HETATM   34  O4  UNL     1      -1.267   9.256  11.884  1.00  0.00    -0.648 OA
BRANCH  33  35
HETATM   35  O5  UNL     1       0.887   9.385  12.407  1.00  0.00    -0.775 OA
HETATM   36  H18 UNL     1       0.508  10.260  12.639  1.00  0.00     0.167 HD
ENDBRANCH  33  35
ENDBRANCH  32  33
BRANCH  32  37
HETATM   37  C17 UNL     1       0.378   7.107   9.928  1.00  0.00     0.014 C 
HETATM   38  C18 UNL     1       0.044   8.397   9.159  1.00  0.00     0.012 C 
BRANCH  37  39
HETATM   39  C19 UNL     1       1.825   6.701   9.547  1.00  0.00     0.002 C 
HETATM   40  C20 UNL     1       2.922   7.581  10.126  1.00  0.00     0.005 C 
ENDBRANCH  37  39
ENDBRANCH  32  37
ENDBRANCH  30  32
ENDBRANCH  27  28
ENDBRANCH  26  27
ENDBRANCH  13  26
TORSDOF 9
ENDMDL
MODEL 7
REMARK minimizedAffinity -8.39419556
REMARK  9 active torsions:
REMARK  status: ('A' for Active; 'I' for Inactive)
REMARK    1  A    between atoms: C3_3  and  O1_4 
REMARK    2  A    between atoms: N1_14  and  O2_16 
REMARK    3  A    between atoms: O2_16  and  C13_17 
REMARK    4  A    between atoms: C13_17  and  C14_18 
REMARK       I    between atoms: C14_18  and  N2_20 
REMARK    5  A    between atoms: N2_20  and  C15_21 
REMARK    6  A    between atoms: C15_21  and  C16_22 
REMARK    7  A    between atoms: C15_21  and  C17_25 
REMARK    8  A    between atoms: C16_22  and  O5_24 
REMARK    9  A    between atoms: C17_25  and  C19_27 
ROOT
HETATM    1  C1  UNL     1      -6.166   8.391  15.869  1.00  0.00     0.015 C 
HETATM    2  C2  UNL     1      -5.265   7.704  15.471  1.00  0.00    -0.078 C 
HETATM    3  C3  UNL     1      -4.157   6.856  15.008  1.00  0.00     0.128 C 
HETATM    4  C4  UNL     1      -4.668   5.553  14.337  1.00  0.00     0.052 C 
HETATM    5  C5  UNL     1      -3.662   5.218  13.214  1.00  0.00     0.010 C 
HETATM    6  C6  UNL     1      -2.537   6.237  13.381  1.00  0.00     0.002 C 
HETATM    7  C7  UNL     1      -1.619   6.522  12.188  1.00  0.00    -0.004 C 
HETATM    8  C8  UNL     1      -0.971   5.233  11.645  1.00  0.00     0.010 C 
HETATM    9  C9  UNL     1       0.061   5.509  10.550  1.00  0.00     0.035 C 
HETATM   10  C10 UNL     1       1.058   6.522  11.058  1.00  0.00    -0.069 C 
HETATM   11  C11 UNL     1       2.336   6.159  11.266  1.00  0.00     0.030 C 
HETATM   12  C12 UNL     1       3.269   7.017  12.040  1.00  0.00     0.032 C 
HETATM   13  N1  UNL     1       4.511   6.636  12.134  1.00  0.00    -0.271 N 
ATOM     14  H1  UNL     1       4.887   5.798  11.690  1.00  0.00     0.194 HD
HETATM   15  C21 UNL     1       2.684   8.229  12.737  1.00  0.00     0.060 C 
HETATM   16  C22 UNL     1       1.613   8.856  11.860  1.00  0.00     0.020 C 
HETATM   17  C23 UNL     1       0.472   7.880  11.460  1.00  0.00    -0.016 C 
HETATM   18  C24 UNL     1      -0.234   8.552  10.255  1.00  0.00     0.020 C 
HETATM   19  C25 UNL     1      -0.533   7.571  12.628  1.00  0.00     0.002 C 
HETATM   20  C26 UNL     1      -1.173   8.823  13.278  1.00  0.00     0.007 C 
HETATM   21  C27 UNL     1      -2.186   8.485  14.388  1.00  0.00     0.014 C 
HETATM   22  C28 UNL     1      -3.265   7.499  13.904  1.00  0.00     0.003 C 
HETATM   23  C29 UNL     1      -4.142   8.189  12.819  1.00  0.00     0.020 C 
ENDROOT
BRANCH   3  24
HETATM   24  O1  UNL     1      -3.377   6.521  16.158  1.00  0.00    -0.377 OA
HETATM   25  H2  UNL     1      -2.962   5.656  16.017  1.00  0.00     0.211 HD
ENDBRANCH   3  24
BRANCH  13  26
HETATM   26  O2  UNL     1       5.267   7.514  12.919  1.00  0.00    -0.271 OA
BRANCH  26  27
HETATM   27  C13 UNL     1       6.497   6.884  13.273  1.00  0.00     0.303 C 
BRANCH  27  28
HETATM   28  C14 UNL     1       7.555   7.938  13.588  1.00  0.00     0.244 C 
HETATM   29  O3  UNL     1       8.129   8.568  12.706  1.00  0.00    -0.271 OA
HETATM   30  N2  UNL     1       7.762   8.136  14.940  1.00  0.00    -0.344 N 
HETATM   31  H16 UNL     1       7.113   7.655  15.553  1.00  0.00     0.163 HD
BRANCH  30  32
HETATM   32  C15 UNL     1       8.549   9.233  15.509  1.00  0.00     0.186 C 
BRANCH  32  33
HETATM   33  C16 UNL     1       9.139   8.746  16.846  1.00  0.00     0.163 C 
HETATM   34  O4  UNL     1       9.666   9.408  17.725  1.00  0.00    -0.648 OA
BRANCH  33  35
HETATM   35  O5  UNL     1       8.984   7.414  17.025  1.00  0.00    -0.775 OA
HETATM   36  H18 UNL     1       9.402   7.256  17.898  1.00  0.00     0.167 HD
ENDBRANCH  33  35
ENDBRANCH  32  33
BRANCH  32  37
HETATM   37  C17 UNL     1       7.838  10.612  15.574  1.00  0.00     0.014 C 
HETATM   38  C18 UNL     1       7.062  10.791  16.890  1.00  0.00     0.012 C 
BRANCH  37  39
HETATM   39  C19 UNL     1       8.824  11.800  15.450  1.00  0.00     0.002 C 
HETATM   40  C20 UNL     1      10.152  11.479  14.781  1.00  0.00     0.005 C 
ENDBRANCH  37  39
ENDBRANCH  32  37
ENDBRANCH  30  32
ENDBRANCH  27  28
ENDBRANCH  26  27
ENDBRANCH  13  26
TORSDOF 9
ENDMDL
MODEL 8
REMARK minimizedAffinity -8.37987232
REMARK  9 active torsions:
REMARK  status: ('A' for Active; 'I' for Inactive)
REMARK    1  A    between atoms: C3_3  and  O1_4 
REMARK    2  A    between atoms: N1_14  and  O2_16 
REMARK    3  A    between atoms: O2_16  and  C13_17 
REMARK    4  A    between atoms: C13_17  and  C14_18 
REMARK       I    between atoms: C14_18  and  N2_20 
REMARK    5  A    between atoms: N2_20  and  C15_21 
REMARK    6  A    between atoms: C15_21  and  C16_22 
REMARK    7  A    between atoms: C15_21  and  C17_25 
REMARK    8  A    between atoms: C16_22  and  O5_24 
REMARK    9  A    between atoms: C17_25  and  C19_27 
ROOT
HETATM    1  C1  UNL     1      -7.441   3.979  15.012  1.00  0.00     0.015 C 
HETATM    2  C2  UNL     1      -6.719   4.682  14.358  1.00  0.00    -0.078 C 
HETATM    3  C3  UNL     1      -5.841   5.529  13.538  1.00  0.00     0.128 C 
HETATM    4  C4  UNL     1      -6.501   6.893  13.204  1.00  0.00     0.052 C 
HETATM    5  C5  UNL     1      -5.357   7.931  13.160  1.00  0.00     0.010 C 
HETATM    6  C6  UNL     1      -4.079   7.109  13.309  1.00  0.00     0.002 C 
HETATM    7  C7  UNL     1      -2.803   7.813  13.783  1.00  0.00    -0.004 C 
HETATM    8  C8  UNL     1      -2.451   9.019  12.890  1.00  0.00     0.010 C 
HETATM    9  C9  UNL     1      -1.105   9.648  13.254  1.00  0.00     0.035 C 
HETATM   10  C10 UNL     1      -0.046   8.572  13.264  1.00  0.00    -0.069 C 
HETATM   11  C11 UNL     1       0.932   8.586  12.342  1.00  0.00     0.030 C 
HETATM   12  C12 UNL     1       1.805   7.404  12.121  1.00  0.00     0.032 C 
HETATM   13  N1  UNL     1       2.779   7.519  11.265  1.00  0.00    -0.271 N 
ATOM     14  H1  UNL     1       2.994   8.376  10.755  1.00  0.00     0.194 HD
HETATM   15  C21 UNL     1       1.439   6.124  12.846  1.00  0.00     0.060 C 
HETATM   16  C22 UNL     1       0.931   6.453  14.239  1.00  0.00     0.020 C 
HETATM   17  C23 UNL     1      -0.279   7.428  14.257  1.00  0.00    -0.016 C 
HETATM   18  C24 UNL     1      -0.345   7.966  15.709  1.00  0.00     0.020 C 
HETATM   19  C25 UNL     1      -1.633   6.763  13.818  1.00  0.00     0.002 C 
HETATM   20  C26 UNL     1      -2.021   5.495  14.621  1.00  0.00     0.007 C 
HETATM   21  C27 UNL     1      -3.374   4.894  14.197  1.00  0.00     0.014 C 
HETATM   22  C28 UNL     1      -4.505   5.938  14.228  1.00  0.00     0.003 C 
HETATM   23  C29 UNL     1      -4.757   6.379  15.699  1.00  0.00     0.020 C 
ENDROOT
BRANCH   3  24
HETATM   24  O1  UNL     1      -5.587   4.817  12.325  1.00  0.00    -0.377 OA
HETATM   25  H2  UNL     1      -5.436   5.455  11.610  1.00  0.00     0.211 HD
ENDBRANCH   3  24
BRANCH  13  26
HETATM   26  O2  UNL     1       3.496   6.324  11.128  1.00  0.00    -0.271 OA
BRANCH  26  27
HETATM   27  C13 UNL     1       4.659   6.564  10.338  1.00  0.00     0.303 C 
BRANCH  27  28
HETATM   28  C14 UNL     1       5.828   6.965  11.233  1.00  0.00     0.244 C 
HETATM   29  O3  UNL     1       6.854   7.463  10.780  1.00  0.00    -0.271 OA
HETATM   30  N2  UNL     1       5.598   6.758  12.580  1.00  0.00    -0.344 N 
HETATM   31  H16 UNL     1       4.653   6.482  12.821  1.00  0.00     0.163 HD
BRANCH  30  32
HETATM   32  C15 UNL     1       6.457   7.259  13.657  1.00  0.00     0.186 C 
BRANCH  32  33
HETATM   33  C16 UNL     1       5.544   7.770  14.787  1.00  0.00     0.163 C 
HETATM   34  O4  UNL     1       4.455   8.312  14.692  1.00  0.00    -0.648 OA
BRANCH  33  35
HETATM   35  O5  UNL     1       6.053   7.520  16.016  1.00  0.00    -0.775 OA
HETATM   36  H18 UNL     1       5.377   7.897  16.619  1.00  0.00     0.167 HD
ENDBRANCH  33  35
ENDBRANCH  32  33
BRANCH  32  37
HETATM   37  C17 UNL     1       7.575   8.245  13.224  1.00  0.00     0.014 C 
HETATM   38  C18 UNL     1       7.322   9.664  13.764  1.00  0.00     0.012 C 
BRANCH  37  39
HETATM   39  C19 UNL     1       8.979   7.807  13.711  1.00  0.00     0.002 C 
HETATM   40  C20 UNL     1       9.394   8.343  15.072  1.00  0.00     0.005 C 
ENDBRANCH  37  39
ENDBRANCH  32  37
ENDBRANCH  30  32
ENDBRANCH  27  28
ENDBRANCH  26  27
ENDBRANCH  13  26
TORSDOF 9
ENDMDL
MODEL 9
REMARK minimizedAffinity -8.37038994
REMARK  9 active torsions:
REMARK  status: ('A' for Active; 'I' for Inactive)
REMARK    1  A    between atoms: C3_3  and  O1_4 
REMARK    2  A    between atoms: N1_14  and  O2_16 
REMARK    3  A    between atoms: O2_16  and  C13_17 
REMARK    4  A    between atoms: C13_17  and  C14_18 
REMARK       I    between atoms: C14_18  and  N2_20 
REMARK    5  A    between atoms: N2_20  and  C15_21 
REMARK    6  A    between atoms: C15_21  and  C16_22 
REMARK    7  A    between atoms: C15_21  and  C17_25 
REMARK    8  A    between atoms: C16_22  and  O5_24 
REMARK    9  A    between atoms: C17_25  and  C19_27 
ROOT
HETATM    1  C1  UNL     1      -4.347 -10.755   6.073  1.00  0.00     0.015 C 
HETATM    2  C2  UNL     1      -4.212 -10.495   4.909  1.00  0.00    -0.078 C 
HETATM    3  C3  UNL     1      -4.035 -10.154   3.490  1.00  0.00     0.128 C 
HETATM    4  C4  UNL     1      -2.918 -11.003   2.827  1.00  0.00     0.052 C 
HETATM    5  C5  UNL     1      -3.357 -11.235   1.365  1.00  0.00     0.010 C 
HETATM    6  C6  UNL     1      -4.615 -10.388   1.196  1.00  0.00     0.002 C 
HETATM    7  C7  UNL     1      -5.584 -10.727   0.058  1.00  0.00    -0.004 C 
HETATM    8  C8  UNL     1      -4.875 -10.742  -1.310  1.00  0.00     0.010 C 
HETATM    9  C9  UNL     1      -5.847 -10.933  -2.476  1.00  0.00     0.035 C 
HETATM   10  C10 UNL     1      -6.946  -9.904  -2.373  1.00  0.00    -0.069 C 
HETATM   11  C11 UNL     1      -7.045  -8.934  -3.300  1.00  0.00     0.030 C 
HETATM   12  C12 UNL     1      -7.901  -7.740  -3.083  1.00  0.00     0.032 C 
HETATM   13  N1  UNL     1      -8.006  -6.882  -4.057  1.00  0.00    -0.271 N 
ATOM     14  H1  UNL     1      -7.556  -6.990  -4.966  1.00  0.00     0.194 HD
HETATM   15  C21 UNL     1      -8.518  -7.566  -1.710  1.00  0.00     0.060 C 
HETATM   16  C22 UNL     1      -8.937  -8.921  -1.163  1.00  0.00     0.020 C 
HETATM   17  C23 UNL     1      -7.783  -9.958  -1.090  1.00  0.00    -0.016 C 
HETATM   18  C24 UNL     1      -8.481 -11.334  -0.948  1.00  0.00     0.020 C 
HETATM   19  C25 UNL     1      -6.769  -9.693   0.081  1.00  0.00     0.002 C 
HETATM   20  C26 UNL     1      -7.416  -9.590   1.485  1.00  0.00     0.007 C 
HETATM   21  C27 UNL     1      -6.392  -9.377   2.615  1.00  0.00     0.014 C 
HETATM   22  C28 UNL     1      -5.278 -10.439   2.594  1.00  0.00     0.003 C 
HETATM   23  C29 UNL     1      -5.890 -11.831   2.927  1.00  0.00     0.020 C 
ENDROOT
BRANCH   3  24
HETATM   24  O1  UNL     1      -3.676  -8.772   3.433  1.00  0.00    -0.377 OA
HETATM   25  H2  UNL     1      -3.122  -8.622   2.651  1.00  0.00     0.211 HD
ENDBRANCH   3  24
BRANCH  13  26
HETATM   26  O2  UNL     1      -8.810  -5.791  -3.705  1.00  0.00    -0.271 OA
BRANCH  26  27
HETATM   27  C13 UNL     1      -9.857  -5.653  -4.664  1.00  0.00     0.303 C 
BRANCH  27  28
HETATM   28  C14 UNL     1      -9.754  -4.301  -5.364  1.00  0.00     0.244 C 
HETATM   29  O3  UNL     1      -9.955  -4.175  -6.568  1.00  0.00    -0.271 OA
HETATM   30  N2  UNL     1      -9.461  -3.252  -4.514  1.00  0.00    -0.344 N 
HETATM   31  H16 UNL     1      -9.470  -3.479  -3.526  1.00  0.00     0.163 HD
BRANCH  30  32
HETATM   32  C15 UNL     1      -9.526  -1.836  -4.888  1.00  0.00     0.186 C 
BRANCH  32  33
HETATM   33  C16 UNL     1     -10.982  -1.368  -4.710  1.00  0.00     0.163 C 
HETATM   34  O4  UNL     1     -12.008  -1.989  -4.935  1.00  0.00    -0.648 OA
BRANCH  33  35
HETATM   35  O5  UNL     1     -11.065  -0.117  -4.200  1.00  0.00    -0.775 OA
HETATM   36  H18 UNL     1     -12.033   0.039  -4.148  1.00  0.00     0.167 HD
ENDBRANCH  33  35
ENDBRANCH  32  33
BRANCH  32  37
HETATM   37  C17 UNL     1      -8.885  -1.469  -6.253  1.00  0.00     0.014 C 
HETATM   38  C18 UNL     1      -9.917  -0.871  -7.225  1.00  0.00     0.012 C 
BRANCH  37  39
HETATM   39  C19 UNL     1      -7.730  -0.445  -6.116  1.00  0.00     0.002 C 
HETATM   40  C20 UNL     1      -6.876  -0.254  -7.360  1.00  0.00     0.005 C 
ENDBRANCH  37  39
ENDBRANCH  32  37
ENDBRANCH  30  32
ENDBRANCH  27  28
ENDBRANCH  26  27
ENDBRANCH  13  26
TORSDOF 9
ENDMDL
