MODEL 1
REMARK minimizedAffinity -9.25880241
REMARK CNNscore 0.457719564
REMARK CNNaffinity 7.36657
REMARK  12 active torsions:
REMARK  status: ('A' for Active; 'I' for Inactive)
REMARK    1  A    between atoms: C3_3  and  O1_4 
REMARK    2  A    between atoms: N1_14  and  O2_16 
REMARK    3  A    between atoms: O2_16  and  C13_17 
REMARK    4  A    between atoms: C13_17  and  C14_18 
REMARK       I    between atoms: C14_18  and  N2_20 
REMARK    5  A    between atoms: N2_20  and  C15_21 
REMARK    6  A    between atoms: C15_21  and  C16_22 
REMARK    7  A    between atoms: C15_21  and  C23_33 
REMARK       I    between atoms: C16_22  and  N3_24 
REMARK    8  A    between atoms: N3_24  and  C17_25 
REMARK    9  A    between atoms: C17_25  and  C18_26 
REMARK   10  A    between atoms: C17_25  and  C19_29 
REMARK   11  A    between atoms: C18_26  and  O6_28 
REMARK   12  A    between atoms: C19_29  and  C21_31 
ROOT
HETATM    1  C1  UNL     1      -3.335  53.180  -9.757  1.00  0.00     0.015 C 
HETATM    2  C2  UNL     1      -2.641  52.626 -10.567  1.00  0.00    -0.078 C 
HETATM    3  C3  UNL     1      -1.775  51.966 -11.566  1.00  0.00     0.128 C 
HETATM    4  C4  UNL     1      -0.623  51.198 -10.882  1.00  0.00     0.052 C 
HETATM    5  C5  UNL     1      -0.674  49.761 -11.401  1.00  0.00     0.010 C 
HETATM    6  C6  UNL     1      -1.430  49.823 -12.735  1.00  0.00     0.002 C 
HETATM    7  C7  UNL     1      -0.526  49.980 -13.995  1.00  0.00    -0.004 C 
HETATM    8  C8  UNL     1       0.706  50.895 -13.847  1.00  0.00     0.010 C 
HETATM    9  C9  UNL     1       1.571  50.919 -15.102  1.00  0.00     0.035 C 
HETATM   10  C10 UNL     1       0.770  51.256 -16.332  1.00  0.00    -0.069 C 
HETATM   11  C11 UNL     1       1.179  52.246 -17.144  1.00  0.00     0.030 C 
HETATM   12  C12 UNL     1       0.472  52.531 -18.417  1.00  0.00     0.032 C 
HETATM   13  N1  UNL     1       0.681  53.683 -18.982  1.00  0.00    -0.271 N 
ATOM     14  H1  UNL     1       1.274  54.412 -18.584  1.00  0.00     0.194 HD
HETATM   15  C26 UNL     1      -0.435  51.440 -18.942  1.00  0.00     0.060 C 
HETATM   16  C27 UNL     1      -1.307  50.965 -17.784  1.00  0.00     0.020 C 
HETATM   17  C28 UNL     1      -0.486  50.416 -16.574  1.00  0.00    -0.016 C 
HETATM   18  C29 UNL     1      -0.045  48.974 -16.952  1.00  0.00     0.020 C 
HETATM   19  C30 UNL     1      -1.366  50.356 -15.254  1.00  0.00     0.002 C 
HETATM   20  C31 UNL     1      -2.161  51.645 -14.944  1.00  0.00     0.007 C 
HETATM   21  C32 UNL     1      -3.115  51.471 -13.764  1.00  0.00     0.014 C 
HETATM   22  C33 UNL     1      -2.510  50.909 -12.465  1.00  0.00     0.003 C 
HETATM   23  C34 UNL     1      -3.683  50.238 -11.680  1.00  0.00     0.020 C 
ENDROOT
BRANCH   3  24
HETATM   24  O1  UNL     1      -1.210  53.003 -12.362  1.00  0.00    -0.377 OA
HETATM   25  H2  UNL     1      -0.849  53.671 -11.755  1.00  0.00     0.211 HD
ENDBRANCH   3  24
BRANCH  13  26
HETATM   26  O2  UNL     1       0.001  53.812 -20.202  1.00  0.00    -0.271 OA
BRANCH  26  27
HETATM   27  C13 UNL     1       0.958  53.866 -21.252  1.00  0.00     0.303 C 
BRANCH  27  28
HETATM   28  C14 UNL     1       0.943  52.616 -22.131  1.00  0.00     0.244 C 
HETATM   29  O3  UNL     1       1.462  51.547 -21.818  1.00  0.00    -0.271 OA
HETATM   30  N2  UNL     1       0.327  52.815 -23.359  1.00  0.00    -0.346 N 
HETATM   31  H16 UNL     1      -0.446  53.473 -23.351  1.00  0.00     0.163 HD
BRANCH  30  32
HETATM   32  C15 UNL     1       0.173  51.700 -24.297  1.00  0.00     0.180 C 
BRANCH  32  33
HETATM   33  C16 UNL     1      -1.218  51.066 -24.047  1.00  0.00     0.241 C 
HETATM   34  O4  UNL     1      -1.406  50.229 -23.166  1.00  0.00    -0.271 OA
HETATM   35  N3  UNL     1      -2.230  51.551 -24.851  1.00  0.00    -0.344 N 
HETATM   36  H18 UNL     1      -1.926  51.991 -25.715  1.00  0.00     0.163 HD
BRANCH  35  37
HETATM   37  C17 UNL     1      -3.507  50.827 -24.972  1.00  0.00     0.186 C 
BRANCH  37  38
HETATM   38  C18 UNL     1      -4.432  51.550 -23.989  1.00  0.00     0.163 C 
HETATM   39  O5  UNL     1      -4.092  52.028 -22.916  1.00  0.00    -0.648 OA
BRANCH  38  40
HETATM   40  O6  UNL     1      -5.722  51.595 -24.383  1.00  0.00    -0.775 OA
HETATM   41  H20 UNL     1      -6.168  52.119 -23.684  1.00  0.00     0.167 HD
ENDBRANCH  38  40
ENDBRANCH  37  38
BRANCH  37  42
HETATM   42  C19 UNL     1      -3.334  49.326 -24.627  1.00  0.00     0.014 C 
HETATM   43  C20 UNL     1      -4.502  48.773 -23.790  1.00  0.00     0.012 C 
BRANCH  42  44
HETATM   44  C21 UNL     1      -3.207  48.440 -25.888  1.00  0.00     0.002 C 
HETATM   45  C22 UNL     1      -3.486  49.156 -27.200  1.00  0.00     0.005 C 
ENDBRANCH  42  44
ENDBRANCH  37  42
ENDBRANCH  35  37
ENDBRANCH  32  33
BRANCH  32  46
HETATM   46  C23 UNL     1       0.395  52.191 -25.745  1.00  0.00     0.009 C 
HETATM   47  C24 UNL     1       0.191  53.701 -25.885  1.00  0.00     0.012 C 
HETATM   48  C25 UNL     1       1.748  51.781 -26.332  1.00  0.00     0.012 C 
ENDBRANCH  32  46
ENDBRANCH  30  32
ENDBRANCH  27  28
ENDBRANCH  26  27
ENDBRANCH  13  26
TORSDOF 12
ENDMDL
MODEL 2
REMARK minimizedAffinity -9.41932106
REMARK CNNscore 0.433647037
REMARK CNNaffinity 7.39372063
REMARK  12 active torsions:
REMARK  status: ('A' for Active; 'I' for Inactive)
REMARK    1  A    between atoms: C3_3  and  O1_4 
REMARK    2  A    between atoms: N1_14  and  O2_16 
REMARK    3  A    between atoms: O2_16  and  C13_17 
REMARK    4  A    between atoms: C13_17  and  C14_18 
REMARK       I    between atoms: C14_18  and  N2_20 
REMARK    5  A    between atoms: N2_20  and  C15_21 
REMARK    6  A    between atoms: C15_21  and  C16_22 
REMARK    7  A    between atoms: C15_21  and  C23_33 
REMARK       I    between atoms: C16_22  and  N3_24 
REMARK    8  A    between atoms: N3_24  and  C17_25 
REMARK    9  A    between atoms: C17_25  and  C18_26 
REMARK   10  A    between atoms: C17_25  and  C19_29 
REMARK   11  A    between atoms: C18_26  and  O6_28 
REMARK   12  A    between atoms: C19_29  and  C21_31 
ROOT
HETATM    1  C1  UNL     1      -0.441  54.916  -8.663  1.00  0.00     0.015 C 
HETATM    2  C2  UNL     1       0.039  54.181  -9.486  1.00  0.00    -0.078 C 
HETATM    3  C3  UNL     1       0.639  53.298 -10.507  1.00  0.00     0.128 C 
HETATM    4  C4  UNL     1       1.954  52.671  -9.995  1.00  0.00     0.052 C 
HETATM    5  C5  UNL     1       1.820  51.156 -10.157  1.00  0.00     0.010 C 
HETATM    6  C6  UNL     1       0.744  50.943 -11.230  1.00  0.00     0.002 C 
HETATM    7  C7  UNL     1       1.285  50.799 -12.684  1.00  0.00    -0.004 C 
HETATM    8  C8  UNL     1       2.482  51.694 -13.062  1.00  0.00     0.010 C 
HETATM    9  C9  UNL     1       2.992  51.422 -14.473  1.00  0.00     0.035 C 
HETATM   10  C10 UNL     1       1.891  51.500 -15.496  1.00  0.00    -0.069 C 
HETATM   11  C11 UNL     1       2.042  52.278 -16.582  1.00  0.00     0.030 C 
HETATM   12  C12 UNL     1       1.020  52.295 -17.658  1.00  0.00     0.032 C 
HETATM   13  N1  UNL     1       1.038  53.289 -18.495  1.00  0.00    -0.271 N 
ATOM     14  H1  UNL     1       1.688  54.073 -18.432  1.00  0.00     0.194 HD
HETATM   15  C26 UNL     1       0.047  51.137 -17.680  1.00  0.00     0.060 C 
HETATM   16  C27 UNL     1      -0.480  50.948 -16.260  1.00  0.00     0.020 C 
HETATM   17  C28 UNL     1       0.644  50.658 -15.215  1.00  0.00    -0.016 C 
HETATM   18  C29 UNL     1       1.021  49.158 -15.372  1.00  0.00     0.020 C 
HETATM   19  C30 UNL     1       0.137  50.910 -13.732  1.00  0.00     0.002 C 
HETATM   20  C31 UNL     1      -0.595  52.255 -13.515  1.00  0.00     0.007 C 
HETATM   21  C32 UNL     1      -1.205  52.366 -12.120  1.00  0.00     0.014 C 
HETATM   22  C33 UNL     1      -0.267  52.088 -10.931  1.00  0.00     0.003 C 
HETATM   23  C34 UNL     1      -1.173  51.633  -9.742  1.00  0.00     0.020 C 
ENDROOT
BRANCH   3  24
HETATM   24  O1  UNL     1       0.944  54.122 -11.628  1.00  0.00    -0.377 OA
HETATM   25  H2  UNL     1       1.426  54.897 -11.295  1.00  0.00     0.211 HD
ENDBRANCH   3  24
BRANCH  13  26
HETATM   26  O2  UNL     1       0.062  53.164 -19.495  1.00  0.00    -0.271 OA
BRANCH  26  27
HETATM   27  C13 UNL     1       0.654  53.478 -20.748  1.00  0.00     0.303 C 
BRANCH  27  28
HETATM   28  C14 UNL     1       0.432  52.388 -21.797  1.00  0.00     0.244 C 
HETATM   29  O3  UNL     1       0.280  51.198 -21.532  1.00  0.00    -0.271 OA
HETATM   30  N2  UNL     1       0.473  52.863 -23.101  1.00  0.00    -0.346 N 
HETATM   31  H16 UNL     1       0.120  53.806 -23.227  1.00  0.00     0.163 HD
BRANCH  30  32
HETATM   32  C15 UNL     1       0.217  51.958 -24.224  1.00  0.00     0.180 C 
BRANCH  32  33
HETATM   33  C16 UNL     1      -1.302  51.654 -24.246  1.00  0.00     0.241 C 
HETATM   34  O4  UNL     1      -2.145  52.543 -24.350  1.00  0.00    -0.271 OA
HETATM   35  N3  UNL     1      -1.625  50.312 -24.192  1.00  0.00    -0.344 N 
HETATM   36  H18 UNL     1      -0.904  49.706 -23.811  1.00  0.00     0.163 HD
BRANCH  35  37
HETATM   37  C17 UNL     1      -2.995  49.882 -23.866  1.00  0.00     0.186 C 
BRANCH  37  38
HETATM   38  C18 UNL     1      -2.931  49.558 -22.370  1.00  0.00     0.163 C 
HETATM   39  O5  UNL     1      -3.568  50.124 -21.494  1.00  0.00    -0.648 OA
BRANCH  38  40
HETATM   40  O6  UNL     1      -2.049  48.584 -22.060  1.00  0.00    -0.775 OA
HETATM   41  H20 UNL     1      -2.158  48.464 -21.091  1.00  0.00     0.167 HD
ENDBRANCH  38  40
ENDBRANCH  37  38
BRANCH  37  42
HETATM   42  C19 UNL     1      -3.417  48.658 -24.719  1.00  0.00     0.014 C 
HETATM   43  C20 UNL     1      -4.941  48.568 -24.912  1.00  0.00     0.012 C 
BRANCH  42  44
HETATM   44  C21 UNL     1      -2.771  48.665 -26.124  1.00  0.00     0.002 C 
HETATM   45  C22 UNL     1      -3.743  48.445 -27.272  1.00  0.00     0.005 C 
ENDBRANCH  42  44
ENDBRANCH  37  42
ENDBRANCH  35  37
ENDBRANCH  32  33
BRANCH  32  46
HETATM   46  C23 UNL     1       0.760  52.573 -25.534  1.00  0.00     0.009 C 
HETATM   47  C24 UNL     1       1.935  51.779 -26.107  1.00  0.00     0.012 C 
HETATM   48  C25 UNL     1      -0.313  52.782 -26.605  1.00  0.00     0.012 C 
ENDBRANCH  32  46
ENDBRANCH  30  32
ENDBRANCH  27  28
ENDBRANCH  26  27
ENDBRANCH  13  26
TORSDOF 12
ENDMDL
MODEL 3
REMARK minimizedAffinity -7.53603172
REMARK CNNscore 0.284671456
REMARK CNNaffinity 5.79329872
REMARK  12 active torsions:
REMARK  status: ('A' for Active; 'I' for Inactive)
REMARK    1  A    between atoms: C3_3  and  O1_4 
REMARK    2  A    between atoms: N1_14  and  O2_16 
REMARK    3  A    between atoms: O2_16  and  C13_17 
REMARK    4  A    between atoms: C13_17  and  C14_18 
REMARK       I    between atoms: C14_18  and  N2_20 
REMARK    5  A    between atoms: N2_20  and  C15_21 
REMARK    6  A    between atoms: C15_21  and  C16_22 
REMARK    7  A    between atoms: C15_21  and  C23_33 
REMARK       I    between atoms: C16_22  and  N3_24 
REMARK    8  A    between atoms: N3_24  and  C17_25 
REMARK    9  A    between atoms: C17_25  and  C18_26 
REMARK   10  A    between atoms: C17_25  and  C19_29 
REMARK   11  A    between atoms: C18_26  and  O6_28 
REMARK   12  A    between atoms: C19_29  and  C21_31 
ROOT
HETATM    1  C1  UNL     1      -9.211  44.774 -35.396  1.00  0.00     0.015 C 
HETATM    2  C2  UNL     1      -8.787  44.862 -34.275  1.00  0.00    -0.078 C 
HETATM    3  C3  UNL     1      -8.281  44.953 -32.889  1.00  0.00     0.128 C 
HETATM    4  C4  UNL     1      -7.089  43.998 -32.669  1.00  0.00     0.052 C 
HETATM    5  C5  UNL     1      -5.938  44.840 -32.117  1.00  0.00     0.010 C 
HETATM    6  C6  UNL     1      -6.588  46.087 -31.503  1.00  0.00     0.002 C 
HETATM    7  C7  UNL     1      -6.907  45.979 -29.981  1.00  0.00    -0.004 C 
HETATM    8  C8  UNL     1      -7.409  44.610 -29.480  1.00  0.00     0.010 C 
HETATM    9  C9  UNL     1      -7.613  44.579 -27.970  1.00  0.00     0.035 C 
HETATM   10  C10 UNL     1      -8.494  45.704 -27.497  1.00  0.00    -0.069 C 
HETATM   11  C11 UNL     1      -9.559  45.438 -26.721  1.00  0.00     0.030 C 
HETATM   12  C12 UNL     1     -10.384  46.532 -26.153  1.00  0.00     0.032 C 
HETATM   13  N1  UNL     1     -11.570  46.232 -25.711  1.00  0.00    -0.271 N 
ATOM     14  H1  UNL     1     -11.976  45.298 -25.765  1.00  0.00     0.194 HD
HETATM   15  C26 UNL     1      -9.758  47.910 -26.140  1.00  0.00     0.060 C 
HETATM   16  C27 UNL     1      -9.170  48.165 -27.525  1.00  0.00     0.020 C 
HETATM   17  C28 UNL     1      -8.095  47.112 -27.945  1.00  0.00    -0.016 C 
HETATM   18  C29 UNL     1      -6.780  47.504 -27.216  1.00  0.00     0.020 C 
HETATM   19  C30 UNL     1      -7.842  47.135 -29.512  1.00  0.00     0.002 C 
HETATM   20  C31 UNL     1      -9.123  47.109 -30.378  1.00  0.00     0.007 C 
HETATM   21  C32 UNL     1      -8.825  47.304 -31.863  1.00  0.00     0.014 C 
HETATM   22  C33 UNL     1      -7.762  46.377 -32.481  1.00  0.00     0.003 C 
HETATM   23  C34 UNL     1      -7.180  47.129 -33.722  1.00  0.00     0.020 C 
ENDROOT
BRANCH   3  24
HETATM   24  O1  UNL     1      -9.348  44.540 -32.040  1.00  0.00    -0.377 OA
HETATM   25  H2  UNL     1      -9.688  43.700 -32.391  1.00  0.00     0.211 HD
ENDBRANCH   3  24
BRANCH  13  26
HETATM   26  O2  UNL     1     -12.227  47.337 -25.150  1.00  0.00    -0.271 OA
BRANCH  26  27
HETATM   27  C13 UNL     1     -13.207  46.865 -24.235  1.00  0.00     0.303 C 
BRANCH  27  28
HETATM   28  C14 UNL     1     -13.800  45.517 -24.644  1.00  0.00     0.244 C 
HETATM   29  O3  UNL     1     -13.301  44.431 -24.358  1.00  0.00    -0.271 OA
HETATM   30  N2  UNL     1     -14.941  45.632 -25.425  1.00  0.00    -0.346 N 
HETATM   31  H16 UNL     1     -15.528  46.434 -25.214  1.00  0.00     0.163 HD
BRANCH  30  32
HETATM   32  C15 UNL     1     -15.669  44.434 -25.850  1.00  0.00     0.180 C 
BRANCH  32  33
HETATM   33  C16 UNL     1     -16.912  44.292 -24.937  1.00  0.00     0.241 C 
HETATM   34  O4  UNL     1     -17.441  43.204 -24.717  1.00  0.00    -0.271 OA
HETATM   35  N3  UNL     1     -17.340  45.468 -24.352  1.00  0.00    -0.344 N 
HETATM   36  H18 UNL     1     -17.042  46.319 -24.820  1.00  0.00     0.163 HD
BRANCH  35  37
HETATM   37  C17 UNL     1     -18.679  45.561 -23.746  1.00  0.00     0.186 C 
BRANCH  37  38
HETATM   38  C18 UNL     1     -19.434  46.518 -24.673  1.00  0.00     0.163 C 
HETATM   39  O5  UNL     1     -20.455  46.250 -25.290  1.00  0.00    -0.648 OA
BRANCH  38  40
HETATM   40  O6  UNL     1     -18.850  47.728 -24.803  1.00  0.00    -0.775 OA
HETATM   41  H20 UNL     1     -19.467  48.230 -25.379  1.00  0.00     0.167 HD
ENDBRANCH  38  40
ENDBRANCH  37  38
BRANCH  37  42
HETATM   42  C19 UNL     1     -18.599  46.088 -22.290  1.00  0.00     0.014 C 
HETATM   43  C20 UNL     1     -19.253  45.131 -21.277  1.00  0.00     0.012 C 
BRANCH  42  44
HETATM   44  C21 UNL     1     -17.143  46.329 -21.827  1.00  0.00     0.002 C 
HETATM   45  C22 UNL     1     -16.831  45.832 -20.425  1.00  0.00     0.005 C 
ENDBRANCH  42  44
ENDBRANCH  37  42
ENDBRANCH  35  37
ENDBRANCH  32  33
BRANCH  32  46
HETATM   46  C23 UNL     1     -15.995  44.519 -27.358  1.00  0.00     0.009 C 
HETATM   47  C24 UNL     1     -15.062  45.476 -28.102  1.00  0.00     0.012 C 
HETATM   48  C25 UNL     1     -16.030  43.159 -28.057  1.00  0.00     0.012 C 
ENDBRANCH  32  46
ENDBRANCH  30  32
ENDBRANCH  27  28
ENDBRANCH  26  27
ENDBRANCH  13  26
TORSDOF 12
ENDMDL
MODEL 4
REMARK minimizedAffinity -8.49774551
REMARK CNNscore 0.264946163
REMARK CNNaffinity 6.69022226
REMARK  12 active torsions:
REMARK  status: ('A' for Active; 'I' for Inactive)
REMARK    1  A    between atoms: C3_3  and  O1_4 
REMARK    2  A    between atoms: N1_14  and  O2_16 
REMARK    3  A    between atoms: O2_16  and  C13_17 
REMARK    4  A    between atoms: C13_17  and  C14_18 
REMARK       I    between atoms: C14_18  and  N2_20 
REMARK    5  A    between atoms: N2_20  and  C15_21 
REMARK    6  A    between atoms: C15_21  and  C16_22 
REMARK    7  A    between atoms: C15_21  and  C23_33 
REMARK       I    between atoms: C16_22  and  N3_24 
REMARK    8  A    between atoms: N3_24  and  C17_25 
REMARK    9  A    between atoms: C17_25  and  C18_26 
REMARK   10  A    between atoms: C17_25  and  C19_29 
REMARK   11  A    between atoms: C18_26  and  O6_28 
REMARK   12  A    between atoms: C19_29  and  C21_31 
ROOT
HETATM    1  C1  UNL     1      -7.651  49.582 -23.695  1.00  0.00     0.015 C 
HETATM    2  C2  UNL     1      -6.486  49.539 -23.396  1.00  0.00    -0.078 C 
HETATM    3  C3  UNL     1      -5.061  49.471 -23.011  1.00  0.00     0.128 C 
HETATM    4  C4  UNL     1      -4.304  48.432 -23.866  1.00  0.00     0.052 C 
HETATM    5  C5  UNL     1      -3.104  49.151 -24.483  1.00  0.00     0.010 C 
HETATM    6  C6  UNL     1      -2.840  50.370 -23.589  1.00  0.00     0.002 C 
HETATM    7  C7  UNL     1      -1.799  50.138 -22.454  1.00  0.00    -0.004 C 
HETATM    8  C8  UNL     1      -1.830  48.760 -21.764  1.00  0.00     0.010 C 
HETATM    9  C9  UNL     1      -0.724  48.599 -20.728  1.00  0.00     0.035 C 
HETATM   10  C10 UNL     1      -0.720  49.724 -19.728  1.00  0.00    -0.069 C 
HETATM   11  C11 UNL     1      -0.730  49.447 -18.412  1.00  0.00     0.030 C 
HETATM   12  C12 UNL     1      -0.620  50.530 -17.403  1.00  0.00     0.032 C 
HETATM   13  N1  UNL     1      -0.973  50.258 -16.181  1.00  0.00    -0.271 N 
ATOM     14  H1  UNL     1      -1.353  49.358 -15.887  1.00  0.00     0.194 HD
HETATM   15  C26 UNL     1      -0.100  51.861 -17.898  1.00  0.00     0.060 C 
HETATM   16  C27 UNL     1      -0.860  52.211 -19.174  1.00  0.00     0.020 C 
HETATM   17  C28 UNL     1      -0.702  51.142 -20.302  1.00  0.00    -0.016 C 
HETATM   18  C29 UNL     1       0.688  51.387 -20.955  1.00  0.00     0.020 C 
HETATM   19  C30 UNL     1      -1.827  51.297 -21.411  1.00  0.00     0.002 C 
HETATM   20  C31 UNL     1      -3.267  51.426 -20.863  1.00  0.00     0.007 C 
HETATM   21  C32 UNL     1      -4.281  51.742 -21.959  1.00  0.00     0.014 C 
HETATM   22  C33 UNL     1      -4.276  50.818 -23.191  1.00  0.00     0.003 C 
HETATM   23  C34 UNL     1      -4.868  51.648 -24.375  1.00  0.00     0.020 C 
ENDROOT
BRANCH   3  24
HETATM   24  O1  UNL     1      -5.028  49.042 -21.653  1.00  0.00    -0.377 OA
HETATM   25  H2  UNL     1      -5.601  48.259 -21.582  1.00  0.00     0.211 HD
ENDBRANCH   3  24
BRANCH  13  26
HETATM   26  O2  UNL     1      -0.773  51.342 -15.313  1.00  0.00    -0.271 OA
BRANCH  26  27
HETATM   27  C13 UNL     1      -0.134  50.868 -14.136  1.00  0.00     0.303 C 
BRANCH  27  28
HETATM   28  C14 UNL     1      -0.436  51.729 -12.910  1.00  0.00     0.244 C 
HETATM   29  O3  UNL     1       0.099  52.812 -12.680  1.00  0.00    -0.271 OA
HETATM   30  N2  UNL     1      -1.343  51.145 -12.037  1.00  0.00    -0.346 N 
HETATM   31  H16 UNL     1      -2.057  50.572 -12.477  1.00  0.00     0.163 HD
BRANCH  30  32
HETATM   32  C15 UNL     1      -1.789  51.868 -10.843  1.00  0.00     0.180 C 
BRANCH  32  33
HETATM   33  C16 UNL     1      -0.536  52.175  -9.986  1.00  0.00     0.241 C 
HETATM   34  O4  UNL     1       0.262  51.299  -9.656  1.00  0.00    -0.271 OA
HETATM   35  N3  UNL     1      -0.360  53.508  -9.671  1.00  0.00    -0.344 N 
HETATM   36  H18 UNL     1      -1.198  54.080  -9.723  1.00  0.00     0.163 HD
BRANCH  35  37
HETATM   37  C17 UNL     1       0.569  53.913  -8.603  1.00  0.00     0.186 C 
BRANCH  37  38
HETATM   38  C18 UNL     1      -0.164  55.055  -7.893  1.00  0.00     0.163 C 
HETATM   39  O5  UNL     1      -0.170  56.224  -8.251  1.00  0.00    -0.648 OA
BRANCH  38  40
HETATM   40  O6  UNL     1      -0.805  54.677  -6.767  1.00  0.00    -0.775 OA
HETATM   41  H20 UNL     1      -1.254  55.495  -6.462  1.00  0.00     0.167 HD
ENDBRANCH  38  40
ENDBRANCH  37  38
BRANCH  37  42
HETATM   42  C19 UNL     1       1.934  54.359  -9.188  1.00  0.00     0.014 C 
HETATM   43  C20 UNL     1       1.784  55.185 -10.478  1.00  0.00     0.012 C 
BRANCH  42  44
HETATM   44  C21 UNL     1       2.756  55.206  -8.189  1.00  0.00     0.002 C 
HETATM   45  C22 UNL     1       3.254  56.533  -8.739  1.00  0.00     0.005 C 
ENDBRANCH  42  44
ENDBRANCH  37  42
ENDBRANCH  35  37
ENDBRANCH  32  33
BRANCH  32  46
HETATM   46  C23 UNL     1      -2.600  53.117 -11.252  1.00  0.00     0.009 C 
HETATM   47  C24 UNL     1      -4.108  52.864 -11.234  1.00  0.00     0.012 C 
HETATM   48  C25 UNL     1      -2.262  54.365 -10.433  1.00  0.00     0.012 C 
ENDBRANCH  32  46
ENDBRANCH  30  32
ENDBRANCH  27  28
ENDBRANCH  26  27
ENDBRANCH  13  26
TORSDOF 12
ENDMDL
MODEL 5
REMARK minimizedAffinity -7.45650291
REMARK CNNscore 0.264310658
REMARK CNNaffinity 6.86731911
REMARK  12 active torsions:
REMARK  status: ('A' for Active; 'I' for Inactive)
REMARK    1  A    between atoms: C3_3  and  O1_4 
REMARK    2  A    between atoms: N1_14  and  O2_16 
REMARK    3  A    between atoms: O2_16  and  C13_17 
REMARK    4  A    between atoms: C13_17  and  C14_18 
REMARK       I    between atoms: C14_18  and  N2_20 
REMARK    5  A    between atoms: N2_20  and  C15_21 
REMARK    6  A    between atoms: C15_21  and  C16_22 
REMARK    7  A    between atoms: C15_21  and  C23_33 
REMARK       I    between atoms: C16_22  and  N3_24 
REMARK    8  A    between atoms: N3_24  and  C17_25 
REMARK    9  A    between atoms: C17_25  and  C18_26 
REMARK   10  A    between atoms: C17_25  and  C19_29 
REMARK   11  A    between atoms: C18_26  and  O6_28 
REMARK   12  A    between atoms: C19_29  and  C21_31 
ROOT
HETATM    1  C1  UNL     1      -0.251  55.442 -27.304  1.00  0.00     0.015 C 
HETATM    2  C2  UNL     1      -0.488  54.313 -26.966  1.00  0.00    -0.078 C 
HETATM    3  C3  UNL     1      -0.794  52.922 -26.571  1.00  0.00     0.128 C 
HETATM    4  C4  UNL     1       0.236  51.936 -27.162  1.00  0.00     0.052 C 
HETATM    5  C5  UNL     1       0.796  51.121 -25.996  1.00  0.00     0.010 C 
HETATM    6  C6  UNL     1      -0.253  51.212 -24.879  1.00  0.00     0.002 C 
HETATM    7  C7  UNL     1      -1.295  50.054 -24.862  1.00  0.00    -0.004 C 
HETATM    8  C8  UNL     1      -1.778  49.543 -26.234  1.00  0.00     0.010 C 
HETATM    9  C9  UNL     1      -2.728  48.357 -26.116  1.00  0.00     0.035 C 
HETATM   10  C10 UNL     1      -3.881  48.649 -25.191  1.00  0.00    -0.069 C 
HETATM   11  C11 UNL     1      -5.141  48.440 -25.609  1.00  0.00     0.030 C 
HETATM   12  C12 UNL     1      -6.291  48.617 -24.689  1.00  0.00     0.032 C 
HETATM   13  N1  UNL     1      -7.475  48.739 -25.213  1.00  0.00    -0.271 N 
ATOM     14  H1  UNL     1      -7.652  48.755 -26.217  1.00  0.00     0.194 HD
HETATM   15  C26 UNL     1      -5.972  48.636 -23.210  1.00  0.00     0.060 C 
HETATM   16  C27 UNL     1      -4.796  49.586 -23.002  1.00  0.00     0.020 C 
HETATM   17  C28 UNL     1      -3.518  49.175 -23.801  1.00  0.00    -0.016 C 
HETATM   18  C29 UNL     1      -2.846  48.023 -23.002  1.00  0.00     0.020 C 
HETATM   19  C30 UNL     1      -2.495  50.382 -23.923  1.00  0.00     0.002 C 
HETATM   20  C31 UNL     1      -3.121  51.720 -24.380  1.00  0.00     0.007 C 
HETATM   21  C32 UNL     1      -2.129  52.879 -24.314  1.00  0.00     0.014 C 
HETATM   22  C33 UNL     1      -0.777  52.670 -25.021  1.00  0.00     0.003 C 
HETATM   23  C34 UNL     1       0.247  53.620 -24.319  1.00  0.00     0.020 C 
ENDROOT
BRANCH   3  24
HETATM   24  O1  UNL     1      -2.072  52.617 -27.120  1.00  0.00    -0.377 OA
HETATM   25  H2  UNL     1      -2.054  52.875 -28.057  1.00  0.00     0.211 HD
ENDBRANCH   3  24
BRANCH  13  26
HETATM   26  O2  UNL     1      -8.481  48.845 -24.242  1.00  0.00    -0.271 OA
BRANCH  26  27
HETATM   27  C13 UNL     1      -9.186  47.612 -24.182  1.00  0.00     0.303 C 
BRANCH  27  28
HETATM   28  C14 UNL     1      -9.366  46.966 -25.555  1.00  0.00     0.244 C 
HETATM   29  O3  UNL     1      -8.447  46.492 -26.219  1.00  0.00    -0.271 OA
HETATM   30  N2  UNL     1     -10.675  47.009 -26.016  1.00  0.00    -0.346 N 
HETATM   31  H16 UNL     1     -11.388  46.944 -25.295  1.00  0.00     0.163 HD
BRANCH  30  32
HETATM   32  C15 UNL     1     -11.031  46.377 -27.288  1.00  0.00     0.180 C 
BRANCH  32  33
HETATM   33  C16 UNL     1     -11.965  45.183 -26.975  1.00  0.00     0.241 C 
HETATM   34  O4  UNL     1     -12.097  44.235 -27.747  1.00  0.00    -0.271 OA
HETATM   35  N3  UNL     1     -12.591  45.243 -25.744  1.00  0.00    -0.344 N 
HETATM   36  H18 UNL     1     -12.656  46.171 -25.336  1.00  0.00     0.163 HD
BRANCH  35  37
HETATM   37  C17 UNL     1     -13.746  44.380 -25.446  1.00  0.00     0.186 C 
BRANCH  37  38
HETATM   38  C18 UNL     1     -13.122  42.999 -25.222  1.00  0.00     0.163 C 
HETATM   39  O5  UNL     1     -12.117  42.576 -25.775  1.00  0.00    -0.648 OA
BRANCH  38  40
HETATM   40  O6  UNL     1     -13.810  42.222 -24.358  1.00  0.00    -0.775 OA
HETATM   41  H20 UNL     1     -13.268  41.406 -24.288  1.00  0.00     0.167 HD
ENDBRANCH  38  40
ENDBRANCH  37  38
BRANCH  37  42
HETATM   42  C19 UNL     1     -14.766  44.385 -26.613  1.00  0.00     0.014 C 
HETATM   43  C20 UNL     1     -14.803  45.731 -27.360  1.00  0.00     0.012 C 
BRANCH  42  44
HETATM   44  C21 UNL     1     -14.475  43.283 -27.658  1.00  0.00     0.002 C 
HETATM   45  C22 UNL     1     -15.707  42.723 -28.352  1.00  0.00     0.005 C 
ENDBRANCH  42  44
ENDBRANCH  37  42
ENDBRANCH  35  37
ENDBRANCH  32  33
BRANCH  32  46
HETATM   46  C23 UNL     1     -11.640  47.425 -28.248  1.00  0.00     0.009 C 
HETATM   47  C24 UNL     1     -12.245  46.786 -29.499  1.00  0.00     0.012 C 
HETATM   48  C25 UNL     1     -12.657  48.352 -27.579  1.00  0.00     0.012 C 
ENDBRANCH  32  46
ENDBRANCH  30  32
ENDBRANCH  27  28
ENDBRANCH  26  27
ENDBRANCH  13  26
TORSDOF 12
ENDMDL
MODEL 6
REMARK minimizedAffinity -8.28288937
REMARK CNNscore 0.214217871
REMARK CNNaffinity 7.09301329
REMARK  12 active torsions:
REMARK  status: ('A' for Active; 'I' for Inactive)
REMARK    1  A    between atoms: C3_3  and  O1_4 
REMARK    2  A    between atoms: N1_14  and  O2_16 
REMARK    3  A    between atoms: O2_16  and  C13_17 
REMARK    4  A    between atoms: C13_17  and  C14_18 
REMARK       I    between atoms: C14_18  and  N2_20 
REMARK    5  A    between atoms: N2_20  and  C15_21 
REMARK    6  A    between atoms: C15_21  and  C16_22 
REMARK    7  A    between atoms: C15_21  and  C23_33 
REMARK       I    between atoms: C16_22  and  N3_24 
REMARK    8  A    between atoms: N3_24  and  C17_25 
REMARK    9  A    between atoms: C17_25  and  C18_26 
REMARK   10  A    between atoms: C17_25  and  C19_29 
REMARK   11  A    between atoms: C18_26  and  O6_28 
REMARK   12  A    between atoms: C19_29  and  C21_31 
ROOT
HETATM    1  C1  UNL     1      -0.168  55.478 -27.392  1.00  0.00     0.015 C 
HETATM    2  C2  UNL     1      -0.416  54.351 -27.053  1.00  0.00    -0.078 C 
HETATM    3  C3  UNL     1      -0.738  52.965 -26.654  1.00  0.00     0.128 C 
HETATM    4  C4  UNL     1       0.202  51.955 -27.348  1.00  0.00     0.052 C 
HETATM    5  C5  UNL     1       0.829  51.099 -26.247  1.00  0.00     0.010 C 
HETATM    6  C6  UNL     1      -0.116  51.206 -25.043  1.00  0.00     0.002 C 
HETATM    7  C7  UNL     1      -1.194  50.084 -24.953  1.00  0.00    -0.004 C 
HETATM    8  C8  UNL     1      -1.811  49.616 -26.286  1.00  0.00     0.010 C 
HETATM    9  C9  UNL     1      -2.790  48.463 -26.105  1.00  0.00     0.035 C 
HETATM   10  C10 UNL     1      -3.848  48.777 -25.080  1.00  0.00    -0.069 C 
HETATM   11  C11 UNL     1      -5.146  48.620 -25.391  1.00  0.00     0.030 C 
HETATM   12  C12 UNL     1      -6.205  48.820 -24.371  1.00  0.00     0.032 C 
HETATM   13  N1  UNL     1      -7.425  48.993 -24.789  1.00  0.00    -0.271 N 
ATOM     14  H1  UNL     1      -7.687  49.034 -25.774  1.00  0.00     0.194 HD
HETATM   15  C26 UNL     1      -5.760  48.800 -22.925  1.00  0.00     0.060 C 
HETATM   16  C27 UNL     1      -4.537  49.705 -22.805  1.00  0.00     0.020 C 
HETATM   17  C28 UNL     1      -3.348  49.264 -23.718  1.00  0.00    -0.016 C 
HETATM   18  C29 UNL     1      -2.652  48.074 -22.998  1.00  0.00     0.020 C 
HETATM   19  C30 UNL     1      -2.296  50.437 -23.909  1.00  0.00     0.002 C 
HETATM   20  C31 UNL     1      -2.910  51.804 -24.289  1.00  0.00     0.007 C 
HETATM   21  C32 UNL     1      -1.874  52.926 -24.292  1.00  0.00     0.014 C 
HETATM   22  C33 UNL     1      -0.596  52.684 -25.116  1.00  0.00     0.003 C 
HETATM   23  C34 UNL     1       0.518  53.584 -24.490  1.00  0.00     0.020 C 
ENDROOT
BRANCH   3  24
HETATM   24  O1  UNL     1      -2.069  52.714 -27.095  1.00  0.00    -0.377 OA
HETATM   25  H2  UNL     1      -2.121  52.989 -28.026  1.00  0.00     0.211 HD
ENDBRANCH   3  24
BRANCH  13  26
HETATM   26  O2  UNL     1      -8.340  49.116 -23.733  1.00  0.00    -0.271 OA
BRANCH  26  27
HETATM   27  C13 UNL     1      -8.639  47.818 -23.238  1.00  0.00     0.303 C 
BRANCH  27  28
HETATM   28  C14 UNL     1      -9.512  47.006 -24.194  1.00  0.00     0.244 C 
HETATM   29  O3  UNL     1     -10.637  47.343 -24.554  1.00  0.00    -0.271 OA
HETATM   30  N2  UNL     1      -8.932  45.806 -24.584  1.00  0.00    -0.346 N 
HETATM   31  H16 UNL     1      -7.920  45.824 -24.668  1.00  0.00     0.163 HD
BRANCH  30  32
HETATM   32  C15 UNL     1      -9.611  44.937 -25.548  1.00  0.00     0.180 C 
BRANCH  32  33
HETATM   33  C16 UNL     1      -9.000  45.217 -26.944  1.00  0.00     0.241 C 
HETATM   34  O4  UNL     1      -8.059  44.561 -27.389  1.00  0.00    -0.271 OA
HETATM   35  N3  UNL     1      -9.626  46.217 -27.662  1.00  0.00    -0.344 N 
HETATM   36  H18 UNL     1     -10.167  46.875 -27.108  1.00  0.00     0.163 HD
BRANCH  35  37
HETATM   37  C17 UNL     1      -8.972  46.823 -28.833  1.00  0.00     0.186 C 
BRANCH  37  38
HETATM   38  C18 UNL     1      -8.598  48.230 -28.356  1.00  0.00     0.163 C 
HETATM   39  O5  UNL     1      -9.012  48.767 -27.339  1.00  0.00    -0.648 OA
BRANCH  38  40
HETATM   40  O6  UNL     1      -7.769  48.889 -29.193  1.00  0.00    -0.775 OA
HETATM   41  H20 UNL     1      -7.591  49.738 -28.734  1.00  0.00     0.167 HD
ENDBRANCH  38  40
ENDBRANCH  37  38
BRANCH  37  42
HETATM   42  C19 UNL     1      -9.924  46.847 -30.057  1.00  0.00     0.014 C 
HETATM   43  C20 UNL     1     -10.634  45.500 -30.281  1.00  0.00     0.012 C 
BRANCH  42  44
HETATM   44  C21 UNL     1     -11.019  47.933 -29.933  1.00  0.00     0.002 C 
HETATM   45  C22 UNL     1     -12.392  47.410 -29.543  1.00  0.00     0.005 C 
ENDBRANCH  42  44
ENDBRANCH  37  42
ENDBRANCH  35  37
ENDBRANCH  32  33
BRANCH  32  46
HETATM   46  C23 UNL     1      -9.511  43.463 -25.095  1.00  0.00     0.009 C 
HETATM   47  C24 UNL     1      -8.976  43.328 -23.668  1.00  0.00     0.012 C 
HETATM   48  C25 UNL     1     -10.818  42.683 -25.248  1.00  0.00     0.012 C 
ENDBRANCH  32  46
ENDBRANCH  30  32
ENDBRANCH  27  28
ENDBRANCH  26  27
ENDBRANCH  13  26
TORSDOF 12
ENDMDL
MODEL 7
REMARK minimizedAffinity -8.85862446
REMARK CNNscore 0.209732145
REMARK CNNaffinity 6.60372305
REMARK  12 active torsions:
REMARK  status: ('A' for Active; 'I' for Inactive)
REMARK    1  A    between atoms: C3_3  and  O1_4 
REMARK    2  A    between atoms: N1_14  and  O2_16 
REMARK    3  A    between atoms: O2_16  and  C13_17 
REMARK    4  A    between atoms: C13_17  and  C14_18 
REMARK       I    between atoms: C14_18  and  N2_20 
REMARK    5  A    between atoms: N2_20  and  C15_21 
REMARK    6  A    between atoms: C15_21  and  C16_22 
REMARK    7  A    between atoms: C15_21  and  C23_33 
REMARK       I    between atoms: C16_22  and  N3_24 
REMARK    8  A    between atoms: N3_24  and  C17_25 
REMARK    9  A    between atoms: C17_25  and  C18_26 
REMARK   10  A    between atoms: C17_25  and  C19_29 
REMARK   11  A    between atoms: C18_26  and  O6_28 
REMARK   12  A    between atoms: C19_29  and  C21_31 
ROOT
HETATM    1  C1  UNL     1      -7.655  49.563 -23.277  1.00  0.00     0.015 C 
HETATM    2  C2  UNL     1      -6.472  49.535 -23.065  1.00  0.00    -0.078 C 
HETATM    3  C3  UNL     1      -5.022  49.487 -22.786  1.00  0.00     0.128 C 
HETATM    4  C4  UNL     1      -4.325  48.416 -23.652  1.00  0.00     0.052 C 
HETATM    5  C5  UNL     1      -3.179  49.112 -24.387  1.00  0.00     0.010 C 
HETATM    6  C6  UNL     1      -2.855  50.367 -23.566  1.00  0.00     0.002 C 
HETATM    7  C7  UNL     1      -1.730  50.185 -22.503  1.00  0.00    -0.004 C 
HETATM    8  C8  UNL     1      -1.702  48.836 -21.758  1.00  0.00     0.010 C 
HETATM    9  C9  UNL     1      -0.520  48.720 -20.802  1.00  0.00     0.035 C 
HETATM   10  C10 UNL     1      -0.448  49.885 -19.852  1.00  0.00    -0.069 C 
HETATM   11  C11 UNL     1      -0.357  49.663 -18.529  1.00  0.00     0.030 C 
HETATM   12  C12 UNL     1      -0.178  50.786 -17.576  1.00  0.00     0.032 C 
HETATM   13  N1  UNL     1      -0.437  50.563 -16.321  1.00  0.00    -0.271 N 
ATOM     14  H1  UNL     1      -0.788  49.675 -15.962  1.00  0.00     0.194 HD
HETATM   15  C26 UNL     1       0.296  52.097 -18.162  1.00  0.00     0.060 C 
HETATM   16  C27 UNL     1      -0.560  52.392 -19.391  1.00  0.00     0.020 C 
HETATM   17  C28 UNL     1      -0.480  51.279 -20.483  1.00  0.00    -0.016 C 
HETATM   18  C29 UNL     1       0.855  51.501 -21.248  1.00  0.00     0.020 C 
HETATM   19  C30 UNL     1      -1.686  51.385 -21.510  1.00  0.00     0.002 C 
HETATM   20  C31 UNL     1      -3.082  51.533 -20.860  1.00  0.00     0.007 C 
HETATM   21  C32 UNL     1      -4.177  51.801 -21.889  1.00  0.00     0.014 C 
HETATM   22  C33 UNL     1      -4.260  50.827 -23.079  1.00  0.00     0.003 C 
HETATM   23  C34 UNL     1      -4.944  51.607 -24.248  1.00  0.00     0.020 C 
ENDROOT
BRANCH   3  24
HETATM   24  O1  UNL     1      -4.884  49.114 -21.418  1.00  0.00    -0.377 OA
HETATM   25  H2  UNL     1      -5.445  48.333 -21.273  1.00  0.00     0.211 HD
ENDBRANCH   3  24
BRANCH  13  26
HETATM   26  O2  UNL     1      -0.178  51.682 -15.515  1.00  0.00    -0.271 OA
BRANCH  26  27
HETATM   27  C13 UNL     1      -0.571  51.381 -14.182  1.00  0.00     0.303 C 
BRANCH  27  28
HETATM   28  C14 UNL     1       0.618  51.103 -13.263  1.00  0.00     0.244 C 
HETATM   29  O3  UNL     1       0.629  50.233 -12.395  1.00  0.00    -0.271 OA
HETATM   30  N2  UNL     1       1.683  51.971 -13.463  1.00  0.00    -0.346 N 
HETATM   31  H16 UNL     1       1.809  52.285 -14.421  1.00  0.00     0.163 HD
BRANCH  30  32
HETATM   32  C15 UNL     1       2.926  51.801 -12.706  1.00  0.00     0.180 C 
BRANCH  32  33
HETATM   33  C16 UNL     1       2.736  52.492 -11.333  1.00  0.00     0.241 C 
HETATM   34  O4  UNL     1       3.281  52.077 -10.311  1.00  0.00    -0.271 OA
HETATM   35  N3  UNL     1       1.957  53.632 -11.359  1.00  0.00    -0.344 N 
HETATM   36  H18 UNL     1       1.330  53.711 -12.154  1.00  0.00     0.163 HD
BRANCH  35  37
HETATM   37  C17 UNL     1       1.412  54.199 -10.114  1.00  0.00     0.186 C 
BRANCH  37  38
HETATM   38  C18 UNL     1      -0.062  54.456 -10.444  1.00  0.00     0.163 C 
HETATM   39  O5  UNL     1      -0.701  53.891 -11.320  1.00  0.00    -0.648 OA
BRANCH  38  40
HETATM   40  O6  UNL     1      -0.629  55.424  -9.695  1.00  0.00    -0.775 OA
HETATM   41  H20 UNL     1      -1.565  55.436  -9.989  1.00  0.00     0.167 HD
ENDBRANCH  38  40
ENDBRANCH  37  38
BRANCH  37  42
HETATM   42  C19 UNL     1       2.162  55.494  -9.712  1.00  0.00     0.014 C 
HETATM   43  C20 UNL     1       3.101  55.285  -8.510  1.00  0.00     0.012 C 
BRANCH  42  44
HETATM   44  C21 UNL     1       3.012  56.069 -10.869  1.00  0.00     0.002 C 
HETATM   45  C22 UNL     1       4.498  55.759 -10.783  1.00  0.00     0.005 C 
ENDBRANCH  42  44
ENDBRANCH  37  42
ENDBRANCH  35  37
ENDBRANCH  32  33
BRANCH  32  46
HETATM   46  C23 UNL     1       3.291  50.302 -12.617  1.00  0.00     0.009 C 
HETATM   47  C24 UNL     1       4.022  49.807 -13.867  1.00  0.00     0.012 C 
HETATM   48  C25 UNL     1       4.081  49.936 -11.360  1.00  0.00     0.012 C 
ENDBRANCH  32  46
ENDBRANCH  30  32
ENDBRANCH  27  28
ENDBRANCH  26  27
ENDBRANCH  13  26
TORSDOF 12
ENDMDL
MODEL 8
REMARK minimizedAffinity -7.85400105
REMARK CNNscore 0.185381502
REMARK CNNaffinity 5.0512042
REMARK  12 active torsions:
REMARK  status: ('A' for Active; 'I' for Inactive)
REMARK    1  A    between atoms: C3_3  and  O1_4 
REMARK    2  A    between atoms: N1_14  and  O2_16 
REMARK    3  A    between atoms: O2_16  and  C13_17 
REMARK    4  A    between atoms: C13_17  and  C14_18 
REMARK       I    between atoms: C14_18  and  N2_20 
REMARK    5  A    between atoms: N2_20  and  C15_21 
REMARK    6  A    between atoms: C15_21  and  C16_22 
REMARK    7  A    between atoms: C15_21  and  C23_33 
REMARK       I    between atoms: C16_22  and  N3_24 
REMARK    8  A    between atoms: N3_24  and  C17_25 
REMARK    9  A    between atoms: C17_25  and  C18_26 
REMARK   10  A    between atoms: C17_25  and  C19_29 
REMARK   11  A    between atoms: C18_26  and  O6_28 
REMARK   12  A    between atoms: C19_29  and  C21_31 
ROOT
HETATM    1  C1  UNL     1     -18.808  46.178 -20.731  1.00  0.00     0.015 C 
HETATM    2  C2  UNL     1     -18.155  45.797 -21.666  1.00  0.00    -0.078 C 
HETATM    3  C3  UNL     1     -17.333  45.324 -22.799  1.00  0.00     0.128 C 
HETATM    4  C4  UNL     1     -17.576  43.824 -23.074  1.00  0.00     0.052 C 
HETATM    5  C5  UNL     1     -17.954  43.696 -24.550  1.00  0.00     0.010 C 
HETATM    6  C6  UNL     1     -17.401  44.953 -25.235  1.00  0.00     0.002 C 
HETATM    7  C7  UNL     1     -15.976  44.795 -25.846  1.00  0.00    -0.004 C 
HETATM    8  C8  UNL     1     -14.976  43.939 -25.042  1.00  0.00     0.010 C 
HETATM    9  C9  UNL     1     -13.640  43.775 -25.757  1.00  0.00     0.035 C 
HETATM   10  C10 UNL     1     -13.048  45.100 -26.157  1.00  0.00    -0.069 C 
HETATM   11  C11 UNL     1     -11.782  45.395 -25.814  1.00  0.00     0.030 C 
HETATM   12  C12 UNL     1     -11.135  46.646 -26.283  1.00  0.00     0.032 C 
HETATM   13  N1  UNL     1     -10.065  47.045 -25.661  1.00  0.00    -0.271 N 
ATOM     14  H1  UNL     1      -9.668  46.569 -24.851  1.00  0.00     0.194 HD
HETATM   15  C26 UNL     1     -11.790  47.344 -27.454  1.00  0.00     0.060 C 
HETATM   16  C27 UNL     1     -13.286  47.432 -27.164  1.00  0.00     0.020 C 
HETATM   17  C28 UNL     1     -13.959  46.038 -26.952  1.00  0.00    -0.016 C 
HETATM   18  C29 UNL     1     -14.176  45.429 -28.365  1.00  0.00     0.020 C 
HETATM   19  C30 UNL     1     -15.365  46.177 -26.228  1.00  0.00     0.002 C 
HETATM   20  C31 UNL     1     -15.362  47.075 -24.969  1.00  0.00     0.007 C 
HETATM   21  C32 UNL     1     -16.767  47.307 -24.418  1.00  0.00     0.014 C 
HETATM   22  C33 UNL     1     -17.623  46.053 -24.159  1.00  0.00     0.003 C 
HETATM   23  C34 UNL     1     -19.116  46.508 -24.234  1.00  0.00     0.020 C 
ENDROOT
BRANCH   3  24
HETATM   24  O1  UNL     1     -15.972  45.493 -22.413  1.00  0.00    -0.377 OA
HETATM   25  H2  UNL     1     -15.872  45.102 -21.528  1.00  0.00     0.211 HD
ENDBRANCH   3  24
BRANCH  13  26
HETATM   26  O2  UNL     1      -9.518  48.205 -26.229  1.00  0.00    -0.271 OA
BRANCH  26  27
HETATM   27  C13 UNL     1      -8.704  48.846 -25.256  1.00  0.00     0.303 C 
BRANCH  27  28
HETATM   28  C14 UNL     1      -7.389  48.109 -25.005  1.00  0.00     0.244 C 
HETATM   29  O3  UNL     1      -7.202  46.924 -25.273  1.00  0.00    -0.271 OA
HETATM   30  N2  UNL     1      -6.426  48.896 -24.389  1.00  0.00    -0.346 N 
HETATM   31  H16 UNL     1      -6.449  49.880 -24.639  1.00  0.00     0.163 HD
BRANCH  30  32
HETATM   32  C15 UNL     1      -5.087  48.360 -24.133  1.00  0.00     0.180 C 
BRANCH  32  33
HETATM   33  C16 UNL     1      -4.089  49.150 -25.015  1.00  0.00     0.241 C 
HETATM   34  O4  UNL     1      -3.073  48.634 -25.476  1.00  0.00    -0.271 OA
HETATM   35  N3  UNL     1      -4.457  50.454 -25.282  1.00  0.00    -0.344 N 
HETATM   36  H18 UNL     1      -5.123  50.859 -24.630  1.00  0.00     0.163 HD
BRANCH  35  37
HETATM   37  C17 UNL     1      -3.477  51.420 -25.806  1.00  0.00     0.186 C 
BRANCH  37  38
HETATM   38  C18 UNL     1      -2.925  50.737 -27.061  1.00  0.00     0.163 C 
HETATM   39  O5  UNL     1      -1.741  50.567 -27.313  1.00  0.00    -0.648 OA
BRANCH  38  40
HETATM   40  O6  UNL     1      -3.877  50.348 -27.935  1.00  0.00    -0.775 OA
HETATM   41  H20 UNL     1      -3.376  49.896 -28.648  1.00  0.00     0.167 HD
ENDBRANCH  38  40
ENDBRANCH  37  38
BRANCH  37  42
HETATM   42  C19 UNL     1      -2.371  51.719 -24.760  1.00  0.00     0.014 C 
HETATM   43  C20 UNL     1      -1.178  52.482 -25.363  1.00  0.00     0.012 C 
BRANCH  42  44
HETATM   44  C21 UNL     1      -2.896  52.547 -23.565  1.00  0.00     0.002 C 
HETATM   45  C22 UNL     1      -4.269  52.136 -23.059  1.00  0.00     0.005 C 
ENDBRANCH  42  44
ENDBRANCH  37  42
ENDBRANCH  35  37
ENDBRANCH  32  33
BRANCH  32  46
HETATM   46  C23 UNL     1      -4.776  48.410 -22.620  1.00  0.00     0.009 C 
HETATM   47  C24 UNL     1      -5.882  47.772 -21.778  1.00  0.00     0.012 C 
HETATM   48  C25 UNL     1      -3.416  47.813 -22.253  1.00  0.00     0.012 C 
ENDBRANCH  32  46
ENDBRANCH  30  32
ENDBRANCH  27  28
ENDBRANCH  26  27
ENDBRANCH  13  26
TORSDOF 12
ENDMDL
MODEL 9
REMARK minimizedAffinity -8.64674854
REMARK CNNscore 0.174945205
REMARK CNNaffinity 6.38577509
REMARK  12 active torsions:
REMARK  status: ('A' for Active; 'I' for Inactive)
REMARK    1  A    between atoms: C3_3  and  O1_4 
REMARK    2  A    between atoms: N1_14  and  O2_16 
REMARK    3  A    between atoms: O2_16  and  C13_17 
REMARK    4  A    between atoms: C13_17  and  C14_18 
REMARK       I    between atoms: C14_18  and  N2_20 
REMARK    5  A    between atoms: N2_20  and  C15_21 
REMARK    6  A    between atoms: C15_21  and  C16_22 
REMARK    7  A    between atoms: C15_21  and  C23_33 
REMARK       I    between atoms: C16_22  and  N3_24 
REMARK    8  A    between atoms: N3_24  and  C17_25 
REMARK    9  A    between atoms: C17_25  and  C18_26 
REMARK   10  A    between atoms: C17_25  and  C19_29 
REMARK   11  A    between atoms: C18_26  and  O6_28 
REMARK   12  A    between atoms: C19_29  and  C21_31 
ROOT
HETATM    1  C1  UNL     1      -8.079  41.353 -35.431  1.00  0.00     0.015 C 
HETATM    2  C2  UNL     1      -8.324  42.407 -34.907  1.00  0.00    -0.078 C 
HETATM    3  C3  UNL     1      -8.601  43.711 -34.269  1.00  0.00     0.128 C 
HETATM    4  C4  UNL     1      -9.276  44.683 -35.260  1.00  0.00     0.052 C 
HETATM    5  C5  UNL     1     -10.563  45.176 -34.597  1.00  0.00     0.010 C 
HETATM    6  C6  UNL     1     -10.363  44.968 -33.089  1.00  0.00     0.002 C 
HETATM    7  C7  UNL     1      -9.794  46.202 -32.326  1.00  0.00    -0.004 C 
HETATM    8  C8  UNL     1      -8.725  47.033 -33.065  1.00  0.00     0.010 C 
HETATM    9  C9  UNL     1      -8.292  48.262 -32.275  1.00  0.00     0.035 C 
HETATM   10  C10 UNL     1      -7.858  47.910 -30.877  1.00  0.00    -0.069 C 
HETATM   11  C11 UNL     1      -6.666  48.333 -30.422  1.00  0.00     0.030 C 
HETATM   12  C12 UNL     1      -6.256  48.093 -29.016  1.00  0.00     0.032 C 
HETATM   13  N1  UNL     1      -4.994  48.208 -28.724  1.00  0.00    -0.271 N 
ATOM     14  H1  UNL     1      -4.269  48.418 -29.411  1.00  0.00     0.194 HD
HETATM   15  C26 UNL     1      -7.359  47.735 -28.045  1.00  0.00     0.060 C 
HETATM   16  C27 UNL     1      -8.209  46.644 -28.690  1.00  0.00     0.020 C 
HETATM   17  C28 UNL     1      -8.839  47.074 -30.053  1.00  0.00    -0.016 C 
HETATM   18  C29 UNL     1     -10.072  47.958 -29.714  1.00  0.00     0.020 C 
HETATM   19  C30 UNL     1      -9.323  45.816 -30.891  1.00  0.00     0.002 C 
HETATM   20  C31 UNL     1      -8.286  44.674 -31.008  1.00  0.00     0.007 C 
HETATM   21  C32 UNL     1      -8.865  43.429 -31.676  1.00  0.00     0.014 C 
HETATM   22  C33 UNL     1      -9.564  43.635 -33.032  1.00  0.00     0.003 C 
HETATM   23  C34 UNL     1     -10.579  42.457 -33.194  1.00  0.00     0.020 C 
ENDROOT
BRANCH   3  24
HETATM   24  O1  UNL     1      -7.339  44.257 -33.896  1.00  0.00    -0.377 OA
HETATM   25  H2  UNL     1      -6.757  44.197 -34.673  1.00  0.00     0.211 HD
ENDBRANCH   3  24
BRANCH  13  26
HETATM   26  O2  UNL     1      -4.740  48.011 -27.359  1.00  0.00    -0.271 OA
BRANCH  26  27
HETATM   27  C13 UNL     1      -3.399  48.394 -27.086  1.00  0.00     0.303 C 
BRANCH  27  28
HETATM   28  C14 UNL     1      -3.219  48.958 -25.678  1.00  0.00     0.244 C 
HETATM   29  O3  UNL     1      -2.836  48.298 -24.715  1.00  0.00    -0.271 OA
HETATM   30  N2  UNL     1      -3.583  50.293 -25.569  1.00  0.00    -0.346 N 
HETATM   31  H16 UNL     1      -3.411  50.855 -26.397  1.00  0.00     0.163 HD
BRANCH  30  32
HETATM   32  C15 UNL     1      -3.413  51.004 -24.299  1.00  0.00     0.180 C 
BRANCH  32  33
HETATM   33  C16 UNL     1      -2.306  52.069 -24.502  1.00  0.00     0.241 C 
HETATM   34  O4  UNL     1      -2.007  52.877 -23.625  1.00  0.00    -0.271 OA
HETATM   35  N3  UNL     1      -1.652  52.001 -25.717  1.00  0.00    -0.344 N 
HETATM   36  H18 UNL     1      -2.159  51.524 -26.457  1.00  0.00     0.163 HD
BRANCH  35  37
HETATM   37  C17 UNL     1      -0.831  53.127 -26.192  1.00  0.00     0.186 C 
BRANCH  37  38
HETATM   38  C18 UNL     1      -0.988  53.079 -27.715  1.00  0.00     0.163 C 
HETATM   39  O5  UNL     1      -0.226  52.516 -28.488  1.00  0.00    -0.648 OA
BRANCH  38  40
HETATM   40  O6  UNL     1      -2.054  53.765 -28.177  1.00  0.00    -0.775 OA
HETATM   41  H20 UNL     1      -2.042  53.601 -29.145  1.00  0.00     0.167 HD
ENDBRANCH  38  40
ENDBRANCH  37  38
BRANCH  37  42
HETATM   42  C19 UNL     1       0.645  52.972 -25.744  1.00  0.00     0.014 C 
HETATM   43  C20 UNL     1       0.906  53.565 -24.348  1.00  0.00     0.012 C 
BRANCH  42  44
HETATM   44  C21 UNL     1       1.101  51.495 -25.712  1.00  0.00     0.002 C 
HETATM   45  C22 UNL     1       2.475  51.240 -26.310  1.00  0.00     0.005 C 
ENDBRANCH  42  44
ENDBRANCH  37  42
ENDBRANCH  35  37
ENDBRANCH  32  33
BRANCH  32  46
HETATM   46  C23 UNL     1      -4.767  51.579 -23.828  1.00  0.00     0.009 C 
HETATM   47  C24 UNL     1      -5.856  50.508 -23.742  1.00  0.00     0.012 C 
HETATM   48  C25 UNL     1      -4.681  52.355 -22.512  1.00  0.00     0.012 C 
ENDBRANCH  32  46
ENDBRANCH  30  32
ENDBRANCH  27  28
ENDBRANCH  26  27
ENDBRANCH  13  26
TORSDOF 12
ENDMDL
