MODEL 1
REMARK minimizedAffinity -9.11358452
REMARK  4 active torsions:
REMARK  status: ('A' for Active; 'I' for Inactive)
REMARK    1  A    between atoms: C4_4  and  C5_5 
REMARK    2  A    between atoms: C5_5  and  C6_7 
REMARK    3  A    between atoms: C6_7  and  C7_8 
REMARK    4  A    between atoms: C7_8  and  C9_10 
ROOT
HETATM    1  C9  UNL     1       0.358   7.473  13.483  1.00  0.00    -0.002 C 
HETATM    2  C10 UNL     1       0.319   6.673  12.146  1.00  0.00     0.006 C 
HETATM    3  C11 UNL     1      -1.158   6.333  11.853  1.00  0.00     0.011 C 
HETATM    4  C12 UNL     1      -1.964   7.216  12.821  1.00  0.00    -0.032 C 
HETATM    5  C13 UNL     1      -2.022   8.631  12.137  1.00  0.00     0.016 C 
HETATM    6  C14 UNL     1      -3.446   6.823  13.133  1.00  0.00     0.004 C 
HETATM    7  C15 UNL     1      -3.870   5.406  12.730  1.00  0.00     0.007 C 
HETATM    8  C16 UNL     1      -5.350   5.093  13.031  1.00  0.00     0.007 C 
HETATM    9  C17 UNL     1      -6.143   6.230  13.722  1.00  0.00     0.010 C 
HETATM   10  C18 UNL     1      -7.569   5.811  14.204  1.00  0.00     0.018 C 
HETATM   11  C19 UNL     1      -7.546   4.751  15.318  1.00  0.00     0.023 C 
HETATM   12  C20 UNL     1      -8.406   5.280  13.026  1.00  0.00     0.023 C 
HETATM   13  C21 UNL     1      -8.289   7.050  14.764  1.00  0.00     0.135 C 
HETATM   14  O2  UNL     1      -9.501   7.051  14.992  1.00  0.00    -0.297 OA
HETATM   15  C22 UNL     1      -7.468   8.293  15.009  1.00  0.00     0.080 C 
HETATM   16  C23 UNL     1      -6.151   7.925  15.669  1.00  0.00     0.018 C 
HETATM   17  C24 UNL     1      -5.351   6.921  14.851  1.00  0.00    -0.026 A 
HETATM   18  C25 UNL     1      -4.315   6.115  15.595  1.00  0.00     0.021 A 
HETATM   19  C26 UNL     1      -3.849   7.156  14.588  1.00  0.00    -0.027 A 
HETATM   20  C27 UNL     1      -3.105   8.339  15.186  1.00  0.00     0.011 C 
HETATM   21  C28 UNL     1      -1.568   8.205  15.128  1.00  0.00     0.011 C 
HETATM   22  C29 UNL     1      -1.050   7.174  14.101  1.00  0.00    -0.032 C 
HETATM   23  C30 UNL     1      -0.990   5.775  14.782  1.00  0.00     0.016 C 
ENDROOT
BRANCH   1  24
HETATM   24  C7  UNL     1       1.644   7.185  14.308  1.00  0.00    -0.007 C 
HETATM   25  C8  UNL     1       1.462   7.461  15.804  1.00  0.00     0.011 C 
BRANCH  24  26
HETATM   26  C6  UNL     1       2.883   7.948  13.782  1.00  0.00     0.087 C 
BRANCH  26  27
HETATM   27  C5  UNL     1       2.999   7.983  12.267  1.00  0.00     0.149 C 
HETATM   28  O1  UNL     1       2.864   9.026  11.631  1.00  0.00    -0.293 OA
BRANCH  27  29
HETATM   29  C4  UNL     1       3.269   6.684  11.582  1.00  0.00     0.052 C 
HETATM   30  C2  UNL     1       3.450   6.536  10.256  1.00  0.00    -0.084 C 
HETATM   31  C1  UNL     1       3.466   7.657   9.252  1.00  0.00     0.043 C 
HETATM   32  C3  UNL     1       3.673   5.170   9.665  1.00  0.00     0.043 C 
ENDBRANCH  27  29
ENDBRANCH  26  27
ENDBRANCH  24  26
ENDBRANCH   1  24
TORSDOF 4
ENDMDL
MODEL 2
REMARK minimizedAffinity -9.08176517
REMARK  4 active torsions:
REMARK  status: ('A' for Active; 'I' for Inactive)
REMARK    1  A    between atoms: C4_4  and  C5_5 
REMARK    2  A    between atoms: C5_5  and  C6_7 
REMARK    3  A    between atoms: C6_7  and  C7_8 
REMARK    4  A    between atoms: C7_8  and  C9_10 
ROOT
HETATM    1  C9  UNL     1       2.999   7.462  11.142  1.00  0.00    -0.002 C 
HETATM    2  C10 UNL     1       2.998   5.997  10.610  1.00  0.00     0.006 C 
HETATM    3  C11 UNL     1       1.574   5.435  10.805  1.00  0.00     0.011 C 
HETATM    4  C12 UNL     1       0.706   6.665  11.121  1.00  0.00    -0.032 C 
HETATM    5  C13 UNL     1       0.393   7.320   9.726  1.00  0.00     0.016 C 
HETATM    6  C14 UNL     1      -0.678   6.444  11.818  1.00  0.00     0.004 C 
HETATM    7  C15 UNL     1      -0.908   5.064  12.443  1.00  0.00     0.007 C 
HETATM    8  C16 UNL     1      -2.303   4.897  13.081  1.00  0.00     0.007 C 
HETATM    9  C17 UNL     1      -3.213   6.149  13.025  1.00  0.00     0.010 C 
HETATM   10  C18 UNL     1      -4.527   6.020  13.861  1.00  0.00     0.018 C 
HETATM   11  C19 UNL     1      -4.276   5.907  15.374  1.00  0.00     0.023 C 
HETATM   12  C20 UNL     1      -5.347   4.801  13.399  1.00  0.00     0.023 C 
HETATM   13  C21 UNL     1      -5.388   7.273  13.631  1.00  0.00     0.135 C 
HETATM   14  O2  UNL     1      -6.570   7.324  13.980  1.00  0.00    -0.297 OA
HETATM   15  C22 UNL     1      -4.750   8.450  12.934  1.00  0.00     0.080 C 
HETATM   16  C23 UNL     1      -3.354   8.685  13.483  1.00  0.00     0.018 C 
HETATM   17  C24 UNL     1      -2.465   7.457  13.357  1.00  0.00    -0.026 A 
HETATM   18  C25 UNL     1      -1.275   7.385  14.283  1.00  0.00     0.021 A 
HETATM   19  C26 UNL     1      -1.035   7.588  12.794  1.00  0.00    -0.027 A 
HETATM   20  C27 UNL     1      -0.441   8.936  12.418  1.00  0.00     0.011 C 
HETATM   21  C28 UNL     1       1.092   8.915  12.236  1.00  0.00     0.011 C 
HETATM   22  C29 UNL     1       1.694   7.512  12.006  1.00  0.00    -0.032 C 
HETATM   23  C30 UNL     1       2.006   6.867  13.389  1.00  0.00     0.016 C 
ENDROOT
BRANCH   1  24
HETATM   24  C7  UNL     1       4.364   7.860  11.774  1.00  0.00    -0.007 C 
HETATM   25  C8  UNL     1       4.959   9.124  11.144  1.00  0.00     0.011 C 
BRANCH  24  26
HETATM   26  C6  UNL     1       5.404   6.716  11.736  1.00  0.00     0.087 C 
BRANCH  26  27
HETATM   27  C5  UNL     1       6.752   7.077  12.335  1.00  0.00     0.149 C 
HETATM   28  O1  UNL     1       7.791   7.005  11.684  1.00  0.00    -0.293 OA
BRANCH  27  29
HETATM   29  C4  UNL     1       6.761   7.510  13.764  1.00  0.00     0.052 C 
HETATM   30  C2  UNL     1       7.851   7.925  14.437  1.00  0.00    -0.084 C 
HETATM   31  C1  UNL     1       9.228   8.073  13.849  1.00  0.00     0.043 C 
HETATM   32  C3  UNL     1       7.753   8.298  15.892  1.00  0.00     0.043 C 
ENDBRANCH  27  29
ENDBRANCH  26  27
ENDBRANCH  24  26
ENDBRANCH   1  24
TORSDOF 4
ENDMDL
MODEL 3
REMARK minimizedAffinity -8.99386978
REMARK  4 active torsions:
REMARK  status: ('A' for Active; 'I' for Inactive)
REMARK    1  A    between atoms: C4_4  and  C5_5 
REMARK    2  A    between atoms: C5_5  and  C6_7 
REMARK    3  A    between atoms: C6_7  and  C7_8 
REMARK    4  A    between atoms: C7_8  and  C9_10 
ROOT
HETATM    1  C9  UNL     1      -3.023   7.531  13.104  1.00  0.00    -0.002 C 
HETATM    2  C10 UNL     1      -3.093   9.015  13.577  1.00  0.00     0.006 C 
HETATM    3  C11 UNL     1      -1.692   9.631  13.379  1.00  0.00     0.011 C 
HETATM    4  C12 UNL     1      -0.941   8.621  12.495  1.00  0.00    -0.032 C 
HETATM    5  C13 UNL     1      -1.419   8.922  11.027  1.00  0.00     0.016 C 
HETATM    6  C14 UNL     1       0.623   8.676  12.463  1.00  0.00     0.004 C 
HETATM    7  C15 UNL     1       1.295   9.492  13.572  1.00  0.00     0.007 C 
HETATM    8  C16 UNL     1       2.833   9.536  13.463  1.00  0.00     0.007 C 
HETATM    9  C17 UNL     1       3.441   8.724  12.293  1.00  0.00     0.010 C 
HETATM   10  C18 UNL     1       4.999   8.613  12.335  1.00  0.00     0.018 C 
HETATM   11  C19 UNL     1       5.519   7.820  13.545  1.00  0.00     0.023 C 
HETATM   12  C20 UNL     1       5.642  10.012  12.341  1.00  0.00     0.023 C 
HETATM   13  C21 UNL     1       5.480   7.887  11.068  1.00  0.00     0.135 C 
HETATM   14  O2  UNL     1       6.668   7.875  10.735  1.00  0.00    -0.297 OA
HETATM   15  C22 UNL     1       4.445   7.198  10.212  1.00  0.00     0.080 C 
HETATM   16  C23 UNL     1       3.466   6.440  11.091  1.00  0.00     0.018 C 
HETATM   17  C24 UNL     1       2.786   7.338  12.114  1.00  0.00    -0.026 A 
HETATM   18  C25 UNL     1       2.204   6.660  13.330  1.00  0.00     0.021 A 
HETATM   19  C26 UNL     1       1.257   7.274  12.310  1.00  0.00    -0.027 A 
HETATM   20  C27 UNL     1       0.393   6.277  11.555  1.00  0.00     0.011 C 
HETATM   21  C28 UNL     1      -1.024   6.106  12.145  1.00  0.00     0.011 C 
HETATM   22  C29 UNL     1      -1.482   7.259  13.066  1.00  0.00    -0.032 C 
HETATM   23  C30 UNL     1      -1.009   6.956  14.519  1.00  0.00     0.016 C 
ENDROOT
BRANCH   1  24
HETATM   24  C7  UNL     1      -3.956   6.601  13.930  1.00  0.00    -0.007 C 
HETATM   25  C8  UNL     1      -3.637   6.625  15.428  1.00  0.00     0.011 C 
BRANCH  24  26
HETATM   26  C6  UNL     1      -3.962   5.142  13.418  1.00  0.00     0.087 C 
BRANCH  26  27
HETATM   27  C5  UNL     1      -5.292   4.687  12.841  1.00  0.00     0.149 C 
HETATM   28  O1  UNL     1      -6.336   5.296  13.063  1.00  0.00    -0.293 OA
BRANCH  27  29
HETATM   29  C4  UNL     1      -5.276   3.452  12.003  1.00  0.00     0.052 C 
HETATM   30  C2  UNL     1      -6.214   2.486  12.036  1.00  0.00    -0.084 C 
HETATM   31  C1  UNL     1      -7.458   2.514  12.881  1.00  0.00     0.043 C 
HETATM   32  C3  UNL     1      -6.074   1.258  11.176  1.00  0.00     0.043 C 
ENDBRANCH  27  29
ENDBRANCH  26  27
ENDBRANCH  24  26
ENDBRANCH   1  24
TORSDOF 4
ENDMDL
MODEL 4
REMARK minimizedAffinity -8.9373188
REMARK  4 active torsions:
REMARK  status: ('A' for Active; 'I' for Inactive)
REMARK    1  A    between atoms: C4_4  and  C5_5 
REMARK    2  A    between atoms: C5_5  and  C6_7 
REMARK    3  A    between atoms: C6_7  and  C7_8 
REMARK    4  A    between atoms: C7_8  and  C9_10 
ROOT
HETATM    1  C9  UNL     1      -3.343   7.498  14.272  1.00  0.00    -0.002 C 
HETATM    2  C10 UNL     1      -3.867   6.235  13.524  1.00  0.00     0.006 C 
HETATM    3  C11 UNL     1      -2.686   5.647  12.723  1.00  0.00     0.011 C 
HETATM    4  C12 UNL     1      -1.442   6.361  13.278  1.00  0.00    -0.032 C 
HETATM    5  C13 UNL     1      -1.086   5.598  14.606  1.00  0.00     0.016 C 
HETATM    6  C14 UNL     1      -0.136   6.365  12.415  1.00  0.00     0.004 C 
HETATM    7  C15 UNL     1      -0.295   5.965  10.945  1.00  0.00     0.007 C 
HETATM    8  C16 UNL     1       1.032   5.954  10.159  1.00  0.00     0.007 C 
HETATM    9  C17 UNL     1       2.285   6.385  10.962  1.00  0.00     0.010 C 
HETATM   10  C18 UNL     1       3.569   6.569  10.091  1.00  0.00     0.018 C 
HETATM   11  C19 UNL     1       3.457   7.722   9.080  1.00  0.00     0.023 C 
HETATM   12  C20 UNL     1       3.901   5.270   9.333  1.00  0.00     0.023 C 
HETATM   13  C21 UNL     1       4.756   6.883  11.016  1.00  0.00     0.135 C 
HETATM   14  O2  UNL     1       5.922   6.841  10.616  1.00  0.00    -0.297 OA
HETATM   15  C22 UNL     1       4.459   7.227  12.456  1.00  0.00     0.080 C 
HETATM   16  C23 UNL     1       3.278   8.179  12.529  1.00  0.00     0.018 C 
HETATM   17  C24 UNL     1       2.034   7.617  11.856  1.00  0.00    -0.026 A 
HETATM   18  C25 UNL     1       0.990   8.616  11.423  1.00  0.00     0.021 A 
HETATM   19  C26 UNL     1       0.670   7.674  12.575  1.00  0.00    -0.027 A 
HETATM   20  C27 UNL     1       0.503   8.349  13.927  1.00  0.00     0.011 C 
HETATM   21  C28 UNL     1      -0.966   8.635  14.306  1.00  0.00     0.011 C 
HETATM   22  C29 UNL     1      -2.007   7.810  13.518  1.00  0.00    -0.032 C 
HETATM   23  C30 UNL     1      -2.360   8.570  12.205  1.00  0.00     0.016 C 
ENDROOT
BRANCH   1  24
HETATM   24  C7  UNL     1      -4.433   8.599  14.409  1.00  0.00    -0.007 C 
HETATM   25  C8  UNL     1      -4.619   9.069  15.855  1.00  0.00     0.011 C 
BRANCH  24  26
HETATM   26  C6  UNL     1      -5.797   8.176  13.816  1.00  0.00     0.087 C 
BRANCH  26  27
HETATM   27  C5  UNL     1      -6.727   7.498  14.809  1.00  0.00     0.149 C 
HETATM   28  O1  UNL     1      -7.433   8.144  15.580  1.00  0.00    -0.293 OA
BRANCH  27  29
HETATM   29  C4  UNL     1      -6.732   6.005  14.818  1.00  0.00     0.052 C 
HETATM   30  C2  UNL     1      -7.333   5.231  13.894  1.00  0.00    -0.084 C 
HETATM   31  C1  UNL     1      -8.052   5.738  12.674  1.00  0.00     0.043 C 
HETATM   32  C3  UNL     1      -7.312   3.732  14.025  1.00  0.00     0.043 C 
ENDBRANCH  27  29
ENDBRANCH  26  27
ENDBRANCH  24  26
ENDBRANCH   1  24
TORSDOF 4
ENDMDL
MODEL 5
REMARK minimizedAffinity -8.90199566
REMARK  4 active torsions:
REMARK  status: ('A' for Active; 'I' for Inactive)
REMARK    1  A    between atoms: C4_4  and  C5_5 
REMARK    2  A    between atoms: C5_5  and  C6_7 
REMARK    3  A    between atoms: C6_7  and  C7_8 
REMARK    4  A    between atoms: C7_8  and  C9_10 
ROOT
HETATM    1  C9  UNL     1       2.237   7.171  12.070  1.00  0.00    -0.002 C 
HETATM    2  C10 UNL     1       2.262   5.695  11.569  1.00  0.00     0.006 C 
HETATM    3  C11 UNL     1       0.820   5.153  11.654  1.00  0.00     0.011 C 
HETATM    4  C12 UNL     1      -0.056   6.399  11.870  1.00  0.00    -0.032 C 
HETATM    5  C13 UNL     1      -0.241   7.027  10.440  1.00  0.00     0.016 C 
HETATM    6  C14 UNL     1      -1.497   6.208  12.451  1.00  0.00     0.004 C 
HETATM    7  C15 UNL     1      -1.796   4.844  13.083  1.00  0.00     0.007 C 
HETATM    8  C16 UNL     1      -3.242   4.707  13.603  1.00  0.00     0.007 C 
HETATM    9  C17 UNL     1      -4.129   5.967  13.444  1.00  0.00     0.010 C 
HETATM   10  C18 UNL     1      -5.510   5.870  14.167  1.00  0.00     0.018 C 
HETATM   11  C19 UNL     1      -5.390   5.787  15.698  1.00  0.00     0.023 C 
HETATM   12  C20 UNL     1      -6.303   4.650  13.662  1.00  0.00     0.023 C 
HETATM   13  C21 UNL     1      -6.333   7.127  13.839  1.00  0.00     0.135 C 
HETATM   14  O2  UNL     1      -7.540   7.198  14.084  1.00  0.00    -0.297 OA
HETATM   15  C22 UNL     1      -5.623   8.282  13.174  1.00  0.00     0.080 C 
HETATM   16  C23 UNL     1      -4.276   8.513  13.835  1.00  0.00     0.018 C 
HETATM   17  C24 UNL     1      -3.395   7.273  13.811  1.00  0.00    -0.026 A 
HETATM   18  C25 UNL     1      -2.289   7.209  14.836  1.00  0.00     0.021 A 
HETATM   19  C26 UNL     1      -1.920   7.377  13.369  1.00  0.00    -0.027 A 
HETATM   20  C27 UNL     1      -1.280   8.710  13.017  1.00  0.00     0.011 C 
HETATM   21  C28 UNL     1       0.262   8.668  12.967  1.00  0.00     0.011 C 
HETATM   22  C29 UNL     1       0.864   7.254  12.818  1.00  0.00    -0.032 C 
HETATM   23  C30 UNL     1       1.049   6.636  14.236  1.00  0.00     0.016 C 
ENDROOT
BRANCH   1  24
HETATM   24  C7  UNL     1       3.548   7.568  12.806  1.00  0.00    -0.007 C 
HETATM   25  C8  UNL     1       3.293   8.454  14.030  1.00  0.00     0.011 C 
BRANCH  24  26
HETATM   26  C6  UNL     1       4.583   8.245  11.876  1.00  0.00     0.087 C 
BRANCH  26  27
HETATM   27  C5  UNL     1       4.681   7.622  10.494  1.00  0.00     0.149 C 
HETATM   28  O1  UNL     1       5.415   6.663  10.266  1.00  0.00    -0.293 OA
BRANCH  27  29
HETATM   29  C4  UNL     1       3.856   8.242   9.415  1.00  0.00     0.052 C 
HETATM   30  C2  UNL     1       3.105   7.558   8.531  1.00  0.00    -0.084 C 
HETATM   31  C1  UNL     1       2.930   6.064   8.515  1.00  0.00     0.043 C 
HETATM   32  C3  UNL     1       2.345   8.285   7.453  1.00  0.00     0.043 C 
ENDBRANCH  27  29
ENDBRANCH  26  27
ENDBRANCH  24  26
ENDBRANCH   1  24
TORSDOF 4
ENDMDL
MODEL 6
REMARK minimizedAffinity -8.69420528
REMARK  4 active torsions:
REMARK  status: ('A' for Active; 'I' for Inactive)
REMARK    1  A    between atoms: C4_4  and  C5_5 
REMARK    2  A    between atoms: C5_5  and  C6_7 
REMARK    3  A    between atoms: C6_7  and  C7_8 
REMARK    4  A    between atoms: C7_8  and  C9_10 
ROOT
HETATM    1  C9  UNL     1      -1.954   6.413  12.943  1.00  0.00    -0.002 C 
HETATM    2  C10 UNL     1      -1.920   5.336  11.817  1.00  0.00     0.006 C 
HETATM    3  C11 UNL     1      -0.447   5.151  11.397  1.00  0.00     0.011 C 
HETATM    4  C12 UNL     1       0.366   5.854  12.498  1.00  0.00    -0.032 C 
HETATM    5  C13 UNL     1       0.441   4.820  13.681  1.00  0.00     0.016 C 
HETATM    6  C14 UNL     1       1.844   6.267  12.187  1.00  0.00     0.004 C 
HETATM    7  C15 UNL     1       2.253   6.256  10.711  1.00  0.00     0.007 C 
HETATM    8  C16 UNL     1       3.729   6.637  10.475  1.00  0.00     0.007 C 
HETATM    9  C17 UNL     1       4.533   7.005  11.747  1.00  0.00     0.010 C 
HETATM   10  C18 UNL     1       5.953   7.589  11.457  1.00  0.00     0.018 C 
HETATM   11  C19 UNL     1       5.916   8.943  10.730  1.00  0.00     0.023 C 
HETATM   12  C20 UNL     1       6.787   6.597  10.625  1.00  0.00     0.023 C 
HETATM   13  C21 UNL     1       6.684   7.804  12.792  1.00  0.00     0.135 C 
HETATM   14  O2  UNL     1       7.896   8.030  12.843  1.00  0.00    -0.297 OA
HETATM   15  C22 UNL     1       5.876   7.706  14.064  1.00  0.00     0.080 C 
HETATM   16  C23 UNL     1       4.554   8.434  13.896  1.00  0.00     0.018 C 
HETATM   17  C24 UNL     1       3.745   7.907  12.719  1.00  0.00    -0.026 A 
HETATM   18  C25 UNL     1       2.699   8.833  12.149  1.00  0.00     0.021 A 
HETATM   19  C26 UNL     1       2.246   7.583  12.890  1.00  0.00    -0.027 A 
HETATM   20  C27 UNL     1       1.513   7.843  14.196  1.00  0.00     0.011 C 
HETATM   21  C28 UNL     1      -0.025   7.814  14.066  1.00  0.00     0.011 C 
HETATM   22  C29 UNL     1      -0.552   7.094  12.805  1.00  0.00    -0.032 C 
HETATM   23  C30 UNL     1      -0.627   8.122  11.637  1.00  0.00     0.016 C 
ENDROOT
BRANCH   1  24
HETATM   24  C7  UNL     1      -3.246   7.277  12.896  1.00  0.00    -0.007 C 
HETATM   25  C8  UNL     1      -2.956   8.779  12.989  1.00  0.00     0.011 C 
BRANCH  24  26
HETATM   26  C6  UNL     1      -4.281   6.877  13.973  1.00  0.00     0.087 C 
BRANCH  26  27
HETATM   27  C5  UNL     1      -5.268   5.811  13.527  1.00  0.00     0.149 C 
HETATM   28  O1  UNL     1      -4.919   4.651  13.320  1.00  0.00    -0.293 OA
BRANCH  27  29
HETATM   29  C4  UNL     1      -6.684   6.242  13.333  1.00  0.00     0.052 C 
HETATM   30  C2  UNL     1      -7.731   5.407  13.190  1.00  0.00    -0.084 C 
HETATM   31  C1  UNL     1      -7.657   3.906  13.255  1.00  0.00     0.043 C 
HETATM   32  C3  UNL     1      -9.114   5.952  12.956  1.00  0.00     0.043 C 
ENDBRANCH  27  29
ENDBRANCH  26  27
ENDBRANCH  24  26
ENDBRANCH   1  24
TORSDOF 4
ENDMDL
MODEL 7
REMARK minimizedAffinity -8.6102953
REMARK  4 active torsions:
REMARK  status: ('A' for Active; 'I' for Inactive)
REMARK    1  A    between atoms: C4_4  and  C5_5 
REMARK    2  A    between atoms: C5_5  and  C6_7 
REMARK    3  A    between atoms: C6_7  and  C7_8 
REMARK    4  A    between atoms: C7_8  and  C9_10 
ROOT
HETATM    1  C9  UNL     1      -0.690   5.988  11.926  1.00  0.00    -0.002 C 
HETATM    2  C10 UNL     1      -1.478   7.249  12.393  1.00  0.00     0.006 C 
HETATM    3  C11 UNL     1      -0.487   8.432  12.418  1.00  0.00     0.011 C 
HETATM    4  C12 UNL     1       0.748   7.925  11.654  1.00  0.00    -0.032 C 
HETATM    5  C13 UNL     1       0.389   8.094  10.132  1.00  0.00     0.016 C 
HETATM    6  C14 UNL     1       2.112   8.664  11.863  1.00  0.00     0.004 C 
HETATM    7  C15 UNL     1       2.192   9.607  13.068  1.00  0.00     0.007 C 
HETATM    8  C16 UNL     1       3.548  10.331  13.198  1.00  0.00     0.007 C 
HETATM    9  C17 UNL     1       4.606   9.959  12.130  1.00  0.00     0.010 C 
HETATM   10  C18 UNL     1       6.028  10.542  12.411  1.00  0.00     0.018 C 
HETATM   11  C19 UNL     1       6.679   9.970  13.681  1.00  0.00     0.023 C 
HETATM   12  C20 UNL     1       5.972  12.077  12.526  1.00  0.00     0.023 C 
HETATM   13  C21 UNL     1       6.949  10.199  11.229  1.00  0.00     0.135 C 
HETATM   14  O2  UNL     1       8.050  10.735  11.083  1.00  0.00    -0.297 OA
HETATM   15  C22 UNL     1       6.456   9.191  10.218  1.00  0.00     0.080 C 
HETATM   16  C23 UNL     1       5.809   8.016  10.931  1.00  0.00     0.018 C 
HETATM   17  C24 UNL     1       4.669   8.445  11.844  1.00  0.00    -0.026 A 
HETATM   18  C25 UNL     1       4.293   7.490  12.950  1.00  0.00     0.021 A 
HETATM   19  C26 UNL     1       3.318   7.700  11.800  1.00  0.00    -0.027 A 
HETATM   20  C27 UNL     1       3.100   6.484  10.915  1.00  0.00     0.011 C 
HETATM   21  C28 UNL     1       1.844   5.664  11.278  1.00  0.00     0.011 C 
HETATM   22  C29 UNL     1       0.800   6.425  12.125  1.00  0.00    -0.032 C 
HETATM   23  C30 UNL     1       1.157   6.253  13.632  1.00  0.00     0.016 C 
ENDROOT
BRANCH   1  24
HETATM   24  C7  UNL     1      -1.213   4.684  12.593  1.00  0.00    -0.007 C 
HETATM   25  C8  UNL     1      -1.061   3.456  11.688  1.00  0.00     0.011 C 
BRANCH  24  26
HETATM   26  C6  UNL     1      -2.677   4.798  13.080  1.00  0.00     0.087 C 
BRANCH  26  27
HETATM   27  C5  UNL     1      -3.711   4.352  12.061  1.00  0.00     0.149 C 
HETATM   28  O1  UNL     1      -3.429   4.202  10.874  1.00  0.00    -0.293 OA
BRANCH  27  29
HETATM   29  C4  UNL     1      -5.096   4.117  12.565  1.00  0.00     0.052 C 
HETATM   30  C2  UNL     1      -5.866   3.061  12.239  1.00  0.00    -0.084 C 
HETATM   31  C1  UNL     1      -5.442   1.917  11.358  1.00  0.00     0.043 C 
HETATM   32  C3  UNL     1      -7.269   2.947  12.773  1.00  0.00     0.043 C 
ENDBRANCH  27  29
ENDBRANCH  26  27
ENDBRANCH  24  26
ENDBRANCH   1  24
TORSDOF 4
ENDMDL
MODEL 8
REMARK minimizedAffinity -8.49924755
REMARK  4 active torsions:
REMARK  status: ('A' for Active; 'I' for Inactive)
REMARK    1  A    between atoms: C4_4  and  C5_5 
REMARK    2  A    between atoms: C5_5  and  C6_7 
REMARK    3  A    between atoms: C6_7  and  C7_8 
REMARK    4  A    between atoms: C7_8  and  C9_10 
ROOT
HETATM    1  C9  UNL     1       0.325   7.954  13.649  1.00  0.00    -0.002 C 
HETATM    2  C10 UNL     1       0.385   7.145  12.317  1.00  0.00     0.006 C 
HETATM    3  C11 UNL     1      -1.054   6.699  11.982  1.00  0.00     0.011 C 
HETATM    4  C12 UNL     1      -1.950   7.528  12.918  1.00  0.00    -0.032 C 
HETATM    5  C13 UNL     1      -2.088   8.931  12.221  1.00  0.00     0.016 C 
HETATM    6  C14 UNL     1      -3.410   7.031  13.188  1.00  0.00     0.004 C 
HETATM    7  C15 UNL     1      -3.719   5.585  12.783  1.00  0.00     0.007 C 
HETATM    8  C16 UNL     1      -5.181   5.169  13.042  1.00  0.00     0.007 C 
HETATM    9  C17 UNL     1      -6.075   6.250  13.699  1.00  0.00     0.010 C 
HETATM   10  C18 UNL     1      -7.481   5.733  14.141  1.00  0.00     0.018 C 
HETATM   11  C19 UNL     1      -7.417   4.683  15.262  1.00  0.00     0.023 C 
HETATM   12  C20 UNL     1      -8.242   5.137  12.941  1.00  0.00     0.023 C 
HETATM   13  C21 UNL     1      -8.304   6.919  14.669  1.00  0.00     0.135 C 
HETATM   14  O2  UNL     1      -9.520   6.836  14.860  1.00  0.00    -0.297 OA
HETATM   15  C22 UNL     1      -7.583   8.220  14.929  1.00  0.00     0.080 C 
HETATM   16  C23 UNL     1      -6.264   7.950  15.631  1.00  0.00     0.018 C 
HETATM   17  C24 UNL     1      -5.369   7.002  14.846  1.00  0.00    -0.026 A 
HETATM   18  C25 UNL     1      -4.302   6.276  15.628  1.00  0.00     0.021 A 
HETATM   19  C26 UNL     1      -3.880   7.342  14.627  1.00  0.00    -0.027 A 
HETATM   20  C27 UNL     1      -3.241   8.579  15.239  1.00  0.00     0.011 C 
HETATM   21  C28 UNL     1      -1.698   8.555  15.228  1.00  0.00     0.011 C 
HETATM   22  C29 UNL     1      -1.076   7.558  14.225  1.00  0.00    -0.032 C 
HETATM   23  C30 UNL     1      -0.938   6.170  14.919  1.00  0.00     0.016 C 
ENDROOT
BRANCH   1  24
HETATM   24  C7  UNL     1       1.603   7.763  14.514  1.00  0.00    -0.007 C 
HETATM   25  C8  UNL     1       2.006   9.038  15.262  1.00  0.00     0.011 C 
BRANCH  24  26
HETATM   26  C6  UNL     1       2.808   7.229  13.704  1.00  0.00     0.087 C 
BRANCH  26  27
HETATM   27  C5  UNL     1       3.755   8.307  13.208  1.00  0.00     0.149 C 
HETATM   28  O1  UNL     1       3.414   9.130  12.361  1.00  0.00    -0.293 OA
BRANCH  27  29
HETATM   29  C4  UNL     1       5.132   8.313  13.786  1.00  0.00     0.052 C 
HETATM   30  C2  UNL     1       6.168   7.593  13.316  1.00  0.00    -0.084 C 
HETATM   31  C1  UNL     1       6.128   6.707  12.101  1.00  0.00     0.043 C 
HETATM   32  C3  UNL     1       7.506   7.642  14.006  1.00  0.00     0.043 C 
ENDBRANCH  27  29
ENDBRANCH  26  27
ENDBRANCH  24  26
ENDBRANCH   1  24
TORSDOF 4
ENDMDL
MODEL 9
REMARK minimizedAffinity -8.45845413
REMARK  4 active torsions:
REMARK  status: ('A' for Active; 'I' for Inactive)
REMARK    1  A    between atoms: C4_4  and  C5_5 
REMARK    2  A    between atoms: C5_5  and  C6_7 
REMARK    3  A    between atoms: C6_7  and  C7_8 
REMARK    4  A    between atoms: C7_8  and  C9_10 
ROOT
HETATM    1  C9  UNL     1       1.121   7.154  13.568  1.00  0.00    -0.002 C 
HETATM    2  C10 UNL     1       1.126   7.520  15.083  1.00  0.00     0.006 C 
HETATM    3  C11 UNL     1      -0.246   7.117  15.662  1.00  0.00     0.011 C 
HETATM    4  C12 UNL     1      -0.884   6.230  14.579  1.00  0.00    -0.032 C 
HETATM    5  C13 UNL     1      -0.241   4.809  14.778  1.00  0.00     0.016 C 
HETATM    6  C14 UNL     1      -2.434   6.014  14.607  1.00  0.00     0.004 C 
HETATM    7  C15 UNL     1      -3.235   6.974  15.493  1.00  0.00     0.007 C 
HETATM    8  C16 UNL     1      -4.750   6.686  15.505  1.00  0.00     0.007 C 
HETATM    9  C17 UNL     1      -5.213   5.518  14.600  1.00  0.00     0.010 C 
HETATM   10  C18 UNL     1      -6.765   5.388  14.469  1.00  0.00     0.018 C 
HETATM   11  C19 UNL     1      -7.416   6.586  13.759  1.00  0.00     0.023 C 
HETATM   12  C20 UNL     1      -7.414   5.216  15.855  1.00  0.00     0.023 C 
HETATM   13  C21 UNL     1      -7.091   4.132  13.645  1.00  0.00     0.135 C 
HETATM   14  O2  UNL     1      -8.232   3.667  13.590  1.00  0.00    -0.297 OA
HETATM   15  C22 UNL     1      -5.959   3.455  12.910  1.00  0.00     0.080 C 
HETATM   16  C23 UNL     1      -5.084   4.495  12.234  1.00  0.00     0.018 C 
HETATM   17  C24 UNL     1      -4.533   5.520  13.215  1.00  0.00    -0.026 A 
HETATM   18  C25 UNL     1      -4.092   6.842  12.637  1.00  0.00     0.021 A 
HETATM   19  C26 UNL     1      -3.037   5.894  13.189  1.00  0.00    -0.027 A 
HETATM   20  C27 UNL     1      -2.084   5.321  12.152  1.00  0.00     0.011 C 
HETATM   21  C28 UNL     1      -0.744   6.081  12.046  1.00  0.00     0.011 C 
HETATM   22  C29 UNL     1      -0.404   6.960  13.270  1.00  0.00    -0.032 C 
HETATM   23  C30 UNL     1      -1.040   8.368  13.068  1.00  0.00     0.016 C 
ENDROOT
BRANCH   1  24
HETATM   24  C7  UNL     1       1.958   8.150  12.716  1.00  0.00    -0.007 C 
HETATM   25  C8  UNL     1       1.830   9.597  13.203  1.00  0.00     0.011 C 
BRANCH  24  26
HETATM   26  C6  UNL     1       1.632   8.075  11.205  1.00  0.00     0.087 C 
BRANCH  26  27
HETATM   27  C5  UNL     1       2.496   7.097  10.427  1.00  0.00     0.149 C 
HETATM   28  O1  UNL     1       3.521   6.616  10.905  1.00  0.00    -0.293 OA
BRANCH  27  29
HETATM   29  C4  UNL     1       2.050   6.758   9.043  1.00  0.00     0.052 C 
HETATM   30  C2  UNL     1       2.310   7.496   7.947  1.00  0.00    -0.084 C 
HETATM   31  C1  UNL     1       3.136   8.753   7.925  1.00  0.00     0.043 C 
HETATM   32  C3  UNL     1       1.773   7.081   6.604  1.00  0.00     0.043 C 
ENDBRANCH  27  29
ENDBRANCH  26  27
ENDBRANCH  24  26
ENDBRANCH   1  24
TORSDOF 4
ENDMDL
