MODEL 1
REMARK minimizedAffinity -8.69585323
REMARK CNNscore 0.788818359
REMARK CNNaffinity 6.713552
REMARK  8 active torsions:
REMARK  status: ('A' for Active; 'I' for Inactive)
REMARK    1  A    between atoms: C2_2  and  C3_3 
REMARK    2  A    between atoms: C2_2  and  C27_30 
REMARK    3  A    between atoms: C3_3  and  C4_4 
REMARK    4  A    between atoms: C4_4  and  C5_5 
REMARK    5  A    between atoms: C5_5  and  C7_7 
REMARK    6  A    between atoms: C26_28  and  O3_29 
REMARK    7  A    between atoms: C27_30  and  C29_32 
REMARK    8  A    between atoms: C29_32  and  O5_34 
ROOT
HETATM    1  C7  UNL     1      -0.877  10.831  18.534  1.00  0.00    -0.002 C 
HETATM    2  C8  UNL     1      -2.397  10.881  18.840  1.00  0.00     0.006 C 
HETATM    3  C9  UNL     1      -3.088  10.049  17.753  1.00  0.00     0.010 C 
HETATM    4  C10 UNL     1      -1.948   9.261  17.101  1.00  0.00     0.027 C 
HETATM    5  C11 UNL     1      -2.117   8.498  15.801  1.00  0.00    -0.036 C 
HETATM    6  C12 UNL     1      -1.029   8.162  15.060  1.00  0.00     0.002 C 
HETATM    7  C13 UNL     1       0.328   8.715  15.461  1.00  0.00     0.157 C 
HETATM    8  O1  UNL     1       1.328   8.489  14.779  1.00  0.00    -0.293 OA
HETATM    9  C14 UNL     1       0.474   9.528  16.735  1.00  0.00     0.093 C 
HETATM   10  C15 UNL     1      -0.800  10.302  17.069  1.00  0.00    -0.026 C 
HETATM   11  C16 UNL     1      -1.024  11.408  16.014  1.00  0.00     0.016 C 
HETATM   12  C17 UNL     1      -1.097   7.242  13.819  1.00  0.00    -0.008 C 
HETATM   13  C18 UNL     1      -1.000   8.165  12.576  1.00  0.00     0.021 C 
HETATM   14  C19 UNL     1       0.076   6.205  13.783  1.00  0.00     0.022 C 
HETATM   15  C20 UNL     1      -0.243   4.846  13.162  1.00  0.00     0.080 C 
HETATM   16  C21 UNL     1      -1.317   4.941  12.114  1.00  0.00     0.131 C 
HETATM   17  O2  UNL     1      -1.170   4.454  10.994  1.00  0.00    -0.298 OA
HETATM   18  C22 UNL     1      -2.627   5.590  12.533  1.00  0.00     0.056 C 
HETATM   19  C23 UNL     1      -3.680   4.493  12.686  1.00  0.00     0.018 C 
HETATM   20  C24 UNL     1      -2.431   6.415  13.829  1.00  0.00     0.012 C 
HETATM   21  C25 UNL     1      -3.632   7.319  14.102  1.00  0.00     0.042 C 
HETATM   22  C26 UNL     1      -3.509   8.031  15.448  1.00  0.00     0.148 C 
ENDROOT
BRANCH   1  23
HETATM   23  C5  UNL     1      -0.099  12.091  19.015  1.00  0.00    -0.014 C 
HETATM   24  C6  UNL     1      -0.141  13.300  18.077  1.00  0.00     0.010 C 
BRANCH  23  25
HETATM   25  C4  UNL     1       1.351  11.734  19.428  1.00  0.00     0.009 C 
BRANCH  25  26
HETATM   26  C3  UNL     1       1.466  10.643  20.513  1.00  0.00     0.034 C 
BRANCH  26  27
HETATM   27  C2  UNL     1       2.450  10.829  21.658  1.00  0.00    -0.075 C 
HETATM   28  C1  UNL     1       2.656  12.011  22.267  1.00  0.00     0.015 C 
BRANCH  27  29
HETATM   29  C27 UNL     1       3.272   9.611  22.079  1.00  0.00     0.107 C 
HETATM   30  C28 UNL     1       4.490   9.966  22.932  1.00  0.00     0.026 C 
BRANCH  29  31
HETATM   31  C29 UNL     1       2.404   8.596  22.811  1.00  0.00     0.147 C 
HETATM   32  O4  UNL     1       1.744   7.698  22.313  1.00  0.00    -0.650 OA
BRANCH  31  33
HETATM   33  O5  UNL     1       2.413   8.768  24.150  1.00  0.00    -0.776 OA
HETATM   34  H42 UNL     1       1.843   8.044  24.483  1.00  0.00     0.167 HD
ENDBRANCH  31  33
ENDBRANCH  29  31
ENDBRANCH  27  29
ENDBRANCH  26  27
ENDBRANCH  25  26
ENDBRANCH  23  25
ENDBRANCH   1  23
BRANCH  22  35
HETATM   35  O3  UNL     1      -4.384   9.151  15.393  1.00  0.00    -0.391 OA
HETATM   36  H37 UNL     1      -5.287   8.813  15.279  1.00  0.00     0.210 HD
ENDBRANCH  22  35
TORSDOF 8
ENDMDL
MODEL 2
REMARK minimizedAffinity -6.69863844
REMARK CNNscore 0.77440083
REMARK CNNaffinity 6.27588511
REMARK  8 active torsions:
REMARK  status: ('A' for Active; 'I' for Inactive)
REMARK    1  A    between atoms: C2_2  and  C3_3 
REMARK    2  A    between atoms: C2_2  and  C27_30 
REMARK    3  A    between atoms: C3_3  and  C4_4 
REMARK    4  A    between atoms: C4_4  and  C5_5 
REMARK    5  A    between atoms: C5_5  and  C7_7 
REMARK    6  A    between atoms: C26_28  and  O3_29 
REMARK    7  A    between atoms: C27_30  and  C29_32 
REMARK    8  A    between atoms: C29_32  and  O5_34 
ROOT
HETATM    1  C7  UNL     1     -17.291   3.278  14.699  1.00  0.00    -0.002 C 
HETATM    2  C8  UNL     1     -17.484   3.266  13.160  1.00  0.00     0.006 C 
HETATM    3  C9  UNL     1     -17.153   1.844  12.691  1.00  0.00     0.010 C 
HETATM    4  C10 UNL     1     -17.151   1.014  13.977  1.00  0.00     0.027 C 
HETATM    5  C11 UNL     1     -16.616  -0.404  14.037  1.00  0.00    -0.036 C 
HETATM    6  C12 UNL     1     -16.261  -0.951  15.229  1.00  0.00     0.002 C 
HETATM    7  C13 UNL     1     -16.239  -0.063  16.462  1.00  0.00     0.157 C 
HETATM    8  O1  UNL     1     -15.859  -0.502  17.548  1.00  0.00    -0.293 OA
HETATM    9  C14 UNL     1     -16.721   1.374  16.376  1.00  0.00     0.093 C 
HETATM   10  C15 UNL     1     -16.484   1.976  14.993  1.00  0.00    -0.026 C 
HETATM   11  C16 UNL     1     -14.966   2.140  14.754  1.00  0.00     0.016 C 
HETATM   12  C17 UNL     1     -15.871  -2.437  15.401  1.00  0.00    -0.008 C 
HETATM   13  C18 UNL     1     -14.325  -2.480  15.521  1.00  0.00     0.021 C 
HETATM   14  C19 UNL     1     -16.505  -3.073  16.684  1.00  0.00     0.022 C 
HETATM   15  C20 UNL     1     -16.872  -4.553  16.593  1.00  0.00     0.080 C 
HETATM   16  C21 UNL     1     -15.986  -5.297  15.633  1.00  0.00     0.131 C 
HETATM   17  O2  UNL     1     -15.421  -6.342  15.954  1.00  0.00    -0.298 OA
HETATM   18  C22 UNL     1     -15.892  -4.745  14.219  1.00  0.00     0.056 C 
HETATM   19  C23 UNL     1     -16.691  -5.661  13.291  1.00  0.00     0.018 C 
HETATM   20  C24 UNL     1     -16.386  -3.277  14.179  1.00  0.00     0.012 C 
HETATM   21  C25 UNL     1     -16.019  -2.602  12.859  1.00  0.00     0.042 C 
HETATM   22  C26 UNL     1     -16.622  -1.201  12.754  1.00  0.00     0.148 C 
ENDROOT
BRANCH   1  23
HETATM   23  C5  UNL     1     -16.882   4.667  15.270  1.00  0.00    -0.014 C 
HETATM   24  C6  UNL     1     -18.010   5.696  15.391  1.00  0.00     0.010 C 
BRANCH  23  25
HETATM   25  C4  UNL     1     -15.654   5.244  14.523  1.00  0.00     0.009 C 
BRANCH  25  26
HETATM   26  C3  UNL     1     -15.957   6.444  13.604  1.00  0.00     0.034 C 
BRANCH  26  27
HETATM   27  C2  UNL     1     -14.825   7.368  13.183  1.00  0.00    -0.075 C 
HETATM   28  C1  UNL     1     -13.570   6.938  12.955  1.00  0.00     0.015 C 
BRANCH  27  29
HETATM   29  C27 UNL     1     -15.141   8.860  13.077  1.00  0.00     0.107 C 
HETATM   30  C28 UNL     1     -13.901   9.751  13.149  1.00  0.00     0.026 C 
BRANCH  29  31
HETATM   31  C29 UNL     1     -15.923   9.160  11.804  1.00  0.00     0.147 C 
HETATM   32  O4  UNL     1     -16.518  10.191  11.531  1.00  0.00    -0.650 OA
BRANCH  31  33
HETATM   33  O5  UNL     1     -15.913   8.133  10.929  1.00  0.00    -0.776 OA
HETATM   34  H42 UNL     1     -16.422   8.472  10.164  1.00  0.00     0.167 HD
ENDBRANCH  31  33
ENDBRANCH  29  31
ENDBRANCH  27  29
ENDBRANCH  26  27
ENDBRANCH  25  26
ENDBRANCH  23  25
ENDBRANCH   1  23
BRANCH  22  35
HETATM   35  O3  UNL     1     -15.867  -0.511  11.766  1.00  0.00    -0.391 OA
HETATM   36  H37 UNL     1     -15.982  -0.984  10.925  1.00  0.00     0.210 HD
ENDBRANCH  22  35
TORSDOF 8
ENDMDL
MODEL 3
REMARK minimizedAffinity -8.76394939
REMARK CNNscore 0.745031238
REMARK CNNaffinity 7.12062597
REMARK  8 active torsions:
REMARK  status: ('A' for Active; 'I' for Inactive)
REMARK    1  A    between atoms: C2_2  and  C3_3 
REMARK    2  A    between atoms: C2_2  and  C27_30 
REMARK    3  A    between atoms: C3_3  and  C4_4 
REMARK    4  A    between atoms: C4_4  and  C5_5 
REMARK    5  A    between atoms: C5_5  and  C7_7 
REMARK    6  A    between atoms: C26_28  and  O3_29 
REMARK    7  A    between atoms: C27_30  and  C29_32 
REMARK    8  A    between atoms: C29_32  and  O5_34 
ROOT
HETATM    1  C7  UNL     1      -7.767   7.944  14.540  1.00  0.00    -0.002 C 
HETATM    2  C8  UNL     1      -6.782   8.866  15.306  1.00  0.00     0.006 C 
HETATM    3  C9  UNL     1      -5.382   8.271  15.103  1.00  0.00     0.010 C 
HETATM    4  C10 UNL     1      -5.559   7.277  13.952  1.00  0.00     0.027 C 
HETATM    5  C11 UNL     1      -4.498   6.261  13.577  1.00  0.00    -0.036 C 
HETATM    6  C12 UNL     1      -4.831   5.163  12.848  1.00  0.00     0.002 C 
HETATM    7  C13 UNL     1      -6.299   4.885  12.575  1.00  0.00     0.157 C 
HETATM    8  O1  UNL     1      -6.648   3.867  11.977  1.00  0.00    -0.293 OA
HETATM    9  C14 UNL     1      -7.359   5.883  13.009  1.00  0.00     0.093 C 
HETATM   10  C15 UNL     1      -6.942   6.650  14.262  1.00  0.00    -0.026 C 
HETATM   11  C16 UNL     1      -6.905   5.687  15.470  1.00  0.00     0.016 C 
HETATM   12  C17 UNL     1      -3.789   4.172  12.279  1.00  0.00    -0.008 C 
HETATM   13  C18 UNL     1      -3.820   2.921  13.195  1.00  0.00     0.021 C 
HETATM   14  C19 UNL     1      -4.119   3.742  10.810  1.00  0.00     0.022 C 
HETATM   15  C20 UNL     1      -2.920   3.461   9.904  1.00  0.00     0.080 C 
HETATM   16  C21 UNL     1      -1.729   2.971  10.679  1.00  0.00     0.131 C 
HETATM   17  O2  UNL     1      -1.122   1.952  10.353  1.00  0.00    -0.298 OA
HETATM   18  C22 UNL     1      -1.256   3.842  11.832  1.00  0.00     0.056 C 
HETATM   19  C23 UNL     1       0.034   4.543  11.408  1.00  0.00     0.018 C 
HETATM   20  C24 UNL     1      -2.368   4.838  12.248  1.00  0.00     0.012 C 
HETATM   21  C25 UNL     1      -2.048   5.505  13.584  1.00  0.00     0.042 C 
HETATM   22  C26 UNL     1      -3.067   6.589  13.933  1.00  0.00     0.148 C 
ENDROOT
BRANCH   1  23
HETATM   23  C5  UNL     1      -9.200   7.914  15.150  1.00  0.00    -0.014 C 
HETATM   24  C6  UNL     1      -9.276   7.710  16.665  1.00  0.00     0.010 C 
BRANCH  23  25
HETATM   25  C4  UNL     1     -10.114   6.923  14.388  1.00  0.00     0.009 C 
BRANCH  25  26
HETATM   26  C3  UNL     1     -11.273   7.577  13.607  1.00  0.00     0.034 C 
BRANCH  26  27
HETATM   27  C2  UNL     1     -12.677   7.547  14.190  1.00  0.00    -0.075 C 
HETATM   28  C1  UNL     1     -13.030   8.227  15.296  1.00  0.00     0.015 C 
BRANCH  27  29
HETATM   29  C27 UNL     1     -13.703   6.649  13.498  1.00  0.00     0.107 C 
HETATM   30  C28 UNL     1     -14.544   5.824  14.473  1.00  0.00     0.026 C 
BRANCH  29  31
HETATM   31  C29 UNL     1     -14.613   7.464  12.589  1.00  0.00     0.147 C 
HETATM   32  O4  UNL     1     -14.432   8.607  12.199  1.00  0.00    -0.650 OA
BRANCH  31  33
HETATM   33  O5  UNL     1     -15.719   6.788  12.212  1.00  0.00    -0.776 OA
HETATM   34  H42 UNL     1     -16.187   7.414  11.622  1.00  0.00     0.167 HD
ENDBRANCH  31  33
ENDBRANCH  29  31
ENDBRANCH  27  29
ENDBRANCH  26  27
ENDBRANCH  25  26
ENDBRANCH  23  25
ENDBRANCH   1  23
BRANCH  22  35
HETATM   35  O3  UNL     1      -2.967   6.800  15.336  1.00  0.00    -0.391 OA
HETATM   36  H37 UNL     1      -2.068   7.120  15.521  1.00  0.00     0.210 HD
ENDBRANCH  22  35
TORSDOF 8
ENDMDL
MODEL 4
REMARK minimizedAffinity -7.38831091
REMARK CNNscore 0.718169153
REMARK CNNaffinity 6.53221273
REMARK  8 active torsions:
REMARK  status: ('A' for Active; 'I' for Inactive)
REMARK    1  A    between atoms: C2_2  and  C3_3 
REMARK    2  A    between atoms: C2_2  and  C27_30 
REMARK    3  A    between atoms: C3_3  and  C4_4 
REMARK    4  A    between atoms: C4_4  and  C5_5 
REMARK    5  A    between atoms: C5_5  and  C7_7 
REMARK    6  A    between atoms: C26_28  and  O3_29 
REMARK    7  A    between atoms: C27_30  and  C29_32 
REMARK    8  A    between atoms: C29_32  and  O5_34 
ROOT
HETATM    1  C7  UNL     1     -12.329 -12.047  26.325  1.00  0.00    -0.002 C 
HETATM    2  C8  UNL     1     -13.238 -12.039  25.068  1.00  0.00     0.006 C 
HETATM    3  C9  UNL     1     -14.140 -10.805  25.192  1.00  0.00     0.010 C 
HETATM    4  C10 UNL     1     -13.480  -9.964  26.288  1.00  0.00     0.027 C 
HETATM    5  C11 UNL     1     -14.165  -8.775  26.934  1.00  0.00    -0.036 C 
HETATM    6  C12 UNL     1     -13.743  -8.316  28.141  1.00  0.00     0.002 C 
HETATM    7  C13 UNL     1     -12.702  -9.117  28.905  1.00  0.00     0.157 C 
HETATM    8  O1  UNL     1     -12.341  -8.772  30.030  1.00  0.00    -0.293 OA
HETATM    9  C14 UNL     1     -12.066 -10.342  28.270  1.00  0.00     0.093 C 
HETATM   10  C15 UNL     1     -13.015 -11.042  27.300  1.00  0.00    -0.026 C 
HETATM   11  C16 UNL     1     -14.188 -11.670  28.087  1.00  0.00     0.016 C 
HETATM   12  C17 UNL     1     -14.268  -7.013  28.787  1.00  0.00    -0.008 C 
HETATM   13  C18 UNL     1     -15.270  -7.437  29.893  1.00  0.00     0.021 C 
HETATM   14  C19 UNL     1     -13.121  -6.164  29.430  1.00  0.00     0.022 C 
HETATM   15  C20 UNL     1     -13.298  -4.646  29.387  1.00  0.00     0.080 C 
HETATM   16  C21 UNL     1     -14.748  -4.246  29.392  1.00  0.00     0.131 C 
HETATM   17  O2  UNL     1     -15.184  -3.412  30.183  1.00  0.00    -0.298 OA
HETATM   18  C22 UNL     1     -15.630  -4.857  28.314  1.00  0.00     0.056 C 
HETATM   19  C23 UNL     1     -15.933  -3.780  27.273  1.00  0.00     0.018 C 
HETATM   20  C24 UNL     1     -14.948  -6.106  27.700  1.00  0.00     0.012 C 
HETATM   21  C25 UNL     1     -15.925  -6.912  26.848  1.00  0.00     0.042 C 
HETATM   22  C26 UNL     1     -15.228  -8.066  26.128  1.00  0.00     0.148 C 
ENDROOT
BRANCH   1  23
HETATM   23  C5  UNL     1     -11.878 -13.471  26.764  1.00  0.00    -0.014 C 
HETATM   24  C6  UNL     1     -11.573 -13.644  28.255  1.00  0.00     0.010 C 
BRANCH  23  25
HETATM   25  C4  UNL     1     -10.724 -13.996  25.875  1.00  0.00     0.009 C 
BRANCH  25  26
HETATM   26  C3  UNL     1      -9.380 -13.259  26.053  1.00  0.00     0.034 C 
BRANCH  26  27
HETATM   27  C2  UNL     1      -8.452 -13.099  24.859  1.00  0.00    -0.075 C 
HETATM   28  C1  UNL     1      -7.629 -14.073  24.430  1.00  0.00     0.015 C 
BRANCH  27  29
HETATM   29  C27 UNL     1      -8.433 -11.736  24.165  1.00  0.00     0.107 C 
HETATM   30  C28 UNL     1      -7.067 -11.370  23.585  1.00  0.00     0.026 C 
BRANCH  29  31
HETATM   31  C29 UNL     1      -9.495 -11.666  23.076  1.00  0.00     0.147 C 
HETATM   32  O4  UNL     1     -10.620 -11.202  23.174  1.00  0.00    -0.650 OA
BRANCH  31  33
HETATM   33  O5  UNL     1      -9.079 -12.190  21.904  1.00  0.00    -0.776 OA
HETATM   34  H42 UNL     1      -9.841 -12.055  21.303  1.00  0.00     0.167 HD
ENDBRANCH  31  33
ENDBRANCH  29  31
ENDBRANCH  27  29
ENDBRANCH  26  27
ENDBRANCH  25  26
ENDBRANCH  23  25
ENDBRANCH   1  23
BRANCH  22  35
HETATM   35  O3  UNL     1     -16.246  -8.992  25.771  1.00  0.00    -0.391 OA
HETATM   36  H37 UNL     1     -16.853  -8.541  25.161  1.00  0.00     0.210 HD
ENDBRANCH  22  35
TORSDOF 8
ENDMDL
MODEL 5
REMARK minimizedAffinity -9.75666618
REMARK CNNscore 0.690657973
REMARK CNNaffinity 7.25984621
REMARK  8 active torsions:
REMARK  status: ('A' for Active; 'I' for Inactive)
REMARK    1  A    between atoms: C2_2  and  C3_3 
REMARK    2  A    between atoms: C2_2  and  C27_30 
REMARK    3  A    between atoms: C3_3  and  C4_4 
REMARK    4  A    between atoms: C4_4  and  C5_5 
REMARK    5  A    between atoms: C5_5  and  C7_7 
REMARK    6  A    between atoms: C26_28  and  O3_29 
REMARK    7  A    between atoms: C27_30  and  C29_32 
REMARK    8  A    between atoms: C29_32  and  O5_34 
ROOT
HETATM    1  C7  UNL     1      -1.852   5.165  12.195  1.00  0.00    -0.002 C 
HETATM    2  C8  UNL     1      -2.485   4.031  11.346  1.00  0.00     0.006 C 
HETATM    3  C9  UNL     1      -3.969   3.977  11.730  1.00  0.00     0.010 C 
HETATM    4  C10 UNL     1      -4.211   5.289  12.481  1.00  0.00     0.027 C 
HETATM    5  C11 UNL     1      -5.475   5.557  13.277  1.00  0.00    -0.036 C 
HETATM    6  C12 UNL     1      -5.489   6.523  14.232  1.00  0.00     0.002 C 
HETATM    7  C13 UNL     1      -4.180   7.198  14.609  1.00  0.00     0.157 C 
HETATM    8  O1  UNL     1      -4.138   8.030  15.515  1.00  0.00    -0.293 OA
HETATM    9  C14 UNL     1      -2.909   6.877  13.842  1.00  0.00     0.093 C 
HETATM   10  C15 UNL     1      -2.909   5.447  13.306  1.00  0.00    -0.026 C 
HETATM   11  C16 UNL     1      -2.824   4.453  14.486  1.00  0.00     0.016 C 
HETATM   12  C17 UNL     1      -6.772   6.975  14.966  1.00  0.00    -0.008 C 
HETATM   13  C18 UNL     1      -6.732   6.325  16.374  1.00  0.00     0.021 C 
HETATM   14  C19 UNL     1      -6.851   8.531  15.120  1.00  0.00     0.022 C 
HETATM   15  C20 UNL     1      -8.251   9.144  15.077  1.00  0.00     0.080 C 
HETATM   16  C21 UNL     1      -9.300   8.191  15.582  1.00  0.00     0.131 C 
HETATM   17  O2  UNL     1     -10.116   8.526  16.439  1.00  0.00    -0.298 OA
HETATM   18  C22 UNL     1      -9.361   6.825  14.918  1.00  0.00     0.056 C 
HETATM   19  C23 UNL     1     -10.588   6.786  14.008  1.00  0.00     0.018 C 
HETATM   20  C24 UNL     1      -8.043   6.535  14.156  1.00  0.00     0.012 C 
HETATM   21  C25 UNL     1      -7.948   5.068  13.744  1.00  0.00     0.042 C 
HETATM   22  C26 UNL     1      -6.720   4.803  12.874  1.00  0.00     0.148 C 
ENDROOT
BRANCH   1  23
HETATM   23  C5  UNL     1      -0.342   4.948  12.506  1.00  0.00    -0.014 C 
HETATM   24  C6  UNL     1       0.252   5.852  13.590  1.00  0.00     0.010 C 
BRANCH  23  25
HETATM   25  C4  UNL     1       0.508   4.966  11.211  1.00  0.00     0.009 C 
BRANCH  25  26
HETATM   26  C3  UNL     1       1.390   6.218  11.030  1.00  0.00     0.034 C 
BRANCH  26  27
HETATM   27  C2  UNL     1       1.145   7.140   9.846  1.00  0.00    -0.075 C 
HETATM   28  C1  UNL     1       0.285   8.175   9.884  1.00  0.00     0.015 C 
BRANCH  27  29
HETATM   29  C27 UNL     1       1.882   6.820   8.545  1.00  0.00     0.107 C 
HETATM   30  C28 UNL     1       2.205   8.058   7.709  1.00  0.00     0.026 C 
BRANCH  29  31
HETATM   31  C29 UNL     1       3.156   6.034   8.822  1.00  0.00     0.147 C 
HETATM   32  O4  UNL     1       3.399   4.884   8.488  1.00  0.00    -0.650 OA
BRANCH  31  33
HETATM   33  O5  UNL     1       4.072   6.745   9.512  1.00  0.00    -0.776 OA
HETATM   34  H42 UNL     1       4.832   6.133   9.593  1.00  0.00     0.167 HD
ENDBRANCH  31  33
ENDBRANCH  29  31
ENDBRANCH  27  29
ENDBRANCH  26  27
ENDBRANCH  25  26
ENDBRANCH  23  25
ENDBRANCH   1  23
BRANCH  22  35
HETATM   35  O3  UNL     1      -6.470   3.405  12.944  1.00  0.00    -0.391 OA
HETATM   36  H37 UNL     1      -7.243   2.949  12.572  1.00  0.00     0.210 HD
ENDBRANCH  22  35
TORSDOF 8
ENDMDL
MODEL 6
REMARK minimizedAffinity -9.11150742
REMARK CNNscore 0.623217642
REMARK CNNaffinity 6.82557726
REMARK  8 active torsions:
REMARK  status: ('A' for Active; 'I' for Inactive)
REMARK    1  A    between atoms: C2_2  and  C3_3 
REMARK    2  A    between atoms: C2_2  and  C27_30 
REMARK    3  A    between atoms: C3_3  and  C4_4 
REMARK    4  A    between atoms: C4_4  and  C5_5 
REMARK    5  A    between atoms: C5_5  and  C7_7 
REMARK    6  A    between atoms: C26_28  and  O3_29 
REMARK    7  A    between atoms: C27_30  and  C29_32 
REMARK    8  A    between atoms: C29_32  and  O5_34 
ROOT
HETATM    1  C7  UNL     1      -8.445   7.558  14.605  1.00  0.00    -0.002 C 
HETATM    2  C8  UNL     1      -7.618   8.728  15.201  1.00  0.00     0.006 C 
HETATM    3  C9  UNL     1      -6.144   8.392  14.946  1.00  0.00     0.010 C 
HETATM    4  C10 UNL     1      -6.188   7.265  13.911  1.00  0.00     0.027 C 
HETATM    5  C11 UNL     1      -4.970   6.435  13.550  1.00  0.00    -0.036 C 
HETATM    6  C12 UNL     1      -5.121   5.222  12.957  1.00  0.00     0.002 C 
HETATM    7  C13 UNL     1      -6.519   4.641  12.827  1.00  0.00     0.157 C 
HETATM    8  O1  UNL     1      -6.694   3.517  12.357  1.00  0.00    -0.293 OA
HETATM    9  C14 UNL     1      -7.727   5.460  13.247  1.00  0.00     0.093 C 
HETATM   10  C15 UNL     1      -7.398   6.423  14.386  1.00  0.00    -0.026 C 
HETATM   11  C16 UNL     1      -7.101   5.620  15.672  1.00  0.00     0.016 C 
HETATM   12  C17 UNL     1      -3.939   4.393  12.404  1.00  0.00    -0.008 C 
HETATM   13  C18 UNL     1      -3.668   3.265  13.433  1.00  0.00     0.021 C 
HETATM   14  C19 UNL     1      -4.263   3.752  11.012  1.00  0.00     0.022 C 
HETATM   15  C20 UNL     1      -3.088   3.609  10.045  1.00  0.00     0.080 C 
HETATM   16  C21 UNL     1      -1.779   3.441  10.767  1.00  0.00     0.131 C 
HETATM   17  O2  UNL     1      -1.003   2.528  10.492  1.00  0.00    -0.298 OA
HETATM   18  C22 UNL     1      -1.422   4.506  11.793  1.00  0.00     0.056 C 
HETATM   19  C23 UNL     1      -0.323   5.391  11.204  1.00  0.00     0.018 C 
HETATM   20  C24 UNL     1      -2.682   5.310  12.199  1.00  0.00     0.012 C 
HETATM   21  C25 UNL     1      -2.422   6.166  13.436  1.00  0.00     0.042 C 
HETATM   22  C26 UNL     1      -3.614   7.067  13.761  1.00  0.00     0.148 C 
ENDROOT
BRANCH   1  23
HETATM   23  C5  UNL     1      -9.805   7.321  15.325  1.00  0.00    -0.014 C 
HETATM   24  C6  UNL     1     -10.929   6.751  14.455  1.00  0.00     0.010 C 
BRANCH  23  25
HETATM   25  C4  UNL     1     -10.260   8.582  16.100  1.00  0.00     0.009 C 
BRANCH  25  26
HETATM   26  C3  UNL     1     -11.625   9.154  15.666  1.00  0.00     0.034 C 
BRANCH  26  27
HETATM   27  C2  UNL     1     -11.673  10.298  14.666  1.00  0.00    -0.075 C 
HETATM   28  C1  UNL     1     -10.662  11.171  14.497  1.00  0.00     0.015 C 
BRANCH  27  29
HETATM   29  C27 UNL     1     -12.963  10.475  13.865  1.00  0.00     0.107 C 
HETATM   30  C28 UNL     1     -13.223  11.921  13.445  1.00  0.00     0.026 C 
BRANCH  29  31
HETATM   31  C29 UNL     1     -12.972   9.569  12.641  1.00  0.00     0.147 C 
HETATM   32  O4  UNL     1     -13.386   8.422  12.577  1.00  0.00    -0.650 OA
BRANCH  31  33
HETATM   33  O5  UNL     1     -12.453  10.163  11.546  1.00  0.00    -0.776 OA
HETATM   34  H42 UNL     1     -12.546   9.485  10.845  1.00  0.00     0.167 HD
ENDBRANCH  31  33
ENDBRANCH  29  31
ENDBRANCH  27  29
ENDBRANCH  26  27
ENDBRANCH  25  26
ENDBRANCH  23  25
ENDBRANCH   1  23
BRANCH  22  35
HETATM   35  O3  UNL     1      -3.475   7.443  15.125  1.00  0.00    -0.391 OA
HETATM   36  H37 UNL     1      -2.649   7.946  15.208  1.00  0.00     0.210 HD
ENDBRANCH  22  35
TORSDOF 8
ENDMDL
MODEL 7
REMARK minimizedAffinity -8.80720139
REMARK CNNscore 0.516734064
REMARK CNNaffinity 6.66568756
REMARK  8 active torsions:
REMARK  status: ('A' for Active; 'I' for Inactive)
REMARK    1  A    between atoms: C2_2  and  C3_3 
REMARK    2  A    between atoms: C2_2  and  C27_30 
REMARK    3  A    between atoms: C3_3  and  C4_4 
REMARK    4  A    between atoms: C4_4  and  C5_5 
REMARK    5  A    between atoms: C5_5  and  C7_7 
REMARK    6  A    between atoms: C26_28  and  O3_29 
REMARK    7  A    between atoms: C27_30  and  C29_32 
REMARK    8  A    between atoms: C29_32  and  O5_34 
ROOT
HETATM    1  C7  UNL     1      -1.859  10.091  14.180  1.00  0.00    -0.002 C 
HETATM    2  C8  UNL     1      -0.618   9.292  13.701  1.00  0.00     0.006 C 
HETATM    3  C9  UNL     1      -1.098   7.858  13.442  1.00  0.00     0.010 C 
HETATM    4  C10 UNL     1      -2.624   7.971  13.417  1.00  0.00     0.027 C 
HETATM    5  C11 UNL     1      -3.536   6.758  13.449  1.00  0.00    -0.036 C 
HETATM    6  C12 UNL     1      -4.834   6.890  13.826  1.00  0.00     0.002 C 
HETATM    7  C13 UNL     1      -5.303   8.225  14.381  1.00  0.00     0.157 C 
HETATM    8  O1  UNL     1      -6.453   8.368  14.795  1.00  0.00    -0.293 OA
HETATM    9  C14 UNL     1      -4.361   9.417  14.397  1.00  0.00     0.093 C 
HETATM   10  C15 UNL     1      -2.902   8.991  14.549  1.00  0.00    -0.026 C 
HETATM   11  C16 UNL     1      -2.681   8.397  15.958  1.00  0.00     0.016 C 
HETATM   12  C17 UNL     1      -5.870   5.747  13.724  1.00  0.00    -0.008 C 
HETATM   13  C18 UNL     1      -6.062   5.191  15.160  1.00  0.00     0.021 C 
HETATM   14  C19 UNL     1      -7.251   6.243  13.176  1.00  0.00     0.022 C 
HETATM   15  C20 UNL     1      -8.038   5.246  12.326  1.00  0.00     0.080 C 
HETATM   16  C21 UNL     1      -7.745   3.821  12.711  1.00  0.00     0.131 C 
HETATM   17  O2  UNL     1      -8.646   3.019  12.946  1.00  0.00    -0.298 OA
HETATM   18  C22 UNL     1      -6.284   3.398  12.708  1.00  0.00     0.056 C 
HETATM   19  C23 UNL     1      -6.044   2.510  11.486  1.00  0.00     0.018 C 
HETATM   20  C24 UNL     1      -5.361   4.641  12.733  1.00  0.00     0.012 C 
HETATM   21  C25 UNL     1      -3.915   4.256  13.041  1.00  0.00     0.042 C 
HETATM   22  C26 UNL     1      -2.975   5.456  12.931  1.00  0.00     0.148 C 
ENDROOT
BRANCH   1  23
HETATM   23  C5  UNL     1      -1.514  11.275  15.131  1.00  0.00    -0.014 C 
HETATM   24  C6  UNL     1      -1.883  12.670  14.619  1.00  0.00     0.010 C 
BRANCH  23  25
HETATM   25  C4  UNL     1      -0.041  11.206  15.605  1.00  0.00     0.009 C 
BRANCH  25  26
HETATM   26  C3  UNL     1       0.195  10.353  16.868  1.00  0.00     0.034 C 
BRANCH  26  27
HETATM   27  C2  UNL     1      -0.162  10.922  18.232  1.00  0.00    -0.075 C 
HETATM   28  C1  UNL     1      -1.411  10.902  18.734  1.00  0.00     0.015 C 
BRANCH  27  29
HETATM   29  C27 UNL     1       0.958  11.594  19.027  1.00  0.00     0.107 C 
HETATM   30  C28 UNL     1       0.479  12.772  19.875  1.00  0.00     0.026 C 
BRANCH  29  31
HETATM   31  C29 UNL     1       1.682  10.583  19.905  1.00  0.00     0.147 C 
HETATM   32  O4  UNL     1       1.535  10.411  21.105  1.00  0.00    -0.650 OA
BRANCH  31  33
HETATM   33  O5  UNL     1       2.566   9.830  19.217  1.00  0.00    -0.776 OA
HETATM   34  H42 UNL     1       2.930   9.220  19.892  1.00  0.00     0.167 HD
ENDBRANCH  31  33
ENDBRANCH  29  31
ENDBRANCH  27  29
ENDBRANCH  26  27
ENDBRANCH  25  26
ENDBRANCH  23  25
ENDBRANCH   1  23
BRANCH  22  35
HETATM   35  O3  UNL     1      -1.805   5.119  13.666  1.00  0.00    -0.391 OA
HETATM   36  H37 UNL     1      -1.403   4.344  13.239  1.00  0.00     0.210 HD
ENDBRANCH  22  35
TORSDOF 8
ENDMDL
MODEL 8
REMARK minimizedAffinity -8.30843544
REMARK CNNscore 0.503252089
REMARK CNNaffinity 6.99275064
REMARK  8 active torsions:
REMARK  status: ('A' for Active; 'I' for Inactive)
REMARK    1  A    between atoms: C2_2  and  C3_3 
REMARK    2  A    between atoms: C2_2  and  C27_30 
REMARK    3  A    between atoms: C3_3  and  C4_4 
REMARK    4  A    between atoms: C4_4  and  C5_5 
REMARK    5  A    between atoms: C5_5  and  C7_7 
REMARK    6  A    between atoms: C26_28  and  O3_29 
REMARK    7  A    between atoms: C27_30  and  C29_32 
REMARK    8  A    between atoms: C29_32  and  O5_34 
ROOT
HETATM    1  C7  UNL     1      -6.819   6.088  13.668  1.00  0.00    -0.002 C 
HETATM    2  C8  UNL     1      -7.693   4.964  13.052  1.00  0.00     0.006 C 
HETATM    3  C9  UNL     1      -9.153   5.393  13.245  1.00  0.00     0.010 C 
HETATM    4  C10 UNL     1      -9.064   6.876  13.612  1.00  0.00     0.027 C 
HETATM    5  C11 UNL     1     -10.246   7.660  14.150  1.00  0.00    -0.036 C 
HETATM    6  C12 UNL     1     -10.045   8.820  14.828  1.00  0.00     0.002 C 
HETATM    7  C13 UNL     1      -8.624   9.219  15.190  1.00  0.00     0.157 C 
HETATM    8  O1  UNL     1      -8.404  10.227  15.861  1.00  0.00    -0.293 OA
HETATM    9  C14 UNL     1      -7.450   8.392  14.695  1.00  0.00     0.093 C 
HETATM   10  C15 UNL     1      -7.818   6.918  14.532  1.00  0.00    -0.026 C 
HETATM   11  C16 UNL     1      -8.078   6.294  15.921  1.00  0.00     0.016 C 
HETATM   12  C17 UNL     1     -11.192   9.764  15.258  1.00  0.00    -0.008 C 
HETATM   13  C18 UNL     1     -11.413   9.532  16.776  1.00  0.00     0.021 C 
HETATM   14  C19 UNL     1     -10.845  11.271  15.012  1.00  0.00     0.022 C 
HETATM   15  C20 UNL     1     -12.016  12.182  14.642  1.00  0.00     0.080 C 
HETATM   16  C21 UNL     1     -13.314  11.699  15.227  1.00  0.00     0.131 C 
HETATM   17  O2  UNL     1     -14.052  12.449  15.865  1.00  0.00    -0.298 OA
HETATM   18  C22 UNL     1     -13.714  10.265  14.918  1.00  0.00     0.056 C 
HETATM   19  C23 UNL     1     -14.850  10.292  13.897  1.00  0.00     0.018 C 
HETATM   20  C24 UNL     1     -12.488   9.456  14.426  1.00  0.00     0.012 C 
HETATM   21  C25 UNL     1     -12.780   7.958  14.404  1.00  0.00     0.042 C 
HETATM   22  C26 UNL     1     -11.627   7.166  13.789  1.00  0.00     0.148 C 
ENDROOT
BRANCH   1  23
HETATM   23  C5  UNL     1      -5.448   5.589  14.213  1.00  0.00    -0.014 C 
HETATM   24  C6  UNL     1      -4.883   6.365  15.406  1.00  0.00     0.010 C 
BRANCH  23  25
HETATM   25  C4  UNL     1      -4.408   5.444  13.075  1.00  0.00     0.009 C 
BRANCH  25  26
HETATM   26  C3  UNL     1      -3.672   4.089  13.036  1.00  0.00     0.034 C 
BRANCH  26  27
HETATM   27  C2  UNL     1      -3.714   3.253  11.767  1.00  0.00    -0.075 C 
HETATM   28  C1  UNL     1      -4.759   2.473  11.433  1.00  0.00     0.015 C 
BRANCH  27  29
HETATM   29  C27 UNL     1      -2.473   3.272  10.874  1.00  0.00     0.107 C 
HETATM   30  C28 UNL     1      -1.684   4.578  10.958  1.00  0.00     0.026 C 
BRANCH  29  31
HETATM   31  C29 UNL     1      -1.560   2.093  11.186  1.00  0.00     0.147 C 
HETATM   32  O4  UNL     1      -0.436   2.138  11.661  1.00  0.00    -0.650 OA
BRANCH  31  33
HETATM   33  O5  UNL     1      -2.119   0.903  10.881  1.00  0.00    -0.776 OA
HETATM   34  H42 UNL     1      -1.442   0.250  11.153  1.00  0.00     0.167 HD
ENDBRANCH  31  33
ENDBRANCH  29  31
ENDBRANCH  27  29
ENDBRANCH  26  27
ENDBRANCH  25  26
ENDBRANCH  23  25
ENDBRANCH   1  23
BRANCH  22  35
HETATM   35  O3  UNL     1     -11.778   5.823  14.233  1.00  0.00    -0.391 OA
HETATM   36  H37 UNL     1     -12.625   5.494  13.889  1.00  0.00     0.210 HD
ENDBRANCH  22  35
TORSDOF 8
ENDMDL
MODEL 9
REMARK minimizedAffinity -7.30285454
REMARK CNNscore 0.386247873
REMARK CNNaffinity 5.99117899
REMARK  8 active torsions:
REMARK  status: ('A' for Active; 'I' for Inactive)
REMARK    1  A    between atoms: C2_2  and  C3_3 
REMARK    2  A    between atoms: C2_2  and  C27_30 
REMARK    3  A    between atoms: C3_3  and  C4_4 
REMARK    4  A    between atoms: C4_4  and  C5_5 
REMARK    5  A    between atoms: C5_5  and  C7_7 
REMARK    6  A    between atoms: C26_28  and  O3_29 
REMARK    7  A    between atoms: C27_30  and  C29_32 
REMARK    8  A    between atoms: C29_32  and  O5_34 
ROOT
HETATM    1  C7  UNL     1     -13.088   7.685  23.105  1.00  0.00    -0.002 C 
HETATM    2  C8  UNL     1     -13.432   7.401  21.620  1.00  0.00     0.006 C 
HETATM    3  C9  UNL     1     -12.812   8.542  20.803  1.00  0.00     0.010 C 
HETATM    4  C10 UNL     1     -11.842   9.216  21.777  1.00  0.00     0.027 C 
HETATM    5  C11 UNL     1     -11.194  10.558  21.490  1.00  0.00    -0.036 C 
HETATM    6  C12 UNL     1     -10.679  11.299  22.506  1.00  0.00     0.002 C 
HETATM    7  C13 UNL     1     -10.923  10.847  23.936  1.00  0.00     0.157 C 
HETATM    8  O1  UNL     1     -10.531  11.524  24.887  1.00  0.00    -0.293 OA
HETATM    9  C14 UNL     1     -11.626   9.529  24.211  1.00  0.00     0.093 C 
HETATM   10  C15 UNL     1     -12.626   9.175  23.112  1.00  0.00    -0.026 C 
HETATM   11  C16 UNL     1     -13.805  10.172  23.146  1.00  0.00     0.016 C 
HETATM   12  C17 UNL     1      -9.855  12.588  22.286  1.00  0.00    -0.008 C 
HETATM   13  C18 UNL     1     -10.798  13.778  22.601  1.00  0.00     0.021 C 
HETATM   14  C19 UNL     1      -8.603  12.661  23.225  1.00  0.00     0.022 C 
HETATM   15  C20 UNL     1      -7.370  13.358  22.652  1.00  0.00     0.080 C 
HETATM   16  C21 UNL     1      -7.734  14.416  21.648  1.00  0.00     0.131 C 
HETATM   17  O2  UNL     1      -7.283  15.558  21.722  1.00  0.00    -0.298 OA
HETATM   18  C22 UNL     1      -8.615  13.984  20.487  1.00  0.00     0.056 C 
HETATM   19  C23 UNL     1      -7.750  13.907  19.229  1.00  0.00     0.018 C 
HETATM   20  C24 UNL     1      -9.318  12.643  20.811  1.00  0.00     0.012 C 
HETATM   21  C25 UNL     1     -10.434  12.342  19.813  1.00  0.00     0.042 C 
HETATM   22  C26 UNL     1     -11.039  10.957  20.042  1.00  0.00     0.148 C 
ENDROOT
BRANCH   1  23
HETATM   23  C5  UNL     1     -14.137   7.125  24.111  1.00  0.00    -0.014 C 
HETATM   24  C6  UNL     1     -13.745   7.190  25.589  1.00  0.00     0.010 C 
BRANCH  23  25
HETATM   25  C4  UNL     1     -14.608   5.707  23.702  1.00  0.00     0.009 C 
BRANCH  25  26
HETATM   26  C3  UNL     1     -13.778   4.551  24.296  1.00  0.00     0.034 C 
BRANCH  26  27
HETATM   27  C2  UNL     1     -13.509   3.314  23.453  1.00  0.00    -0.075 C 
HETATM   28  C1  UNL     1     -13.801   3.240  22.141  1.00  0.00     0.015 C 
BRANCH  27  29
HETATM   29  C27 UNL     1     -12.932   2.092  24.166  1.00  0.00     0.107 C 
HETATM   30  C28 UNL     1     -11.440   2.217  24.475  1.00  0.00     0.026 C 
BRANCH  29  31
HETATM   31  C29 UNL     1     -13.704   1.794  25.445  1.00  0.00     0.147 C 
HETATM   32  O4  UNL     1     -13.405   2.132  26.580  1.00  0.00    -0.650 OA
BRANCH  31  33
HETATM   33  O5  UNL     1     -14.827   1.079  25.225  1.00  0.00    -0.776 OA
HETATM   34  H42 UNL     1     -15.225   0.987  26.116  1.00  0.00     0.167 HD
ENDBRANCH  31  33
ENDBRANCH  29  31
ENDBRANCH  27  29
ENDBRANCH  26  27
ENDBRANCH  25  26
ENDBRANCH  23  25
ENDBRANCH   1  23
BRANCH  22  35
HETATM   35  O3  UNL     1     -12.315  10.967  19.415  1.00  0.00    -0.391 OA
HETATM   36  H37 UNL     1     -12.175  11.112  18.465  1.00  0.00     0.210 HD
ENDBRANCH  22  35
TORSDOF 8
ENDMDL
