MODEL 1
REMARK minimizedAffinity -7.54292488
REMARK CNNscore 0.674376249
REMARK CNNaffinity 6.93582535
REMARK  5 active torsions:
REMARK  status: ('A' for Active; 'I' for Inactive)
REMARK    1  A    between atoms: C2_2  and  C4_4 
REMARK    2  A    between atoms: C7_7  and  C8_8 
REMARK    3  A    between atoms: C8_8  and  O2_10 
REMARK    4  A    between atoms: C11_13  and  C12_14 
REMARK    5  A    between atoms: C12_14  and  O4_16 
ROOT
HETATM    1  C4  UNL     1       1.669   8.253   9.441  1.00  0.00     0.019 C 
HETATM    2  C5  UNL     1       2.644   7.118   9.094  1.00  0.00     0.011 C 
HETATM    3  C6  UNL     1       3.751   7.309  10.117  1.00  0.00     0.021 C 
HETATM    4  C7  UNL     1       2.990   7.548  11.440  1.00  0.00     0.050 C 
HETATM    5  C9  UNL     1       2.659   6.172  12.057  1.00  0.00     0.022 C 
HETATM    6  C10 UNL     1       1.501   6.180  13.053  1.00  0.00     0.023 C 
HETATM    7  C11 UNL     1       0.177   6.807  12.509  1.00  0.00     0.057 C 
HETATM    8  C13 UNL     1       0.534   8.241  11.992  1.00  0.00     0.011 C 
HETATM    9  C14 UNL     1      -0.684   9.107  11.658  1.00  0.00     0.007 C 
HETATM   10  C15 UNL     1      -1.705   9.169  12.796  1.00  0.00     0.006 C 
HETATM   11  C16 UNL     1      -2.177   7.767  13.228  1.00  0.00     0.003 C 
HETATM   12  C17 UNL     1      -3.495   7.767  14.115  1.00  0.00    -0.035 C 
HETATM   13  C18 UNL     1      -3.382   8.696  15.357  1.00  0.00     0.016 C 
HETATM   14  C19 UNL     1      -4.657   8.371  13.254  1.00  0.00     0.017 C 
HETATM   15  C20 UNL     1      -6.033   7.922  13.709  1.00  0.00     0.080 C 
HETATM   16  C21 UNL     1      -6.180   6.441  13.486  1.00  0.00     0.135 C 
HETATM   17  O5  UNL     1      -7.265   5.983  13.120  1.00  0.00    -0.297 OA
HETATM   18  C22 UNL     1      -4.955   5.544  13.747  1.00  0.00     0.017 C 
HETATM   19  C23 UNL     1      -5.489   4.312  14.521  1.00  0.00     0.023 C 
HETATM   20  C24 UNL     1      -4.454   5.055  12.383  1.00  0.00     0.023 C 
HETATM   21  C25 UNL     1      -3.893   6.321  14.619  1.00  0.00     0.009 C 
HETATM   22  C26 UNL     1      -2.660   5.489  15.040  1.00  0.00     0.007 C 
HETATM   23  C27 UNL     1      -1.495   5.479  14.051  1.00  0.00     0.011 C 
HETATM   24  C28 UNL     1      -0.956   6.890  13.696  1.00  0.00    -0.022 C 
HETATM   25  C29 UNL     1      -0.305   7.469  14.989  1.00  0.00     0.017 C 
HETATM   26  C30 UNL     1       1.737   8.389  11.007  1.00  0.00     0.018 C 
ENDROOT
BRANCH   4  27
HETATM   27  C8  UNL     1       3.825   8.334  12.451  1.00  0.00     0.149 C 
HETATM   28  O1  UNL     1       3.745   9.534  12.666  1.00  0.00    -0.649 OA
BRANCH  27  29
HETATM   29  O2  UNL     1       4.693   7.597  13.168  1.00  0.00    -0.776 OA
HETATM   30  H11 UNL     1       5.070   8.237  13.804  1.00  0.00     0.167 HD
ENDBRANCH  27  29
ENDBRANCH   4  27
BRANCH   1  31
HETATM   31  C2  UNL     1       0.386   8.279   8.637  1.00  0.00    -0.088 C 
HETATM   32  C1  UNL     1      -0.788   8.747   9.094  1.00  0.00     0.014 C 
HETATM   33  C3  UNL     1       0.426   7.563   7.308  1.00  0.00     0.043 C 
ENDBRANCH   1  31
BRANCH   7  34
HETATM   34  C12 UNL     1      -0.310   5.881  11.374  1.00  0.00     0.149 C 
HETATM   35  O3  UNL     1      -1.419   5.874  10.861  1.00  0.00    -0.649 OA
BRANCH  34  36
HETATM   36  O4  UNL     1       0.616   5.050  10.878  1.00  0.00    -0.776 OA
HETATM   37  H16 UNL     1       0.136   4.544  10.189  1.00  0.00     0.167 HD
ENDBRANCH  34  36
ENDBRANCH   7  34
TORSDOF 5
ENDMDL
MODEL 2
REMARK minimizedAffinity -5.90398121
REMARK CNNscore 0.405240953
REMARK CNNaffinity 6.14647627
REMARK  5 active torsions:
REMARK  status: ('A' for Active; 'I' for Inactive)
REMARK    1  A    between atoms: C2_2  and  C4_4 
REMARK    2  A    between atoms: C7_7  and  C8_8 
REMARK    3  A    between atoms: C8_8  and  O2_10 
REMARK    4  A    between atoms: C11_13  and  C12_14 
REMARK    5  A    between atoms: C12_14  and  O4_16 
ROOT
HETATM    1  C4  UNL     1       5.545  17.549  -0.924  1.00  0.00     0.019 C 
HETATM    2  C5  UNL     1       6.584  16.501  -1.350  1.00  0.00     0.011 C 
HETATM    3  C6  UNL     1       7.593  16.557  -0.216  1.00  0.00     0.021 C 
HETATM    4  C7  UNL     1       6.716  16.574   1.056  1.00  0.00     0.050 C 
HETATM    5  C9  UNL     1       6.381  15.114   1.427  1.00  0.00     0.022 C 
HETATM    6  C10 UNL     1       5.143  14.945   2.306  1.00  0.00     0.023 C 
HETATM    7  C11 UNL     1       3.849  15.620   1.746  1.00  0.00     0.057 C 
HETATM    8  C13 UNL     1       4.199  17.124   1.485  1.00  0.00     0.011 C 
HETATM    9  C14 UNL     1       2.985  18.004   1.178  1.00  0.00     0.007 C 
HETATM   10  C15 UNL     1       1.869  17.870   2.217  1.00  0.00     0.006 C 
HETATM   11  C16 UNL     1       1.411  16.408   2.389  1.00  0.00     0.003 C 
HETATM   12  C17 UNL     1       0.023  16.245   3.146  1.00  0.00    -0.035 C 
HETATM   13  C18 UNL     1      -0.001  16.976   4.518  1.00  0.00     0.016 C 
HETATM   14  C19 UNL     1      -1.082  16.949   2.286  1.00  0.00     0.017 C 
HETATM   15  C20 UNL     1      -2.475  16.406   2.543  1.00  0.00     0.080 C 
HETATM   16  C21 UNL     1      -2.551  14.974   2.088  1.00  0.00     0.135 C 
HETATM   17  O5  UNL     1      -3.585  14.555   1.562  1.00  0.00    -0.297 OA
HETATM   18  C22 UNL     1      -1.323  14.074   2.319  1.00  0.00     0.017 C 
HETATM   19  C23 UNL     1      -1.878  12.727   2.849  1.00  0.00     0.023 C 
HETATM   20  C24 UNL     1      -0.692  13.810   0.947  1.00  0.00     0.023 C 
HETATM   21  C25 UNL     1      -0.366  14.731   3.390  1.00  0.00     0.009 C 
HETATM   22  C26 UNL     1       0.855  13.871   3.788  1.00  0.00     0.007 C 
HETATM   23  C27 UNL     1       2.099  14.037   2.916  1.00  0.00     0.011 C 
HETATM   24  C28 UNL     1       2.618  15.497   2.827  1.00  0.00    -0.022 C 
HETATM   25  C29 UNL     1       3.136  15.885   4.245  1.00  0.00     0.017 C 
HETATM   26  C30 UNL     1       5.475  17.445   0.644  1.00  0.00     0.018 C 
ENDROOT
BRANCH   4  27
HETATM   27  C8  UNL     1       7.434  17.214   2.243  1.00  0.00     0.149 C 
HETATM   28  O1  UNL     1       7.068  17.174   3.409  1.00  0.00    -0.649 OA
BRANCH  27  29
HETATM   29  O2  UNL     1       8.585  17.843   1.941  1.00  0.00    -0.776 OA
HETATM   30  H11 UNL     1       8.938  18.112   2.813  1.00  0.00     0.167 HD
ENDBRANCH  27  29
ENDBRANCH   4  27
BRANCH   1  31
HETATM   31  C2  UNL     1       4.335  17.669  -1.826  1.00  0.00    -0.088 C 
HETATM   32  C1  UNL     1       3.418  18.649  -1.741  1.00  0.00     0.014 C 
HETATM   33  C3  UNL     1       4.080  16.501  -2.748  1.00  0.00     0.043 C 
ENDBRANCH   1  31
BRANCH   7  34
HETATM   34  C12 UNL     1       3.492  14.868   0.446  1.00  0.00     0.149 C 
HETATM   35  O3  UNL     1       2.562  15.111  -0.307  1.00  0.00    -0.649 OA
BRANCH  34  36
HETATM   36  O4  UNL     1       4.341  13.891   0.101  1.00  0.00    -0.776 OA
HETATM   37  H16 UNL     1       3.959  13.528  -0.726  1.00  0.00     0.167 HD
ENDBRANCH  34  36
ENDBRANCH   7  34
TORSDOF 5
ENDMDL
MODEL 3
REMARK minimizedAffinity -6.60473394
REMARK CNNscore 0.384854406
REMARK CNNaffinity 5.963696
REMARK  5 active torsions:
REMARK  status: ('A' for Active; 'I' for Inactive)
REMARK    1  A    between atoms: C2_2  and  C4_4 
REMARK    2  A    between atoms: C7_7  and  C8_8 
REMARK    3  A    between atoms: C8_8  and  O2_10 
REMARK    4  A    between atoms: C11_13  and  C12_14 
REMARK    5  A    between atoms: C12_14  and  O4_16 
ROOT
HETATM    1  C4  UNL     1       3.181   7.522  11.960  1.00  0.00     0.019 C 
HETATM    2  C5  UNL     1       2.069   8.484  11.519  1.00  0.00     0.011 C 
HETATM    3  C6  UNL     1       1.251   8.649  12.789  1.00  0.00     0.021 C 
HETATM    4  C7  UNL     1       2.318   8.856  13.887  1.00  0.00     0.050 C 
HETATM    5  C9  UNL     1       2.679  10.356  13.927  1.00  0.00     0.022 C 
HETATM    6  C10 UNL     1       4.036  10.671  14.554  1.00  0.00     0.023 C 
HETATM    7  C11 UNL     1       5.239   9.890  13.931  1.00  0.00     0.057 C 
HETATM    8  C13 UNL     1       4.880   8.369  14.008  1.00  0.00     0.011 C 
HETATM    9  C14 UNL     1       6.048   7.434  13.679  1.00  0.00     0.007 C 
HETATM   10  C15 UNL     1       7.310   7.745  14.487  1.00  0.00     0.006 C 
HETATM   11  C16 UNL     1       7.762   9.208  14.314  1.00  0.00     0.003 C 
HETATM   12  C17 UNL     1       9.248   9.493  14.800  1.00  0.00    -0.035 C 
HETATM   13  C18 UNL     1       9.501   9.027  16.262  1.00  0.00     0.016 C 
HETATM   14  C19 UNL     1      10.217   8.631  13.920  1.00  0.00     0.017 C 
HETATM   15  C20 UNL     1      11.623   9.197  13.851  1.00  0.00     0.080 C 
HETATM   16  C21 UNL     1      11.600  10.520  13.135  1.00  0.00     0.135 C 
HETATM   17  O5  UNL     1      12.531  10.825  12.384  1.00  0.00    -0.297 OA
HETATM   18  C22 UNL     1      10.406  11.461  13.388  1.00  0.00     0.017 C 
HETATM   19  C23 UNL     1      11.012  12.876  13.567  1.00  0.00     0.023 C 
HETATM   20  C24 UNL     1       9.563  11.475  12.107  1.00  0.00     0.023 C 
HETATM   21  C25 UNL     1       9.642  11.022  14.697  1.00  0.00     0.009 C 
HETATM   22  C26 UNL     1       8.483  11.953  15.119  1.00  0.00     0.007 C 
HETATM   23  C27 UNL     1       7.121  11.643  14.500  1.00  0.00     0.011 C 
HETATM   24  C28 UNL     1       6.622  10.197  14.762  1.00  0.00    -0.022 C 
HETATM   25  C29 UNL     1       6.340  10.082  16.291  1.00  0.00     0.017 C 
HETATM   26  C30 UNL     1       3.494   7.911  13.452  1.00  0.00     0.018 C 
ENDROOT
BRANCH   4  27
HETATM   27  C8  UNL     1       1.806   8.453  15.270  1.00  0.00     0.149 C 
HETATM   28  O1  UNL     1       1.192   9.172  16.045  1.00  0.00    -0.649 OA
BRANCH  27  29
HETATM   29  O2  UNL     1       2.048   7.175  15.616  1.00  0.00    -0.776 OA
HETATM   30  H11 UNL     1       1.588   7.077  16.474  1.00  0.00     0.167 HD
ENDBRANCH  27  29
ENDBRANCH   4  27
BRANCH   1  31
HETATM   31  C2  UNL     1       4.237   7.225  10.917  1.00  0.00    -0.088 C 
HETATM   32  C1  UNL     1       5.180   6.274  11.038  1.00  0.00     0.014 C 
HETATM   33  C3  UNL     1       4.313   8.194   9.761  1.00  0.00     0.043 C 
ENDBRANCH   1  31
BRANCH   7  34
HETATM   34  C12 UNL     1       5.373  10.387  12.475  1.00  0.00     0.149 C 
HETATM   35  O3  UNL     1       4.744  11.294  11.951  1.00  0.00    -0.649 OA
BRANCH  34  36
HETATM   36  O4  UNL     1       6.327   9.786  11.753  1.00  0.00    -0.776 OA
HETATM   37  H16 UNL     1       6.263  10.215  10.873  1.00  0.00     0.167 HD
ENDBRANCH  34  36
ENDBRANCH   7  34
TORSDOF 5
ENDMDL
MODEL 4
REMARK minimizedAffinity -5.49918318
REMARK CNNscore 0.362916827
REMARK CNNaffinity 5.62218523
REMARK  5 active torsions:
REMARK  status: ('A' for Active; 'I' for Inactive)
REMARK    1  A    between atoms: C2_2  and  C4_4 
REMARK    2  A    between atoms: C7_7  and  C8_8 
REMARK    3  A    between atoms: C8_8  and  O2_10 
REMARK    4  A    between atoms: C11_13  and  C12_14 
REMARK    5  A    between atoms: C12_14  and  O4_16 
ROOT
HETATM    1  C4  UNL     1      16.268  -1.322   2.065  1.00  0.00     0.019 C 
HETATM    2  C5  UNL     1      17.763  -0.978   1.989  1.00  0.00     0.011 C 
HETATM    3  C6  UNL     1      17.987  -0.194   3.271  1.00  0.00     0.021 C 
HETATM    4  C7  UNL     1      17.248  -1.026   4.343  1.00  0.00     0.050 C 
HETATM    5  C9  UNL     1      18.211  -2.123   4.846  1.00  0.00     0.022 C 
HETATM    6  C10 UNL     1      17.529  -3.325   5.496  1.00  0.00     0.023 C 
HETATM    7  C11 UNL     1      16.427  -4.002   4.618  1.00  0.00     0.057 C 
HETATM    8  C13 UNL     1      15.412  -2.879   4.219  1.00  0.00     0.011 C 
HETATM    9  C14 UNL     1      14.125  -3.399   3.572  1.00  0.00     0.007 C 
HETATM   10  C15 UNL     1      13.441  -4.494   4.395  1.00  0.00     0.006 C 
HETATM   11  C16 UNL     1      14.385  -5.678   4.682  1.00  0.00     0.003 C 
HETATM   12  C17 UNL     1      13.648  -6.993   5.184  1.00  0.00    -0.035 C 
HETATM   13  C18 UNL     1      12.730  -6.734   6.413  1.00  0.00     0.016 C 
HETATM   14  C19 UNL     1      12.684  -7.471   4.045  1.00  0.00     0.017 C 
HETATM   15  C20 UNL     1      12.367  -8.953   4.113  1.00  0.00     0.080 C 
HETATM   16  C21 UNL     1      13.617  -9.749   3.856  1.00  0.00     0.135 C 
HETATM   17  O5  UNL     1      13.551 -10.798   3.212  1.00  0.00    -0.297 OA
HETATM   18  C22 UNL     1      14.944  -9.221   4.434  1.00  0.00     0.017 C 
HETATM   19  C23 UNL     1      15.666 -10.454   5.034  1.00  0.00     0.023 C 
HETATM   20  C24 UNL     1      15.784  -8.720   3.252  1.00  0.00     0.023 C 
HETATM   21  C25 UNL     1      14.655  -8.153   5.560  1.00  0.00     0.009 C 
HETATM   22  C26 UNL     1      15.909  -7.623   6.294  1.00  0.00     0.007 C 
HETATM   23  C27 UNL     1      16.595  -6.418   5.653  1.00  0.00     0.011 C 
HETATM   24  C28 UNL     1      15.665  -5.191   5.459  1.00  0.00    -0.022 C 
HETATM   25  C29 UNL     1      15.301  -4.665   6.880  1.00  0.00     0.017 C 
HETATM   26  C30 UNL     1      15.979  -1.565   3.592  1.00  0.00     0.018 C 
ENDROOT
BRANCH   4  27
HETATM   27  C8  UNL     1      16.826  -0.177   5.542  1.00  0.00     0.149 C 
HETATM   28  O1  UNL     1      16.503   1.001   5.507  1.00  0.00    -0.649 OA
BRANCH  27  29
HETATM   29  O2  UNL     1      16.791  -0.830   6.718  1.00  0.00    -0.776 OA
HETATM   30  H11 UNL     1      16.429  -0.168   7.340  1.00  0.00     0.167 HD
ENDBRANCH  27  29
ENDBRANCH   4  27
BRANCH   1  31
HETATM   31  C2  UNL     1      15.744  -2.198   0.947  1.00  0.00    -0.088 C 
HETATM   32  C1  UNL     1      14.444  -2.473   0.742  1.00  0.00     0.014 C 
HETATM   33  C3  UNL     1      16.788  -2.934   0.141  1.00  0.00     0.043 C 
ENDBRANCH   1  31
BRANCH   7  34
HETATM   34  C12 UNL     1      17.151  -4.599   3.392  1.00  0.00     0.149 C 
HETATM   35  O3  UNL     1      18.354  -4.587   3.177  1.00  0.00    -0.649 OA
BRANCH  34  36
HETATM   36  O4  UNL     1      16.364  -5.244   2.522  1.00  0.00    -0.776 OA
HETATM   37  H16 UNL     1      16.982  -5.542   1.820  1.00  0.00     0.167 HD
ENDBRANCH  34  36
ENDBRANCH   7  34
TORSDOF 5
ENDMDL
MODEL 5
REMARK minimizedAffinity -7.1766367
REMARK CNNscore 0.351406932
REMARK CNNaffinity 6.33281851
REMARK  5 active torsions:
REMARK  status: ('A' for Active; 'I' for Inactive)
REMARK    1  A    between atoms: C2_2  and  C4_4 
REMARK    2  A    between atoms: C7_7  and  C8_8 
REMARK    3  A    between atoms: C8_8  and  O2_10 
REMARK    4  A    between atoms: C11_13  and  C12_14 
REMARK    5  A    between atoms: C12_14  and  O4_16 
ROOT
HETATM    1  C4  UNL     1       1.919   8.164  11.541  1.00  0.00     0.019 C 
HETATM    2  C5  UNL     1       3.035   7.168  11.890  1.00  0.00     0.011 C 
HETATM    3  C6  UNL     1       3.702   7.825  13.086  1.00  0.00     0.021 C 
HETATM    4  C7  UNL     1       2.516   8.281  13.964  1.00  0.00     0.050 C 
HETATM    5  C9  UNL     1       2.094   7.094  14.854  1.00  0.00     0.022 C 
HETATM    6  C10 UNL     1       0.666   7.171  15.391  1.00  0.00     0.023 C 
HETATM    7  C11 UNL     1      -0.431   7.381  14.296  1.00  0.00     0.057 C 
HETATM    8  C13 UNL     1      -0.024   8.656  13.486  1.00  0.00     0.011 C 
HETATM    9  C14 UNL     1      -1.111   9.167  12.537  1.00  0.00     0.007 C 
HETATM   10  C15 UNL     1      -2.465   9.360  13.225  1.00  0.00     0.006 C 
HETATM   11  C16 UNL     1      -2.952   8.070  13.914  1.00  0.00     0.003 C 
HETATM   12  C17 UNL     1      -4.492   8.083  14.306  1.00  0.00    -0.035 C 
HETATM   13  C18 UNL     1      -4.884   9.323  15.159  1.00  0.00     0.016 C 
HETATM   14  C19 UNL     1      -5.326   8.211  12.986  1.00  0.00     0.017 C 
HETATM   15  C20 UNL     1      -6.737   7.669  13.115  1.00  0.00     0.080 C 
HETATM   16  C21 UNL     1      -6.688   6.183  13.342  1.00  0.00     0.135 C 
HETATM   17  O5  UNL     1      -7.543   5.458  12.827  1.00  0.00    -0.297 OA
HETATM   18  C22 UNL     1      -5.566   5.623  14.237  1.00  0.00     0.017 C 
HETATM   19  C23 UNL     1      -6.243   4.578  15.161  1.00  0.00     0.023 C 
HETATM   20  C24 UNL     1      -4.590   4.873  13.323  1.00  0.00     0.023 C 
HETATM   21  C25 UNL     1      -4.932   6.785  15.098  1.00  0.00     0.009 C 
HETATM   22  C26 UNL     1      -3.862   6.332  16.118  1.00  0.00     0.007 C 
HETATM   23  C27 UNL     1      -2.430   6.256  15.590  1.00  0.00     0.011 C 
HETATM   24  C28 UNL     1      -1.907   7.586  14.988  1.00  0.00    -0.022 C 
HETATM   25  C29 UNL     1      -1.788   8.604  16.163  1.00  0.00     0.017 C 
HETATM   26  C30 UNL     1       1.431   8.736  12.923  1.00  0.00     0.018 C 
ENDROOT
BRANCH   4  27
HETATM   27  C8  UNL     1       2.889   9.450  14.876  1.00  0.00     0.149 C 
HETATM   28  O1  UNL     1       2.496  10.602  14.762  1.00  0.00    -0.649 OA
BRANCH  27  29
HETATM   29  O2  UNL     1       3.702   9.135  15.901  1.00  0.00    -0.776 OA
HETATM   30  H11 UNL     1       3.764   9.968  16.411  1.00  0.00     0.167 HD
ENDBRANCH  27  29
ENDBRANCH   4  27
BRANCH   1  31
HETATM   31  C2  UNL     1       0.995   7.741  10.419  1.00  0.00    -0.088 C 
HETATM   32  C1  UNL     1       0.082   8.541   9.843  1.00  0.00     0.014 C 
HETATM   33  C3  UNL     1       1.007   6.270  10.074  1.00  0.00     0.043 C 
ENDBRANCH   1  31
BRANCH   7  34
HETATM   34  C12 UNL     1      -0.426   6.106  13.425  1.00  0.00     0.149 C 
HETATM   35  O3  UNL     1      -1.094   5.904  12.422  1.00  0.00    -0.649 OA
BRANCH  34  36
HETATM   36  O4  UNL     1       0.455   5.167  13.793  1.00  0.00    -0.776 OA
HETATM   37  H16 UNL     1       0.313   4.444  13.145  1.00  0.00     0.167 HD
ENDBRANCH  34  36
ENDBRANCH   7  34
TORSDOF 5
ENDMDL
MODEL 6
REMARK minimizedAffinity -5.78605509
REMARK CNNscore 0.29846096
REMARK CNNaffinity 5.36141443
REMARK  5 active torsions:
REMARK  status: ('A' for Active; 'I' for Inactive)
REMARK    1  A    between atoms: C2_2  and  C4_4 
REMARK    2  A    between atoms: C7_7  and  C8_8 
REMARK    3  A    between atoms: C8_8  and  O2_10 
REMARK    4  A    between atoms: C11_13  and  C12_14 
REMARK    5  A    between atoms: C12_14  and  O4_16 
ROOT
HETATM    1  C4  UNL     1     -18.570  -3.607  16.398  1.00  0.00     0.019 C 
HETATM    2  C5  UNL     1     -17.581  -4.273  17.367  1.00  0.00     0.011 C 
HETATM    3  C6  UNL     1     -16.546  -4.867  16.426  1.00  0.00     0.021 C 
HETATM    4  C7  UNL     1     -16.278  -3.733  15.412  1.00  0.00     0.050 C 
HETATM    5  C9  UNL     1     -15.200  -2.803  16.008  1.00  0.00     0.022 C 
HETATM    6  C10 UNL     1     -15.176  -1.393  15.421  1.00  0.00     0.023 C 
HETATM    7  C11 UNL     1     -16.549  -0.646  15.463  1.00  0.00     0.057 C 
HETATM    8  C13 UNL     1     -17.591  -1.574  14.754  1.00  0.00     0.011 C 
HETATM    9  C14 UNL     1     -18.937  -0.900  14.470  1.00  0.00     0.007 C 
HETATM   10  C15 UNL     1     -18.796   0.434  13.734  1.00  0.00     0.006 C 
HETATM   11  C16 UNL     1     -17.881   1.418  14.490  1.00  0.00     0.003 C 
HETATM   12  C17 UNL     1     -17.996   2.924  13.998  1.00  0.00    -0.035 C 
HETATM   13  C18 UNL     1     -17.785   3.072  12.464  1.00  0.00     0.016 C 
HETATM   14  C19 UNL     1     -19.463   3.407  14.260  1.00  0.00     0.017 C 
HETATM   15  C20 UNL     1     -19.582   4.914  14.395  1.00  0.00     0.080 C 
HETATM   16  C21 UNL     1     -18.849   5.369  15.627  1.00  0.00     0.135 C 
HETATM   17  O5  UNL     1     -19.311   6.289  16.307  1.00  0.00    -0.297 OA
HETATM   18  C22 UNL     1     -17.524   4.668  15.984  1.00  0.00     0.017 C 
HETATM   19  C23 UNL     1     -16.543   5.798  16.386  1.00  0.00     0.023 C 
HETATM   20  C24 UNL     1     -17.786   3.814  17.229  1.00  0.00     0.023 C 
HETATM   21  C25 UNL     1     -16.973   3.885  14.728  1.00  0.00     0.009 C 
HETATM   22  C26 UNL     1     -15.590   3.225  14.927  1.00  0.00     0.007 C 
HETATM   23  C27 UNL     1     -15.605   1.812  15.509  1.00  0.00     0.011 C 
HETATM   24  C28 UNL     1     -16.446   0.800  14.689  1.00  0.00    -0.022 C 
HETATM   25  C29 UNL     1     -15.719   0.602  13.324  1.00  0.00     0.017 C 
HETATM   26  C30 UNL     1     -17.685  -3.063  15.217  1.00  0.00     0.018 C 
ENDROOT
BRANCH   4  27
HETATM   27  C8  UNL     1     -15.761  -4.265  14.075  1.00  0.00     0.149 C 
HETATM   28  O1  UNL     1     -16.095  -5.314  13.545  1.00  0.00    -0.649 OA
BRANCH  27  29
HETATM   29  O2  UNL     1     -14.885  -3.463  13.444  1.00  0.00    -0.776 OA
HETATM   30  H11 UNL     1     -14.731  -3.914  12.590  1.00  0.00     0.167 HD
ENDBRANCH  27  29
ENDBRANCH   4  27
BRANCH   1  31
HETATM   31  C2  UNL     1     -19.696  -2.832  17.048  1.00  0.00    -0.088 C 
HETATM   32  C1  UNL     1     -19.662  -2.349  18.302  1.00  0.00     0.014 C 
HETATM   33  C3  UNL     1     -20.990  -2.771  16.271  1.00  0.00     0.043 C 
ENDBRANCH   1  31
BRANCH   7  34
HETATM   34  C12 UNL     1     -16.880  -0.427  16.955  1.00  0.00     0.149 C 
HETATM   35  O3  UNL     1     -16.201  -0.765  17.912  1.00  0.00    -0.649 OA
BRANCH  34  36
HETATM   36  O4  UNL     1     -18.004   0.262  17.195  1.00  0.00    -0.776 OA
HETATM   37  H16 UNL     1     -18.056   0.296  18.174  1.00  0.00     0.167 HD
ENDBRANCH  34  36
ENDBRANCH   7  34
TORSDOF 5
ENDMDL
MODEL 7
REMARK minimizedAffinity -5.36379099
REMARK CNNscore 0.287064075
REMARK CNNaffinity 5.70988703
REMARK  5 active torsions:
REMARK  status: ('A' for Active; 'I' for Inactive)
REMARK    1  A    between atoms: C2_2  and  C4_4 
REMARK    2  A    between atoms: C7_7  and  C8_8 
REMARK    3  A    between atoms: C8_8  and  O2_10 
REMARK    4  A    between atoms: C11_13  and  C12_14 
REMARK    5  A    between atoms: C12_14  and  O4_16 
ROOT
HETATM    1  C4  UNL     1       5.084  17.661   0.848  1.00  0.00     0.019 C 
HETATM    2  C5  UNL     1       5.501  17.359  -0.599  1.00  0.00     0.011 C 
HETATM    3  C6  UNL     1       6.237  16.037  -0.462  1.00  0.00     0.021 C 
HETATM    4  C7  UNL     1       5.325  15.204   0.466  1.00  0.00     0.050 C 
HETATM    5  C9  UNL     1       4.254  14.515  -0.406  1.00  0.00     0.022 C 
HETATM    6  C10 UNL     1       2.994  14.089   0.345  1.00  0.00     0.023 C 
HETATM    7  C11 UNL     1       2.305  15.231   1.162  1.00  0.00     0.057 C 
HETATM    8  C13 UNL     1       3.396  15.830   2.111  1.00  0.00     0.011 C 
HETATM    9  C14 UNL     1       2.844  16.787   3.172  1.00  0.00     0.007 C 
HETATM   10  C15 UNL     1       1.684  16.190   3.972  1.00  0.00     0.006 C 
HETATM   11  C16 UNL     1       0.534  15.719   3.060  1.00  0.00     0.003 C 
HETATM   12  C17 UNL     1      -0.834  15.453   3.823  1.00  0.00    -0.035 C 
HETATM   13  C18 UNL     1      -0.672  14.478   5.023  1.00  0.00     0.016 C 
HETATM   14  C19 UNL     1      -1.307  16.807   4.453  1.00  0.00     0.017 C 
HETATM   15  C20 UNL     1      -2.804  16.864   4.694  1.00  0.00     0.080 C 
HETATM   16  C21 UNL     1      -3.528  16.832   3.376  1.00  0.00     0.135 C 
HETATM   17  O5  UNL     1      -4.551  17.506   3.225  1.00  0.00    -0.297 OA
HETATM   18  C22 UNL     1      -2.964  15.932   2.260  1.00  0.00     0.017 C 
HETATM   19  C23 UNL     1      -4.187  15.212   1.637  1.00  0.00     0.023 C 
HETATM   20  C24 UNL     1      -2.374  16.857   1.189  1.00  0.00     0.023 C 
HETATM   21  C25 UNL     1      -1.961  14.878   2.873  1.00  0.00     0.009 C 
HETATM   22  C26 UNL     1      -1.406  13.845   1.866  1.00  0.00     0.007 C 
HETATM   23  C27 UNL     1      -0.143  14.261   1.114  1.00  0.00     0.011 C 
HETATM   24  C28 UNL     1       1.046  14.638   2.036  1.00  0.00    -0.022 C 
HETATM   25  C29 UNL     1       1.492  13.333   2.762  1.00  0.00     0.017 C 
HETATM   26  C30 UNL     1       4.761  16.259   1.484  1.00  0.00     0.018 C 
ENDROOT
BRANCH   4  27
HETATM   27  C8  UNL     1       6.100  14.119   1.213  1.00  0.00     0.149 C 
HETATM   28  O1  UNL     1       6.399  14.139   2.398  1.00  0.00    -0.649 OA
BRANCH  27  29
HETATM   29  O2  UNL     1       6.439  13.048   0.471  1.00  0.00    -0.776 OA
HETATM   30  H11 UNL     1       6.845  12.437   1.118  1.00  0.00     0.167 HD
ENDBRANCH  27  29
ENDBRANCH   4  27
BRANCH   1  31
HETATM   31  C2  UNL     1       4.233  18.899   1.035  1.00  0.00    -0.088 C 
HETATM   32  C1  UNL     1       3.927  19.438   2.228  1.00  0.00     0.014 C 
HETATM   33  C3  UNL     1       3.560  19.432  -0.207  1.00  0.00     0.043 C 
ENDBRANCH   1  31
BRANCH   7  34
HETATM   34  C12 UNL     1       1.797  16.260   0.129  1.00  0.00     0.149 C 
HETATM   35  O3  UNL     1       1.204  17.301   0.367  1.00  0.00    -0.649 OA
BRANCH  34  36
HETATM   36  O4  UNL     1       2.106  15.990  -1.146  1.00  0.00    -0.776 OA
HETATM   37  H16 UNL     1       1.704  16.730  -1.648  1.00  0.00     0.167 HD
ENDBRANCH  34  36
ENDBRANCH   7  34
TORSDOF 5
ENDMDL
MODEL 8
REMARK minimizedAffinity -6.77482748
REMARK CNNscore 0.280254036
REMARK CNNaffinity 6.0032649
REMARK  5 active torsions:
REMARK  status: ('A' for Active; 'I' for Inactive)
REMARK    1  A    between atoms: C2_2  and  C4_4 
REMARK    2  A    between atoms: C7_7  and  C8_8 
REMARK    3  A    between atoms: C8_8  and  O2_10 
REMARK    4  A    between atoms: C11_13  and  C12_14 
REMARK    5  A    between atoms: C12_14  and  O4_16 
ROOT
HETATM    1  C4  UNL     1       7.539  13.168  13.809  1.00  0.00     0.019 C 
HETATM    2  C5  UNL     1       8.965  13.272  13.248  1.00  0.00     0.011 C 
HETATM    3  C6  UNL     1       9.775  12.470  14.252  1.00  0.00     0.021 C 
HETATM    4  C7  UNL     1       8.925  11.200  14.480  1.00  0.00     0.050 C 
HETATM    5  C9  UNL     1       9.283  10.180  13.379  1.00  0.00     0.022 C 
HETATM    6  C10 UNL     1       8.220   9.113  13.124  1.00  0.00     0.023 C 
HETATM    7  C11 UNL     1       6.791   9.674  12.830  1.00  0.00     0.057 C 
HETATM    8  C13 UNL     1       6.420  10.618  14.022  1.00  0.00     0.011 C 
HETATM    9  C14 UNL     1       4.954  11.059  14.038  1.00  0.00     0.007 C 
HETATM   10  C15 UNL     1       3.975   9.887  13.938  1.00  0.00     0.006 C 
HETATM   11  C16 UNL     1       4.235   9.021  12.689  1.00  0.00     0.003 C 
HETATM   12  C17 UNL     1       3.042   8.039  12.318  1.00  0.00    -0.035 C 
HETATM   13  C18 UNL     1       2.614   7.138  13.511  1.00  0.00     0.016 C 
HETATM   14  C19 UNL     1       1.783   8.911  11.987  1.00  0.00     0.017 C 
HETATM   15  C20 UNL     1       0.786   8.204  11.088  1.00  0.00     0.080 C 
HETATM   16  C21 UNL     1       1.403   7.971   9.736  1.00  0.00     0.135 C 
HETATM   17  O5  UNL     1       0.708   8.073   8.722  1.00  0.00    -0.297 OA
HETATM   18  C22 UNL     1       2.895   7.592   9.675  1.00  0.00     0.017 C 
HETATM   19  C23 UNL     1       2.998   6.442   8.641  1.00  0.00     0.023 C 
HETATM   20  C24 UNL     1       3.646   8.800   9.104  1.00  0.00     0.023 C 
HETATM   21  C25 UNL     1       3.385   7.098  11.093  1.00  0.00     0.009 C 
HETATM   22  C26 UNL     1       4.842   6.587  11.138  1.00  0.00     0.007 C 
HETATM   23  C27 UNL     1       5.912   7.647  11.396  1.00  0.00     0.011 C 
HETATM   24  C28 UNL     1       5.702   8.450  12.707  1.00  0.00    -0.022 C 
HETATM   25  C29 UNL     1       5.909   7.456  13.889  1.00  0.00     0.017 C 
HETATM   26  C30 UNL     1       7.445  11.725  14.429  1.00  0.00     0.018 C 
ENDROOT
BRANCH   4  27
HETATM   27  C8  UNL     1       9.205  10.554  15.836  1.00  0.00     0.149 C 
HETATM   28  O1  UNL     1       8.433  10.514  16.783  1.00  0.00    -0.649 OA
BRANCH  27  29
HETATM   29  O2  UNL     1      10.408   9.962  15.947  1.00  0.00    -0.776 OA
HETATM   30  H11 UNL     1      10.379   9.542  16.830  1.00  0.00     0.167 HD
ENDBRANCH  27  29
ENDBRANCH   4  27
BRANCH   1  31
HETATM   31  C2  UNL     1       6.458  13.805  12.963  1.00  0.00    -0.088 C 
HETATM   32  C1  UNL     1       5.159  13.863  13.305  1.00  0.00     0.014 C 
HETATM   33  C3  UNL     1       6.873  14.234  11.576  1.00  0.00     0.043 C 
ENDBRANCH   1  31
BRANCH   7  34
HETATM   34  C12 UNL     1       6.889  10.434  11.489  1.00  0.00     0.149 C 
HETATM   35  O3  UNL     1       7.848  10.461  10.733  1.00  0.00    -0.649 OA
BRANCH  34  36
HETATM   36  O4  UNL     1       5.773  11.070  11.111  1.00  0.00    -0.776 OA
HETATM   37  H16 UNL     1       6.018  11.494  10.261  1.00  0.00     0.167 HD
ENDBRANCH  34  36
ENDBRANCH   7  34
TORSDOF 5
ENDMDL
MODEL 9
REMARK minimizedAffinity -6.24772692
REMARK CNNscore 0.277357548
REMARK CNNaffinity 5.57601786
REMARK  5 active torsions:
REMARK  status: ('A' for Active; 'I' for Inactive)
REMARK    1  A    between atoms: C2_2  and  C4_4 
REMARK    2  A    between atoms: C7_7  and  C8_8 
REMARK    3  A    between atoms: C8_8  and  O2_10 
REMARK    4  A    between atoms: C11_13  and  C12_14 
REMARK    5  A    between atoms: C12_14  and  O4_16 
ROOT
HETATM    1  C4  UNL     1     -17.448   2.437  13.510  1.00  0.00     0.019 C 
HETATM    2  C5  UNL     1     -18.782   2.751  14.204  1.00  0.00     0.011 C 
HETATM    3  C6  UNL     1     -19.785   2.614  13.070  1.00  0.00     0.021 C 
HETATM    4  C7  UNL     1     -19.358   1.311  12.359  1.00  0.00     0.050 C 
HETATM    5  C9  UNL     1     -20.025   0.125  13.089  1.00  0.00     0.022 C 
HETATM    6  C10 UNL     1     -19.341  -1.224  12.877  1.00  0.00     0.023 C 
HETATM    7  C11 UNL     1     -17.813  -1.238  13.207  1.00  0.00     0.057 C 
HETATM    8  C13 UNL     1     -17.156  -0.093  12.365  1.00  0.00     0.011 C 
HETATM    9  C14 UNL     1     -15.625  -0.120  12.359  1.00  0.00     0.007 C 
HETATM   10  C15 UNL     1     -15.051  -1.486  11.976  1.00  0.00     0.006 C 
HETATM   11  C16 UNL     1     -15.579  -2.612  12.886  1.00  0.00     0.003 C 
HETATM   12  C17 UNL     1     -14.747  -3.963  12.800  1.00  0.00    -0.035 C 
HETATM   13  C18 UNL     1     -14.597  -4.483  11.343  1.00  0.00     0.016 C 
HETATM   14  C19 UNL     1     -13.287  -3.663  13.283  1.00  0.00     0.017 C 
HETATM   15  C20 UNL     1     -12.565  -4.892  13.801  1.00  0.00     0.080 C 
HETATM   16  C21 UNL     1     -13.241  -5.384  15.052  1.00  0.00     0.135 C 
HETATM   17  O5  UNL     1     -12.561  -5.842  15.974  1.00  0.00    -0.297 OA
HETATM   18  C22 UNL     1     -14.778  -5.311  15.122  1.00  0.00     0.017 C 
HETATM   19  C23 UNL     1     -15.240  -6.663  15.724  1.00  0.00     0.023 C 
HETATM   20  C24 UNL     1     -15.132  -4.209  16.127  1.00  0.00     0.023 C 
HETATM   21  C25 UNL     1     -15.376  -5.124  13.673  1.00  0.00     0.009 C 
HETATM   22  C26 UNL     1     -16.919  -5.142  13.596  1.00  0.00     0.007 C 
HETATM   23  C27 UNL     1     -17.611  -3.796  13.803  1.00  0.00     0.011 C 
HETATM   24  C28 UNL     1     -17.150  -2.690  12.817  1.00  0.00    -0.022 C 
HETATM   25  C29 UNL     1     -17.635  -3.113  11.397  1.00  0.00     0.017 C 
HETATM   26  C30 UNL     1     -17.790   1.332  12.443  1.00  0.00     0.018 C 
ENDROOT
BRANCH   4  27
HETATM   27  C8  UNL     1     -19.804   1.280  10.897  1.00  0.00     0.149 C 
HETATM   28  O1  UNL     1     -20.283   2.216  10.274  1.00  0.00    -0.649 OA
BRANCH  27  29
HETATM   29  O2  UNL     1     -19.608   0.107  10.266  1.00  0.00    -0.776 OA
HETATM   30  H11 UNL     1     -19.868   0.294   9.342  1.00  0.00     0.167 HD
ENDBRANCH  27  29
ENDBRANCH   4  27
BRANCH   1  31
HETATM   31  C2  UNL     1     -16.236   2.402  14.415  1.00  0.00    -0.088 C 
HETATM   32  C1  UNL     1     -15.538   3.486  14.794  1.00  0.00     0.014 C 
HETATM   33  C3  UNL     1     -15.701   1.029  14.750  1.00  0.00     0.043 C 
ENDBRANCH   1  31
BRANCH   7  34
HETATM   34  C12 UNL     1     -17.692  -0.990  14.726  1.00  0.00     0.149 C 
HETATM   35  O3  UNL     1     -18.551  -0.527  15.462  1.00  0.00    -0.649 OA
BRANCH  34  36
HETATM   36  O4  UNL     1     -16.540  -1.390  15.280  1.00  0.00    -0.776 OA
HETATM   37  H16 UNL     1     -16.637  -1.150  16.226  1.00  0.00     0.167 HD
ENDBRANCH  34  36
ENDBRANCH   7  34
TORSDOF 5
ENDMDL
