MODEL 1
REMARK minimizedAffinity -9.22942352
REMARK  11 active torsions:
REMARK  status: ('A' for Active; 'I' for Inactive)
REMARK    1  A    between atoms: C2_2  and  C3_3 
REMARK    2  A    between atoms: C2_2  and  C4_5 
REMARK    3  A    between atoms: C3_3  and  O1_4 
REMARK    4  A    between atoms: C8_9  and  O2_10 
REMARK    5  A    between atoms: C9_11  and  C10_12 
REMARK    6  A    between atoms: C10_12  and  O3_13 
REMARK    7  A    between atoms: O3_13  and  C11_14 
REMARK    8  A    between atoms: C11_14  and  C12_16 
REMARK    9  A    between atoms: C19_23  and  O5_24 
REMARK   10  A    between atoms: C24_29  and  C25_30 
REMARK   11  A    between atoms: C25_30  and  O6_31 
ROOT
HETATM    1  C4  UNL     1      -1.089  51.747 -25.954  1.00  0.00    -0.070 C 
HETATM    2  C5  UNL     1      -1.806  50.927 -25.158  1.00  0.00    -0.061 C 
HETATM    3  C6  UNL     1      -1.715  50.526 -23.691  1.00  0.00     0.029 C 
HETATM    4  C7  UNL     1      -0.392  50.726 -22.935  1.00  0.00     0.046 C 
HETATM    5  C8  UNL     1      -0.224  51.942 -22.025  1.00  0.00     0.149 C 
HETATM    6  C9  UNL     1      -1.001  51.945 -20.717  1.00  0.00    -0.029 C 
HETATM    7  C18 UNL     1      -2.148  51.265 -20.501  1.00  0.00     0.013 C 
HETATM    8  C19 UNL     1      -3.004  50.480 -21.457  1.00  0.00     0.150 C 
HETATM    9  C20 UNL     1      -3.032  50.916 -22.952  1.00  0.00    -0.007 C 
HETATM   10  C21 UNL     1      -3.374  52.429 -23.045  1.00  0.00     0.019 C 
HETATM   11  C22 UNL     1      -4.186  50.127 -23.668  1.00  0.00     0.014 C 
HETATM   12  C23 UNL     1      -4.292  50.421 -25.172  1.00  0.00     0.017 C 
HETATM   13  C24 UNL     1      -2.954  50.263 -25.935  1.00  0.00     0.005 C 
HETATM   14  C26 UNL     1      -2.984  51.083 -27.240  1.00  0.00     0.020 C 
HETATM   15  C27 UNL     1      -1.598  51.698 -27.374  1.00  0.00     0.036 C 
ENDROOT
BRANCH   6  16
HETATM   16  C10 UNL     1      -0.387  52.848 -19.650  1.00  0.00     0.215 C 
BRANCH  16  17
HETATM   17  O3  UNL     1       0.651  52.195 -18.900  1.00  0.00    -0.313 OA
BRANCH  17  18
HETATM   18  C11 UNL     1       0.304  51.739 -17.672  1.00  0.00     0.293 C 
HETATM   19  O4  UNL     1      -0.795  51.324 -17.337  1.00  0.00    -0.259 OA
BRANCH  18  20
HETATM   20  C12 UNL     1       1.461  51.833 -16.739  1.00  0.00     0.039 A 
HETATM   21  C13 UNL     1       1.423  51.073 -15.561  1.00  0.00     0.017 A 
HETATM   22  C14 UNL     1       2.480  51.131 -14.651  1.00  0.00     0.001 A 
HETATM   23  C15 UNL     1       3.580  51.948 -14.911  1.00  0.00     0.000 A 
HETATM   24  C16 UNL     1       3.626  52.707 -16.080  1.00  0.00     0.001 A 
HETATM   25  C17 UNL     1       2.571  52.651 -16.994  1.00  0.00     0.017 A 
ENDBRANCH  18  20
ENDBRANCH  17  18
ENDBRANCH  16  17
ENDBRANCH   6  16
BRANCH   5  26
HETATM   26  O2  UNL     1       1.173  51.987 -21.695  1.00  0.00    -0.391 OA
HETATM   27  H12 UNL     1       1.400  51.131 -21.292  1.00  0.00     0.210 HD
ENDBRANCH   5  26
BRANCH   8  28
HETATM   28  O5  UNL     1      -2.653  49.104 -21.338  1.00  0.00    -0.391 OA
HETATM   29  H22 UNL     1      -2.431  48.934 -20.406  1.00  0.00     0.210 HD
ENDBRANCH   8  28
BRANCH   1  30
HETATM   30  C2  UNL     1       0.097  52.630 -25.647  1.00  0.00     0.034 C 
HETATM   31  C1  UNL     1       1.408  51.844 -25.765  1.00  0.00     0.017 C 
BRANCH  30  32
HETATM   32  C3  UNL     1       0.115  53.893 -26.529  1.00  0.00     0.172 C 
BRANCH  32  33
HETATM   33  O1  UNL     1       0.214  55.078 -25.743  1.00  0.00    -0.400 OA
HETATM   34  H7  UNL     1       1.053  55.042 -25.254  1.00  0.00     0.209 HD
ENDBRANCH  32  33
ENDBRANCH  30  32
ENDBRANCH   1  30
BRANCH  13  35
HETATM   35  C25 UNL     1      -2.693  48.761 -26.234  1.00  0.00     0.178 C 
BRANCH  35  36
HETATM   36  O6  UNL     1      -3.176  48.374 -27.517  1.00  0.00    -0.400 OA
HETATM   37  H32 UNL     1      -2.860  47.469 -27.678  1.00  0.00     0.209 HD
ENDBRANCH  35  36
ENDBRANCH  13  35
TORSDOF 11
ENDMDL
MODEL 2
REMARK minimizedAffinity -9.12060452
REMARK  11 active torsions:
REMARK  status: ('A' for Active; 'I' for Inactive)
REMARK    1  A    between atoms: C2_2  and  C3_3 
REMARK    2  A    between atoms: C2_2  and  C4_5 
REMARK    3  A    between atoms: C3_3  and  O1_4 
REMARK    4  A    between atoms: C8_9  and  O2_10 
REMARK    5  A    between atoms: C9_11  and  C10_12 
REMARK    6  A    between atoms: C10_12  and  O3_13 
REMARK    7  A    between atoms: O3_13  and  C11_14 
REMARK    8  A    between atoms: C11_14  and  C12_16 
REMARK    9  A    between atoms: C19_23  and  O5_24 
REMARK   10  A    between atoms: C24_29  and  C25_30 
REMARK   11  A    between atoms: C25_30  and  O6_31 
ROOT
HETATM    1  C4  UNL     1      -0.526  51.809 -19.454  1.00  0.00    -0.070 C 
HETATM    2  C5  UNL     1      -1.539  50.922 -19.369  1.00  0.00    -0.061 C 
HETATM    3  C6  UNL     1      -2.705  50.554 -20.277  1.00  0.00     0.029 C 
HETATM    4  C7  UNL     1      -3.157  51.542 -21.363  1.00  0.00     0.046 C 
HETATM    5  C8  UNL     1      -2.705  51.330 -22.808  1.00  0.00     0.149 C 
HETATM    6  C9  UNL     1      -3.327  50.170 -23.569  1.00  0.00    -0.029 C 
HETATM    7  C18 UNL     1      -3.839  49.058 -22.996  1.00  0.00     0.013 C 
HETATM    8  C19 UNL     1      -3.816  48.610 -21.560  1.00  0.00     0.150 C 
HETATM    9  C20 UNL     1      -2.615  49.046 -20.669  1.00  0.00    -0.007 C 
HETATM   10  C21 UNL     1      -1.282  48.663 -21.371  1.00  0.00     0.019 C 
HETATM   11  C22 UNL     1      -2.689  48.239 -19.324  1.00  0.00     0.014 C 
HETATM   12  C23 UNL     1      -1.587  48.612 -18.321  1.00  0.00     0.017 C 
HETATM   13  C24 UNL     1      -1.477  50.133 -18.051  1.00  0.00     0.005 C 
HETATM   14  C26 UNL     1      -0.071  50.482 -17.526  1.00  0.00     0.020 C 
HETATM   15  C27 UNL     1       0.307  51.796 -18.195  1.00  0.00     0.036 C 
ENDROOT
BRANCH   6  16
HETATM   16  C10 UNL     1      -3.282  50.347 -25.085  1.00  0.00     0.215 C 
BRANCH  16  17
HETATM   17  O3  UNL     1      -1.943  50.484 -25.588  1.00  0.00    -0.313 OA
BRANCH  17  18
HETATM   18  C11 UNL     1      -1.670  51.630 -26.259  1.00  0.00     0.293 C 
HETATM   19  O4  UNL     1      -2.452  52.540 -26.485  1.00  0.00    -0.259 OA
BRANCH  18  20
HETATM   20  C12 UNL     1      -0.256  51.633 -26.725  1.00  0.00     0.039 A 
HETATM   21  C13 UNL     1       0.748  51.334 -25.793  1.00  0.00     0.017 A 
HETATM   22  C14 UNL     1       2.090  51.331 -26.179  1.00  0.00     0.001 A 
HETATM   23  C15 UNL     1       2.436  51.624 -27.497  1.00  0.00     0.000 A 
HETATM   24  C16 UNL     1       1.445  51.922 -28.431  1.00  0.00     0.001 A 
HETATM   25  C17 UNL     1       0.101  51.926 -28.049  1.00  0.00     0.017 A 
ENDBRANCH  18  20
ENDBRANCH  17  18
ENDBRANCH  16  17
ENDBRANCH   6  16
BRANCH   5  26
HETATM   26  O2  UNL     1      -3.054  52.538 -23.502  1.00  0.00    -0.391 OA
HETATM   27  H12 UNL     1      -4.010  52.672 -23.381  1.00  0.00     0.210 HD
ENDBRANCH   5  26
BRANCH   8  28
HETATM   28  O5  UNL     1      -5.053  48.985 -20.960  1.00  0.00    -0.391 OA
HETATM   29  H22 UNL     1      -5.748  48.900 -21.635  1.00  0.00     0.210 HD
ENDBRANCH   8  28
BRANCH   1  30
HETATM   30  C2  UNL     1      -0.150  52.775 -20.553  1.00  0.00     0.034 C 
HETATM   31  C1  UNL     1       0.590  53.991 -19.983  1.00  0.00     0.017 C 
BRANCH  30  32
HETATM   32  C3  UNL     1       0.665  52.089 -21.665  1.00  0.00     0.172 C 
BRANCH  32  33
HETATM   33  O1  UNL     1       0.771  52.915 -22.822  1.00  0.00    -0.400 OA
HETATM   34  H7  UNL     1       1.239  53.727 -22.565  1.00  0.00     0.209 HD
ENDBRANCH  32  33
ENDBRANCH  30  32
ENDBRANCH   1  30
BRANCH  13  35
HETATM   35  C25 UNL     1      -2.568  50.567 -17.035  1.00  0.00     0.178 C 
BRANCH  35  36
HETATM   36  O6  UNL     1      -3.541  49.548 -16.819  1.00  0.00    -0.400 OA
HETATM   37  H32 UNL     1      -4.103  49.844 -16.082  1.00  0.00     0.209 HD
ENDBRANCH  35  36
ENDBRANCH  13  35
TORSDOF 11
ENDMDL
MODEL 3
REMARK minimizedAffinity -9.00198174
REMARK  11 active torsions:
REMARK  status: ('A' for Active; 'I' for Inactive)
REMARK    1  A    between atoms: C2_2  and  C3_3 
REMARK    2  A    between atoms: C2_2  and  C4_5 
REMARK    3  A    between atoms: C3_3  and  O1_4 
REMARK    4  A    between atoms: C8_9  and  O2_10 
REMARK    5  A    between atoms: C9_11  and  C10_12 
REMARK    6  A    between atoms: C10_12  and  O3_13 
REMARK    7  A    between atoms: O3_13  and  C11_14 
REMARK    8  A    between atoms: C11_14  and  C12_16 
REMARK    9  A    between atoms: C19_23  and  O5_24 
REMARK   10  A    between atoms: C24_29  and  C25_30 
REMARK   11  A    between atoms: C25_30  and  O6_31 
ROOT
HETATM    1  C4  UNL     1      -0.529  52.415 -23.132  1.00  0.00    -0.070 C 
HETATM    2  C5  UNL     1      -1.151  51.992 -22.013  1.00  0.00    -0.061 C 
HETATM    3  C6  UNL     1      -2.583  51.589 -21.684  1.00  0.00     0.029 C 
HETATM    4  C7  UNL     1      -3.727  52.048 -22.603  1.00  0.00     0.046 C 
HETATM    5  C8  UNL     1      -4.294  51.076 -23.638  1.00  0.00     0.149 C 
HETATM    6  C9  UNL     1      -5.139  49.923 -23.120  1.00  0.00    -0.029 C 
HETATM    7  C18 UNL     1      -5.044  49.394 -21.880  1.00  0.00     0.013 C 
HETATM    8  C19 UNL     1      -4.056  49.673 -20.781  1.00  0.00     0.150 C 
HETATM    9  C20 UNL     1      -2.616  50.115 -21.177  1.00  0.00    -0.007 C 
HETATM   10  C21 UNL     1      -2.020  49.094 -22.187  1.00  0.00     0.019 C 
HETATM   11  C22 UNL     1      -1.723  50.076 -19.885  1.00  0.00     0.014 C 
HETATM   12  C23 UNL     1      -0.279  50.543 -20.122  1.00  0.00     0.017 C 
HETATM   13  C24 UNL     1      -0.175  51.917 -20.828  1.00  0.00     0.005 C 
HETATM   14  C26 UNL     1       1.194  52.060 -21.522  1.00  0.00     0.020 C 
HETATM   15  C27 UNL     1       0.916  52.751 -22.849  1.00  0.00     0.036 C 
ENDROOT
BRANCH   6  16
HETATM   16  C10 UNL     1      -6.100  49.359 -24.165  1.00  0.00     0.215 C 
BRANCH  16  17
HETATM   17  O3  UNL     1      -5.644  48.117 -24.726  1.00  0.00    -0.313 OA
BRANCH  17  18
HETATM   18  C11 UNL     1      -4.699  48.209 -25.692  1.00  0.00     0.293 C 
HETATM   19  O4  UNL     1      -3.509  48.428 -25.522  1.00  0.00    -0.259 OA
BRANCH  18  20
HETATM   20  C12 UNL     1      -5.313  48.029 -27.037  1.00  0.00     0.039 A 
HETATM   21  C13 UNL     1      -6.622  47.529 -27.103  1.00  0.00     0.017 A 
HETATM   22  C14 UNL     1      -7.239  47.336 -28.340  1.00  0.00     0.001 A 
HETATM   23  C15 UNL     1      -6.556  47.640 -29.516  1.00  0.00     0.000 A 
HETATM   24  C16 UNL     1      -5.254  48.138 -29.459  1.00  0.00     0.001 A 
HETATM   25  C17 UNL     1      -4.632  48.333 -28.224  1.00  0.00     0.017 A 
ENDBRANCH  18  20
ENDBRANCH  17  18
ENDBRANCH  16  17
ENDBRANCH   6  16
BRANCH   5  26
HETATM   26  O2  UNL     1      -5.128  51.870 -24.496  1.00  0.00    -0.391 OA
HETATM   27  H12 UNL     1      -5.788  52.307 -23.929  1.00  0.00     0.210 HD
ENDBRANCH   5  26
BRANCH   8  28
HETATM   28  O5  UNL     1      -4.645  50.612 -19.884  1.00  0.00    -0.391 OA
HETATM   29  H22 UNL     1      -5.598  50.424 -19.841  1.00  0.00     0.210 HD
ENDBRANCH   8  28
BRANCH   1  30
HETATM   30  C2  UNL     1      -1.050  52.616 -24.535  1.00  0.00     0.034 C 
HETATM   31  C1  UNL     1      -0.206  53.650 -25.290  1.00  0.00     0.017 C 
BRANCH  30  32
HETATM   32  C3  UNL     1      -1.140  51.288 -25.310  1.00  0.00     0.172 C 
BRANCH  32  33
HETATM   33  O1  UNL     1       0.044  51.042 -26.065  1.00  0.00    -0.400 OA
HETATM   34  H7  UNL     1       0.785  50.975 -25.441  1.00  0.00     0.209 HD
ENDBRANCH  32  33
ENDBRANCH  30  32
ENDBRANCH   1  30
BRANCH  13  35
HETATM   35  C25 UNL     1      -0.390  53.058 -19.795  1.00  0.00     0.178 C 
BRANCH  35  36
HETATM   36  O6  UNL     1       0.825  53.725 -19.466  1.00  0.00    -0.400 OA
HETATM   37  H32 UNL     1       0.587  54.497 -18.926  1.00  0.00     0.209 HD
ENDBRANCH  35  36
ENDBRANCH  13  35
TORSDOF 11
ENDMDL
MODEL 4
REMARK minimizedAffinity -8.98702908
REMARK  11 active torsions:
REMARK  status: ('A' for Active; 'I' for Inactive)
REMARK    1  A    between atoms: C2_2  and  C3_3 
REMARK    2  A    between atoms: C2_2  and  C4_5 
REMARK    3  A    between atoms: C3_3  and  O1_4 
REMARK    4  A    between atoms: C8_9  and  O2_10 
REMARK    5  A    between atoms: C9_11  and  C10_12 
REMARK    6  A    between atoms: C10_12  and  O3_13 
REMARK    7  A    between atoms: O3_13  and  C11_14 
REMARK    8  A    between atoms: C11_14  and  C12_16 
REMARK    9  A    between atoms: C19_23  and  O5_24 
REMARK   10  A    between atoms: C24_29  and  C25_30 
REMARK   11  A    between atoms: C25_30  and  O6_31 
ROOT
HETATM    1  C4  UNL     1      -0.567  52.392 -23.274  1.00  0.00    -0.070 C 
HETATM    2  C5  UNL     1      -1.149  51.993 -22.125  1.00  0.00    -0.061 C 
HETATM    3  C6  UNL     1      -2.572  51.615 -21.732  1.00  0.00     0.029 C 
HETATM    4  C7  UNL     1      -3.745  52.076 -22.611  1.00  0.00     0.046 C 
HETATM    5  C8  UNL     1      -4.367  51.099 -23.608  1.00  0.00     0.149 C 
HETATM    6  C9  UNL     1      -5.206  49.964 -23.040  1.00  0.00    -0.029 C 
HETATM    7  C18 UNL     1      -5.068  49.452 -21.797  1.00  0.00     0.013 C 
HETATM    8  C19 UNL     1      -4.032  49.732 -20.743  1.00  0.00     0.150 C 
HETATM    9  C20 UNL     1      -2.603  50.148 -21.203  1.00  0.00    -0.007 C 
HETATM   10  C21 UNL     1      -2.063  49.106 -22.221  1.00  0.00     0.019 C 
HETATM   11  C22 UNL     1      -1.659  50.115 -19.948  1.00  0.00     0.014 C 
HETATM   12  C23 UNL     1      -0.220  50.559 -20.249  1.00  0.00     0.017 C 
HETATM   13  C24 UNL     1      -0.127  51.921 -20.979  1.00  0.00     0.005 C 
HETATM   14  C26 UNL     1       1.215  52.035 -21.730  1.00  0.00     0.020 C 
HETATM   15  C27 UNL     1       0.892  52.712 -23.054  1.00  0.00     0.036 C 
ENDROOT
BRANCH   6  16
HETATM   16  C10 UNL     1      -6.216  49.400 -24.036  1.00  0.00     0.215 C 
BRANCH  16  17
HETATM   17  O3  UNL     1      -6.042  47.992 -24.266  1.00  0.00    -0.313 OA
BRANCH  17  18
HETATM   18  C11 UNL     1      -6.801  47.448 -25.248  1.00  0.00     0.293 C 
HETATM   19  O4  UNL     1      -7.829  46.807 -25.097  1.00  0.00    -0.259 OA
BRANCH  18  20
HETATM   20  C12 UNL     1      -6.193  47.716 -26.581  1.00  0.00     0.039 A 
HETATM   21  C13 UNL     1      -4.881  48.210 -26.621  1.00  0.00     0.017 A 
HETATM   22  C14 UNL     1      -4.269  48.483 -27.846  1.00  0.00     0.001 A 
HETATM   23  C15 UNL     1      -4.962  48.265 -29.035  1.00  0.00     0.000 A 
HETATM   24  C16 UNL     1      -6.267  47.774 -29.004  1.00  0.00     0.001 A 
HETATM   25  C17 UNL     1      -6.883  47.499 -27.782  1.00  0.00     0.017 A 
ENDBRANCH  18  20
ENDBRANCH  17  18
ENDBRANCH  16  17
ENDBRANCH   6  16
BRANCH   5  26
HETATM   26  O2  UNL     1      -5.224  51.892 -24.443  1.00  0.00    -0.391 OA
HETATM   27  H12 UNL     1      -5.855  52.346 -23.856  1.00  0.00     0.210 HD
ENDBRANCH   5  26
BRANCH   8  28
HETATM   28  O5  UNL     1      -4.571  50.691 -19.837  1.00  0.00    -0.391 OA
HETATM   29  H22 UNL     1      -5.525  50.517 -19.752  1.00  0.00     0.210 HD
ENDBRANCH   8  28
BRANCH   1  30
HETATM   30  C2  UNL     1      -1.142  52.581 -24.658  1.00  0.00     0.034 C 
HETATM   31  C1  UNL     1      -0.304  53.578 -25.467  1.00  0.00     0.017 C 
BRANCH  30  32
HETATM   32  C3  UNL     1      -1.299  51.241 -25.401  1.00  0.00     0.172 C 
BRANCH  32  33
HETATM   33  O1  UNL     1      -0.138  50.929 -26.167  1.00  0.00    -0.400 OA
HETATM   34  H7  UNL     1       0.610  50.845 -25.552  1.00  0.00     0.209 HD
ENDBRANCH  32  33
ENDBRANCH  30  32
ENDBRANCH   1  30
BRANCH  13  35
HETATM   35  C25 UNL     1      -0.285  53.079 -19.955  1.00  0.00     0.178 C 
BRANCH  35  36
HETATM   36  O6  UNL     1       0.904  53.854 -19.828  1.00  0.00    -0.400 OA
HETATM   37  H32 UNL     1       0.684  54.624 -19.278  1.00  0.00     0.209 HD
ENDBRANCH  35  36
ENDBRANCH  13  35
TORSDOF 11
ENDMDL
MODEL 5
REMARK minimizedAffinity -8.86596203
REMARK  11 active torsions:
REMARK  status: ('A' for Active; 'I' for Inactive)
REMARK    1  A    between atoms: C2_2  and  C3_3 
REMARK    2  A    between atoms: C2_2  and  C4_5 
REMARK    3  A    between atoms: C3_3  and  O1_4 
REMARK    4  A    between atoms: C8_9  and  O2_10 
REMARK    5  A    between atoms: C9_11  and  C10_12 
REMARK    6  A    between atoms: C10_12  and  O3_13 
REMARK    7  A    between atoms: O3_13  and  C11_14 
REMARK    8  A    between atoms: C11_14  and  C12_16 
REMARK    9  A    between atoms: C19_23  and  O5_24 
REMARK   10  A    between atoms: C24_29  and  C25_30 
REMARK   11  A    between atoms: C25_30  and  O6_31 
ROOT
HETATM    1  C4  UNL     1      -4.910  48.812 -25.265  1.00  0.00    -0.070 C 
HETATM    2  C5  UNL     1      -3.948  49.754 -25.198  1.00  0.00    -0.061 C 
HETATM    3  C6  UNL     1      -3.553  50.795 -24.157  1.00  0.00     0.029 C 
HETATM    4  C7  UNL     1      -4.573  51.217 -23.087  1.00  0.00     0.046 C 
HETATM    5  C8  UNL     1      -4.486  50.612 -21.687  1.00  0.00     0.149 C 
HETATM    6  C9  UNL     1      -3.334  51.064 -20.803  1.00  0.00    -0.029 C 
HETATM    7  C18 UNL     1      -2.154  51.539 -21.258  1.00  0.00     0.013 C 
HETATM    8  C19 UNL     1      -1.619  51.619 -22.662  1.00  0.00     0.150 C 
HETATM    9  C20 UNL     1      -2.084  50.548 -23.693  1.00  0.00    -0.007 C 
HETATM   10  C21 UNL     1      -1.844  49.128 -23.109  1.00  0.00     0.019 C 
HETATM   11  C22 UNL     1      -1.190  50.688 -24.976  1.00  0.00     0.014 C 
HETATM   12  C23 UNL     1      -1.578  49.720 -26.105  1.00  0.00     0.017 C 
HETATM   13  C24 UNL     1      -3.083  49.758 -26.469  1.00  0.00     0.005 C 
HETATM   14  C26 UNL     1      -3.501  48.441 -27.152  1.00  0.00     0.020 C 
HETATM   15  C27 UNL     1      -4.878  48.105 -26.599  1.00  0.00     0.036 C 
ENDROOT
BRANCH   6  16
HETATM   16  C10 UNL     1      -3.609  50.886 -19.311  1.00  0.00     0.215 C 
BRANCH  16  17
HETATM   17  O3  UNL     1      -2.621  51.522 -18.485  1.00  0.00    -0.313 OA
BRANCH  17  18
HETATM   18  C11 UNL     1      -1.846  50.699 -17.737  1.00  0.00     0.293 C 
HETATM   19  O4  UNL     1      -2.173  49.615 -17.280  1.00  0.00    -0.259 OA
BRANCH  18  20
HETATM   20  C12 UNL     1      -0.507  51.310 -17.512  1.00  0.00     0.039 A 
HETATM   21  C13 UNL     1       0.183  50.975 -16.338  1.00  0.00     0.017 A 
HETATM   22  C14 UNL     1       1.439  51.527 -16.078  1.00  0.00     0.001 A 
HETATM   23  C15 UNL     1       2.012  52.415 -16.986  1.00  0.00     0.000 A 
HETATM   24  C16 UNL     1       1.333  52.753 -18.156  1.00  0.00     0.001 A 
HETATM   25  C17 UNL     1       0.077  52.204 -18.422  1.00  0.00     0.017 A 
ENDBRANCH  18  20
ENDBRANCH  17  18
ENDBRANCH  16  17
ENDBRANCH   6  16
BRANCH   5  26
HETATM   26  O2  UNL     1      -5.707  50.986 -21.028  1.00  0.00    -0.391 OA
HETATM   27  H12 UNL     1      -5.762  51.957 -21.060  1.00  0.00     0.210 HD
ENDBRANCH   5  26
BRANCH   8  28
HETATM   28  O5  UNL     1      -1.863  52.935 -23.153  1.00  0.00    -0.391 OA
HETATM   29  H22 UNL     1      -1.771  53.552 -22.408  1.00  0.00     0.210 HD
ENDBRANCH   8  28
BRANCH   1  30
HETATM   30  C2  UNL     1      -5.968  48.409 -24.265  1.00  0.00     0.034 C 
HETATM   31  C1  UNL     1      -5.330  47.843 -22.992  1.00  0.00     0.017 C 
BRANCH  30  32
HETATM   32  C3  UNL     1      -6.928  49.572 -23.947  1.00  0.00     0.172 C 
BRANCH  32  33
HETATM   33  O1  UNL     1      -8.064  49.562 -24.807  1.00  0.00    -0.400 OA
HETATM   34  H7  UNL     1      -8.543  48.730 -24.657  1.00  0.00     0.209 HD
ENDBRANCH  32  33
ENDBRANCH  30  32
ENDBRANCH   1  30
BRANCH  13  35
HETATM   35  C25 UNL     1      -3.371  50.973 -27.392  1.00  0.00     0.178 C 
BRANCH  35  36
HETATM   36  O6  UNL     1      -3.380  50.614 -28.771  1.00  0.00    -0.400 OA
HETATM   37  H32 UNL     1      -3.694  51.390 -29.265  1.00  0.00     0.209 HD
ENDBRANCH  35  36
ENDBRANCH  13  35
TORSDOF 11
ENDMDL
MODEL 6
REMARK minimizedAffinity -8.69956589
REMARK  11 active torsions:
REMARK  status: ('A' for Active; 'I' for Inactive)
REMARK    1  A    between atoms: C2_2  and  C3_3 
REMARK    2  A    between atoms: C2_2  and  C4_5 
REMARK    3  A    between atoms: C3_3  and  O1_4 
REMARK    4  A    between atoms: C8_9  and  O2_10 
REMARK    5  A    between atoms: C9_11  and  C10_12 
REMARK    6  A    between atoms: C10_12  and  O3_13 
REMARK    7  A    between atoms: O3_13  and  C11_14 
REMARK    8  A    between atoms: C11_14  and  C12_16 
REMARK    9  A    between atoms: C19_23  and  O5_24 
REMARK   10  A    between atoms: C24_29  and  C25_30 
REMARK   11  A    between atoms: C25_30  and  O6_31 
ROOT
HETATM    1  C4  UNL     1      -4.941  48.485 -25.983  1.00  0.00    -0.070 C 
HETATM    2  C5  UNL     1      -4.998  48.839 -24.682  1.00  0.00    -0.061 C 
HETATM    3  C6  UNL     1      -4.033  49.530 -23.727  1.00  0.00     0.029 C 
HETATM    4  C7  UNL     1      -2.533  49.563 -24.063  1.00  0.00     0.046 C 
HETATM    5  C8  UNL     1      -1.930  50.823 -24.682  1.00  0.00     0.149 C 
HETATM    6  C9  UNL     1      -1.780  52.038 -23.779  1.00  0.00    -0.029 C 
HETATM    7  C18 UNL     1      -2.534  52.283 -22.685  1.00  0.00     0.013 C 
HETATM    8  C19 UNL     1      -3.743  51.558 -22.159  1.00  0.00     0.150 C 
HETATM    9  C20 UNL     1      -4.676  50.841 -23.180  1.00  0.00    -0.007 C 
HETATM   10  C21 UNL     1      -5.094  51.842 -24.293  1.00  0.00     0.019 C 
HETATM   11  C22 UNL     1      -5.981  50.405 -22.423  1.00  0.00     0.014 C 
HETATM   12  C23 UNL     1      -6.975  49.633 -23.303  1.00  0.00     0.017 C 
HETATM   13  C24 UNL     1      -6.343  48.436 -24.055  1.00  0.00     0.005 C 
HETATM   14  C26 UNL     1      -7.187  48.076 -25.294  1.00  0.00     0.020 C 
HETATM   15  C27 UNL     1      -6.189  47.741 -26.393  1.00  0.00     0.036 C 
ENDROOT
BRANCH   6  16
HETATM   16  C10 UNL     1      -0.707  53.016 -24.253  1.00  0.00     0.215 C 
BRANCH  16  17
HETATM   17  O3  UNL     1       0.586  52.735 -23.692  1.00  0.00    -0.313 OA
BRANCH  17  18
HETATM   18  C11 UNL     1       0.976  53.525 -22.662  1.00  0.00     0.293 C 
HETATM   19  O4  UNL     1       1.557  54.595 -22.750  1.00  0.00    -0.259 OA
BRANCH  18  20
HETATM   20  C12 UNL     1       0.619  52.892 -21.362  1.00  0.00     0.039 A 
HETATM   21  C13 UNL     1       0.458  53.725 -20.245  1.00  0.00     0.017 A 
HETATM   22  C14 UNL     1       0.131  53.181 -19.002  1.00  0.00     0.001 A 
HETATM   23  C15 UNL     1      -0.039  51.804 -18.867  1.00  0.00     0.000 A 
HETATM   24  C16 UNL     1       0.119  50.968 -19.972  1.00  0.00     0.001 A 
HETATM   25  C17 UNL     1       0.447  51.508 -21.218  1.00  0.00     0.017 A 
ENDBRANCH  18  20
ENDBRANCH  17  18
ENDBRANCH  16  17
ENDBRANCH   6  16
BRANCH   5  26
HETATM   26  O2  UNL     1      -0.615  50.447 -25.119  1.00  0.00    -0.391 OA
HETATM   27  H12 UNL     1      -0.144  50.098 -24.341  1.00  0.00     0.210 HD
ENDBRANCH   5  26
BRANCH   8  28
HETATM   28  O5  UNL     1      -3.310  50.653 -21.147  1.00  0.00    -0.391 OA
HETATM   29  H22 UNL     1      -2.570  51.070 -20.672  1.00  0.00     0.210 HD
ENDBRANCH   8  28
BRANCH   1  30
HETATM   30  C2  UNL     1      -3.857  48.692 -27.014  1.00  0.00     0.034 C 
HETATM   31  C1  UNL     1      -4.171  47.917 -28.299  1.00  0.00     0.017 C 
BRANCH  30  32
HETATM   32  C3  UNL     1      -3.616  50.186 -27.301  1.00  0.00     0.172 C 
BRANCH  32  33
HETATM   33  O1  UNL     1      -3.473  50.435 -28.697  1.00  0.00    -0.400 OA
HETATM   34  H7  UNL     1      -4.304  50.177 -29.131  1.00  0.00     0.209 HD
ENDBRANCH  32  33
ENDBRANCH  30  32
ENDBRANCH   1  30
BRANCH  13  35
HETATM   35  C25 UNL     1      -6.222  47.218 -23.099  1.00  0.00     0.178 C 
BRANCH  35  36
HETATM   36  O6  UNL     1      -4.979  47.199 -22.402  1.00  0.00    -0.400 OA
HETATM   37  H32 UNL     1      -5.037  46.493 -21.737  1.00  0.00     0.209 HD
ENDBRANCH  35  36
ENDBRANCH  13  35
TORSDOF 11
ENDMDL
MODEL 7
REMARK minimizedAffinity -8.56623936
REMARK  11 active torsions:
REMARK  status: ('A' for Active; 'I' for Inactive)
REMARK    1  A    between atoms: C2_2  and  C3_3 
REMARK    2  A    between atoms: C2_2  and  C4_5 
REMARK    3  A    between atoms: C3_3  and  O1_4 
REMARK    4  A    between atoms: C8_9  and  O2_10 
REMARK    5  A    between atoms: C9_11  and  C10_12 
REMARK    6  A    between atoms: C10_12  and  O3_13 
REMARK    7  A    between atoms: O3_13  and  C11_14 
REMARK    8  A    between atoms: C11_14  and  C12_16 
REMARK    9  A    between atoms: C19_23  and  O5_24 
REMARK   10  A    between atoms: C24_29  and  C25_30 
REMARK   11  A    between atoms: C25_30  and  O6_31 
ROOT
HETATM    1  C4  UNL     1      -3.697  46.897 -20.836  1.00  0.00    -0.070 C 
HETATM    2  C5  UNL     1      -4.745  47.574 -21.349  1.00  0.00    -0.061 C 
HETATM    3  C6  UNL     1      -4.970  49.022 -21.766  1.00  0.00     0.029 C 
HETATM    4  C7  UNL     1      -4.041  50.119 -21.221  1.00  0.00     0.046 C 
HETATM    5  C8  UNL     1      -2.901  50.640 -22.096  1.00  0.00     0.149 C 
HETATM    6  C9  UNL     1      -3.278  51.514 -23.282  1.00  0.00    -0.029 C 
HETATM    7  C18 UNL     1      -4.471  51.481 -23.916  1.00  0.00     0.013 C 
HETATM    8  C19 UNL     1      -5.635  50.544 -23.740  1.00  0.00     0.150 C 
HETATM    9  C20 UNL     1      -5.347  49.085 -23.278  1.00  0.00    -0.007 C 
HETATM   10  C21 UNL     1      -4.282  48.446 -24.214  1.00  0.00     0.019 C 
HETATM   11  C22 UNL     1      -6.671  48.255 -23.435  1.00  0.00     0.014 C 
HETATM   12  C23 UNL     1      -6.544  46.799 -22.961  1.00  0.00     0.017 C 
HETATM   13  C24 UNL     1      -5.964  46.656 -21.532  1.00  0.00     0.005 C 
HETATM   14  C26 UNL     1      -5.350  45.255 -21.343  1.00  0.00     0.020 C 
HETATM   15  C27 UNL     1      -4.076  45.467 -20.538  1.00  0.00     0.036 C 
ENDROOT
BRANCH   6  16
HETATM   16  C10 UNL     1      -2.145  52.426 -23.746  1.00  0.00     0.215 C 
BRANCH  16  17
HETATM   17  O3  UNL     1      -0.908  51.720 -23.941  1.00  0.00    -0.313 OA
BRANCH  17  18
HETATM   18  C11 UNL     1       0.182  52.484 -24.196  1.00  0.00     0.293 C 
HETATM   19  O4  UNL     1       0.707  53.276 -23.430  1.00  0.00    -0.259 OA
BRANCH  18  20
HETATM   20  C12 UNL     1       0.665  52.248 -25.585  1.00  0.00     0.039 A 
HETATM   21  C13 UNL     1      -0.187  52.585 -26.647  1.00  0.00     0.017 A 
HETATM   22  C14 UNL     1       0.217  52.377 -27.967  1.00  0.00     0.001 A 
HETATM   23  C15 UNL     1       1.472  51.834 -28.235  1.00  0.00     0.000 A 
HETATM   24  C16 UNL     1       2.326  51.497 -27.185  1.00  0.00     0.001 A 
HETATM   25  C17 UNL     1       1.927  51.702 -25.863  1.00  0.00     0.017 A 
ENDBRANCH  18  20
ENDBRANCH  17  18
ENDBRANCH  16  17
ENDBRANCH   6  16
BRANCH   5  26
HETATM   26  O2  UNL     1      -2.076  51.429 -21.225  1.00  0.00    -0.391 OA
HETATM   27  H12 UNL     1      -2.647  52.113 -20.833  1.00  0.00     0.210 HD
ENDBRANCH   5  26
BRANCH   8  28
HETATM   28  O5  UNL     1      -6.580  51.171 -22.877  1.00  0.00    -0.391 OA
HETATM   29  H22 UNL     1      -6.562  52.126 -23.060  1.00  0.00     0.210 HD
ENDBRANCH   8  28
BRANCH   1  30
HETATM   30  C2  UNL     1      -2.293  47.351 -20.512  1.00  0.00     0.034 C 
HETATM   31  C1  UNL     1      -1.584  47.874 -21.766  1.00  0.00     0.017 C 
BRANCH  30  32
HETATM   32  C3  UNL     1      -2.275  48.393 -19.377  1.00  0.00     0.172 C 
BRANCH  32  33
HETATM   33  O1  UNL     1      -1.628  47.887 -18.212  1.00  0.00    -0.400 OA
HETATM   34  H7  UNL     1      -0.708  47.685 -18.448  1.00  0.00     0.209 HD
ENDBRANCH  32  33
ENDBRANCH  30  32
ENDBRANCH   1  30
BRANCH  13  35
HETATM   35  C25 UNL     1      -7.079  46.915 -20.483  1.00  0.00     0.178 C 
BRANCH  35  36
HETATM   36  O6  UNL     1      -8.350  46.439 -20.917  1.00  0.00    -0.400 OA
HETATM   37  H32 UNL     1      -8.956  46.519 -20.160  1.00  0.00     0.209 HD
ENDBRANCH  35  36
ENDBRANCH  13  35
TORSDOF 11
ENDMDL
MODEL 8
REMARK minimizedAffinity -8.37358952
REMARK  11 active torsions:
REMARK  status: ('A' for Active; 'I' for Inactive)
REMARK    1  A    between atoms: C2_2  and  C3_3 
REMARK    2  A    between atoms: C2_2  and  C4_5 
REMARK    3  A    between atoms: C3_3  and  O1_4 
REMARK    4  A    between atoms: C8_9  and  O2_10 
REMARK    5  A    between atoms: C9_11  and  C10_12 
REMARK    6  A    between atoms: C10_12  and  O3_13 
REMARK    7  A    between atoms: O3_13  and  C11_14 
REMARK    8  A    between atoms: C11_14  and  C12_16 
REMARK    9  A    between atoms: C19_23  and  O5_24 
REMARK   10  A    between atoms: C24_29  and  C25_30 
REMARK   11  A    between atoms: C25_30  and  O6_31 
ROOT
HETATM    1  C4  UNL     1      -1.134  52.419 -25.161  1.00  0.00    -0.070 C 
HETATM    2  C5  UNL     1      -1.060  52.362 -23.815  1.00  0.00    -0.061 C 
HETATM    3  C6  UNL     1      -2.091  52.230 -22.701  1.00  0.00     0.029 C 
HETATM    4  C7  UNL     1      -3.560  52.584 -22.985  1.00  0.00     0.046 C 
HETATM    5  C8  UNL     1      -4.560  51.465 -23.270  1.00  0.00     0.149 C 
HETATM    6  C9  UNL     1      -4.973  50.585 -22.099  1.00  0.00    -0.029 C 
HETATM    7  C18 UNL     1      -4.223  50.371 -20.995  1.00  0.00     0.013 C 
HETATM    8  C19 UNL     1      -2.811  50.789 -20.686  1.00  0.00     0.150 C 
HETATM    9  C20 UNL     1      -1.810  50.941 -21.870  1.00  0.00    -0.007 C 
HETATM   10  C21 UNL     1      -1.810  49.639 -22.719  1.00  0.00     0.019 C 
HETATM   11  C22 UNL     1      -0.369  51.112 -21.268  1.00  0.00     0.014 C 
HETATM   12  C23 UNL     1       0.719  51.328 -22.331  1.00  0.00     0.017 C 
HETATM   13  C24 UNL     1       0.396  52.463 -23.334  1.00  0.00     0.005 C 
HETATM   14  C26 UNL     1       1.188  52.263 -24.641  1.00  0.00     0.020 C 
HETATM   15  C27 UNL     1       0.232  52.636 -25.765  1.00  0.00     0.036 C 
ENDROOT
BRANCH   6  16
HETATM   16  C10 UNL     1      -6.324  49.904 -22.300  1.00  0.00     0.215 C 
BRANCH  16  17
HETATM   17  O3  UNL     1      -6.530  49.468 -23.654  1.00  0.00    -0.313 OA
BRANCH  17  18
HETATM   18  C11 UNL     1      -6.169  48.192 -23.933  1.00  0.00     0.293 C 
HETATM   19  O4  UNL     1      -5.917  47.317 -23.120  1.00  0.00    -0.259 OA
BRANCH  18  20
HETATM   20  C12 UNL     1      -6.088  47.988 -25.406  1.00  0.00     0.039 A 
HETATM   21  C13 UNL     1      -7.208  47.456 -26.062  1.00  0.00     0.017 A 
HETATM   22  C14 UNL     1      -7.180  47.239 -27.441  1.00  0.00     0.001 A 
HETATM   23  C15 UNL     1      -6.035  47.551 -28.172  1.00  0.00     0.000 A 
HETATM   24  C16 UNL     1      -4.917  48.081 -27.528  1.00  0.00     0.001 A 
HETATM   25  C17 UNL     1      -4.940  48.300 -26.149  1.00  0.00     0.017 A 
ENDBRANCH  18  20
ENDBRANCH  17  18
ENDBRANCH  16  17
ENDBRANCH   6  16
BRANCH   5  26
HETATM   26  O2  UNL     1      -5.743  52.119 -23.755  1.00  0.00    -0.391 OA
HETATM   27  H12 UNL     1      -6.016  52.758 -23.073  1.00  0.00     0.210 HD
ENDBRANCH   5  26
BRANCH   8  28
HETATM   28  O5  UNL     1      -2.864  51.983 -19.911  1.00  0.00    -0.391 OA
HETATM   29  H22 UNL     1      -3.645  51.929 -19.334  1.00  0.00     0.210 HD
ENDBRANCH   8  28
BRANCH   1  30
HETATM   30  C2  UNL     1      -2.323  52.331 -26.088  1.00  0.00     0.034 C 
HETATM   31  C1  UNL     1      -1.984  52.907 -27.468  1.00  0.00     0.017 C 
BRANCH  30  32
HETATM   32  C3  UNL     1      -2.862  50.892 -26.194  1.00  0.00     0.172 C 
BRANCH  32  33
HETATM   33  O1  UNL     1      -1.814  49.958 -26.443  1.00  0.00    -0.400 OA
HETATM   34  H7  UNL     1      -1.200  49.993 -25.691  1.00  0.00     0.209 HD
ENDBRANCH  32  33
ENDBRANCH  30  32
ENDBRANCH   1  30
BRANCH  13  35
HETATM   35  C25 UNL     1       0.727  53.840 -22.694  1.00  0.00     0.178 C 
BRANCH  35  36
HETATM   36  O6  UNL     1       1.508  54.662 -23.557  1.00  0.00    -0.400 OA
HETATM   37  H32 UNL     1       1.558  55.541 -23.144  1.00  0.00     0.209 HD
ENDBRANCH  35  36
ENDBRANCH  13  35
TORSDOF 11
ENDMDL
MODEL 9
REMARK minimizedAffinity -8.30764961
REMARK  11 active torsions:
REMARK  status: ('A' for Active; 'I' for Inactive)
REMARK    1  A    between atoms: C2_2  and  C3_3 
REMARK    2  A    between atoms: C2_2  and  C4_5 
REMARK    3  A    between atoms: C3_3  and  O1_4 
REMARK    4  A    between atoms: C8_9  and  O2_10 
REMARK    5  A    between atoms: C9_11  and  C10_12 
REMARK    6  A    between atoms: C10_12  and  O3_13 
REMARK    7  A    between atoms: O3_13  and  C11_14 
REMARK    8  A    between atoms: C11_14  and  C12_16 
REMARK    9  A    between atoms: C19_23  and  O5_24 
REMARK   10  A    between atoms: C24_29  and  C25_30 
REMARK   11  A    between atoms: C25_30  and  O6_31 
ROOT
HETATM    1  C4  UNL     1      -5.647  48.096 -22.733  1.00  0.00    -0.070 C 
HETATM    2  C5  UNL     1      -4.609  47.713 -21.961  1.00  0.00    -0.061 C 
HETATM    3  C6  UNL     1      -3.134  48.089 -21.905  1.00  0.00     0.029 C 
HETATM    4  C7  UNL     1      -2.474  48.743 -23.130  1.00  0.00     0.046 C 
HETATM    5  C8  UNL     1      -2.275  50.258 -23.156  1.00  0.00     0.149 C 
HETATM    6  C9  UNL     1      -1.206  50.836 -22.241  1.00  0.00    -0.029 C 
HETATM    7  C18 UNL     1      -0.772  50.255 -21.101  1.00  0.00     0.013 C 
HETATM    8  C19 UNL     1      -1.279  49.035 -20.381  1.00  0.00     0.150 C 
HETATM    9  C20 UNL     1      -2.791  48.680 -20.503  1.00  0.00    -0.007 C 
HETATM   10  C21 UNL     1      -3.646  49.920 -20.122  1.00  0.00     0.019 C 
HETATM   11  C22 UNL     1      -3.110  47.549 -19.461  1.00  0.00     0.014 C 
HETATM   12  C23 UNL     1      -4.566  47.061 -19.510  1.00  0.00     0.017 C 
HETATM   13  C24 UNL     1      -5.043  46.661 -20.928  1.00  0.00     0.005 C 
HETATM   14  C26 UNL     1      -6.580  46.733 -21.014  1.00  0.00     0.020 C 
HETATM   15  C27 UNL     1      -6.892  47.317 -22.384  1.00  0.00     0.036 C 
ENDROOT
BRANCH   6  16
HETATM   16  C10 UNL     1      -0.681  52.192 -22.705  1.00  0.00     0.215 C 
BRANCH  16  17
HETATM   17  O3  UNL     1       0.510  52.084 -23.502  1.00  0.00    -0.313 OA
BRANCH  17  18
HETATM   18  C11 UNL     1       0.794  53.142 -24.299  1.00  0.00     0.293 C 
HETATM   19  O4  UNL     1       1.094  54.267 -23.930  1.00  0.00    -0.259 OA
BRANCH  18  20
HETATM   20  C12 UNL     1       0.665  52.760 -25.733  1.00  0.00     0.039 A 
HETATM   21  C13 UNL     1      -0.018  53.633 -26.591  1.00  0.00     0.017 A 
HETATM   22  C14 UNL     1      -0.172  53.316 -27.942  1.00  0.00     0.001 A 
HETATM   23  C15 UNL     1       0.356  52.128 -28.444  1.00  0.00     0.000 A 
HETATM   24  C16 UNL     1       1.038  51.254 -27.598  1.00  0.00     0.001 A 
HETATM   25  C17 UNL     1       1.194  51.566 -26.245  1.00  0.00     0.017 A 
ENDBRANCH  18  20
ENDBRANCH  17  18
ENDBRANCH  16  17
ENDBRANCH   6  16
BRANCH   5  26
HETATM   26  O2  UNL     1      -1.903  50.575 -24.507  1.00  0.00    -0.391 OA
HETATM   27  H12 UNL     1      -1.112  50.047 -24.717  1.00  0.00     0.210 HD
ENDBRANCH   5  26
BRANCH   8  28
HETATM   28  O5  UNL     1      -0.467  47.927 -20.763  1.00  0.00    -0.391 OA
HETATM   29  H22 UNL     1       0.441  48.253 -20.888  1.00  0.00     0.210 HD
ENDBRANCH   8  28
BRANCH   1  30
HETATM   30  C2  UNL     1      -5.725  49.112 -23.848  1.00  0.00     0.034 C 
HETATM   31  C1  UNL     1      -5.325  50.504 -23.348  1.00  0.00     0.017 C 
BRANCH  30  32
HETATM   32  C3  UNL     1      -4.887  48.688 -25.069  1.00  0.00     0.172 C 
BRANCH  32  33
HETATM   33  O1  UNL     1      -5.714  48.260 -26.148  1.00  0.00    -0.400 OA
HETATM   34  H7  UNL     1      -6.269  49.012 -26.413  1.00  0.00     0.209 HD
ENDBRANCH  32  33
ENDBRANCH  30  32
ENDBRANCH   1  30
BRANCH  13  35
HETATM   35  C25 UNL     1      -4.538  45.233 -21.270  1.00  0.00     0.178 C 
BRANCH  35  36
HETATM   36  O6  UNL     1      -4.435  44.405 -20.116  1.00  0.00    -0.400 OA
HETATM   37  H32 UNL     1      -4.244  43.504 -20.428  1.00  0.00     0.209 HD
ENDBRANCH  35  36
ENDBRANCH  13  35
TORSDOF 11
ENDMDL
