MODEL 1
REMARK minimizedAffinity -9.9267664
REMARK CNNscore 0.653015077
REMARK CNNaffinity 7.46302605
REMARK  13 active torsions:
REMARK  status: ('A' for Active; 'I' for Inactive)
REMARK    1  A    between atoms: C2_2  and  C3_3 
REMARK    2  A    between atoms: C3_3  and  C5_5 
REMARK    3  A    between atoms: C5_5  and  N1_6 
REMARK    4  A    between atoms: C5_5  and  C31_39 
REMARK       I    between atoms: N1_6  and  C6_7 
REMARK    5  A    between atoms: C6_7  and  C7_9 
REMARK    6  A    between atoms: C7_9  and  C8_10 
REMARK    7  A    between atoms: C8_10  and  C9_11 
REMARK    8  A    between atoms: C9_11  and  O3_13 
REMARK    9  A    between atoms: O3_13  and  C10_14 
REMARK   10  A    between atoms: C10_14  and  C11_15 
REMARK   11  A    between atoms: C11_15  and  C12_17 
REMARK   12  A    between atoms: C12_17  and  O5_18 
REMARK   13  A    between atoms: C31_39  and  O9_41 
ROOT
HETATM    1  C12 UNL     1      -6.584  49.492 -21.992  1.00  0.00     0.128 C 
HETATM    2  C13 UNL     1      -7.065  49.461 -20.524  1.00  0.00     0.047 C 
HETATM    3  C14 UNL     1      -5.882  49.967 -19.670  1.00  0.00     0.009 C 
HETATM    4  C15 UNL     1      -4.818  50.380 -20.683  1.00  0.00     0.002 C 
HETATM    5  C16 UNL     1      -3.356  50.454 -20.220  1.00  0.00     0.003 C 
HETATM    6  C17 UNL     1      -3.198  51.413 -19.034  1.00  0.00     0.010 C 
HETATM    7  C18 UNL     1      -1.741  51.530 -18.606  1.00  0.00     0.035 C 
HETATM    8  C19 UNL     1      -0.850  51.939 -19.756  1.00  0.00    -0.067 C 
HETATM    9  C20 UNL     1      -0.030  52.996 -19.616  1.00  0.00     0.053 C 
HETATM   10  C21 UNL     1       0.930  53.377 -20.673  1.00  0.00     0.149 C 
HETATM   11  O6  UNL     1       1.566  54.422 -20.570  1.00  0.00    -0.293 OA
HETATM   12  C22 UNL     1       1.117  52.420 -21.820  1.00  0.00     0.084 C 
HETATM   13  C23 UNL     1      -0.230  51.830 -22.210  1.00  0.00     0.022 C 
HETATM   14  C24 UNL     1      -0.956  51.094 -21.040  1.00  0.00    -0.009 C 
HETATM   15  C25 UNL     1      -0.258  49.742 -20.773  1.00  0.00     0.021 C 
HETATM   16  C26 UNL     1      -2.473  50.929 -21.413  1.00  0.00     0.072 C 
HETATM   17  C27 UNL     1      -2.762  50.060 -22.653  1.00  0.00     0.133 C 
HETATM   18  O7  UNL     1      -1.883  49.532 -23.330  1.00  0.00    -0.297 OA
HETATM   19  C28 UNL     1      -4.227  49.920 -23.057  1.00  0.00     0.091 C 
HETATM   20  C29 UNL     1      -5.038  49.400 -21.866  1.00  0.00     0.005 C 
HETATM   21  C30 UNL     1      -4.587  47.952 -21.548  1.00  0.00     0.019 C 
ENDROOT
BRANCH   1  22
HETATM   22  C11 UNL     1      -7.243  48.487 -22.959  1.00  0.00     0.185 C 
HETATM   23  O4  UNL     1      -7.890  47.544 -22.486  1.00  0.00    -0.292 OA
BRANCH  22  24
HETATM   24  C10 UNL     1      -7.032  48.655 -24.461  1.00  0.00     0.260 C 
BRANCH  24  25
HETATM   25  O3  UNL     1      -6.263  47.621 -25.071  1.00  0.00    -0.314 OA
BRANCH  25  26
HETATM   26  C9  UNL     1      -5.680  47.954 -26.256  1.00  0.00     0.259 C 
HETATM   27  O2  UNL     1      -6.236  47.908 -27.346  1.00  0.00    -0.265 OA
BRANCH  26  28
HETATM   28  C8  UNL     1      -4.270  48.427 -26.025  1.00  0.00     0.120 C 
BRANCH  28  29
HETATM   29  C7  UNL     1      -3.528  48.613 -27.341  1.00  0.00     0.112 C 
BRANCH  29  30
HETATM   30  C6  UNL     1      -2.674  49.864 -27.306  1.00  0.00     0.218 C 
HETATM   31  N1  UNL     1      -1.981  50.022 -26.129  1.00  0.00    -0.346 N 
HETATM   32  H11 UNL     1      -1.882  49.219 -25.517  1.00  0.00     0.163 HD
HETATM   33  O1  UNL     1      -2.612  50.661 -28.236  1.00  0.00    -0.274 OA
BRANCH  31  34
HETATM   34  C5  UNL     1      -0.977  51.084 -25.956  1.00  0.00     0.186 C 
BRANCH  34  35
HETATM   35  C3  UNL     1       0.115  51.010 -27.058  1.00  0.00     0.014 C 
HETATM   36  C4  UNL     1       0.028  52.224 -27.998  1.00  0.00     0.012 C 
BRANCH  35  37
HETATM   37  C2  UNL     1       1.535  50.907 -26.447  1.00  0.00     0.002 C 
HETATM   38  C1  UNL     1       2.572  51.774 -27.147  1.00  0.00     0.005 C 
ENDBRANCH  35  37
ENDBRANCH  34  35
BRANCH  34  39
HETATM   39  C31 UNL     1      -1.727  52.428 -26.001  1.00  0.00     0.163 C 
HETATM   40  O8  UNL     1      -2.930  52.596 -26.126  1.00  0.00    -0.648 OA
BRANCH  39  41
HETATM   41  O9  UNL     1      -0.923  53.506 -25.810  1.00  0.00    -0.775 OA
HETATM   42  H43 UNL     1      -1.551  54.262 -25.837  1.00  0.00     0.167 HD
ENDBRANCH  39  41
ENDBRANCH  34  39
ENDBRANCH  31  34
ENDBRANCH  29  30
ENDBRANCH  28  29
ENDBRANCH  26  28
ENDBRANCH  25  26
ENDBRANCH  24  25
ENDBRANCH  22  24
ENDBRANCH   1  22
BRANCH   1  43
HETATM   43  O5  UNL     1      -6.942  50.791 -22.504  1.00  0.00    -0.381 OA
HETATM   44  H18 UNL     1      -6.960  50.710 -23.482  1.00  0.00     0.211 HD
ENDBRANCH   1  43
TORSDOF 13
ENDMDL
MODEL 2
REMARK minimizedAffinity -7.54796886
REMARK CNNscore 0.425579578
REMARK CNNaffinity 6.12129259
REMARK  13 active torsions:
REMARK  status: ('A' for Active; 'I' for Inactive)
REMARK    1  A    between atoms: C2_2  and  C3_3 
REMARK    2  A    between atoms: C3_3  and  C5_5 
REMARK    3  A    between atoms: C5_5  and  N1_6 
REMARK    4  A    between atoms: C5_5  and  C31_39 
REMARK       I    between atoms: N1_6  and  C6_7 
REMARK    5  A    between atoms: C6_7  and  C7_9 
REMARK    6  A    between atoms: C7_9  and  C8_10 
REMARK    7  A    between atoms: C8_10  and  C9_11 
REMARK    8  A    between atoms: C9_11  and  O3_13 
REMARK    9  A    between atoms: O3_13  and  C10_14 
REMARK   10  A    between atoms: C10_14  and  C11_15 
REMARK   11  A    between atoms: C11_15  and  C12_17 
REMARK   12  A    between atoms: C12_17  and  O5_18 
REMARK   13  A    between atoms: C31_39  and  O9_41 
ROOT
HETATM    1  C12 UNL     1      -8.434  46.124 -28.336  1.00  0.00     0.128 C 
HETATM    2  C13 UNL     1      -7.675  46.794 -29.502  1.00  0.00     0.047 C 
HETATM    3  C14 UNL     1      -6.494  47.560 -28.867  1.00  0.00     0.009 C 
HETATM    4  C15 UNL     1      -6.550  47.204 -27.384  1.00  0.00     0.002 C 
HETATM    5  C16 UNL     1      -5.870  48.145 -26.380  1.00  0.00     0.003 C 
HETATM    6  C17 UNL     1      -4.383  48.327 -26.710  1.00  0.00     0.010 C 
HETATM    7  C18 UNL     1      -3.692  49.216 -25.685  1.00  0.00     0.035 C 
HETATM    8  C19 UNL     1      -3.875  48.696 -24.278  1.00  0.00    -0.067 C 
HETATM    9  C20 UNL     1      -2.798  48.507 -23.495  1.00  0.00     0.053 C 
HETATM   10  C21 UNL     1      -2.929  48.094 -22.082  1.00  0.00     0.149 C 
HETATM   11  O6  UNL     1      -1.927  47.801 -21.437  1.00  0.00    -0.293 OA
HETATM   12  C22 UNL     1      -4.310  48.103 -21.482  1.00  0.00     0.084 C 
HETATM   13  C23 UNL     1      -5.310  47.589 -22.506  1.00  0.00     0.022 C 
HETATM   14  C24 UNL     1      -5.323  48.408 -23.835  1.00  0.00    -0.009 C 
HETATM   15  C25 UNL     1      -6.021  49.766 -23.594  1.00  0.00     0.021 C 
HETATM   16  C26 UNL     1      -6.031  47.554 -24.947  1.00  0.00     0.072 C 
HETATM   17  C27 UNL     1      -7.513  47.219 -24.686  1.00  0.00     0.133 C 
HETATM   18  O7  UNL     1      -8.119  47.572 -23.678  1.00  0.00    -0.297 OA
HETATM   19  C28 UNL     1      -8.208  46.354 -25.733  1.00  0.00     0.091 C 
HETATM   20  C29 UNL     1      -8.065  47.008 -27.111  1.00  0.00     0.005 C 
HETATM   21  C30 UNL     1      -8.862  48.337 -27.119  1.00  0.00     0.019 C 
ENDROOT
BRANCH   1  22
HETATM   22  C11 UNL     1      -9.938  45.861 -28.547  1.00  0.00     0.185 C 
HETATM   23  O4  UNL     1     -10.290  44.776 -29.028  1.00  0.00    -0.292 OA
BRANCH  22  24
HETATM   24  C10 UNL     1     -10.941  46.961 -28.209  1.00  0.00     0.260 C 
BRANCH  24  25
HETATM   25  O3  UNL     1     -11.880  46.616 -27.194  1.00  0.00    -0.314 OA
BRANCH  25  26
HETATM   26  C9  UNL     1     -13.187  46.685 -27.566  1.00  0.00     0.259 C 
HETATM   27  O2  UNL     1     -13.605  46.475 -28.698  1.00  0.00    -0.265 OA
BRANCH  26  28
HETATM   28  C8  UNL     1     -14.049  47.013 -26.375  1.00  0.00     0.120 C 
BRANCH  28  29
HETATM   29  C7  UNL     1     -14.968  45.851 -26.023  1.00  0.00     0.112 C 
BRANCH  29  30
HETATM   30  C6  UNL     1     -16.124  46.321 -25.163  1.00  0.00     0.218 C 
HETATM   31  N1  UNL     1     -17.111  45.376 -25.008  1.00  0.00    -0.346 N 
HETATM   32  H11 UNL     1     -16.894  44.412 -25.234  1.00  0.00     0.163 HD
HETATM   33  O1  UNL     1     -16.176  47.438 -24.659  1.00  0.00    -0.274 OA
BRANCH  31  34
HETATM   34  C5  UNL     1     -18.238  45.577 -24.084  1.00  0.00     0.186 C 
BRANCH  34  35
HETATM   35  C3  UNL     1     -17.761  46.187 -22.739  1.00  0.00     0.014 C 
HETATM   36  C4  UNL     1     -18.938  46.353 -21.764  1.00  0.00     0.012 C 
BRANCH  35  37
HETATM   37  C2  UNL     1     -16.645  45.332 -22.088  1.00  0.00     0.002 C 
HETATM   38  C1  UNL     1     -16.213  45.822 -20.713  1.00  0.00     0.005 C 
ENDBRANCH  35  37
ENDBRANCH  34  35
BRANCH  34  39
HETATM   39  C31 UNL     1     -19.246  46.501 -24.792  1.00  0.00     0.163 C 
HETATM   40  O8  UNL     1     -20.329  46.188 -25.260  1.00  0.00    -0.648 OA
BRANCH  39  41
HETATM   41  O9  UNL     1     -18.868  47.806 -24.809  1.00  0.00    -0.775 OA
HETATM   42  H43 UNL     1     -19.619  48.252 -25.260  1.00  0.00     0.167 HD
ENDBRANCH  39  41
ENDBRANCH  34  39
ENDBRANCH  31  34
ENDBRANCH  29  30
ENDBRANCH  28  29
ENDBRANCH  26  28
ENDBRANCH  25  26
ENDBRANCH  24  25
ENDBRANCH  22  24
ENDBRANCH   1  22
BRANCH   1  43
HETATM   43  O5  UNL     1      -7.846  44.818 -28.172  1.00  0.00    -0.381 OA
HETATM   44  H18 UNL     1      -8.509  44.272 -27.695  1.00  0.00     0.211 HD
ENDBRANCH   1  43
TORSDOF 13
ENDMDL
MODEL 3
REMARK minimizedAffinity -8.29117012
REMARK CNNscore 0.405185282
REMARK CNNaffinity 6.46603823
REMARK  13 active torsions:
REMARK  status: ('A' for Active; 'I' for Inactive)
REMARK    1  A    between atoms: C2_2  and  C3_3 
REMARK    2  A    between atoms: C3_3  and  C5_5 
REMARK    3  A    between atoms: C5_5  and  N1_6 
REMARK    4  A    between atoms: C5_5  and  C31_39 
REMARK       I    between atoms: N1_6  and  C6_7 
REMARK    5  A    between atoms: C6_7  and  C7_9 
REMARK    6  A    between atoms: C7_9  and  C8_10 
REMARK    7  A    between atoms: C8_10  and  C9_11 
REMARK    8  A    between atoms: C9_11  and  O3_13 
REMARK    9  A    between atoms: O3_13  and  C10_14 
REMARK   10  A    between atoms: C10_14  and  C11_15 
REMARK   11  A    between atoms: C11_15  and  C12_17 
REMARK   12  A    between atoms: C12_17  and  O5_18 
REMARK   13  A    between atoms: C31_39  and  O9_41 
ROOT
HETATM    1  C12 UNL     1      -2.172  48.519 -19.562  1.00  0.00     0.128 C 
HETATM    2  C13 UNL     1      -3.339  47.638 -20.060  1.00  0.00     0.047 C 
HETATM    3  C14 UNL     1      -3.501  47.943 -21.566  1.00  0.00     0.009 C 
HETATM    4  C15 UNL     1      -2.351  48.891 -21.897  1.00  0.00     0.002 C 
HETATM    5  C16 UNL     1      -2.475  49.785 -23.139  1.00  0.00     0.003 C 
HETATM    6  C17 UNL     1      -2.706  48.949 -24.404  1.00  0.00     0.010 C 
HETATM    7  C18 UNL     1      -2.775  49.829 -25.645  1.00  0.00     0.035 C 
HETATM    8  C19 UNL     1      -1.548  50.698 -25.785  1.00  0.00    -0.067 C 
HETATM    9  C20 UNL     1      -0.859  50.690 -26.941  1.00  0.00     0.053 C 
HETATM   10  C21 UNL     1       0.290  51.592 -27.164  1.00  0.00     0.149 C 
HETATM   11  O6  UNL     1       0.977  51.466 -28.173  1.00  0.00    -0.293 OA
HETATM   12  C22 UNL     1       0.532  52.674 -26.145  1.00  0.00     0.084 C 
HETATM   13  C23 UNL     1       0.276  52.121 -24.751  1.00  0.00     0.022 C 
HETATM   14  C24 UNL     1      -1.163  51.547 -24.559  1.00  0.00    -0.009 C 
HETATM   15  C25 UNL     1      -2.172  52.714 -24.458  1.00  0.00     0.021 C 
HETATM   16  C26 UNL     1      -1.173  50.629 -23.285  1.00  0.00     0.072 C 
HETATM   17  C27 UNL     1      -0.859  51.336 -21.952  1.00  0.00     0.133 C 
HETATM   18  O7  UNL     1      -0.601  52.534 -21.865  1.00  0.00    -0.297 OA
HETATM   19  C28 UNL     1      -0.822  50.453 -20.707  1.00  0.00     0.091 C 
HETATM   20  C29 UNL     1      -2.144  49.690 -20.584  1.00  0.00     0.005 C 
HETATM   21  C30 UNL     1      -3.282  50.704 -20.303  1.00  0.00     0.019 C 
ENDROOT
BRANCH   1  22
HETATM   22  C11 UNL     1      -2.193  48.922 -18.074  1.00  0.00     0.185 C 
HETATM   23  O4  UNL     1      -3.278  48.942 -17.479  1.00  0.00    -0.292 OA
BRANCH  22  24
HETATM   24  C10 UNL     1      -0.889  49.335 -17.398  1.00  0.00     0.260 C 
BRANCH  24  25
HETATM   25  O3  UNL     1      -1.008  49.625 -16.007  1.00  0.00    -0.314 OA
BRANCH  25  26
HETATM   26  C9  UNL     1      -0.310  50.713 -15.579  1.00  0.00     0.259 C 
HETATM   27  O2  UNL     1       0.260  51.511 -16.313  1.00  0.00    -0.265 OA
BRANCH  26  28
HETATM   28  C8  UNL     1      -0.378  50.816 -14.079  1.00  0.00     0.120 C 
BRANCH  28  29
HETATM   29  C7  UNL     1      -0.263  52.262 -13.619  1.00  0.00     0.112 C 
BRANCH  29  30
HETATM   30  C6  UNL     1       0.075  52.334 -12.145  1.00  0.00     0.218 C 
HETATM   31  N1  UNL     1       0.675  53.515 -11.776  1.00  0.00    -0.346 N 
HETATM   32  H11 UNL     1       0.610  54.306 -12.409  1.00  0.00     0.163 HD
HETATM   33  O1  UNL     1      -0.158  51.423 -11.356  1.00  0.00    -0.274 OA
BRANCH  31  34
HETATM   34  C5  UNL     1       0.937  53.846 -10.367  1.00  0.00     0.186 C 
BRANCH  34  35
HETATM   35  C3  UNL     1       2.388  54.362 -10.169  1.00  0.00     0.014 C 
HETATM   36  C4  UNL     1       3.411  53.314 -10.635  1.00  0.00     0.012 C 
BRANCH  35  37
HETATM   37  C2  UNL     1       2.622  55.703 -10.910  1.00  0.00     0.002 C 
HETATM   38  C1  UNL     1       4.089  56.027 -11.152  1.00  0.00     0.005 C 
ENDBRANCH  35  37
ENDBRANCH  34  35
BRANCH  34  39
HETATM   39  C31 UNL     1      -0.096  54.910  -9.952  1.00  0.00     0.163 C 
HETATM   40  O8  UNL     1      -1.058  55.294 -10.600  1.00  0.00    -0.648 OA
BRANCH  39  41
HETATM   41  O9  UNL     1       0.091  55.390  -8.695  1.00  0.00    -0.775 OA
HETATM   42  H43 UNL     1      -0.654  56.021  -8.582  1.00  0.00     0.167 HD
ENDBRANCH  39  41
ENDBRANCH  34  39
ENDBRANCH  31  34
ENDBRANCH  29  30
ENDBRANCH  28  29
ENDBRANCH  26  28
ENDBRANCH  25  26
ENDBRANCH  24  25
ENDBRANCH  22  24
ENDBRANCH   1  22
BRANCH   1  43
HETATM   43  O5  UNL     1      -0.977  47.727 -19.717  1.00  0.00    -0.381 OA
HETATM   44  H18 UNL     1      -0.306  48.115 -19.114  1.00  0.00     0.211 HD
ENDBRANCH   1  43
TORSDOF 13
ENDMDL
MODEL 4
REMARK minimizedAffinity -8.1934824
REMARK CNNscore 0.403690875
REMARK CNNaffinity 6.42368364
REMARK  13 active torsions:
REMARK  status: ('A' for Active; 'I' for Inactive)
REMARK    1  A    between atoms: C2_2  and  C3_3 
REMARK    2  A    between atoms: C3_3  and  C5_5 
REMARK    3  A    between atoms: C5_5  and  N1_6 
REMARK    4  A    between atoms: C5_5  and  C31_39 
REMARK       I    between atoms: N1_6  and  C6_7 
REMARK    5  A    between atoms: C6_7  and  C7_9 
REMARK    6  A    between atoms: C7_9  and  C8_10 
REMARK    7  A    between atoms: C8_10  and  C9_11 
REMARK    8  A    between atoms: C9_11  and  O3_13 
REMARK    9  A    between atoms: O3_13  and  C10_14 
REMARK   10  A    between atoms: C10_14  and  C11_15 
REMARK   11  A    between atoms: C11_15  and  C12_17 
REMARK   12  A    between atoms: C12_17  and  O5_18 
REMARK   13  A    between atoms: C31_39  and  O9_41 
ROOT
HETATM    1  C12 UNL     1      -6.650  49.481 -22.002  1.00  0.00     0.128 C 
HETATM    2  C13 UNL     1      -7.106  49.445 -20.527  1.00  0.00     0.047 C 
HETATM    3  C14 UNL     1      -5.909  49.950 -19.690  1.00  0.00     0.009 C 
HETATM    4  C15 UNL     1      -4.862  50.366 -20.720  1.00  0.00     0.002 C 
HETATM    5  C16 UNL     1      -3.393  50.440 -20.281  1.00  0.00     0.003 C 
HETATM    6  C17 UNL     1      -3.216  51.395 -19.094  1.00  0.00     0.010 C 
HETATM    7  C18 UNL     1      -1.753  51.512 -18.690  1.00  0.00     0.035 C 
HETATM    8  C19 UNL     1      -0.881  51.924 -19.853  1.00  0.00    -0.067 C 
HETATM    9  C20 UNL     1      -0.059  52.981 -19.723  1.00  0.00     0.053 C 
HETATM   10  C21 UNL     1       0.883  53.367 -20.795  1.00  0.00     0.149 C 
HETATM   11  O6  UNL     1       1.520  54.411 -20.699  1.00  0.00    -0.293 OA
HETATM   12  C22 UNL     1       1.051  52.413 -21.948  1.00  0.00     0.084 C 
HETATM   13  C23 UNL     1      -0.301  51.824 -22.318  1.00  0.00     0.022 C 
HETATM   14  C24 UNL     1      -1.007  51.084 -21.138  1.00  0.00    -0.009 C 
HETATM   15  C25 UNL     1      -0.305  49.731 -20.887  1.00  0.00     0.021 C 
HETATM   16  C26 UNL     1      -2.530  50.919 -21.487  1.00  0.00     0.072 C 
HETATM   17  C27 UNL     1      -2.840  50.054 -22.724  1.00  0.00     0.133 C 
HETATM   18  O7  UNL     1      -1.972  49.529 -23.418  1.00  0.00    -0.297 OA
HETATM   19  C28 UNL     1      -4.311  49.915 -23.105  1.00  0.00     0.091 C 
HETATM   20  C29 UNL     1      -5.101  49.390 -21.902  1.00  0.00     0.005 C 
HETATM   21  C30 UNL     1      -4.644  47.942 -21.597  1.00  0.00     0.019 C 
ENDROOT
BRANCH   1  22
HETATM   22  C11 UNL     1      -7.324  48.480 -22.961  1.00  0.00     0.185 C 
HETATM   23  O4  UNL     1      -7.986  47.550 -22.482  1.00  0.00    -0.292 OA
BRANCH  22  24
HETATM   24  C10 UNL     1      -7.111  48.633 -24.465  1.00  0.00     0.260 C 
BRANCH  24  25
HETATM   25  O3  UNL     1      -8.312  48.715 -25.228  1.00  0.00    -0.314 OA
BRANCH  25  26
HETATM   26  C9  UNL     1      -8.333  47.958 -26.360  1.00  0.00     0.259 C 
HETATM   27  O2  UNL     1      -9.184  48.036 -27.237  1.00  0.00    -0.265 OA
BRANCH  26  28
HETATM   28  C8  UNL     1      -7.137  47.045 -26.395  1.00  0.00     0.120 C 
BRANCH  28  29
HETATM   29  C7  UNL     1      -6.094  47.540 -27.388  1.00  0.00     0.112 C 
BRANCH  29  30
HETATM   30  C6  UNL     1      -6.566  47.334 -28.812  1.00  0.00     0.218 C 
HETATM   31  N1  UNL     1      -6.571  48.488 -29.561  1.00  0.00    -0.346 N 
HETATM   32  H11 UNL     1      -6.044  49.285 -29.220  1.00  0.00     0.163 HD
HETATM   33  O1  UNL     1      -6.915  46.244 -29.254  1.00  0.00    -0.274 OA
BRANCH  31  34
HETATM   34  C5  UNL     1      -6.842  48.474 -31.006  1.00  0.00     0.186 C 
BRANCH  34  35
HETATM   35  C3  UNL     1      -6.374  47.143 -31.654  1.00  0.00     0.014 C 
HETATM   36  C4  UNL     1      -7.256  46.780 -32.860  1.00  0.00     0.012 C 
BRANCH  35  37
HETATM   37  C2  UNL     1      -4.886  47.208 -32.081  1.00  0.00     0.002 C 
HETATM   38  C1  UNL     1      -4.156  45.877 -31.982  1.00  0.00     0.005 C 
ENDBRANCH  35  37
ENDBRANCH  34  35
BRANCH  34  39
HETATM   39  C31 UNL     1      -8.358  48.680 -31.185  1.00  0.00     0.163 C 
HETATM   40  O8  UNL     1      -8.913  49.375 -32.022  1.00  0.00    -0.648 OA
BRANCH  39  41
HETATM   41  O9  UNL     1      -9.112  47.933 -30.337  1.00  0.00    -0.775 OA
HETATM   42  H43 UNL     1     -10.033  48.156 -30.600  1.00  0.00     0.167 HD
ENDBRANCH  39  41
ENDBRANCH  34  39
ENDBRANCH  31  34
ENDBRANCH  29  30
ENDBRANCH  28  29
ENDBRANCH  26  28
ENDBRANCH  25  26
ENDBRANCH  24  25
ENDBRANCH  22  24
ENDBRANCH   1  22
BRANCH   1  43
HETATM   43  O5  UNL     1      -7.017  50.782 -22.503  1.00  0.00    -0.381 OA
HETATM   44  H18 UNL     1      -7.051  50.704 -23.482  1.00  0.00     0.211 HD
ENDBRANCH   1  43
TORSDOF 13
ENDMDL
MODEL 5
REMARK minimizedAffinity -8.47826004
REMARK CNNscore 0.39755407
REMARK CNNaffinity 6.78489304
REMARK  13 active torsions:
REMARK  status: ('A' for Active; 'I' for Inactive)
REMARK    1  A    between atoms: C2_2  and  C3_3 
REMARK    2  A    between atoms: C3_3  and  C5_5 
REMARK    3  A    between atoms: C5_5  and  N1_6 
REMARK    4  A    between atoms: C5_5  and  C31_39 
REMARK       I    between atoms: N1_6  and  C6_7 
REMARK    5  A    between atoms: C6_7  and  C7_9 
REMARK    6  A    between atoms: C7_9  and  C8_10 
REMARK    7  A    between atoms: C8_10  and  C9_11 
REMARK    8  A    between atoms: C9_11  and  O3_13 
REMARK    9  A    between atoms: O3_13  and  C10_14 
REMARK   10  A    between atoms: C10_14  and  C11_15 
REMARK   11  A    between atoms: C11_15  and  C12_17 
REMARK   12  A    between atoms: C12_17  and  O5_18 
REMARK   13  A    between atoms: C31_39  and  O9_41 
ROOT
HETATM    1  C12 UNL     1      -1.915  50.466 -21.747  1.00  0.00     0.128 C 
HETATM    2  C13 UNL     1      -1.888  49.757 -23.119  1.00  0.00     0.047 C 
HETATM    3  C14 UNL     1      -3.187  48.925 -23.203  1.00  0.00     0.009 C 
HETATM    4  C15 UNL     1      -3.960  49.281 -21.936  1.00  0.00     0.002 C 
HETATM    5  C16 UNL     1      -5.030  48.302 -21.433  1.00  0.00     0.003 C 
HETATM    6  C17 UNL     1      -6.091  48.039 -22.509  1.00  0.00     0.010 C 
HETATM    7  C18 UNL     1      -7.183  47.110 -21.996  1.00  0.00     0.035 C 
HETATM    8  C19 UNL     1      -7.816  47.637 -20.728  1.00  0.00    -0.067 C 
HETATM    9  C20 UNL     1      -9.153  47.764 -20.658  1.00  0.00     0.053 C 
HETATM   10  C21 UNL     1      -9.828  48.181 -19.412  1.00  0.00     0.149 C 
HETATM   11  O6  UNL     1     -11.033  48.417 -19.420  1.00  0.00    -0.293 OA
HETATM   12  C22 UNL     1      -8.994  48.248 -18.160  1.00  0.00     0.084 C 
HETATM   13  C23 UNL     1      -7.625  48.818 -18.495  1.00  0.00     0.022 C 
HETATM   14  C24 UNL     1      -6.855  48.004 -19.582  1.00  0.00    -0.009 C 
HETATM   15  C25 UNL     1      -6.335  46.687 -18.963  1.00  0.00     0.021 C 
HETATM   16  C26 UNL     1      -5.699  48.899 -20.158  1.00  0.00     0.072 C 
HETATM   17  C27 UNL     1      -4.613  49.315 -19.147  1.00  0.00     0.133 C 
HETATM   18  O7  UNL     1      -4.633  48.994 -17.961  1.00  0.00    -0.297 OA
HETATM   19  C28 UNL     1      -3.504  50.219 -19.676  1.00  0.00     0.091 C 
HETATM   20  C29 UNL     1      -2.846  49.561 -20.893  1.00  0.00     0.005 C 
HETATM   21  C30 UNL     1      -2.110  48.278 -20.430  1.00  0.00     0.019 C 
ENDROOT
BRANCH   1  22
HETATM   22  C11 UNL     1      -0.550  50.813 -21.119  1.00  0.00     0.185 C 
HETATM   23  O4  UNL     1       0.152  49.894 -20.677  1.00  0.00    -0.292 OA
BRANCH  22  24
HETATM   24  C10 UNL     1      -0.131  52.277 -21.014  1.00  0.00     0.260 C 
BRANCH  24  25
HETATM   25  O3  UNL     1       0.156  52.902 -22.263  1.00  0.00    -0.314 OA
BRANCH  25  26
HETATM   26  C9  UNL     1       1.059  53.919 -22.208  1.00  0.00     0.259 C 
HETATM   27  O2  UNL     1       1.537  54.376 -21.177  1.00  0.00    -0.265 OA
BRANCH  26  28
HETATM   28  C8  UNL     1       1.418  54.369 -23.600  1.00  0.00     0.120 C 
BRANCH  28  29
HETATM   29  C7  UNL     1       0.274  55.140 -24.243  1.00  0.00     0.112 C 
BRANCH  29  30
HETATM   30  C6  UNL     1       0.053  54.684 -25.670  1.00  0.00     0.218 C 
HETATM   31  N1  UNL     1      -0.377  53.381 -25.769  1.00  0.00    -0.346 N 
HETATM   32  H11 UNL     1      -0.749  52.933 -24.939  1.00  0.00     0.163 HD
HETATM   33  O1  UNL     1       0.243  55.406 -26.644  1.00  0.00    -0.274 OA
BRANCH  31  34
HETATM   34  C5  UNL     1      -0.801  52.800 -27.052  1.00  0.00     0.186 C 
BRANCH  34  35
HETATM   35  C3  UNL     1       0.037  51.541 -27.404  1.00  0.00     0.014 C 
HETATM   36  C4  UNL     1       0.944  51.807 -28.616  1.00  0.00     0.012 C 
BRANCH  35  37
HETATM   37  C2  UNL     1       0.884  51.064 -26.198  1.00  0.00     0.002 C 
HETATM   38  C1  UNL     1       2.383  51.253 -26.381  1.00  0.00     0.005 C 
ENDBRANCH  35  37
ENDBRANCH  34  35
BRANCH  34  39
HETATM   39  C31 UNL     1      -2.297  52.458 -26.922  1.00  0.00     0.163 C 
HETATM   40  O8  UNL     1      -3.070  52.851 -26.063  1.00  0.00    -0.648 OA
BRANCH  39  41
HETATM   41  O9  UNL     1      -2.769  51.687 -27.936  1.00  0.00    -0.775 OA
HETATM   42  H43 UNL     1      -3.722  51.590 -27.720  1.00  0.00     0.167 HD
ENDBRANCH  39  41
ENDBRANCH  34  39
ENDBRANCH  31  34
ENDBRANCH  29  30
ENDBRANCH  28  29
ENDBRANCH  26  28
ENDBRANCH  25  26
ENDBRANCH  24  25
ENDBRANCH  22  24
ENDBRANCH   1  22
BRANCH   1  43
HETATM   43  O5  UNL     1      -2.559  51.737 -21.965  1.00  0.00    -0.381 OA
HETATM   44  H18 UNL     1      -2.288  52.318 -21.222  1.00  0.00     0.211 HD
ENDBRANCH   1  43
TORSDOF 13
ENDMDL
MODEL 6
REMARK minimizedAffinity -8.30232143
REMARK CNNscore 0.348612666
REMARK CNNaffinity 6.25803995
REMARK  13 active torsions:
REMARK  status: ('A' for Active; 'I' for Inactive)
REMARK    1  A    between atoms: C2_2  and  C3_3 
REMARK    2  A    between atoms: C3_3  and  C5_5 
REMARK    3  A    between atoms: C5_5  and  N1_6 
REMARK    4  A    between atoms: C5_5  and  C31_39 
REMARK       I    between atoms: N1_6  and  C6_7 
REMARK    5  A    between atoms: C6_7  and  C7_9 
REMARK    6  A    between atoms: C7_9  and  C8_10 
REMARK    7  A    between atoms: C8_10  and  C9_11 
REMARK    8  A    between atoms: C9_11  and  O3_13 
REMARK    9  A    between atoms: O3_13  and  C10_14 
REMARK   10  A    between atoms: C10_14  and  C11_15 
REMARK   11  A    between atoms: C11_15  and  C12_17 
REMARK   12  A    between atoms: C12_17  and  O5_18 
REMARK   13  A    between atoms: C31_39  and  O9_41 
ROOT
HETATM    1  C12 UNL     1      -6.632  49.710 -22.413  1.00  0.00     0.128 C 
HETATM    2  C13 UNL     1      -7.131  49.539 -20.962  1.00  0.00     0.047 C 
HETATM    3  C14 UNL     1      -5.954  49.947 -20.048  1.00  0.00     0.009 C 
HETATM    4  C15 UNL     1      -4.874  50.447 -21.004  1.00  0.00     0.002 C 
HETATM    5  C16 UNL     1      -3.418  50.461 -20.519  1.00  0.00     0.003 C 
HETATM    6  C17 UNL     1      -3.266  51.296 -19.242  1.00  0.00     0.010 C 
HETATM    7  C18 UNL     1      -1.814  51.357 -18.788  1.00  0.00     0.035 C 
HETATM    8  C19 UNL     1      -0.905  51.868 -19.881  1.00  0.00    -0.067 C 
HETATM    9  C20 UNL     1      -0.078  52.898 -19.629  1.00  0.00     0.053 C 
HETATM   10  C21 UNL     1       0.898  53.373 -20.632  1.00  0.00     0.149 C 
HETATM   11  O6  UNL     1       1.542  54.396 -20.419  1.00  0.00    -0.293 OA
HETATM   12  C22 UNL     1       1.091  52.531 -21.865  1.00  0.00     0.084 C 
HETATM   13  C23 UNL     1      -0.256  51.996 -22.328  1.00  0.00     0.022 C 
HETATM   14  C24 UNL     1      -1.002  51.156 -21.244  1.00  0.00    -0.009 C 
HETATM   15  C25 UNL     1      -0.320  49.777 -21.104  1.00  0.00     0.021 C 
HETATM   16  C26 UNL     1      -2.516  51.042 -21.649  1.00  0.00     0.072 C 
HETATM   17  C27 UNL     1      -2.798  50.304 -22.972  1.00  0.00     0.133 C 
HETATM   18  O7  UNL     1      -1.915  49.837 -23.688  1.00  0.00    -0.297 OA
HETATM   19  C28 UNL     1      -4.258  50.219 -23.404  1.00  0.00     0.091 C 
HETATM   20  C29 UNL     1      -5.088  49.591 -22.280  1.00  0.00     0.005 C 
HETATM   21  C30 UNL     1      -4.653  48.115 -22.102  1.00  0.00     0.019 C 
ENDROOT
BRANCH   1  22
HETATM   22  C11 UNL     1      -7.287  48.812 -23.482  1.00  0.00     0.185 C 
HETATM   23  O4  UNL     1      -7.489  49.281 -24.610  1.00  0.00    -0.292 OA
BRANCH  22  24
HETATM   24  C10 UNL     1      -7.715  47.397 -23.104  1.00  0.00     0.260 C 
BRANCH  24  25
HETATM   25  O3  UNL     1      -9.123  47.175 -23.130  1.00  0.00    -0.314 OA
BRANCH  25  26
HETATM   26  C9  UNL     1      -9.655  46.977 -24.367  1.00  0.00     0.259 C 
HETATM   27  O2  UNL     1     -10.636  47.564 -24.809  1.00  0.00    -0.265 OA
BRANCH  26  28
HETATM   28  C8  UNL     1      -8.840  45.966 -25.128  1.00  0.00     0.120 C 
BRANCH  28  29
HETATM   29  C7  UNL     1      -9.473  45.646 -26.474  1.00  0.00     0.112 C 
BRANCH  29  30
HETATM   30  C6  UNL     1      -8.540  46.013 -27.609  1.00  0.00     0.218 C 
HETATM   31  N1  UNL     1      -8.424  47.369 -27.807  1.00  0.00    -0.346 N 
HETATM   32  H11 UNL     1      -8.732  47.992 -27.068  1.00  0.00     0.163 HD
HETATM   33  O1  UNL     1      -7.949  45.181 -28.290  1.00  0.00    -0.274 OA
BRANCH  31  34
HETATM   34  C5  UNL     1      -7.448  47.935 -28.752  1.00  0.00     0.186 C 
BRANCH  34  35
HETATM   35  C3  UNL     1      -5.995  47.574 -28.343  1.00  0.00     0.014 C 
HETATM   36  C4  UNL     1      -4.979  48.433 -29.113  1.00  0.00     0.012 C 
BRANCH  35  37
HETATM   37  C2  UNL     1      -5.776  47.727 -26.817  1.00  0.00     0.002 C 
HETATM   38  C1  UNL     1      -4.436  48.344 -26.443  1.00  0.00     0.005 C 
ENDBRANCH  35  37
ENDBRANCH  34  35
BRANCH  34  39
HETATM   39  C31 UNL     1      -7.792  47.378 -30.146  1.00  0.00     0.163 C 
HETATM   40  O8  UNL     1      -7.019  46.889 -30.954  1.00  0.00    -0.648 OA
BRANCH  39  41
HETATM   41  O9  UNL     1      -9.121  47.395 -30.426  1.00  0.00    -0.775 OA
HETATM   42  H43 UNL     1      -9.168  46.987 -31.319  1.00  0.00     0.167 HD
ENDBRANCH  39  41
ENDBRANCH  34  39
ENDBRANCH  31  34
ENDBRANCH  29  30
ENDBRANCH  28  29
ENDBRANCH  26  28
ENDBRANCH  25  26
ENDBRANCH  24  25
ENDBRANCH  22  24
ENDBRANCH   1  22
BRANCH   1  43
HETATM   43  O5  UNL     1      -6.973  51.057 -22.798  1.00  0.00    -0.381 OA
HETATM   44  H18 UNL     1      -6.979  51.073 -23.780  1.00  0.00     0.211 HD
ENDBRANCH   1  43
TORSDOF 13
ENDMDL
MODEL 7
REMARK minimizedAffinity -8.29041576
REMARK CNNscore 0.344564885
REMARK CNNaffinity 6.11865759
REMARK  13 active torsions:
REMARK  status: ('A' for Active; 'I' for Inactive)
REMARK    1  A    between atoms: C2_2  and  C3_3 
REMARK    2  A    between atoms: C3_3  and  C5_5 
REMARK    3  A    between atoms: C5_5  and  N1_6 
REMARK    4  A    between atoms: C5_5  and  C31_39 
REMARK       I    between atoms: N1_6  and  C6_7 
REMARK    5  A    between atoms: C6_7  and  C7_9 
REMARK    6  A    between atoms: C7_9  and  C8_10 
REMARK    7  A    between atoms: C8_10  and  C9_11 
REMARK    8  A    between atoms: C9_11  and  O3_13 
REMARK    9  A    between atoms: O3_13  and  C10_14 
REMARK   10  A    between atoms: C10_14  and  C11_15 
REMARK   11  A    between atoms: C11_15  and  C12_17 
REMARK   12  A    between atoms: C12_17  and  O5_18 
REMARK   13  A    between atoms: C31_39  and  O9_41 
ROOT
HETATM    1  C12 UNL     1      -6.610  49.444 -22.212  1.00  0.00     0.128 C 
HETATM    2  C13 UNL     1      -7.112  49.374 -20.753  1.00  0.00     0.047 C 
HETATM    3  C14 UNL     1      -5.947  49.870 -19.869  1.00  0.00     0.009 C 
HETATM    4  C15 UNL     1      -4.871  50.317 -20.856  1.00  0.00     0.002 C 
HETATM    5  C16 UNL     1      -3.418  50.393 -20.369  1.00  0.00     0.003 C 
HETATM    6  C17 UNL     1      -3.286  51.324 -19.158  1.00  0.00     0.010 C 
HETATM    7  C18 UNL     1      -1.837  51.444 -18.705  1.00  0.00     0.035 C 
HETATM    8  C19 UNL     1      -0.933  51.888 -19.832  1.00  0.00    -0.067 C 
HETATM    9  C20 UNL     1      -0.125  52.949 -19.654  1.00  0.00     0.053 C 
HETATM   10  C21 UNL     1       0.847  53.364 -20.687  1.00  0.00     0.149 C 
HETATM   11  O6  UNL     1       1.471  54.412 -20.550  1.00  0.00    -0.293 OA
HETATM   12  C22 UNL     1       1.059  52.436 -21.854  1.00  0.00     0.084 C 
HETATM   13  C23 UNL     1      -0.275  51.844 -22.279  1.00  0.00     0.022 C 
HETATM   14  C24 UNL     1      -1.012  51.074 -21.137  1.00  0.00    -0.009 C 
HETATM   15  C25 UNL     1      -0.306  49.722 -20.892  1.00  0.00     0.021 C 
HETATM   16  C26 UNL     1      -2.521  50.904 -21.537  1.00  0.00     0.072 C 
HETATM   17  C27 UNL     1      -2.784  50.063 -22.802  1.00  0.00     0.133 C 
HETATM   18  O7  UNL     1      -1.891  49.560 -23.478  1.00  0.00    -0.297 OA
HETATM   19  C28 UNL     1      -4.241  49.920 -23.231  1.00  0.00     0.091 C 
HETATM   20  C29 UNL     1      -5.065  49.364 -22.065  1.00  0.00     0.005 C 
HETATM   21  C30 UNL     1      -4.605  47.913 -21.776  1.00  0.00     0.019 C 
ENDROOT
BRANCH   1  22
HETATM   22  C11 UNL     1      -7.245  48.458 -23.212  1.00  0.00     0.185 C 
HETATM   23  O4  UNL     1      -7.855  47.475 -22.773  1.00  0.00    -0.292 OA
BRANCH  22  24
HETATM   24  C10 UNL     1      -7.056  48.693 -24.709  1.00  0.00     0.260 C 
BRANCH  24  25
HETATM   25  O3  UNL     1      -6.019  47.917 -25.304  1.00  0.00    -0.314 OA
BRANCH  25  26
HETATM   26  C9  UNL     1      -6.125  47.742 -26.650  1.00  0.00     0.259 C 
HETATM   27  O2  UNL     1      -5.280  48.083 -27.469  1.00  0.00    -0.265 OA
BRANCH  26  28
HETATM   28  C8  UNL     1      -7.410  47.032 -26.981  1.00  0.00     0.120 C 
BRANCH  28  29
HETATM   29  C7  UNL     1      -7.752  47.168 -28.458  1.00  0.00     0.112 C 
BRANCH  29  30
HETATM   30  C6  UNL     1      -9.221  47.488 -28.644  1.00  0.00     0.218 C 
HETATM   31  N1  UNL     1     -10.052  46.724 -27.858  1.00  0.00    -0.346 N 
HETATM   32  H11 UNL     1      -9.648  46.228 -27.071  1.00  0.00     0.163 HD
HETATM   33  O1  UNL     1      -9.630  48.341 -29.425  1.00  0.00    -0.274 OA
BRANCH  31  34
HETATM   34  C5  UNL     1     -11.497  46.988 -27.772  1.00  0.00     0.186 C 
BRANCH  34  35
HETATM   35  C3  UNL     1     -12.307  45.666 -27.692  1.00  0.00     0.014 C 
HETATM   36  C4  UNL     1     -12.807  45.245 -29.083  1.00  0.00     0.012 C 
BRANCH  35  37
HETATM   37  C2  UNL     1     -11.474  44.524 -27.056  1.00  0.00     0.002 C 
HETATM   38  C1  UNL     1     -12.314  43.436 -26.403  1.00  0.00     0.005 C 
ENDBRANCH  35  37
ENDBRANCH  34  35
BRANCH  34  39
HETATM   39  C31 UNL     1     -11.725  47.859 -26.523  1.00  0.00     0.163 C 
HETATM   40  O8  UNL     1     -12.310  47.540 -25.500  1.00  0.00    -0.648 OA
BRANCH  39  41
HETATM   41  O9  UNL     1     -11.131  49.079 -26.594  1.00  0.00    -0.775 OA
HETATM   42  H43 UNL     1     -11.344  49.484 -25.725  1.00  0.00     0.167 HD
ENDBRANCH  39  41
ENDBRANCH  34  39
ENDBRANCH  31  34
ENDBRANCH  29  30
ENDBRANCH  28  29
ENDBRANCH  26  28
ENDBRANCH  25  26
ENDBRANCH  24  25
ENDBRANCH  22  24
ENDBRANCH   1  22
BRANCH   1  43
HETATM   43  O5  UNL     1      -6.973  50.752 -22.698  1.00  0.00    -0.381 OA
HETATM   44  H18 UNL     1      -6.975  50.695 -23.678  1.00  0.00     0.211 HD
ENDBRANCH   1  43
TORSDOF 13
ENDMDL
MODEL 8
REMARK minimizedAffinity -8.83816147
REMARK CNNscore 0.316793978
REMARK CNNaffinity 6.6535449
REMARK  13 active torsions:
REMARK  status: ('A' for Active; 'I' for Inactive)
REMARK    1  A    between atoms: C2_2  and  C3_3 
REMARK    2  A    between atoms: C3_3  and  C5_5 
REMARK    3  A    between atoms: C5_5  and  N1_6 
REMARK    4  A    between atoms: C5_5  and  C31_39 
REMARK       I    between atoms: N1_6  and  C6_7 
REMARK    5  A    between atoms: C6_7  and  C7_9 
REMARK    6  A    between atoms: C7_9  and  C8_10 
REMARK    7  A    between atoms: C8_10  and  C9_11 
REMARK    8  A    between atoms: C9_11  and  O3_13 
REMARK    9  A    between atoms: O3_13  and  C10_14 
REMARK   10  A    between atoms: C10_14  and  C11_15 
REMARK   11  A    between atoms: C11_15  and  C12_17 
REMARK   12  A    between atoms: C12_17  and  O5_18 
REMARK   13  A    between atoms: C31_39  and  O9_41 
ROOT
HETATM    1  C12 UNL     1      -2.262  48.537 -19.642  1.00  0.00     0.128 C 
HETATM    2  C13 UNL     1      -3.453  47.702 -20.162  1.00  0.00     0.047 C 
HETATM    3  C14 UNL     1      -3.590  48.032 -21.665  1.00  0.00     0.009 C 
HETATM    4  C15 UNL     1      -2.406  48.945 -21.973  1.00  0.00     0.002 C 
HETATM    5  C16 UNL     1      -2.489  49.859 -23.204  1.00  0.00     0.003 C 
HETATM    6  C17 UNL     1      -2.735  49.048 -24.482  1.00  0.00     0.010 C 
HETATM    7  C18 UNL     1      -2.763  49.945 -25.712  1.00  0.00     0.035 C 
HETATM    8  C19 UNL     1      -1.506  50.775 -25.830  1.00  0.00    -0.067 C 
HETATM    9  C20 UNL     1      -0.806  50.759 -26.978  1.00  0.00     0.053 C 
HETATM   10  C21 UNL     1       0.374  51.625 -27.179  1.00  0.00     0.149 C 
HETATM   11  O6  UNL     1       1.066  51.489 -28.183  1.00  0.00    -0.293 OA
HETATM   12  C22 UNL     1       0.642  52.685 -26.143  1.00  0.00     0.084 C 
HETATM   13  C23 UNL     1       0.354  52.123 -24.760  1.00  0.00     0.022 C 
HETATM   14  C24 UNL     1      -1.105  51.595 -24.588  1.00  0.00    -0.009 C 
HETATM   15  C25 UNL     1      -2.075  52.793 -24.481  1.00  0.00     0.021 C 
HETATM   16  C26 UNL     1      -1.158  50.660 -23.327  1.00  0.00     0.072 C 
HETATM   17  C27 UNL     1      -0.833  51.339 -21.982  1.00  0.00     0.133 C 
HETATM   18  O7  UNL     1      -0.537  52.527 -21.877  1.00  0.00    -0.297 OA
HETATM   19  C28 UNL     1      -0.838  50.440 -20.749  1.00  0.00     0.091 C 
HETATM   20  C29 UNL     1      -2.186  49.720 -20.648  1.00  0.00     0.005 C 
HETATM   21  C30 UNL     1      -3.292  50.768 -20.364  1.00  0.00     0.019 C 
ENDROOT
BRANCH   1  22
HETATM   22  C11 UNL     1      -2.285  48.921 -18.149  1.00  0.00     0.185 C 
HETATM   23  O4  UNL     1      -3.373  48.956 -17.560  1.00  0.00    -0.292 OA
BRANCH  22  24
HETATM   24  C10 UNL     1      -0.976  49.297 -17.459  1.00  0.00     0.260 C 
BRANCH  24  25
HETATM   25  O3  UNL     1      -1.095  50.332 -16.486  1.00  0.00    -0.314 OA
BRANCH  25  26
HETATM   26  C9  UNL     1       0.062  50.983 -16.186  1.00  0.00     0.259 C 
HETATM   27  O2  UNL     1       0.758  51.582 -16.997  1.00  0.00    -0.265 OA
BRANCH  26  28
HETATM   28  C8  UNL     1       0.340  50.896 -14.709  1.00  0.00     0.120 C 
BRANCH  28  29
HETATM   29  C7  UNL     1      -0.079  52.172 -13.992  1.00  0.00     0.112 C 
BRANCH  29  30
HETATM   30  C6  UNL     1      -0.849  51.852 -12.728  1.00  0.00     0.218 C 
HETATM   31  N1  UNL     1      -1.464  52.947 -12.168  1.00  0.00    -0.346 N 
HETATM   32  H11 UNL     1      -1.580  53.778 -12.738  1.00  0.00     0.163 HD
HETATM   33  O1  UNL     1      -0.914  50.725 -12.247  1.00  0.00    -0.274 OA
BRANCH  31  34
HETATM   34  C5  UNL     1      -2.389  52.820 -11.031  1.00  0.00     0.186 C 
BRANCH  34  35
HETATM   35  C3  UNL     1      -2.111  53.907  -9.956  1.00  0.00     0.014 C 
HETATM   36  C4  UNL     1      -1.755  53.264  -8.606  1.00  0.00     0.012 C 
BRANCH  35  37
HETATM   37  C2  UNL     1      -0.987  54.875 -10.401  1.00  0.00     0.002 C 
HETATM   38  C1  UNL     1       0.299  54.739  -9.598  1.00  0.00     0.005 C 
ENDBRANCH  35  37
ENDBRANCH  34  35
BRANCH  34  39
HETATM   39  C31 UNL     1      -3.817  52.941 -11.592  1.00  0.00     0.163 C 
HETATM   40  O8  UNL     1      -4.155  53.479 -12.635  1.00  0.00    -0.648 OA
BRANCH  39  41
HETATM   41  O9  UNL     1      -4.753  52.305 -10.841  1.00  0.00    -0.775 OA
HETATM   42  H43 UNL     1      -5.584  52.452 -11.345  1.00  0.00     0.167 HD
ENDBRANCH  39  41
ENDBRANCH  34  39
ENDBRANCH  31  34
ENDBRANCH  29  30
ENDBRANCH  28  29
ENDBRANCH  26  28
ENDBRANCH  25  26
ENDBRANCH  24  25
ENDBRANCH  22  24
ENDBRANCH   1  22
BRANCH   1  43
HETATM   43  O5  UNL     1      -1.093  47.708 -19.796  1.00  0.00    -0.381 OA
HETATM   44  H18 UNL     1      -0.415  48.066 -19.182  1.00  0.00     0.211 HD
ENDBRANCH   1  43
TORSDOF 13
ENDMDL
MODEL 9
REMARK minimizedAffinity -8.64936924
REMARK CNNscore 0.309357047
REMARK CNNaffinity 6.12769079
REMARK  13 active torsions:
REMARK  status: ('A' for Active; 'I' for Inactive)
REMARK    1  A    between atoms: C2_2  and  C3_3 
REMARK    2  A    between atoms: C3_3  and  C5_5 
REMARK    3  A    between atoms: C5_5  and  N1_6 
REMARK    4  A    between atoms: C5_5  and  C31_39 
REMARK       I    between atoms: N1_6  and  C6_7 
REMARK    5  A    between atoms: C6_7  and  C7_9 
REMARK    6  A    between atoms: C7_9  and  C8_10 
REMARK    7  A    between atoms: C8_10  and  C9_11 
REMARK    8  A    between atoms: C9_11  and  O3_13 
REMARK    9  A    between atoms: O3_13  and  C10_14 
REMARK   10  A    between atoms: C10_14  and  C11_15 
REMARK   11  A    between atoms: C11_15  and  C12_17 
REMARK   12  A    between atoms: C12_17  and  O5_18 
REMARK   13  A    between atoms: C31_39  and  O9_41 
ROOT
HETATM    1  C12 UNL     1      -6.609  49.780 -22.686  1.00  0.00     0.128 C 
HETATM    2  C13 UNL     1      -7.171  49.573 -21.262  1.00  0.00     0.047 C 
HETATM    3  C14 UNL     1      -6.028  49.935 -20.288  1.00  0.00     0.009 C 
HETATM    4  C15 UNL     1      -4.901  50.446 -21.181  1.00  0.00     0.002 C 
HETATM    5  C16 UNL     1      -3.467  50.422 -20.636  1.00  0.00     0.003 C 
HETATM    6  C17 UNL     1      -3.357  51.216 -19.328  1.00  0.00     0.010 C 
HETATM    7  C18 UNL     1      -1.924  51.239 -18.812  1.00  0.00     0.035 C 
HETATM    8  C19 UNL     1      -0.963  51.768 -19.850  1.00  0.00    -0.067 C 
HETATM    9  C20 UNL     1      -0.132  52.777 -19.531  1.00  0.00     0.053 C 
HETATM   10  C21 UNL     1       0.893  53.266 -20.478  1.00  0.00     0.149 C 
HETATM   11  O6  UNL     1       1.542  54.271 -20.207  1.00  0.00    -0.293 OA
HETATM   12  C22 UNL     1       1.125  52.459 -21.728  1.00  0.00     0.084 C 
HETATM   13  C23 UNL     1      -0.208  51.960 -22.262  1.00  0.00     0.022 C 
HETATM   14  C24 UNL     1      -1.013  51.099 -21.237  1.00  0.00    -0.009 C 
HETATM   15  C25 UNL     1      -0.357  49.705 -21.111  1.00  0.00     0.021 C 
HETATM   16  C26 UNL     1      -2.509  51.022 -21.708  1.00  0.00     0.072 C 
HETATM   17  C27 UNL     1      -2.745  50.328 -23.064  1.00  0.00     0.133 C 
HETATM   18  O7  UNL     1      -1.840  49.869 -23.756  1.00  0.00    -0.297 OA
HETATM   19  C28 UNL     1      -4.188  50.280 -23.560  1.00  0.00     0.091 C 
HETATM   20  C29 UNL     1      -5.073  49.633 -22.491  1.00  0.00     0.005 C 
HETATM   21  C30 UNL     1      -4.669  48.145 -22.341  1.00  0.00     0.019 C 
ENDROOT
BRANCH   1  22
HETATM   22  C11 UNL     1      -7.231  48.926 -23.808  1.00  0.00     0.185 C 
HETATM   23  O4  UNL     1      -8.422  49.100 -24.097  1.00  0.00    -0.292 OA
BRANCH  22  24
HETATM   24  C10 UNL     1      -6.378  47.860 -24.490  1.00  0.00     0.260 C 
BRANCH  24  25
HETATM   25  O3  UNL     1      -6.966  47.287 -25.656  1.00  0.00    -0.314 OA
BRANCH  25  26
HETATM   26  C9  UNL     1      -7.811  46.245 -25.427  1.00  0.00     0.259 C 
HETATM   27  O2  UNL     1      -7.831  45.572 -24.404  1.00  0.00    -0.265 OA
BRANCH  26  28
HETATM   28  C8  UNL     1      -8.745  46.069 -26.595  1.00  0.00     0.120 C 
BRANCH  28  29
HETATM   29  C7  UNL     1      -8.434  44.792 -27.363  1.00  0.00     0.112 C 
BRANCH  29  30
HETATM   30  C6  UNL     1      -7.598  45.091 -28.590  1.00  0.00     0.218 C 
HETATM   31  N1  UNL     1      -7.716  46.389 -29.031  1.00  0.00    -0.346 N 
HETATM   32  H11 UNL     1      -8.111  47.078 -28.399  1.00  0.00     0.163 HD
HETATM   33  O1  UNL     1      -6.888  44.256 -29.140  1.00  0.00    -0.274 OA
BRANCH  31  34
HETATM   34  C5  UNL     1      -6.868  46.922 -30.108  1.00  0.00     0.186 C 
BRANCH  34  35
HETATM   35  C3  UNL     1      -7.717  47.643 -31.189  1.00  0.00     0.014 C 
HETATM   36  C4  UNL     1      -7.887  46.757 -32.434  1.00  0.00     0.012 C 
BRANCH  35  37
HETATM   37  C2  UNL     1      -9.103  48.063 -30.639  1.00  0.00     0.002 C 
HETATM   38  C1  UNL     1     -10.276  47.394 -31.342  1.00  0.00     0.005 C 
ENDBRANCH  35  37
ENDBRANCH  34  35
BRANCH  34  39
HETATM   39  C31 UNL     1      -5.860  47.886 -29.454  1.00  0.00     0.163 C 
HETATM   40  O8  UNL     1      -4.784  48.243 -29.907  1.00  0.00    -0.648 OA
BRANCH  39  41
HETATM   41  O9  UNL     1      -6.296  48.418 -28.283  1.00  0.00    -0.775 OA
HETATM   42  H43 UNL     1      -5.563  49.018 -28.022  1.00  0.00     0.167 HD
ENDBRANCH  39  41
ENDBRANCH  34  39
ENDBRANCH  31  34
ENDBRANCH  29  30
ENDBRANCH  28  29
ENDBRANCH  26  28
ENDBRANCH  25  26
ENDBRANCH  24  25
ENDBRANCH  22  24
ENDBRANCH   1  22
BRANCH   1  43
HETATM   43  O5  UNL     1      -6.912  51.143 -23.043  1.00  0.00    -0.381 OA
HETATM   44  H18 UNL     1      -6.877  51.189 -24.023  1.00  0.00     0.211 HD
ENDBRANCH   1  43
TORSDOF 13
ENDMDL
