MODEL 1
REMARK minimizedAffinity -8.22111797
REMARK  12 active torsions:
REMARK  status: ('A' for Active; 'I' for Inactive)
REMARK    1  A    between atoms: C2_2  and  C3_3 
REMARK    2  A    between atoms: C3_3  and  O2_5 
REMARK    3  A    between atoms: C14_16  and  C15_17 
REMARK    4  A    between atoms: C15_17  and  C17_19 
REMARK    5  A    between atoms: C17_19  and  C18_20 
REMARK    6  A    between atoms: C18_20  and  C19_21 
REMARK    7  A    between atoms: C20_22  and  C22_24 
REMARK    8  A    between atoms: C22_24  and  O4_26 
REMARK    9  A    between atoms: C27_31  and  C28_32 
REMARK   10  A    between atoms: C28_32  and  C29_33 
REMARK   11  A    between atoms: C29_33  and  C30_34 
REMARK   12  A    between atoms: C30_34  and  O5_35 
ROOT
HETATM    1  C1  UNL     1      -5.608  48.206 -24.550  1.00  0.00     0.056 C 
HETATM    2  C2  UNL     1      -5.736  48.731 -23.150  1.00  0.00     0.014 C 
HETATM    3  C4  UNL     1      -5.022  48.292 -22.082  1.00  0.00    -0.062 C 
HETATM    4  C5  UNL     1      -4.021  47.174 -22.197  1.00  0.00     0.036 C 
HETATM    5  C6  UNL     1      -2.613  47.628 -21.824  1.00  0.00     0.010 C 
HETATM    6  C7  UNL     1      -2.514  48.624 -20.640  1.00  0.00     0.003 C 
HETATM    7  C8  UNL     1      -3.837  48.703 -19.767  1.00  0.00    -0.032 C 
HETATM    8  C9  UNL     1      -3.894  47.405 -18.908  1.00  0.00     0.016 C 
HETATM    9  C10 UNL     1      -3.792  49.882 -18.721  1.00  0.00     0.011 C 
HETATM   10  C11 UNL     1      -3.085  51.182 -19.146  1.00  0.00     0.011 C 
HETATM   11  C12 UNL     1      -1.698  50.900 -19.744  1.00  0.00    -0.032 C 
HETATM   12  C13 UNL     1      -0.812  50.223 -18.649  1.00  0.00     0.016 C 
HETATM   13  C14 UNL     1      -0.902  52.108 -20.335  1.00  0.00    -0.002 C 
HETATM   14  C23 UNL     1       0.061  51.401 -21.343  1.00  0.00     0.006 C 
HETATM   15  C24 UNL     1      -0.491  49.985 -21.604  1.00  0.00     0.011 C 
HETATM   16  C25 UNL     1      -1.921  50.018 -21.036  1.00  0.00    -0.032 C 
HETATM   17  C26 UNL     1      -2.785  50.706 -22.142  1.00  0.00     0.016 C 
HETATM   18  C27 UNL     1      -5.143  48.871 -20.666  1.00  0.00     0.024 C 
ENDROOT
BRANCH  13  19
HETATM   19  C15 UNL     1      -0.131  53.087 -19.393  1.00  0.00    -0.014 C 
HETATM   20  C16 UNL     1       1.062  53.745 -20.094  1.00  0.00     0.010 C 
BRANCH  19  21
HETATM   21  C17 UNL     1       0.351  52.327 -18.124  1.00  0.00     0.008 C 
BRANCH  21  22
HETATM   22  C18 UNL     1       1.733  52.723 -17.580  1.00  0.00     0.028 C 
BRANCH  22  23
HETATM   23  C19 UNL     1       1.979  52.223 -16.183  1.00  0.00    -0.013 C 
HETATM   24  C20 UNL     1       3.162  52.025 -15.567  1.00  0.00     0.008 C 
HETATM   25  C21 UNL     1       4.521  52.268 -16.152  1.00  0.00     0.055 C 
BRANCH  24  26
HETATM   26  C22 UNL     1       3.099  51.523 -14.169  1.00  0.00     0.171 C 
HETATM   27  O3  UNL     1       3.690  50.562 -13.710  1.00  0.00    -0.646 OA
BRANCH  26  28
HETATM   28  O4  UNL     1       2.282  52.260 -13.397  1.00  0.00    -0.773 OA
HETATM   29  H33 UNL     1       2.340  51.820 -12.524  1.00  0.00     0.167 HD
ENDBRANCH  26  28
ENDBRANCH  24  26
ENDBRANCH  22  23
ENDBRANCH  21  22
ENDBRANCH  19  21
ENDBRANCH  13  19
BRANCH  18  30
HETATM   30  C28 UNL     1      -6.486  48.487 -19.972  1.00  0.00     0.012 C 
BRANCH  30  31
HETATM   31  C29 UNL     1      -7.330  49.641 -19.410  1.00  0.00     0.027 C 
BRANCH  31  32
HETATM   32  C30 UNL     1      -8.328  49.157 -18.362  1.00  0.00     0.164 C 
BRANCH  32  33
HETATM   33  O5  UNL     1      -7.645  48.509 -17.298  1.00  0.00    -0.401 OA
HETATM   34  H48 UNL     1      -8.319  48.219 -16.662  1.00  0.00     0.209 HD
ENDBRANCH  32  33
ENDBRANCH  31  32
ENDBRANCH  30  31
ENDBRANCH  18  30
BRANCH   2  35
HETATM   35  C3  UNL     1      -6.731  49.820 -23.010  1.00  0.00     0.171 C 
HETATM   36  O1  UNL     1      -7.937  49.710 -22.904  1.00  0.00    -0.646 OA
BRANCH  35  37
HETATM   37  O2  UNL     1      -6.119  51.017 -23.005  1.00  0.00    -0.773 OA
HETATM   38  H4  UNL     1      -6.862  51.656 -22.966  1.00  0.00     0.167 HD
ENDBRANCH  35  37
ENDBRANCH   2  35
TORSDOF 12
ENDMDL
MODEL 2
REMARK minimizedAffinity -8.01918697
REMARK  12 active torsions:
REMARK  status: ('A' for Active; 'I' for Inactive)
REMARK    1  A    between atoms: C2_2  and  C3_3 
REMARK    2  A    between atoms: C3_3  and  O2_5 
REMARK    3  A    between atoms: C14_16  and  C15_17 
REMARK    4  A    between atoms: C15_17  and  C17_19 
REMARK    5  A    between atoms: C17_19  and  C18_20 
REMARK    6  A    between atoms: C18_20  and  C19_21 
REMARK    7  A    between atoms: C20_22  and  C22_24 
REMARK    8  A    between atoms: C22_24  and  O4_26 
REMARK    9  A    between atoms: C27_31  and  C28_32 
REMARK   10  A    between atoms: C28_32  and  C29_33 
REMARK   11  A    between atoms: C29_33  and  C30_34 
REMARK   12  A    between atoms: C30_34  and  O5_35 
ROOT
HETATM    1  C1  UNL     1      -6.280  46.328 -18.718  1.00  0.00     0.056 C 
HETATM    2  C2  UNL     1      -6.184  46.355 -20.216  1.00  0.00     0.014 C 
HETATM    3  C4  UNL     1      -6.640  47.355 -21.012  1.00  0.00    -0.062 C 
HETATM    4  C5  UNL     1      -7.340  48.564 -20.450  1.00  0.00     0.036 C 
HETATM    5  C6  UNL     1      -6.593  49.855 -20.767  1.00  0.00     0.010 C 
HETATM    6  C7  UNL     1      -5.941  49.933 -22.171  1.00  0.00     0.003 C 
HETATM    7  C8  UNL     1      -6.482  48.837 -23.183  1.00  0.00    -0.032 C 
HETATM    8  C9  UNL     1      -7.908  49.285 -23.619  1.00  0.00     0.016 C 
HETATM    9  C10 UNL     1      -5.643  48.789 -24.517  1.00  0.00     0.011 C 
HETATM   10  C11 UNL     1      -4.128  49.044 -24.413  1.00  0.00     0.011 C 
HETATM   11  C12 UNL     1      -3.823  50.307 -23.594  1.00  0.00    -0.032 C 
HETATM   12  C13 UNL     1      -4.453  51.537 -24.324  1.00  0.00     0.016 C 
HETATM   13  C14 UNL     1      -2.325  50.635 -23.295  1.00  0.00    -0.002 C 
HETATM   14  C23 UNL     1      -2.436  51.523 -22.013  1.00  0.00     0.006 C 
HETATM   15  C24 UNL     1      -3.841  51.309 -21.414  1.00  0.00     0.011 C 
HETATM   16  C25 UNL     1      -4.381  50.060 -22.136  1.00  0.00    -0.032 C 
HETATM   17  C26 UNL     1      -3.731  48.846 -21.396  1.00  0.00     0.016 C 
HETATM   18  C27 UNL     1      -6.495  47.378 -22.539  1.00  0.00     0.024 C 
ENDROOT
BRANCH  13  19
HETATM   19  C15 UNL     1      -1.426  51.304 -24.382  1.00  0.00    -0.014 C 
HETATM   20  C16 UNL     1      -1.093  52.761 -24.043  1.00  0.00     0.010 C 
BRANCH  19  21
HETATM   21  C17 UNL     1      -2.131  51.228 -25.768  1.00  0.00     0.008 C 
BRANCH  21  22
HETATM   22  C18 UNL     1      -1.329  50.572 -26.902  1.00  0.00     0.028 C 
BRANCH  22  23
HETATM   23  C19 UNL     1       0.158  50.667 -26.700  1.00  0.00    -0.013 C 
HETATM   24  C20 UNL     1       1.010  51.580 -27.211  1.00  0.00     0.008 C 
HETATM   25  C21 UNL     1       0.653  52.725 -28.109  1.00  0.00     0.055 C 
BRANCH  24  26
HETATM   26  C22 UNL     1       2.440  51.427 -26.833  1.00  0.00     0.171 C 
HETATM   27  O3  UNL     1       2.891  50.724 -25.947  1.00  0.00    -0.646 OA
BRANCH  26  28
HETATM   28  O4  UNL     1       3.253  52.179 -27.594  1.00  0.00    -0.773 OA
HETATM   29  H33 UNL     1       4.144  51.980 -27.238  1.00  0.00     0.167 HD
ENDBRANCH  26  28
ENDBRANCH  24  26
ENDBRANCH  22  23
ENDBRANCH  21  22
ENDBRANCH  19  21
ENDBRANCH  13  19
BRANCH  18  30
HETATM   30  C28 UNL     1      -7.425  46.344 -23.246  1.00  0.00     0.012 C 
BRANCH  30  31
HETATM   31  C29 UNL     1      -7.901  46.697 -24.664  1.00  0.00     0.027 C 
BRANCH  31  32
HETATM   32  C30 UNL     1      -8.136  45.449 -25.511  1.00  0.00     0.164 C 
BRANCH  32  33
HETATM   33  O5  UNL     1      -7.855  45.724 -26.876  1.00  0.00    -0.401 OA
HETATM   34  H48 UNL     1      -8.021  44.904 -27.371  1.00  0.00     0.209 HD
ENDBRANCH  32  33
ENDBRANCH  31  32
ENDBRANCH  30  31
ENDBRANCH  18  30
BRANCH   2  35
HETATM   35  C3  UNL     1      -5.515  45.164 -20.792  1.00  0.00     0.171 C 
HETATM   36  O1  UNL     1      -6.030  44.114 -21.121  1.00  0.00    -0.646 OA
BRANCH  35  37
HETATM   37  O2  UNL     1      -4.196  45.386 -20.926  1.00  0.00    -0.773 OA
HETATM   38  H4  UNL     1      -3.849  44.531 -21.256  1.00  0.00     0.167 HD
ENDBRANCH  35  37
ENDBRANCH   2  35
TORSDOF 12
ENDMDL
MODEL 3
REMARK minimizedAffinity -7.99954128
REMARK  12 active torsions:
REMARK  status: ('A' for Active; 'I' for Inactive)
REMARK    1  A    between atoms: C2_2  and  C3_3 
REMARK    2  A    between atoms: C3_3  and  O2_5 
REMARK    3  A    between atoms: C14_16  and  C15_17 
REMARK    4  A    between atoms: C15_17  and  C17_19 
REMARK    5  A    between atoms: C17_19  and  C18_20 
REMARK    6  A    between atoms: C18_20  and  C19_21 
REMARK    7  A    between atoms: C20_22  and  C22_24 
REMARK    8  A    between atoms: C22_24  and  O4_26 
REMARK    9  A    between atoms: C27_31  and  C28_32 
REMARK   10  A    between atoms: C28_32  and  C29_33 
REMARK   11  A    between atoms: C29_33  and  C30_34 
REMARK   12  A    between atoms: C30_34  and  O5_35 
ROOT
HETATM    1  C1  UNL     1      -7.219  49.380 -23.509  1.00  0.00     0.056 C 
HETATM    2  C2  UNL     1      -6.402  49.086 -22.285  1.00  0.00     0.014 C 
HETATM    3  C4  UNL     1      -5.157  48.545 -22.286  1.00  0.00    -0.062 C 
HETATM    4  C5  UNL     1      -4.464  48.143 -23.561  1.00  0.00     0.036 C 
HETATM    5  C6  UNL     1      -3.164  48.911 -23.771  1.00  0.00     0.010 C 
HETATM    6  C7  UNL     1      -2.324  49.181 -22.496  1.00  0.00     0.003 C 
HETATM    7  C8  UNL     1      -2.748  48.287 -21.256  1.00  0.00    -0.032 C 
HETATM    8  C9  UNL     1      -2.211  46.850 -21.527  1.00  0.00     0.016 C 
HETATM    9  C10 UNL     1      -2.042  48.741 -19.922  1.00  0.00     0.011 C 
HETATM   10  C11 UNL     1      -1.803  50.249 -19.723  1.00  0.00     0.011 C 
HETATM   11  C12 UNL     1      -1.147  50.885 -20.959  1.00  0.00    -0.032 C 
HETATM   12  C13 UNL     1       0.248  50.217 -21.179  1.00  0.00     0.016 C 
HETATM   13  C14 UNL     1      -0.950  52.434 -20.960  1.00  0.00    -0.002 C 
HETATM   14  C23 UNL     1      -0.878  52.752 -22.489  1.00  0.00     0.006 C 
HETATM   15  C24 UNL     1      -1.448  51.536 -23.248  1.00  0.00     0.011 C 
HETATM   16  C25 UNL     1      -2.154  50.702 -22.163  1.00  0.00    -0.032 C 
HETATM   17  C26 UNL     1      -3.540  51.393 -21.952  1.00  0.00     0.016 C 
HETATM   18  C27 UNL     1      -4.325  48.291 -21.023  1.00  0.00     0.024 C 
ENDROOT
BRANCH  13  19
HETATM   19  C15 UNL     1       0.238  53.085 -20.181  1.00  0.00    -0.014 C 
HETATM   20  C16 UNL     1       1.553  53.015 -20.965  1.00  0.00     0.010 C 
BRANCH  19  21
HETATM   21  C17 UNL     1       0.405  52.389 -18.800  1.00  0.00     0.008 C 
BRANCH  21  22
HETATM   22  C18 UNL     1       1.649  52.782 -17.988  1.00  0.00     0.028 C 
BRANCH  22  23
HETATM   23  C19 UNL     1       1.690  52.140 -16.629  1.00  0.00    -0.013 C 
HETATM   24  C20 UNL     1       2.730  52.071 -15.773  1.00  0.00     0.008 C 
HETATM   25  C21 UNL     1       4.101  52.634 -15.992  1.00  0.00     0.055 C 
BRANCH  24  26
HETATM   26  C22 UNL     1       2.476  51.371 -14.486  1.00  0.00     0.171 C 
HETATM   27  O3  UNL     1       2.941  51.654 -13.396  1.00  0.00    -0.646 OA
BRANCH  26  28
HETATM   28  O4  UNL     1       1.639  50.329 -14.626  1.00  0.00    -0.773 OA
HETATM   29  H33 UNL     1       1.567  49.974 -13.716  1.00  0.00     0.167 HD
ENDBRANCH  26  28
ENDBRANCH  24  26
ENDBRANCH  22  23
ENDBRANCH  21  22
ENDBRANCH  19  21
ENDBRANCH  13  19
BRANCH  18  30
HETATM   30  C28 UNL     1      -4.877  47.108 -20.168  1.00  0.00     0.012 C 
BRANCH  30  31
HETATM   31  C29 UNL     1      -4.690  45.694 -20.740  1.00  0.00     0.027 C 
BRANCH  31  32
HETATM   32  C30 UNL     1      -5.920  45.227 -21.513  1.00  0.00     0.164 C 
BRANCH  32  33
HETATM   33  O5  UNL     1      -5.830  43.835 -21.782  1.00  0.00    -0.401 OA
HETATM   34  H48 UNL     1      -6.630  43.588 -22.275  1.00  0.00     0.209 HD
ENDBRANCH  32  33
ENDBRANCH  31  32
ENDBRANCH  30  31
ENDBRANCH  18  30
BRANCH   2  35
HETATM   35  C3  UNL     1      -7.073  49.458 -21.017  1.00  0.00     0.171 C 
HETATM   36  O1  UNL     1      -7.900  48.813 -20.402  1.00  0.00    -0.646 OA
BRANCH  35  37
HETATM   37  O2  UNL     1      -6.638  50.655 -20.588  1.00  0.00    -0.773 OA
HETATM   38  H4  UNL     1      -7.179  50.825 -19.789  1.00  0.00     0.167 HD
ENDBRANCH  35  37
ENDBRANCH   2  35
TORSDOF 12
ENDMDL
MODEL 4
REMARK minimizedAffinity -7.98924875
REMARK  12 active torsions:
REMARK  status: ('A' for Active; 'I' for Inactive)
REMARK    1  A    between atoms: C2_2  and  C3_3 
REMARK    2  A    between atoms: C3_3  and  O2_5 
REMARK    3  A    between atoms: C14_16  and  C15_17 
REMARK    4  A    between atoms: C15_17  and  C17_19 
REMARK    5  A    between atoms: C17_19  and  C18_20 
REMARK    6  A    between atoms: C18_20  and  C19_21 
REMARK    7  A    between atoms: C20_22  and  C22_24 
REMARK    8  A    between atoms: C22_24  and  O4_26 
REMARK    9  A    between atoms: C27_31  and  C28_32 
REMARK   10  A    between atoms: C28_32  and  C29_33 
REMARK   11  A    between atoms: C29_33  and  C30_34 
REMARK   12  A    between atoms: C30_34  and  O5_35 
ROOT
HETATM    1  C1  UNL     1      -6.839  46.143 -19.250  1.00  0.00     0.056 C 
HETATM    2  C2  UNL     1      -6.270  46.481 -20.597  1.00  0.00     0.014 C 
HETATM    3  C4  UNL     1      -6.377  47.687 -21.212  1.00  0.00    -0.062 C 
HETATM    4  C5  UNL     1      -7.133  48.832 -20.593  1.00  0.00     0.036 C 
HETATM    5  C6  UNL     1      -6.234  50.039 -20.342  1.00  0.00     0.010 C 
HETATM    6  C7  UNL     1      -5.165  50.325 -21.428  1.00  0.00     0.003 C 
HETATM    7  C8  UNL     1      -5.432  49.566 -22.796  1.00  0.00    -0.032 C 
HETATM    8  C9  UNL     1      -6.611  50.301 -23.501  1.00  0.00     0.016 C 
HETATM    9  C10 UNL     1      -4.218  49.689 -23.794  1.00  0.00     0.011 C 
HETATM   10  C11 UNL     1      -2.801  49.691 -23.192  1.00  0.00     0.011 C 
HETATM   11  C12 UNL     1      -2.684  50.688 -22.029  1.00  0.00    -0.032 C 
HETATM   12  C13 UNL     1      -2.960  52.125 -22.576  1.00  0.00     0.016 C 
HETATM   13  C14 UNL     1      -1.340  50.722 -21.233  1.00  0.00    -0.002 C 
HETATM   14  C23 UNL     1      -1.789  51.316 -19.859  1.00  0.00     0.006 C 
HETATM   15  C24 UNL     1      -3.323  51.183 -19.770  1.00  0.00     0.011 C 
HETATM   16  C25 UNL     1      -3.692  50.214 -20.908  1.00  0.00    -0.032 C 
HETATM   17  C26 UNL     1      -3.399  48.786 -20.343  1.00  0.00     0.016 C 
HETATM   18  C27 UNL     1      -5.753  48.020 -22.573  1.00  0.00     0.024 C 
ENDROOT
BRANCH  13  19
HETATM   19  C15 UNL     1      -0.096  51.474 -21.806  1.00  0.00    -0.014 C 
HETATM   20  C16 UNL     1       0.232  52.741 -21.010  1.00  0.00     0.010 C 
BRANCH  19  21
HETATM   21  C17 UNL     1      -0.341  51.833 -23.300  1.00  0.00     0.008 C 
BRANCH  21  22
HETATM   22  C18 UNL     1       0.590  52.897 -23.903  1.00  0.00     0.028 C 
BRANCH  22  23
HETATM   23  C19 UNL     1       0.127  53.387 -25.247  1.00  0.00    -0.013 C 
HETATM   24  C20 UNL     1       0.443  52.899 -26.464  1.00  0.00     0.008 C 
HETATM   25  C21 UNL     1       1.344  51.736 -26.750  1.00  0.00     0.055 C 
BRANCH  24  26
HETATM   26  C22 UNL     1      -0.173  53.589 -27.629  1.00  0.00     0.171 C 
HETATM   27  O3  UNL     1      -0.686  54.693 -27.637  1.00  0.00    -0.646 OA
BRANCH  26  28
HETATM   28  O4  UNL     1      -0.120  52.848 -28.749  1.00  0.00    -0.773 OA
HETATM   29  H33 UNL     1      -0.554  53.418 -29.417  1.00  0.00     0.167 HD
ENDBRANCH  26  28
ENDBRANCH  24  26
ENDBRANCH  22  23
ENDBRANCH  21  22
ENDBRANCH  19  21
ENDBRANCH  13  19
BRANCH  18  30
HETATM   30  C28 UNL     1      -6.480  47.311 -23.758  1.00  0.00     0.012 C 
BRANCH  30  31
HETATM   31  C29 UNL     1      -7.965  46.973 -23.555  1.00  0.00     0.027 C 
BRANCH  31  32
HETATM   32  C30 UNL     1      -8.868  47.828 -24.441  1.00  0.00     0.164 C 
BRANCH  32  33
HETATM   33  O5  UNL     1     -10.216  47.397 -24.326  1.00  0.00    -0.401 OA
HETATM   34  H48 UNL     1     -10.747  47.967 -24.906  1.00  0.00     0.209 HD
ENDBRANCH  32  33
ENDBRANCH  31  32
ENDBRANCH  30  31
ENDBRANCH  18  30
BRANCH   2  35
HETATM   35  C3  UNL     1      -5.538  45.360 -21.234  1.00  0.00     0.171 C 
HETATM   36  O1  UNL     1      -6.005  44.450 -21.890  1.00  0.00    -0.646 OA
BRANCH  35  37
HETATM   37  O2  UNL     1      -4.219  45.468 -20.998  1.00  0.00    -0.773 OA
HETATM   38  H4  UNL     1      -3.844  44.660 -21.408  1.00  0.00     0.167 HD
ENDBRANCH  35  37
ENDBRANCH   2  35
TORSDOF 12
ENDMDL
MODEL 5
REMARK minimizedAffinity -7.94037771
REMARK  12 active torsions:
REMARK  status: ('A' for Active; 'I' for Inactive)
REMARK    1  A    between atoms: C2_2  and  C3_3 
REMARK    2  A    between atoms: C3_3  and  O2_5 
REMARK    3  A    between atoms: C14_16  and  C15_17 
REMARK    4  A    between atoms: C15_17  and  C17_19 
REMARK    5  A    between atoms: C17_19  and  C18_20 
REMARK    6  A    between atoms: C18_20  and  C19_21 
REMARK    7  A    between atoms: C20_22  and  C22_24 
REMARK    8  A    between atoms: C22_24  and  O4_26 
REMARK    9  A    between atoms: C27_31  and  C28_32 
REMARK   10  A    between atoms: C28_32  and  C29_33 
REMARK   11  A    between atoms: C29_33  and  C30_34 
REMARK   12  A    between atoms: C30_34  and  O5_35 
ROOT
HETATM    1  C1  UNL     1      -7.375  49.722 -22.484  1.00  0.00     0.056 C 
HETATM    2  C2  UNL     1      -6.027  49.080 -22.638  1.00  0.00     0.014 C 
HETATM    3  C4  UNL     1      -4.859  49.747 -22.817  1.00  0.00    -0.062 C 
HETATM    4  C5  UNL     1      -4.805  51.248 -22.915  1.00  0.00     0.036 C 
HETATM    5  C6  UNL     1      -3.955  51.862 -21.807  1.00  0.00     0.010 C 
HETATM    6  C7  UNL     1      -2.677  51.074 -21.418  1.00  0.00     0.003 C 
HETATM    7  C8  UNL     1      -2.257  49.980 -22.489  1.00  0.00    -0.032 C 
HETATM    8  C9  UNL     1      -1.640  50.743 -23.699  1.00  0.00     0.016 C 
HETATM    9  C10 UNL     1      -1.102  49.044 -21.964  1.00  0.00     0.011 C 
HETATM   10  C11 UNL     1      -1.108  48.679 -20.468  1.00  0.00     0.011 C 
HETATM   11  C12 UNL     1      -1.277  49.924 -19.584  1.00  0.00    -0.032 C 
HETATM   12  C13 UNL     1      -0.061  50.875 -19.826  1.00  0.00     0.016 C 
HETATM   13  C14 UNL     1      -1.424  49.707 -18.044  1.00  0.00    -0.002 C 
HETATM   14  C23 UNL     1      -2.167  51.009 -17.601  1.00  0.00     0.006 C 
HETATM   15  C24 UNL     1      -2.773  51.655 -18.863  1.00  0.00     0.011 C 
HETATM   16  C25 UNL     1      -2.680  50.558 -19.940  1.00  0.00    -0.032 C 
HETATM   17  C26 UNL     1      -3.898  49.616 -19.672  1.00  0.00     0.016 C 
HETATM   18  C27 UNL     1      -3.487  49.069 -22.933  1.00  0.00     0.024 C 
ENDROOT
BRANCH  13  19
HETATM   19  C15 UNL     1      -0.167  49.432 -17.157  1.00  0.00    -0.014 C 
HETATM   20  C16 UNL     1      -0.508  48.612 -15.908  1.00  0.00     0.010 C 
BRANCH  19  21
HETATM   21  C17 UNL     1       0.491  50.780 -16.745  1.00  0.00     0.008 C 
BRANCH  21  22
HETATM   22  C18 UNL     1       0.478  51.111 -15.244  1.00  0.00     0.028 C 
BRANCH  22  23
HETATM   23  C19 UNL     1       1.669  50.560 -14.511  1.00  0.00    -0.013 C 
HETATM   24  C20 UNL     1       2.943  51.000 -14.546  1.00  0.00     0.008 C 
HETATM   25  C21 UNL     1       3.462  52.162 -15.339  1.00  0.00     0.055 C 
BRANCH  24  26
HETATM   26  C22 UNL     1       3.919  50.255 -13.707  1.00  0.00     0.171 C 
HETATM   27  O3  UNL     1       4.854  49.580 -14.098  1.00  0.00    -0.646 OA
BRANCH  26  28
HETATM   28  O4  UNL     1       3.672  50.392 -12.393  1.00  0.00    -0.773 OA
HETATM   29  H33 UNL     1       4.379  49.858 -11.974  1.00  0.00     0.167 HD
ENDBRANCH  26  28
ENDBRANCH  24  26
ENDBRANCH  22  23
ENDBRANCH  21  22
ENDBRANCH  19  21
ENDBRANCH  13  19
BRANCH  18  30
HETATM   30  C28 UNL     1      -3.303  48.311 -24.284  1.00  0.00     0.012 C 
BRANCH  30  31
HETATM   31  C29 UNL     1      -3.973  48.930 -25.522  1.00  0.00     0.027 C 
BRANCH  31  32
HETATM   32  C30 UNL     1      -3.321  48.454 -26.817  1.00  0.00     0.164 C 
BRANCH  32  33
HETATM   33  O5  UNL     1      -3.290  49.510 -27.766  1.00  0.00    -0.401 OA
HETATM   34  H48 UNL     1      -2.871  49.159 -28.569  1.00  0.00     0.209 HD
ENDBRANCH  32  33
ENDBRANCH  31  32
ENDBRANCH  30  31
ENDBRANCH  18  30
BRANCH   2  35
HETATM   35  C3  UNL     1      -6.060  47.600 -22.564  1.00  0.00     0.171 C 
HETATM   36  O1  UNL     1      -5.504  46.888 -21.751  1.00  0.00    -0.646 OA
BRANCH  35  37
HETATM   37  O2  UNL     1      -6.824  47.097 -23.549  1.00  0.00    -0.773 OA
HETATM   38  H4  UNL     1      -6.731  46.128 -23.442  1.00  0.00     0.167 HD
ENDBRANCH  35  37
ENDBRANCH   2  35
TORSDOF 12
ENDMDL
MODEL 6
REMARK minimizedAffinity -7.89821053
REMARK  12 active torsions:
REMARK  status: ('A' for Active; 'I' for Inactive)
REMARK    1  A    between atoms: C2_2  and  C3_3 
REMARK    2  A    between atoms: C3_3  and  O2_5 
REMARK    3  A    between atoms: C14_16  and  C15_17 
REMARK    4  A    between atoms: C15_17  and  C17_19 
REMARK    5  A    between atoms: C17_19  and  C18_20 
REMARK    6  A    between atoms: C18_20  and  C19_21 
REMARK    7  A    between atoms: C20_22  and  C22_24 
REMARK    8  A    between atoms: C22_24  and  O4_26 
REMARK    9  A    between atoms: C27_31  and  C28_32 
REMARK   10  A    between atoms: C28_32  and  C29_33 
REMARK   11  A    between atoms: C29_33  and  C30_34 
REMARK   12  A    between atoms: C30_34  and  O5_35 
ROOT
HETATM    1  C1  UNL     1      -0.358  49.527 -18.005  1.00  0.00     0.056 C 
HETATM    2  C2  UNL     1      -0.997  50.416 -19.032  1.00  0.00     0.014 C 
HETATM    3  C4  UNL     1      -1.070  50.149 -20.361  1.00  0.00    -0.062 C 
HETATM    4  C5  UNL     1      -0.467  48.906 -20.959  1.00  0.00     0.036 C 
HETATM    5  C6  UNL     1      -1.518  48.027 -21.630  1.00  0.00     0.010 C 
HETATM    6  C7  UNL     1      -2.639  48.777 -22.395  1.00  0.00     0.003 C 
HETATM    7  C8  UNL     1      -2.299  50.300 -22.685  1.00  0.00    -0.032 C 
HETATM    8  C9  UNL     1      -1.248  50.320 -23.836  1.00  0.00     0.016 C 
HETATM    9  C10 UNL     1      -3.539  51.092 -23.251  1.00  0.00     0.011 C 
HETATM   10  C11 UNL     1      -4.930  50.715 -22.709  1.00  0.00     0.011 C 
HETATM   11  C12 UNL     1      -5.158  49.196 -22.747  1.00  0.00    -0.032 C 
HETATM   12  C13 UNL     1      -5.095  48.722 -24.235  1.00  0.00     0.016 C 
HETATM   13  C14 UNL     1      -6.477  48.644 -22.118  1.00  0.00    -0.002 C 
HETATM   14  C23 UNL     1      -6.085  47.168 -21.783  1.00  0.00     0.006 C 
HETATM   15  C24 UNL     1      -4.545  47.075 -21.810  1.00  0.00     0.011 C 
HETATM   16  C25 UNL     1      -4.071  48.540 -21.808  1.00  0.00    -0.032 C 
HETATM   17  C26 UNL     1      -4.153  48.994 -20.315  1.00  0.00     0.016 C 
HETATM   18  C27 UNL     1      -1.763  51.055 -21.387  1.00  0.00     0.024 C 
ENDROOT
BRANCH  13  19
HETATM   19  C15 UNL     1      -7.824  48.715 -22.905  1.00  0.00    -0.014 C 
HETATM   20  C16 UNL     1      -8.809  47.625 -22.471  1.00  0.00     0.010 C 
BRANCH  19  21
HETATM   21  C17 UNL     1      -7.548  48.604 -24.433  1.00  0.00     0.008 C 
BRANCH  21  22
HETATM   22  C18 UNL     1      -8.200  47.414 -25.155  1.00  0.00     0.028 C 
BRANCH  22  23
HETATM   23  C19 UNL     1      -8.719  47.770 -26.521  1.00  0.00    -0.013 C 
HETATM   24  C20 UNL     1      -8.031  47.841 -27.679  1.00  0.00     0.008 C 
HETATM   25  C21 UNL     1      -6.568  47.573 -27.863  1.00  0.00     0.055 C 
BRANCH  24  26
HETATM   26  C22 UNL     1      -8.814  48.218 -28.886  1.00  0.00     0.171 C 
HETATM   27  O3  UNL     1      -9.585  47.508 -29.508  1.00  0.00    -0.646 OA
BRANCH  26  28
HETATM   28  O4  UNL     1      -8.590  49.487 -29.266  1.00  0.00    -0.773 OA
HETATM   29  H33 UNL     1      -9.161  49.590 -30.055  1.00  0.00     0.167 HD
ENDBRANCH  26  28
ENDBRANCH  24  26
ENDBRANCH  22  23
ENDBRANCH  21  22
ENDBRANCH  19  21
ENDBRANCH  13  19
BRANCH  18  30
HETATM   30  C28 UNL     1      -0.971  52.371 -21.659  1.00  0.00     0.012 C 
BRANCH  30  31
HETATM   31  C29 UNL     1       0.553  52.314 -21.466  1.00  0.00     0.027 C 
BRANCH  31  32
HETATM   32  C30 UNL     1       1.164  53.709 -21.360  1.00  0.00     0.164 C 
BRANCH  32  33
HETATM   33  O5  UNL     1       1.362  54.054 -19.997  1.00  0.00    -0.401 OA
HETATM   34  H48 UNL     1       1.749  54.945 -19.983  1.00  0.00     0.209 HD
ENDBRANCH  32  33
ENDBRANCH  31  32
ENDBRANCH  30  31
ENDBRANCH  18  30
BRANCH   2  35
HETATM   35  C3  UNL     1      -1.581  51.656 -18.468  1.00  0.00     0.171 C 
HETATM   36  O1  UNL     1      -2.739  51.849 -18.150  1.00  0.00    -0.646 OA
BRANCH  35  37
HETATM   37  O2  UNL     1      -0.635  52.600 -18.329  1.00  0.00    -0.773 OA
HETATM   38  H4  UNL     1      -1.132  53.381 -18.008  1.00  0.00     0.167 HD
ENDBRANCH  35  37
ENDBRANCH   2  35
TORSDOF 12
ENDMDL
MODEL 7
REMARK minimizedAffinity -7.87203741
REMARK  12 active torsions:
REMARK  status: ('A' for Active; 'I' for Inactive)
REMARK    1  A    between atoms: C2_2  and  C3_3 
REMARK    2  A    between atoms: C3_3  and  O2_5 
REMARK    3  A    between atoms: C14_16  and  C15_17 
REMARK    4  A    between atoms: C15_17  and  C17_19 
REMARK    5  A    between atoms: C17_19  and  C18_20 
REMARK    6  A    between atoms: C18_20  and  C19_21 
REMARK    7  A    between atoms: C20_22  and  C22_24 
REMARK    8  A    between atoms: C22_24  and  O4_26 
REMARK    9  A    between atoms: C27_31  and  C28_32 
REMARK   10  A    between atoms: C28_32  and  C29_33 
REMARK   11  A    between atoms: C29_33  and  C30_34 
REMARK   12  A    between atoms: C30_34  and  O5_35 
ROOT
HETATM    1  C1  UNL     1      -8.886  49.513 -18.400  1.00  0.00     0.056 C 
HETATM    2  C2  UNL     1      -7.760  48.590 -18.763  1.00  0.00     0.014 C 
HETATM    3  C4  UNL     1      -7.392  48.265 -20.029  1.00  0.00    -0.062 C 
HETATM    4  C5  UNL     1      -8.124  48.794 -21.233  1.00  0.00     0.036 C 
HETATM    5  C6  UNL     1      -7.216  49.626 -22.133  1.00  0.00     0.010 C 
HETATM    6  C7  UNL     1      -5.761  49.113 -22.287  1.00  0.00     0.003 C 
HETATM    7  C8  UNL     1      -5.564  47.612 -21.809  1.00  0.00    -0.032 C 
HETATM    8  C9  UNL     1      -6.196  46.700 -22.902  1.00  0.00     0.016 C 
HETATM    9  C10 UNL     1      -4.045  47.196 -21.758  1.00  0.00     0.011 C 
HETATM   10  C11 UNL     1      -3.028  48.269 -21.327  1.00  0.00     0.011 C 
HETATM   11  C12 UNL     1      -3.233  49.582 -22.098  1.00  0.00    -0.032 C 
HETATM   12  C13 UNL     1      -3.002  49.306 -23.619  1.00  0.00     0.016 C 
HETATM   13  C14 UNL     1      -2.356  50.809 -21.689  1.00  0.00    -0.002 C 
HETATM   14  C23 UNL     1      -3.224  52.010 -22.187  1.00  0.00     0.006 C 
HETATM   15  C24 UNL     1      -4.654  51.486 -22.429  1.00  0.00     0.011 C 
HETATM   16  C25 UNL     1      -4.680  50.107 -21.744  1.00  0.00    -0.032 C 
HETATM   17  C26 UNL     1      -4.901  50.408 -20.226  1.00  0.00     0.016 C 
HETATM   18  C27 UNL     1      -6.211  47.348 -20.376  1.00  0.00     0.024 C 
ENDROOT
BRANCH  13  19
HETATM   19  C15 UNL     1      -0.877  50.927 -22.178  1.00  0.00    -0.014 C 
HETATM   20  C16 UNL     1       0.125  50.820 -21.025  1.00  0.00     0.010 C 
BRANCH  19  21
HETATM   21  C17 UNL     1      -0.678  52.274 -22.932  1.00  0.00     0.008 C 
BRANCH  21  22
HETATM   22  C18 UNL     1       0.505  52.336 -23.910  1.00  0.00     0.028 C 
BRANCH  22  23
HETATM   23  C19 UNL     1       0.205  53.142 -25.143  1.00  0.00    -0.013 C 
HETATM   24  C20 UNL     1       0.235  52.737 -26.429  1.00  0.00     0.008 C 
HETATM   25  C21 UNL     1       0.579  51.364 -26.921  1.00  0.00     0.055 C 
BRANCH  24  26
HETATM   26  C22 UNL     1      -0.116  53.761 -27.449  1.00  0.00     0.171 C 
HETATM   27  O3  UNL     1      -0.257  54.957 -27.266  1.00  0.00    -0.646 OA
BRANCH  26  28
HETATM   28  O4  UNL     1      -0.281  53.229 -28.672  1.00  0.00    -0.773 OA
HETATM   29  H33 UNL     1      -0.504  54.005 -29.227  1.00  0.00     0.167 HD
ENDBRANCH  26  28
ENDBRANCH  24  26
ENDBRANCH  22  23
ENDBRANCH  21  22
ENDBRANCH  19  21
ENDBRANCH  13  19
BRANCH  18  30
HETATM   30  C28 UNL     1      -6.493  45.851 -20.036  1.00  0.00     0.012 C 
BRANCH  30  31
HETATM   31  C29 UNL     1      -5.644  45.224 -18.919  1.00  0.00     0.027 C 
BRANCH  31  32
HETATM   32  C30 UNL     1      -4.950  43.946 -19.384  1.00  0.00     0.164 C 
BRANCH  32  33
HETATM   33  O5  UNL     1      -4.096  44.225 -20.484  1.00  0.00    -0.401 OA
HETATM   34  H48 UNL     1      -3.682  43.385 -20.743  1.00  0.00     0.209 HD
ENDBRANCH  32  33
ENDBRANCH  31  32
ENDBRANCH  30  31
ENDBRANCH  18  30
BRANCH   2  35
HETATM   35  C3  UNL     1      -7.037  48.041 -17.591  1.00  0.00     0.171 C 
HETATM   36  O1  UNL     1      -7.433  47.205 -16.804  1.00  0.00    -0.646 OA
BRANCH  35  37
HETATM   37  O2  UNL     1      -5.818  48.598 -17.490  1.00  0.00    -0.773 OA
HETATM   38  H4  UNL     1      -5.456  48.213 -16.664  1.00  0.00     0.167 HD
ENDBRANCH  35  37
ENDBRANCH   2  35
TORSDOF 12
ENDMDL
MODEL 8
REMARK minimizedAffinity -7.79349852
REMARK  12 active torsions:
REMARK  status: ('A' for Active; 'I' for Inactive)
REMARK    1  A    between atoms: C2_2  and  C3_3 
REMARK    2  A    between atoms: C3_3  and  O2_5 
REMARK    3  A    between atoms: C14_16  and  C15_17 
REMARK    4  A    between atoms: C15_17  and  C17_19 
REMARK    5  A    between atoms: C17_19  and  C18_20 
REMARK    6  A    between atoms: C18_20  and  C19_21 
REMARK    7  A    between atoms: C20_22  and  C22_24 
REMARK    8  A    between atoms: C22_24  and  O4_26 
REMARK    9  A    between atoms: C27_31  and  C28_32 
REMARK   10  A    between atoms: C28_32  and  C29_33 
REMARK   11  A    between atoms: C29_33  and  C30_34 
REMARK   12  A    between atoms: C30_34  and  O5_35 
ROOT
HETATM    1  C1  UNL     1      -5.330  46.597 -16.574  1.00  0.00     0.056 C 
HETATM    2  C2  UNL     1      -4.642  46.340 -17.883  1.00  0.00     0.014 C 
HETATM    3  C4  UNL     1      -4.913  46.980 -19.049  1.00  0.00    -0.062 C 
HETATM    4  C5  UNL     1      -5.992  48.025 -19.152  1.00  0.00     0.036 C 
HETATM    5  C6  UNL     1      -5.434  49.382 -19.569  1.00  0.00     0.010 C 
HETATM    6  C7  UNL     1      -4.295  49.351 -20.621  1.00  0.00     0.003 C 
HETATM    7  C8  UNL     1      -4.166  47.961 -21.376  1.00  0.00    -0.032 C 
HETATM    8  C9  UNL     1      -5.350  47.881 -22.385  1.00  0.00     0.016 C 
HETATM    9  C10 UNL     1      -2.866  47.882 -22.263  1.00  0.00     0.011 C 
HETATM   10  C11 UNL     1      -1.599  48.577 -21.731  1.00  0.00     0.011 C 
HETATM   11  C12 UNL     1      -1.893  50.015 -21.279  1.00  0.00    -0.032 C 
HETATM   12  C13 UNL     1      -2.388  50.833 -22.515  1.00  0.00     0.016 C 
HETATM   13  C14 UNL     1      -0.733  50.815 -20.602  1.00  0.00    -0.002 C 
HETATM   14  C23 UNL     1      -1.517  51.879 -19.766  1.00  0.00     0.006 C 
HETATM   15  C24 UNL     1      -2.977  51.398 -19.646  1.00  0.00     0.011 C 
HETATM   16  C25 UNL     1      -2.937  49.926 -20.097  1.00  0.00    -0.032 C 
HETATM   17  C26 UNL     1      -2.429  49.131 -18.850  1.00  0.00     0.016 C 
HETATM   18  C27 UNL     1      -4.169  46.727 -20.367  1.00  0.00     0.024 C 
ENDROOT
BRANCH  13  19
HETATM   19  C15 UNL     1       0.388  51.474 -21.466  1.00  0.00    -0.014 C 
HETATM   20  C16 UNL     1       1.088  52.621 -20.730  1.00  0.00     0.010 C 
BRANCH  19  21
HETATM   21  C17 UNL     1      -0.214  51.990 -22.805  1.00  0.00     0.008 C 
BRANCH  21  22
HETATM   22  C18 UNL     1       0.596  53.067 -23.543  1.00  0.00     0.028 C 
BRANCH  22  23
HETATM   23  C19 UNL     1       0.073  53.352 -24.923  1.00  0.00    -0.013 C 
HETATM   24  C20 UNL     1       0.477  52.815 -26.093  1.00  0.00     0.008 C 
HETATM   25  C21 UNL     1       1.559  51.794 -26.276  1.00  0.00     0.055 C 
BRANCH  24  26
HETATM   26  C22 UNL     1      -0.232  53.286 -27.312  1.00  0.00     0.171 C 
HETATM   27  O3  UNL     1      -0.550  54.431 -27.576  1.00  0.00    -0.646 OA
BRANCH  26  28
HETATM   28  O4  UNL     1      -0.517  52.281 -28.158  1.00  0.00    -0.773 OA
HETATM   29  H33 UNL     1      -0.973  52.732 -28.898  1.00  0.00     0.167 HD
ENDBRANCH  26  28
ENDBRANCH  24  26
ENDBRANCH  22  23
ENDBRANCH  21  22
ENDBRANCH  19  21
ENDBRANCH  13  19
BRANCH  18  30
HETATM   30  C28 UNL     1      -4.523  45.346 -21.001  1.00  0.00     0.012 C 
BRANCH  30  31
HETATM   31  C29 UNL     1      -5.928  44.793 -20.716  1.00  0.00     0.027 C 
BRANCH  31  32
HETATM   32  C30 UNL     1      -6.570  44.202 -21.968  1.00  0.00     0.164 C 
BRANCH  32  33
HETATM   33  O5  UNL     1      -6.028  42.917 -22.235  1.00  0.00    -0.401 OA
HETATM   34  H48 UNL     1      -6.464  42.585 -23.038  1.00  0.00     0.209 HD
ENDBRANCH  32  33
ENDBRANCH  31  32
ENDBRANCH  30  31
ENDBRANCH  18  30
BRANCH   2  35
HETATM   35  C3  UNL     1      -3.588  45.300 -17.809  1.00  0.00     0.171 C 
HETATM   36  O1  UNL     1      -3.710  44.108 -18.018  1.00  0.00    -0.646 OA
BRANCH  35  37
HETATM   37  O2  UNL     1      -2.409  45.849 -17.471  1.00  0.00    -0.773 OA
HETATM   38  H4  UNL     1      -1.808  45.079 -17.396  1.00  0.00     0.167 HD
ENDBRANCH  35  37
ENDBRANCH   2  35
TORSDOF 12
ENDMDL
MODEL 9
REMARK minimizedAffinity -7.68864536
REMARK  12 active torsions:
REMARK  status: ('A' for Active; 'I' for Inactive)
REMARK    1  A    between atoms: C2_2  and  C3_3 
REMARK    2  A    between atoms: C3_3  and  O2_5 
REMARK    3  A    between atoms: C14_16  and  C15_17 
REMARK    4  A    between atoms: C15_17  and  C17_19 
REMARK    5  A    between atoms: C17_19  and  C18_20 
REMARK    6  A    between atoms: C18_20  and  C19_21 
REMARK    7  A    between atoms: C20_22  and  C22_24 
REMARK    8  A    between atoms: C22_24  and  O4_26 
REMARK    9  A    between atoms: C27_31  and  C28_32 
REMARK   10  A    between atoms: C28_32  and  C29_33 
REMARK   11  A    between atoms: C29_33  and  C30_34 
REMARK   12  A    between atoms: C30_34  and  O5_35 
ROOT
HETATM    1  C1  UNL     1      -3.412  45.780 -17.598  1.00  0.00     0.056 C 
HETATM    2  C2  UNL     1      -4.471  45.899 -18.655  1.00  0.00     0.014 C 
HETATM    3  C4  UNL     1      -5.063  47.057 -19.043  1.00  0.00    -0.062 C 
HETATM    4  C5  UNL     1      -4.726  48.378 -18.404  1.00  0.00     0.036 C 
HETATM    5  C6  UNL     1      -4.156  49.371 -19.412  1.00  0.00     0.010 C 
HETATM    6  C7  UNL     1      -4.797  49.345 -20.823  1.00  0.00     0.003 C 
HETATM    7  C8  UNL     1      -6.186  48.579 -20.875  1.00  0.00    -0.032 C 
HETATM    8  C9  UNL     1      -7.244  49.509 -20.210  1.00  0.00     0.016 C 
HETATM    9  C10 UNL     1      -6.697  48.368 -22.351  1.00  0.00     0.011 C 
HETATM   10  C11 UNL     1      -5.640  48.098 -23.437  1.00  0.00     0.011 C 
HETATM   11  C12 UNL     1      -4.491  49.115 -23.373  1.00  0.00    -0.032 C 
HETATM   12  C13 UNL     1      -5.075  50.541 -23.636  1.00  0.00     0.016 C 
HETATM   13  C14 UNL     1      -3.277  48.903 -24.333  1.00  0.00    -0.002 C 
HETATM   14  C23 UNL     1      -2.135  49.668 -23.588  1.00  0.00     0.006 C 
HETATM   15  C24 UNL     1      -2.587  49.881 -22.129  1.00  0.00     0.011 C 
HETATM   16  C25 UNL     1      -3.800  48.946 -21.962  1.00  0.00    -0.032 C 
HETATM   17  C26 UNL     1      -3.193  47.528 -21.710  1.00  0.00     0.016 C 
HETATM   18  C27 UNL     1      -6.116  47.159 -20.154  1.00  0.00     0.024 C 
ENDROOT
BRANCH  13  19
HETATM   19  C15 UNL     1      -3.368  49.326 -25.834  1.00  0.00    -0.014 C 
HETATM   20  C16 UNL     1      -4.235  48.366 -26.655  1.00  0.00     0.010 C 
BRANCH  19  21
HETATM   21  C17 UNL     1      -1.939  49.407 -26.445  1.00  0.00     0.008 C 
BRANCH  21  22
HETATM   22  C18 UNL     1      -1.358  50.818 -26.629  1.00  0.00     0.028 C 
BRANCH  22  23
HETATM   23  C19 UNL     1       0.131  50.870 -26.427  1.00  0.00    -0.013 C 
HETATM   24  C20 UNL     1       1.054  51.468 -27.207  1.00  0.00     0.008 C 
HETATM   25  C21 UNL     1       0.793  52.230 -28.471  1.00  0.00     0.055 C 
BRANCH  24  26
HETATM   26  C22 UNL     1       2.466  51.360 -26.754  1.00  0.00     0.171 C 
HETATM   27  O3  UNL     1       2.896  50.649 -25.863  1.00  0.00    -0.646 OA
BRANCH  26  28
HETATM   28  O4  UNL     1       3.290  52.163 -27.448  1.00  0.00    -0.773 OA
HETATM   29  H33 UNL     1       4.167  51.988 -27.048  1.00  0.00     0.167 HD
ENDBRANCH  26  28
ENDBRANCH  24  26
ENDBRANCH  22  23
ENDBRANCH  21  22
ENDBRANCH  19  21
ENDBRANCH  13  19
BRANCH  18  30
HETATM   30  C28 UNL     1      -7.492  46.554 -19.735  1.00  0.00     0.012 C 
BRANCH  30  31
HETATM   31  C29 UNL     1      -7.914  46.743 -18.270  1.00  0.00     0.027 C 
BRANCH  31  32
HETATM   32  C30 UNL     1      -8.532  45.474 -17.689  1.00  0.00     0.164 C 
BRANCH  32  33
HETATM   33  O5  UNL     1      -9.941  45.490 -17.865  1.00  0.00    -0.401 OA
HETATM   34  H48 UNL     1     -10.286  44.668 -17.479  1.00  0.00     0.209 HD
ENDBRANCH  32  33
ENDBRANCH  31  32
ENDBRANCH  30  31
ENDBRANCH  18  30
BRANCH   2  35
HETATM   35  C3  UNL     1      -4.832  44.607 -19.285  1.00  0.00     0.171 C 
HETATM   36  O1  UNL     1      -5.689  43.823 -18.924  1.00  0.00    -0.646 OA
BRANCH  35  37
HETATM   37  O2  UNL     1      -4.069  44.383 -20.368  1.00  0.00    -0.773 OA
HETATM   38  H4  UNL     1      -4.348  43.492 -20.668  1.00  0.00     0.167 HD
ENDBRANCH  35  37
ENDBRANCH   2  35
TORSDOF 12
ENDMDL
