MODEL 1
REMARK minimizedAffinity -7.940238
REMARK CNNscore 0.624948978
REMARK CNNaffinity 6.23390961
REMARK  7 active torsions:
REMARK  status: ('A' for Active; 'I' for Inactive)
REMARK    1  A    between atoms: C2_2  and  C30_33 
REMARK    2  A    between atoms: C3_3  and  C4_4 
REMARK    3  A    between atoms: C4_4  and  C5_5 
REMARK    4  A    between atoms: C5_5  and  C6_6 
REMARK    5  A    between atoms: C6_6  and  C8_8 
REMARK    6  A    between atoms: C19_20  and  O2_21 
REMARK    7  A    between atoms: C30_33  and  O5_35 
ROOT
HETATM    1  C8  UNL     1       5.841  12.684  22.067  1.00  0.00    -0.002 C 
HETATM    2  C9  UNL     1       5.751  11.431  22.979  1.00  0.00     0.007 C 
HETATM    3  C10 UNL     1       4.606  10.556  22.413  1.00  0.00     0.018 C 
HETATM    4  C11 UNL     1       3.889  11.461  21.393  1.00  0.00     0.025 C 
HETATM    5  C12 UNL     1       2.864  12.283  22.207  1.00  0.00     0.024 C 
HETATM    6  C13 UNL     1       3.139  10.766  20.255  1.00  0.00     0.147 C 
HETATM    7  O1  UNL     1       2.881   9.562  20.342  1.00  0.00    -0.296 OA
HETATM    8  C14 UNL     1       2.697  11.613  18.998  1.00  0.00     0.055 C 
HETATM    9  C15 UNL     1       3.749  12.759  18.712  1.00  0.00     0.021 C 
HETATM   10  C16 UNL     1       4.547  13.341  19.892  1.00  0.00     0.012 C 
HETATM   11  C17 UNL     1       5.098  12.224  20.781  1.00  0.00    -0.026 C 
HETATM   12  C18 UNL     1       6.029  11.312  19.927  1.00  0.00     0.016 C 
HETATM   13  C19 UNL     1       2.747  10.678  17.731  1.00  0.00     0.135 C 
HETATM   14  C20 UNL     1       1.850  11.396  16.727  1.00  0.00     0.039 C 
HETATM   15  C21 UNL     1       0.582  11.661  17.555  1.00  0.00     0.012 C 
HETATM   16  C22 UNL     1      -0.493  12.559  16.878  1.00  0.00     0.018 C 
HETATM   17  C23 UNL     1      -0.694  12.140  15.406  1.00  0.00     0.023 C 
HETATM   18  C24 UNL     1      -1.858  12.437  17.583  1.00  0.00     0.023 C 
HETATM   19  C25 UNL     1      -0.115  14.033  16.922  1.00  0.00     0.135 C 
HETATM   20  O3  UNL     1      -0.570  14.847  16.114  1.00  0.00    -0.297 OA
HETATM   21  C26 UNL     1       0.846  14.499  17.982  1.00  0.00     0.080 C 
HETATM   22  C27 UNL     1       0.890  13.603  19.217  1.00  0.00     0.018 C 
HETATM   23  C28 UNL     1       1.135  12.088  18.973  1.00  0.00    -0.022 C 
HETATM   24  C29 UNL     1       0.304  11.306  20.027  1.00  0.00     0.017 C 
ENDROOT
BRANCH  13  25
HETATM   25  O2  UNL     1       2.172   9.384  17.911  1.00  0.00    -0.394 OA
HETATM   26  H29 UNL     1       2.485   9.023  18.769  1.00  0.00     0.210 HD
ENDBRANCH  13  25
BRANCH   1  27
HETATM   27  C6  UNL     1       7.237  13.361  21.926  1.00  0.00    -0.014 C 
HETATM   28  C7  UNL     1       8.025  13.144  23.233  1.00  0.00     0.010 C 
BRANCH  27  29
HETATM   29  C5  UNL     1       8.093  12.886  20.730  1.00  0.00     0.008 C 
BRANCH  29  30
HETATM   30  C4  UNL     1       9.603  13.003  20.977  1.00  0.00     0.028 C 
BRANCH  30  31
HETATM   31  C3  UNL     1      10.342  13.297  19.698  1.00  0.00    -0.013 C 
HETATM   32  C2  UNL     1      11.535  12.817  19.294  1.00  0.00     0.008 C 
HETATM   33  C1  UNL     1      12.140  13.242  17.986  1.00  0.00     0.055 C 
BRANCH  32  34
HETATM   34  C30 UNL     1      12.291  11.815  20.088  1.00  0.00     0.171 C 
HETATM   35  O4  UNL     1      13.207  12.019  20.863  1.00  0.00    -0.646 OA
BRANCH  34  36
HETATM   36  O5  UNL     1      11.837  10.567  19.878  1.00  0.00    -0.773 OA
HETATM   37  H46 UNL     1      12.409  10.019  20.454  1.00  0.00     0.167 HD
ENDBRANCH  34  36
ENDBRANCH  32  34
ENDBRANCH  30  31
ENDBRANCH  29  30
ENDBRANCH  27  29
ENDBRANCH   1  27
TORSDOF 7
ENDMDL
MODEL 2
REMARK minimizedAffinity -6.73228836
REMARK CNNscore 0.547929525
REMARK CNNaffinity 5.99191046
REMARK  7 active torsions:
REMARK  status: ('A' for Active; 'I' for Inactive)
REMARK    1  A    between atoms: C2_2  and  C30_33 
REMARK    2  A    between atoms: C3_3  and  C4_4 
REMARK    3  A    between atoms: C4_4  and  C5_5 
REMARK    4  A    between atoms: C5_5  and  C6_6 
REMARK    5  A    between atoms: C6_6  and  C8_8 
REMARK    6  A    between atoms: C19_20  and  O2_21 
REMARK    7  A    between atoms: C30_33  and  O5_35 
ROOT
HETATM    1  C8  UNL     1     -13.423   6.786  23.099  1.00  0.00    -0.002 C 
HETATM    2  C9  UNL     1     -13.460   6.477  24.620  1.00  0.00     0.007 C 
HETATM    3  C10 UNL     1     -13.138   7.807  25.346  1.00  0.00     0.018 C 
HETATM    4  C11 UNL     1     -12.640   8.750  24.235  1.00  0.00     0.025 C 
HETATM    5  C12 UNL     1     -11.129   8.463  24.083  1.00  0.00     0.024 C 
HETATM    6  C13 UNL     1     -12.813  10.252  24.469  1.00  0.00     0.147 C 
HETATM    7  O1  UNL     1     -13.053  10.666  25.607  1.00  0.00    -0.296 OA
HETATM    8  C14 UNL     1     -12.664  11.242  23.249  1.00  0.00     0.055 C 
HETATM    9  C15 UNL     1     -13.172  10.553  21.919  1.00  0.00     0.021 C 
HETATM   10  C16 UNL     1     -13.065   9.023  21.792  1.00  0.00     0.012 C 
HETATM   11  C17 UNL     1     -13.572   8.333  23.061  1.00  0.00    -0.026 C 
HETATM   12  C18 UNL     1     -15.062   8.731  23.290  1.00  0.00     0.016 C 
HETATM   13  C19 UNL     1     -13.633  12.462  23.482  1.00  0.00     0.135 C 
HETATM   14  C20 UNL     1     -13.060  13.546  22.574  1.00  0.00     0.039 C 
HETATM   15  C21 UNL     1     -11.572  13.540  22.961  1.00  0.00     0.012 C 
HETATM   16  C22 UNL     1     -10.640  14.420  22.080  1.00  0.00     0.018 C 
HETATM   17  C23 UNL     1     -11.289  15.796  21.818  1.00  0.00     0.023 C 
HETATM   18  C24 UNL     1      -9.284  14.673  22.767  1.00  0.00     0.023 C 
HETATM   19  C25 UNL     1     -10.330  13.761  20.743  1.00  0.00     0.135 C 
HETATM   20  O3  UNL     1      -9.988  14.418  19.757  1.00  0.00    -0.297 OA
HETATM   21  C26 UNL     1     -10.453  12.265  20.631  1.00  0.00     0.080 C 
HETATM   22  C27 UNL     1     -10.311  11.530  21.962  1.00  0.00     0.018 C 
HETATM   23  C28 UNL     1     -11.226  12.006  23.124  1.00  0.00    -0.022 C 
HETATM   24  C29 UNL     1     -10.414  11.871  24.441  1.00  0.00     0.017 C 
ENDROOT
BRANCH  13  25
HETATM   25  O2  UNL     1     -13.615  13.007  24.800  1.00  0.00    -0.394 OA
HETATM   26  H29 UNL     1     -13.638  12.264  25.443  1.00  0.00     0.210 HD
ENDBRANCH  13  25
BRANCH   1  27
HETATM   27  C6  UNL     1     -14.335   5.923  22.177  1.00  0.00    -0.014 C 
HETATM   28  C7  UNL     1     -14.225   6.455  20.734  1.00  0.00     0.010 C 
BRANCH  27  29
HETATM   29  C5  UNL     1     -14.048   4.404  22.184  1.00  0.00     0.008 C 
BRANCH  29  30
HETATM   30  C4  UNL     1     -14.013   3.797  23.593  1.00  0.00     0.028 C 
BRANCH  30  31
HETATM   31  C3  UNL     1     -12.875   2.821  23.736  1.00  0.00    -0.013 C 
HETATM   32  C2  UNL     1     -12.474   2.162  24.842  1.00  0.00     0.008 C 
HETATM   33  C1  UNL     1     -11.291   1.237  24.808  1.00  0.00     0.055 C 
BRANCH  32  34
HETATM   34  C30 UNL     1     -13.199   2.277  26.133  1.00  0.00     0.171 C 
HETATM   35  O4  UNL     1     -13.132   1.530  27.092  1.00  0.00    -0.646 OA
BRANCH  34  36
HETATM   36  O5  UNL     1     -13.985   3.368  26.168  1.00  0.00    -0.773 OA
HETATM   37  H46 UNL     1     -14.393   3.324  27.058  1.00  0.00     0.167 HD
ENDBRANCH  34  36
ENDBRANCH  32  34
ENDBRANCH  30  31
ENDBRANCH  29  30
ENDBRANCH  27  29
ENDBRANCH   1  27
TORSDOF 7
ENDMDL
MODEL 3
REMARK minimizedAffinity -9.77240849
REMARK CNNscore 0.54766202
REMARK CNNaffinity 7.12348986
REMARK  7 active torsions:
REMARK  status: ('A' for Active; 'I' for Inactive)
REMARK    1  A    between atoms: C2_2  and  C30_33 
REMARK    2  A    between atoms: C3_3  and  C4_4 
REMARK    3  A    between atoms: C4_4  and  C5_5 
REMARK    4  A    between atoms: C5_5  and  C6_6 
REMARK    5  A    between atoms: C6_6  and  C8_8 
REMARK    6  A    between atoms: C19_20  and  O2_21 
REMARK    7  A    between atoms: C30_33  and  O5_35 
ROOT
HETATM    1  C8  UNL     1      -3.764   7.035  14.308  1.00  0.00    -0.002 C 
HETATM    2  C9  UNL     1      -3.566   5.858  15.302  1.00  0.00     0.007 C 
HETATM    3  C10 UNL     1      -2.110   5.367  15.116  1.00  0.00     0.018 C 
HETATM    4  C11 UNL     1      -1.620   6.065  13.833  1.00  0.00     0.025 C 
HETATM    5  C12 UNL     1      -2.078   5.167  12.662  1.00  0.00     0.024 C 
HETATM    6  C13 UNL     1      -0.113   6.289  13.696  1.00  0.00     0.147 C 
HETATM    7  O1  UNL     1       0.663   5.668  14.428  1.00  0.00    -0.296 OA
HETATM    8  C14 UNL     1       0.417   7.300  12.605  1.00  0.00     0.055 C 
HETATM    9  C15 UNL     1      -0.611   8.485  12.411  1.00  0.00     0.021 C 
HETATM   10  C16 UNL     1      -2.105   8.217  12.669  1.00  0.00     0.012 C 
HETATM   11  C17 UNL     1      -2.304   7.455  13.981  1.00  0.00    -0.026 C 
HETATM   12  C18 UNL     1      -1.720   8.304  15.151  1.00  0.00     0.016 C 
HETATM   13  C19 UNL     1       1.730   7.974  13.154  1.00  0.00     0.135 C 
HETATM   14  C20 UNL     1       2.411   8.499  11.894  1.00  0.00     0.039 C 
HETATM   15  C21 UNL     1       2.393   7.266  10.977  1.00  0.00     0.012 C 
HETATM   16  C22 UNL     1       2.857   7.505   9.511  1.00  0.00     0.018 C 
HETATM   17  C23 UNL     1       4.130   8.377   9.486  1.00  0.00     0.023 C 
HETATM   18  C24 UNL     1       3.191   6.179   8.800  1.00  0.00     0.023 C 
HETATM   19  C25 UNL     1       1.779   8.183   8.676  1.00  0.00     0.135 C 
HETATM   20  O3  UNL     1       2.052   8.832   7.663  1.00  0.00    -0.297 OA
HETATM   21  C26 UNL     1       0.344   8.057   9.111  1.00  0.00     0.080 C 
HETATM   22  C27 UNL     1       0.063   6.829   9.973  1.00  0.00     0.018 C 
HETATM   23  C28 UNL     1       0.967   6.629  11.221  1.00  0.00    -0.022 C 
HETATM   24  C29 UNL     1       1.186   5.102  11.398  1.00  0.00     0.017 C 
ENDROOT
BRANCH  13  25
HETATM   25  O2  UNL     1       2.664   7.080  13.758  1.00  0.00    -0.394 OA
HETATM   26  H29 UNL     1       2.171   6.469  14.349  1.00  0.00     0.210 HD
ENDBRANCH  13  25
BRANCH   1  27
HETATM   27  C6  UNL     1      -4.790   8.137  14.707  1.00  0.00    -0.014 C 
HETATM   28  C7  UNL     1      -4.157   9.518  14.449  1.00  0.00     0.010 C 
BRANCH  27  29
HETATM   29  C5  UNL     1      -6.162   8.064  13.998  1.00  0.00     0.008 C 
BRANCH  29  30
HETATM   30  C4  UNL     1      -6.816   6.678  14.078  1.00  0.00     0.028 C 
BRANCH  30  31
HETATM   31  C3  UNL     1      -6.128   5.699  13.163  1.00  0.00    -0.013 C 
HETATM   32  C2  UNL     1      -6.464   4.419  12.906  1.00  0.00     0.008 C 
HETATM   33  C1  UNL     1      -5.640   3.572  11.977  1.00  0.00     0.055 C 
BRANCH  32  34
HETATM   34  C30 UNL     1      -7.680   3.792  13.484  1.00  0.00     0.171 C 
HETATM   35  O4  UNL     1      -8.597   3.259  12.886  1.00  0.00    -0.646 OA
BRANCH  34  36
HETATM   36  O5  UNL     1      -7.681   3.851  14.828  1.00  0.00    -0.773 OA
HETATM   37  H46 UNL     1      -8.519   3.408  15.073  1.00  0.00     0.167 HD
ENDBRANCH  34  36
ENDBRANCH  32  34
ENDBRANCH  30  31
ENDBRANCH  29  30
ENDBRANCH  27  29
ENDBRANCH   1  27
TORSDOF 7
ENDMDL
MODEL 4
REMARK minimizedAffinity -8.31677341
REMARK CNNscore 0.540576756
REMARK CNNaffinity 6.85334206
REMARK  7 active torsions:
REMARK  status: ('A' for Active; 'I' for Inactive)
REMARK    1  A    between atoms: C2_2  and  C30_33 
REMARK    2  A    between atoms: C3_3  and  C4_4 
REMARK    3  A    between atoms: C4_4  and  C5_5 
REMARK    4  A    between atoms: C5_5  and  C6_6 
REMARK    5  A    between atoms: C6_6  and  C8_8 
REMARK    6  A    between atoms: C19_20  and  O2_21 
REMARK    7  A    between atoms: C30_33  and  O5_35 
ROOT
HETATM    1  C8  UNL     1       0.398   6.569  12.998  1.00  0.00    -0.002 C 
HETATM    2  C9  UNL     1       0.049   5.198  13.637  1.00  0.00     0.007 C 
HETATM    3  C10 UNL     1      -1.016   5.479  14.726  1.00  0.00     0.018 C 
HETATM    4  C11 UNL     1      -1.024   7.011  14.880  1.00  0.00     0.025 C 
HETATM    5  C12 UNL     1       0.099   7.341  15.889  1.00  0.00     0.024 C 
HETATM    6  C13 UNL     1      -2.318   7.651  15.389  1.00  0.00     0.147 C 
HETATM    7  O1  UNL     1      -3.176   6.944  15.926  1.00  0.00    -0.296 OA
HETATM    8  C14 UNL     1      -2.518   9.208  15.229  1.00  0.00     0.055 C 
HETATM    9  C15 UNL     1      -1.812   9.720  13.910  1.00  0.00     0.021 C 
HETATM   10  C16 UNL     1      -0.574   8.964  13.394  1.00  0.00     0.012 C 
HETATM   11  C17 UNL     1      -0.816   7.453  13.403  1.00  0.00    -0.026 C 
HETATM   12  C18 UNL     1      -2.037   7.131  12.489  1.00  0.00     0.016 C 
HETATM   13  C19 UNL     1      -4.054   9.488  15.014  1.00  0.00     0.135 C 
HETATM   14  C20 UNL     1      -4.198  10.962  15.381  1.00  0.00     0.039 C 
HETATM   15  C21 UNL     1      -3.492  11.028  16.744  1.00  0.00     0.012 C 
HETATM   16  C22 UNL     1      -3.293  12.454  17.335  1.00  0.00     0.018 C 
HETATM   17  C23 UNL     1      -4.582  13.288  17.172  1.00  0.00     0.023 C 
HETATM   18  C24 UNL     1      -2.962  12.403  18.839  1.00  0.00     0.023 C 
HETATM   19  C25 UNL     1      -2.141  13.192  16.665  1.00  0.00     0.135 C 
HETATM   20  O3  UNL     1      -2.073  14.423  16.660  1.00  0.00    -0.297 OA
HETATM   21  C26 UNL     1      -1.066  12.387  15.988  1.00  0.00     0.080 C 
HETATM   22  C27 UNL     1      -0.929  10.963  16.521  1.00  0.00     0.018 C 
HETATM   23  C28 UNL     1      -2.223  10.104  16.563  1.00  0.00    -0.022 C 
HETATM   24  C29 UNL     1      -2.145   9.204  17.825  1.00  0.00     0.017 C 
ENDROOT
BRANCH  13  25
HETATM   25  O2  UNL     1      -4.928   8.780  15.892  1.00  0.00    -0.394 OA
HETATM   26  H29 UNL     1      -4.627   7.847  15.942  1.00  0.00     0.210 HD
ENDBRANCH  13  25
BRANCH   1  27
HETATM   27  C6  UNL     1       0.856   6.561  11.509  1.00  0.00    -0.014 C 
HETATM   28  C7  UNL     1      -0.293   6.008  10.641  1.00  0.00     0.010 C 
BRANCH  27  29
HETATM   29  C5  UNL     1       1.312   7.925  10.941  1.00  0.00     0.008 C 
BRANCH  29  30
HETATM   30  C4  UNL     1       0.408   8.451   9.818  1.00  0.00     0.028 C 
BRANCH  30  31
HETATM   31  C3  UNL     1       0.688   7.743   8.519  1.00  0.00    -0.013 C 
HETATM   32  C2  UNL     1       1.842   7.703   7.822  1.00  0.00     0.008 C 
HETATM   33  C1  UNL     1       1.936   6.962   6.519  1.00  0.00     0.055 C 
BRANCH  32  34
HETATM   34  C30 UNL     1       3.085   8.345   8.320  1.00  0.00     0.171 C 
HETATM   35  O4  UNL     1       3.814   7.959   9.215  1.00  0.00    -0.646 OA
BRANCH  34  36
HETATM   36  O5  UNL     1       3.375   9.467   7.638  1.00  0.00    -0.773 OA
HETATM   37  H46 UNL     1       4.203   9.780   8.057  1.00  0.00     0.167 HD
ENDBRANCH  34  36
ENDBRANCH  32  34
ENDBRANCH  30  31
ENDBRANCH  29  30
ENDBRANCH  27  29
ENDBRANCH   1  27
TORSDOF 7
ENDMDL
MODEL 5
REMARK minimizedAffinity -9.66084862
REMARK CNNscore 0.534573495
REMARK CNNaffinity 6.83945799
REMARK  7 active torsions:
REMARK  status: ('A' for Active; 'I' for Inactive)
REMARK    1  A    between atoms: C2_2  and  C30_33 
REMARK    2  A    between atoms: C3_3  and  C4_4 
REMARK    3  A    between atoms: C4_4  and  C5_5 
REMARK    4  A    between atoms: C5_5  and  C6_6 
REMARK    5  A    between atoms: C6_6  and  C8_8 
REMARK    6  A    between atoms: C19_20  and  O2_21 
REMARK    7  A    between atoms: C30_33  and  O5_35 
ROOT
HETATM    1  C8  UNL     1       0.643   7.532  11.538  1.00  0.00    -0.002 C 
HETATM    2  C9  UNL     1       1.476   8.674  12.179  1.00  0.00     0.007 C 
HETATM    3  C10 UNL     1       0.676   9.164  13.411  1.00  0.00     0.018 C 
HETATM    4  C11 UNL     1      -0.709   8.504  13.266  1.00  0.00     0.025 C 
HETATM    5  C12 UNL     1      -1.531   9.443  12.354  1.00  0.00     0.024 C 
HETATM    6  C13 UNL     1      -1.507   8.277  14.552  1.00  0.00     0.147 C 
HETATM    7  O1  UNL     1      -1.179   8.870  15.584  1.00  0.00    -0.296 OA
HETATM    8  C14 UNL     1      -2.746   7.299  14.523  1.00  0.00     0.055 C 
HETATM    9  C15 UNL     1      -2.495   6.126  13.493  1.00  0.00     0.021 C 
HETATM   10  C16 UNL     1      -1.593   6.394  12.275  1.00  0.00     0.012 C 
HETATM   11  C17 UNL     1      -0.310   7.114  12.693  1.00  0.00    -0.026 C 
HETATM   12  C18 UNL     1       0.456   6.225  13.719  1.00  0.00     0.016 C 
HETATM   13  C19 UNL     1      -2.855   6.601  15.931  1.00  0.00     0.135 C 
HETATM   14  C20 UNL     1      -4.300   6.112  15.971  1.00  0.00     0.039 C 
HETATM   15  C21 UNL     1      -5.081   7.375  15.572  1.00  0.00     0.012 C 
HETATM   16  C22 UNL     1      -6.606   7.181  15.333  1.00  0.00     0.018 C 
HETATM   17  C23 UNL     1      -7.217   6.303  16.446  1.00  0.00     0.023 C 
HETATM   18  C24 UNL     1      -7.356   8.527  15.342  1.00  0.00     0.023 C 
HETATM   19  C25 UNL     1      -6.893   6.535  13.984  1.00  0.00     0.135 C 
HETATM   20  O3  UNL     1      -7.938   5.918  13.767  1.00  0.00    -0.297 OA
HETATM   21  C26 UNL     1      -5.863   6.655  12.893  1.00  0.00     0.080 C 
HETATM   22  C27 UNL     1      -4.934   7.857  13.047  1.00  0.00     0.018 C 
HETATM   23  C28 UNL     1      -4.212   8.011  14.415  1.00  0.00    -0.022 C 
HETATM   24  C29 UNL     1      -4.111   9.531  14.719  1.00  0.00     0.017 C 
ENDROOT
BRANCH  13  25
HETATM   25  O2  UNL     1      -2.706   7.470  17.052  1.00  0.00    -0.394 OA
HETATM   26  H29 UNL     1      -1.941   8.063  16.884  1.00  0.00     0.210 HD
ENDBRANCH  13  25
BRANCH   1  27
HETATM   27  C6  UNL     1       1.427   6.423  10.775  1.00  0.00    -0.014 C 
HETATM   28  C7  UNL     1       0.733   5.069  11.020  1.00  0.00     0.010 C 
BRANCH  27  29
HETATM   29  C5  UNL     1       1.590   6.644   9.253  1.00  0.00     0.008 C 
BRANCH  29  30
HETATM   30  C4  UNL     1       3.015   6.381   8.748  1.00  0.00     0.028 C 
BRANCH  30  31
HETATM   31  C3  UNL     1       3.005   5.489   7.535  1.00  0.00    -0.013 C 
HETATM   32  C2  UNL     1       3.586   4.281   7.382  1.00  0.00     0.008 C 
HETATM   33  C1  UNL     1       3.494   3.536   6.081  1.00  0.00     0.055 C 
BRANCH  32  34
HETATM   34  C30 UNL     1       4.301   3.605   8.494  1.00  0.00     0.171 C 
HETATM   35  O4  UNL     1       5.489   3.350   8.567  1.00  0.00    -0.646 OA
BRANCH  34  36
HETATM   36  O5  UNL     1       3.469   3.287   9.502  1.00  0.00    -0.773 OA
HETATM   37  H46 UNL     1       4.060   2.860  10.156  1.00  0.00     0.167 HD
ENDBRANCH  34  36
ENDBRANCH  32  34
ENDBRANCH  30  31
ENDBRANCH  29  30
ENDBRANCH  27  29
ENDBRANCH   1  27
TORSDOF 7
ENDMDL
MODEL 6
REMARK minimizedAffinity -9.4380722
REMARK CNNscore 0.495467186
REMARK CNNaffinity 6.74375534
REMARK  7 active torsions:
REMARK  status: ('A' for Active; 'I' for Inactive)
REMARK    1  A    between atoms: C2_2  and  C30_33 
REMARK    2  A    between atoms: C3_3  and  C4_4 
REMARK    3  A    between atoms: C4_4  and  C5_5 
REMARK    4  A    between atoms: C5_5  and  C6_6 
REMARK    5  A    between atoms: C6_6  and  C8_8 
REMARK    6  A    between atoms: C19_20  and  O2_21 
REMARK    7  A    between atoms: C30_33  and  O5_35 
ROOT
HETATM    1  C8  UNL     1       0.677   7.414  11.542  1.00  0.00    -0.002 C 
HETATM    2  C9  UNL     1       1.504   8.578  12.152  1.00  0.00     0.007 C 
HETATM    3  C10 UNL     1       0.694   9.104  13.363  1.00  0.00     0.018 C 
HETATM    4  C11 UNL     1      -0.687   8.436  13.232  1.00  0.00     0.025 C 
HETATM    5  C12 UNL     1      -1.507   9.343  12.286  1.00  0.00     0.024 C 
HETATM    6  C13 UNL     1      -1.493   8.247  14.519  1.00  0.00     0.147 C 
HETATM    7  O1  UNL     1      -1.173   8.872  15.534  1.00  0.00    -0.296 OA
HETATM    8  C14 UNL     1      -2.728   7.265  14.514  1.00  0.00     0.055 C 
HETATM    9  C15 UNL     1      -2.468   6.061  13.522  1.00  0.00     0.021 C 
HETATM   10  C16 UNL     1      -1.560   6.293  12.301  1.00  0.00     0.012 C 
HETATM   11  C17 UNL     1      -0.281   7.030  12.705  1.00  0.00    -0.026 C 
HETATM   12  C18 UNL     1       0.482   6.176  13.762  1.00  0.00     0.016 C 
HETATM   13  C19 UNL     1      -2.844   6.610  15.942  1.00  0.00     0.135 C 
HETATM   14  C20 UNL     1      -4.288   6.119  15.989  1.00  0.00     0.039 C 
HETATM   15  C21 UNL     1      -5.069   7.366  15.546  1.00  0.00     0.012 C 
HETATM   16  C22 UNL     1      -6.592   7.160  15.304  1.00  0.00     0.018 C 
HETATM   17  C23 UNL     1      -7.208   6.315  16.441  1.00  0.00     0.023 C 
HETATM   18  C24 UNL     1      -7.347   8.503  15.267  1.00  0.00     0.023 C 
HETATM   19  C25 UNL     1      -6.870   6.472  13.974  1.00  0.00     0.135 C 
HETATM   20  O3  UNL     1      -7.912   5.845  13.771  1.00  0.00    -0.297 OA
HETATM   21  C26 UNL     1      -5.834   6.561  12.887  1.00  0.00     0.080 C 
HETATM   22  C27 UNL     1      -4.909   7.769  13.009  1.00  0.00     0.018 C 
HETATM   23  C28 UNL     1      -4.196   7.968  14.375  1.00  0.00    -0.022 C 
HETATM   24  C29 UNL     1      -4.100   9.497  14.632  1.00  0.00     0.017 C 
ENDROOT
BRANCH  13  25
HETATM   25  O2  UNL     1      -2.703   7.514  17.036  1.00  0.00    -0.394 OA
HETATM   26  H29 UNL     1      -1.939   8.104  16.855  1.00  0.00     0.210 HD
ENDBRANCH  13  25
BRANCH   1  27
HETATM   27  C6  UNL     1       1.469   6.285  10.818  1.00  0.00    -0.014 C 
HETATM   28  C7  UNL     1       0.783   4.935  11.111  1.00  0.00     0.010 C 
BRANCH  27  29
HETATM   29  C5  UNL     1       1.631   6.453   9.290  1.00  0.00     0.008 C 
BRANCH  29  30
HETATM   30  C4  UNL     1       3.095   6.554   8.840  1.00  0.00     0.028 C 
BRANCH  30  31
HETATM   31  C3  UNL     1       3.741   7.808   9.371  1.00  0.00    -0.013 C 
HETATM   32  C2  UNL     1       4.701   7.918  10.310  1.00  0.00     0.008 C 
HETATM   33  C1  UNL     1       5.215   9.263  10.739  1.00  0.00     0.055 C 
BRANCH  32  34
HETATM   34  C30 UNL     1       5.333   6.728  10.935  1.00  0.00     0.171 C 
HETATM   35  O4  UNL     1       6.230   6.040  10.484  1.00  0.00    -0.646 OA
BRANCH  34  36
HETATM   36  O5  UNL     1       4.804   6.459  12.142  1.00  0.00    -0.773 OA
HETATM   37  H46 UNL     1       5.304   5.670  12.436  1.00  0.00     0.167 HD
ENDBRANCH  34  36
ENDBRANCH  32  34
ENDBRANCH  30  31
ENDBRANCH  29  30
ENDBRANCH  27  29
ENDBRANCH   1  27
TORSDOF 7
ENDMDL
MODEL 7
REMARK minimizedAffinity -8.96800518
REMARK CNNscore 0.494332045
REMARK CNNaffinity 6.94903564
REMARK  7 active torsions:
REMARK  status: ('A' for Active; 'I' for Inactive)
REMARK    1  A    between atoms: C2_2  and  C30_33 
REMARK    2  A    between atoms: C3_3  and  C4_4 
REMARK    3  A    between atoms: C4_4  and  C5_5 
REMARK    4  A    between atoms: C5_5  and  C6_6 
REMARK    5  A    between atoms: C6_6  and  C8_8 
REMARK    6  A    between atoms: C19_20  and  O2_21 
REMARK    7  A    between atoms: C30_33  and  O5_35 
ROOT
HETATM    1  C8  UNL     1       0.687   7.986  13.132  1.00  0.00    -0.002 C 
HETATM    2  C9  UNL     1       1.465   6.711  13.557  1.00  0.00     0.007 C 
HETATM    3  C10 UNL     1       0.404   5.685  14.025  1.00  0.00     0.018 C 
HETATM    4  C11 UNL     1      -0.902   6.494  14.135  1.00  0.00     0.025 C 
HETATM    5  C12 UNL     1      -0.889   7.127  15.545  1.00  0.00     0.024 C 
HETATM    6  C13 UNL     1      -2.214   5.720  13.978  1.00  0.00     0.147 C 
HETATM    7  O1  UNL     1      -2.208   4.489  14.067  1.00  0.00    -0.296 OA
HETATM    8  C14 UNL     1      -3.550   6.520  13.722  1.00  0.00     0.055 C 
HETATM    9  C15 UNL     1      -3.256   7.822  12.873  1.00  0.00     0.021 C 
HETATM   10  C16 UNL     1      -1.875   8.490  12.999  1.00  0.00     0.012 C 
HETATM   11  C17 UNL     1      -0.756   7.450  12.917  1.00  0.00    -0.026 C 
HETATM   12  C18 UNL     1      -0.851   6.714  11.546  1.00  0.00     0.016 C 
HETATM   13  C19 UNL     1      -4.488   5.636  12.816  1.00  0.00     0.135 C 
HETATM   14  C20 UNL     1      -5.872   6.232  13.053  1.00  0.00     0.039 C 
HETATM   15  C21 UNL     1      -5.948   6.277  14.587  1.00  0.00     0.012 C 
HETATM   16  C22 UNL     1      -7.182   7.015  15.183  1.00  0.00     0.018 C 
HETATM   17  C23 UNL     1      -8.466   6.607  14.431  1.00  0.00     0.023 C 
HETATM   18  C24 UNL     1      -7.386   6.666  16.670  1.00  0.00     0.023 C 
HETATM   19  C25 UNL     1      -7.030   8.529  15.112  1.00  0.00     0.135 C 
HETATM   20  O3  UNL     1      -8.006   9.282  15.122  1.00  0.00    -0.297 OA
HETATM   21  C26 UNL     1      -5.645   9.111  15.021  1.00  0.00     0.080 C 
HETATM   22  C27 UNL     1      -4.552   8.201  15.578  1.00  0.00     0.018 C 
HETATM   23  C28 UNL     1      -4.504   6.748  15.027  1.00  0.00    -0.022 C 
HETATM   24  C29 UNL     1      -4.071   5.822  16.196  1.00  0.00     0.017 C 
ENDROOT
BRANCH  13  25
HETATM   25  O2  UNL     1      -4.583   4.265  13.199  1.00  0.00    -0.394 OA
HETATM   26  H29 UNL     1      -3.679   3.935  13.397  1.00  0.00     0.210 HD
ENDBRANCH  13  25
BRANCH   1  27
HETATM   27  C6  UNL     1       1.330   8.874  12.025  1.00  0.00    -0.014 C 
HETATM   28  C7  UNL     1       2.663   9.438  12.556  1.00  0.00     0.010 C 
BRANCH  27  29
HETATM   29  C5  UNL     1       1.577   8.177  10.667  1.00  0.00     0.008 C 
BRANCH  29  30
HETATM   30  C4  UNL     1       0.483   8.461   9.629  1.00  0.00     0.028 C 
BRANCH  30  31
HETATM   31  C3  UNL     1       0.933   8.073   8.245  1.00  0.00    -0.013 C 
HETATM   32  C2  UNL     1       1.838   7.138   7.893  1.00  0.00     0.008 C 
HETATM   33  C1  UNL     1       2.188   6.899   6.452  1.00  0.00     0.055 C 
BRANCH  32  34
HETATM   34  C30 UNL     1       2.501   6.266   8.897  1.00  0.00     0.171 C 
HETATM   35  O4  UNL     1       2.045   5.277   9.439  1.00  0.00    -0.646 OA
BRANCH  34  36
HETATM   36  O5  UNL     1       3.751   6.681   9.169  1.00  0.00    -0.773 OA
HETATM   37  H46 UNL     1       4.067   6.029   9.829  1.00  0.00     0.167 HD
ENDBRANCH  34  36
ENDBRANCH  32  34
ENDBRANCH  30  31
ENDBRANCH  29  30
ENDBRANCH  27  29
ENDBRANCH   1  27
TORSDOF 7
ENDMDL
MODEL 8
REMARK minimizedAffinity -6.64422512
REMARK CNNscore 0.436786532
REMARK CNNaffinity 6.21771765
REMARK  7 active torsions:
REMARK  status: ('A' for Active; 'I' for Inactive)
REMARK    1  A    between atoms: C2_2  and  C30_33 
REMARK    2  A    between atoms: C3_3  and  C4_4 
REMARK    3  A    between atoms: C4_4  and  C5_5 
REMARK    4  A    between atoms: C5_5  and  C6_6 
REMARK    5  A    between atoms: C6_6  and  C8_8 
REMARK    6  A    between atoms: C19_20  and  O2_21 
REMARK    7  A    between atoms: C30_33  and  O5_35 
ROOT
HETATM    1  C8  UNL     1      -3.353   8.496  15.725  1.00  0.00    -0.002 C 
HETATM    2  C9  UNL     1      -4.616   9.351  15.430  1.00  0.00     0.007 C 
HETATM    3  C10 UNL     1      -4.257  10.809  15.808  1.00  0.00     0.018 C 
HETATM    4  C11 UNL     1      -2.926  10.700  16.576  1.00  0.00     0.025 C 
HETATM    5  C12 UNL     1      -3.309  10.409  18.045  1.00  0.00     0.024 C 
HETATM    6  C13 UNL     1      -2.012  11.927  16.560  1.00  0.00     0.147 C 
HETATM    7  O1  UNL     1      -2.468  13.020  16.212  1.00  0.00    -0.296 OA
HETATM    8  C14 UNL     1      -0.507  11.768  17.007  1.00  0.00     0.055 C 
HETATM    9  C15 UNL     1       0.034  10.335  16.614  1.00  0.00     0.021 C 
HETATM   10  C16 UNL     1      -0.962   9.163  16.546  1.00  0.00     0.012 C 
HETATM   11  C17 UNL     1      -2.224   9.564  15.779  1.00  0.00    -0.026 C 
HETATM   12  C18 UNL     1      -1.823   9.987  14.333  1.00  0.00     0.016 C 
HETATM   13  C19 UNL     1       0.364  12.784  16.175  1.00  0.00     0.135 C 
HETATM   14  C20 UNL     1       1.637  12.919  17.005  1.00  0.00     0.039 C 
HETATM   15  C21 UNL     1       1.080  13.208  18.409  1.00  0.00     0.012 C 
HETATM   16  C22 UNL     1       2.125  13.222  19.562  1.00  0.00     0.018 C 
HETATM   17  C23 UNL     1       3.386  14.003  19.134  1.00  0.00     0.023 C 
HETATM   18  C24 UNL     1       1.565  13.904  20.825  1.00  0.00     0.023 C 
HETATM   19  C25 UNL     1       2.535  11.815  19.977  1.00  0.00     0.135 C 
HETATM   20  O3  UNL     1       3.610  11.589  20.537  1.00  0.00    -0.297 OA
HETATM   21  C26 UNL     1       1.597  10.676  19.684  1.00  0.00     0.080 C 
HETATM   22  C27 UNL     1       0.137  11.096  19.538  1.00  0.00     0.018 C 
HETATM   23  C28 UNL     1      -0.164  12.241  18.532  1.00  0.00    -0.022 C 
HETATM   24  C29 UNL     1      -1.326  13.086  19.122  1.00  0.00     0.017 C 
ENDROOT
BRANCH  13  25
HETATM   25  O2  UNL     1      -0.175  14.101  16.070  1.00  0.00    -0.394 OA
HETATM   26  H29 UNL     1      -1.133  14.028  15.862  1.00  0.00     0.210 HD
ENDBRANCH  13  25
BRANCH   1  27
HETATM   27  C6  UNL     1      -3.140   7.222  14.855  1.00  0.00    -0.014 C 
HETATM   28  C7  UNL     1      -4.082   7.292  13.636  1.00  0.00     0.010 C 
BRANCH  27  29
HETATM   29  C5  UNL     1      -1.693   6.978  14.368  1.00  0.00     0.008 C 
BRANCH  29  30
HETATM   30  C4  UNL     1      -1.617   6.432  12.935  1.00  0.00     0.028 C 
BRANCH  30  31
HETATM   31  C3  UNL     1      -0.891   7.390  12.027  1.00  0.00    -0.013 C 
HETATM   32  C2  UNL     1       0.298   7.220  11.414  1.00  0.00     0.008 C 
HETATM   33  C1  UNL     1       0.889   8.302  10.556  1.00  0.00     0.055 C 
BRANCH  32  34
HETATM   34  C30 UNL     1       1.061   5.950  11.513  1.00  0.00     0.171 C 
HETATM   35  O4  UNL     1       0.952   4.961  10.812  1.00  0.00    -0.646 OA
BRANCH  34  36
HETATM   36  O5  UNL     1       1.965   5.987  12.508  1.00  0.00    -0.773 OA
HETATM   37  H46 UNL     1       2.391   5.107  12.460  1.00  0.00     0.167 HD
ENDBRANCH  34  36
ENDBRANCH  32  34
ENDBRANCH  30  31
ENDBRANCH  29  30
ENDBRANCH  27  29
ENDBRANCH   1  27
TORSDOF 7
ENDMDL
MODEL 9
REMARK minimizedAffinity -9.36103821
REMARK CNNscore 0.40132463
REMARK CNNaffinity 6.6422801
REMARK  7 active torsions:
REMARK  status: ('A' for Active; 'I' for Inactive)
REMARK    1  A    between atoms: C2_2  and  C30_33 
REMARK    2  A    between atoms: C3_3  and  C4_4 
REMARK    3  A    between atoms: C4_4  and  C5_5 
REMARK    4  A    between atoms: C5_5  and  C6_6 
REMARK    5  A    between atoms: C6_6  and  C8_8 
REMARK    6  A    between atoms: C19_20  and  O2_21 
REMARK    7  A    between atoms: C30_33  and  O5_35 
ROOT
HETATM    1  C8  UNL     1      -4.002   7.626  14.101  1.00  0.00    -0.002 C 
HETATM    2  C9  UNL     1      -4.000   6.407  15.062  1.00  0.00     0.007 C 
HETATM    3  C10 UNL     1      -2.614   5.732  14.912  1.00  0.00     0.018 C 
HETATM    4  C11 UNL     1      -1.987   6.395  13.672  1.00  0.00     0.025 C 
HETATM    5  C12 UNL     1      -2.511   5.598  12.456  1.00  0.00     0.024 C 
HETATM    6  C13 UNL     1      -0.458   6.420  13.595  1.00  0.00     0.147 C 
HETATM    7  O1  UNL     1       0.200   5.682  14.334  1.00  0.00    -0.296 OA
HETATM    8  C14 UNL     1       0.242   7.382  12.559  1.00  0.00     0.055 C 
HETATM    9  C15 UNL     1      -0.613   8.698  12.367  1.00  0.00     0.021 C 
HETATM   10  C16 UNL     1      -2.138   8.624  12.563  1.00  0.00     0.012 C 
HETATM   11  C17 UNL     1      -2.487   7.858  13.841  1.00  0.00    -0.026 C 
HETATM   12  C18 UNL     1      -1.844   8.589  15.058  1.00  0.00     0.016 C 
HETATM   13  C19 UNL     1       1.610   7.861  13.176  1.00  0.00     0.135 C 
HETATM   14  C20 UNL     1       2.403   8.326  11.959  1.00  0.00     0.039 C 
HETATM   15  C21 UNL     1       2.260   7.132  11.002  1.00  0.00     0.012 C 
HETATM   16  C22 UNL     1       2.809   7.349   9.562  1.00  0.00     0.018 C 
HETATM   17  C23 UNL     1       4.186   8.045   9.611  1.00  0.00     0.023 C 
HETATM   18  C24 UNL     1       2.994   6.011   8.820  1.00  0.00     0.023 C 
HETATM   19  C25 UNL     1       1.864   8.187   8.712  1.00  0.00     0.135 C 
HETATM   20  O3  UNL     1       2.260   8.822   7.732  1.00  0.00    -0.297 OA
HETATM   21  C26 UNL     1       0.409   8.240   9.091  1.00  0.00     0.080 C 
HETATM   22  C27 UNL     1      -0.065   7.036   9.901  1.00  0.00     0.018 C 
HETATM   23  C28 UNL     1       0.754   6.683  11.174  1.00  0.00    -0.022 C 
HETATM   24  C29 UNL     1       0.764   5.136  11.308  1.00  0.00     0.017 C 
ENDROOT
BRANCH  13  25
HETATM   25  O2  UNL     1       2.393   6.834  13.783  1.00  0.00    -0.394 OA
HETATM   26  H29 UNL     1       1.801   6.279  14.336  1.00  0.00     0.210 HD
ENDBRANCH  13  25
BRANCH   1  27
HETATM   27  C6  UNL     1      -4.889   8.842  14.500  1.00  0.00    -0.014 C 
HETATM   28  C7  UNL     1      -6.362   8.388  14.535  1.00  0.00     0.010 C 
BRANCH  27  29
HETATM   29  C5  UNL     1      -4.533   9.520  15.843  1.00  0.00     0.008 C 
BRANCH  29  30
HETATM   30  C4  UNL     1      -3.984  10.944  15.680  1.00  0.00     0.028 C 
BRANCH  30  31
HETATM   31  C3  UNL     1      -4.248  11.772  16.910  1.00  0.00    -0.013 C 
HETATM   32  C2  UNL     1      -3.732  11.618  18.146  1.00  0.00     0.008 C 
HETATM   33  C1  UNL     1      -4.131  12.530  19.272  1.00  0.00     0.055 C 
BRANCH  32  34
HETATM   34  C30 UNL     1      -2.716  10.579  18.452  1.00  0.00     0.171 C 
HETATM   35  O4  UNL     1      -1.543  10.569  18.128  1.00  0.00    -0.646 OA
BRANCH  34  36
HETATM   36  O5  UNL     1      -3.232   9.578  19.187  1.00  0.00    -0.773 OA
HETATM   37  H46 UNL     1      -2.470   8.977  19.317  1.00  0.00     0.167 HD
ENDBRANCH  34  36
ENDBRANCH  32  34
ENDBRANCH  30  31
ENDBRANCH  29  30
ENDBRANCH  27  29
ENDBRANCH   1  27
TORSDOF 7
ENDMDL
