MODEL 1
REMARK minimizedAffinity -7.43080044
REMARK CNNscore 0.53240025
REMARK CNNaffinity 6.78670835
REMARK  13 active torsions:
REMARK  status: ('A' for Active; 'I' for Inactive)
REMARK    1  A    between atoms: C4_4  and  C5_5 
REMARK    2  A    between atoms: C5_5  and  C6_6 
REMARK    3  A    between atoms: C6_6  and  C7_7 
REMARK    4  A    between atoms: C9_9  and  C10_10 
REMARK    5  A    between atoms: C11_11  and  C12_12 
REMARK    6  A    between atoms: C14_14  and  C15_15 
REMARK    7  A    between atoms: C18_18  and  O1_19 
REMARK    8  A    between atoms: C19_21  and  C20_22 
REMARK    9  A    between atoms: C20_22  and  C21_23 
REMARK   10  A    between atoms: C21_23  and  C22_24 
REMARK   11  A    between atoms: C22_24  and  O3_25 
REMARK   12  A    between atoms: C24_27  and  C26_29 
REMARK   13  A    between atoms: C29_33  and  O5_35 
ROOT
HETATM    1  C15 UNL     1      -1.423   4.285  11.273  1.00  0.00     0.149 C 
HETATM    2  C16 UNL     1      -0.608   5.454  10.697  1.00  0.00     0.054 C 
HETATM    3  C17 UNL     1       0.748   5.455  11.461  1.00  0.00     0.050 C 
HETATM    4  C18 UNL     1       0.732   4.022  12.013  1.00  0.00     0.270 C 
HETATM    5  O2  UNL     1      -0.629   3.746  12.331  1.00  0.00    -0.351 OA
HETATM    6  C19 UNL     1       1.923   5.738  10.439  1.00  0.00     0.032 C 
HETATM    7  C23 UNL     1       1.805   7.189   9.930  1.00  0.00    -0.066 C 
HETATM    8  C24 UNL     1       1.671   7.566   8.633  1.00  0.00    -0.021 C 
HETATM    9  C25 UNL     1       1.474   8.995   8.198  1.00  0.00     0.052 C 
HETATM   10  C27 UNL     1       1.864   8.201  11.061  1.00  0.00     0.038 C 
HETATM   11  C28 UNL     1       0.761   7.965  12.085  1.00  0.00     0.042 C 
HETATM   12  C29 UNL     1       0.732   6.521  12.634  1.00  0.00     0.067 C 
HETATM   13  C30 UNL     1      -0.439   6.422  13.626  1.00  0.00     0.047 C 
ENDROOT
BRANCH   4  14
HETATM   14  O1  UNL     1       1.098   3.059  11.038  1.00  0.00    -0.370 OA
HETATM   15  H26 UNL     1       1.071   2.214  11.521  1.00  0.00     0.212 HD
ENDBRANCH   4  14
BRANCH   6  16
HETATM   16  C20 UNL     1       3.395   5.512  10.890  1.00  0.00     0.012 C 
BRANCH  16  17
HETATM   17  C21 UNL     1       4.460   6.499  10.397  1.00  0.00     0.027 C 
BRANCH  17  18
HETATM   18  C22 UNL     1       5.709   6.594  11.269  1.00  0.00     0.164 C 
BRANCH  18  19
HETATM   19  O3  UNL     1       6.875   6.404  10.479  1.00  0.00    -0.401 OA
HETATM   20  H34 UNL     1       7.640   6.540  11.066  1.00  0.00     0.209 HD
ENDBRANCH  18  19
ENDBRANCH  17  18
ENDBRANCH  16  17
ENDBRANCH   6  16
BRANCH  12  21
HETATM   21  O5  UNL     1       1.914   6.330  13.429  1.00  0.00    -0.389 OA
HETATM   22  H46 UNL     1       1.915   6.991  14.145  1.00  0.00     0.210 HD
ENDBRANCH  12  21
BRANCH   1  23
HETATM   23  C14 UNL     1      -2.808   4.682  11.717  1.00  0.00     0.011 C 
HETATM   24  C12 UNL     1      -3.888   3.923  12.005  1.00  0.00    -0.063 C 
HETATM   25  C13 UNL     1      -3.936   2.427  11.826  1.00  0.00     0.048 C 
BRANCH  24  26
HETATM   26  C11 UNL     1      -5.104   4.594  12.477  1.00  0.00     0.006 C 
HETATM   27  C10 UNL     1      -5.179   5.527  13.442  1.00  0.00     0.001 C 
BRANCH  27  28
HETATM   28  C9  UNL     1      -6.431   6.132  13.847  1.00  0.00     0.002 C 
HETATM   29  C7  UNL     1      -7.670   5.629  13.675  1.00  0.00    -0.084 C 
HETATM   30  C8  UNL     1      -8.001   4.329  12.989  1.00  0.00     0.043 C 
BRANCH  29  31
HETATM   31  C6  UNL     1      -8.878   6.416  14.160  1.00  0.00     0.037 C 
BRANCH  31  32
HETATM   32  C5  UNL     1     -10.023   6.444  13.142  1.00  0.00     0.031 C 
BRANCH  32  33
HETATM   33  C4  UNL     1     -10.975   7.578  13.416  1.00  0.00    -0.024 C 
HETATM   34  C2  UNL     1     -12.217   7.501  13.933  1.00  0.00    -0.091 C 
HETATM   35  C1  UNL     1     -12.922   6.224  14.302  1.00  0.00     0.042 C 
HETATM   36  C3  UNL     1     -13.029   8.747  14.170  1.00  0.00     0.042 C 
ENDBRANCH  32  33
ENDBRANCH  31  32
ENDBRANCH  29  31
ENDBRANCH  27  28
ENDBRANCH  24  26
ENDBRANCH   1  23
BRANCH   8  37
HETATM   37  C26 UNL     1       1.723   6.577   7.511  1.00  0.00     0.265 C 
HETATM   38  O4  UNL     1       1.858   6.905   6.336  1.00  0.00    -0.302 OA
ENDBRANCH   8  37
TORSDOF 13
ENDMDL
MODEL 2
REMARK minimizedAffinity -6.44504261
REMARK CNNscore 0.524288058
REMARK CNNaffinity 5.74435949
REMARK  13 active torsions:
REMARK  status: ('A' for Active; 'I' for Inactive)
REMARK    1  A    between atoms: C4_4  and  C5_5 
REMARK    2  A    between atoms: C5_5  and  C6_6 
REMARK    3  A    between atoms: C6_6  and  C7_7 
REMARK    4  A    between atoms: C9_9  and  C10_10 
REMARK    5  A    between atoms: C11_11  and  C12_12 
REMARK    6  A    between atoms: C14_14  and  C15_15 
REMARK    7  A    between atoms: C18_18  and  O1_19 
REMARK    8  A    between atoms: C19_21  and  C20_22 
REMARK    9  A    between atoms: C20_22  and  C21_23 
REMARK   10  A    between atoms: C21_23  and  C22_24 
REMARK   11  A    between atoms: C22_24  and  O3_25 
REMARK   12  A    between atoms: C24_27  and  C26_29 
REMARK   13  A    between atoms: C29_33  and  O5_35 
ROOT
HETATM    1  C15 UNL     1     -10.463  -9.462  16.723  1.00  0.00     0.149 C 
HETATM    2  C16 UNL     1      -9.704 -10.298  15.682  1.00  0.00     0.054 C 
HETATM    3  C17 UNL     1     -10.731 -10.632  14.562  1.00  0.00     0.050 C 
HETATM    4  C18 UNL     1     -11.786  -9.556  14.853  1.00  0.00     0.270 C 
HETATM    5  O2  UNL     1     -11.817  -9.417  16.270  1.00  0.00    -0.351 OA
HETATM    6  C19 UNL     1     -10.031 -10.482  13.150  1.00  0.00     0.032 C 
HETATM    7  C23 UNL     1      -8.971 -11.592  12.997  1.00  0.00    -0.066 C 
HETATM    8  C24 UNL     1      -7.646 -11.397  12.771  1.00  0.00    -0.021 C 
HETATM    9  C25 UNL     1      -6.639 -12.516  12.715  1.00  0.00     0.052 C 
HETATM   10  C27 UNL     1      -9.571 -12.981  13.118  1.00  0.00     0.038 C 
HETATM   11  C28 UNL     1     -10.273 -13.175  14.456  1.00  0.00     0.042 C 
HETATM   12  C29 UNL     1     -11.327 -12.087  14.760  1.00  0.00     0.067 C 
HETATM   13  C30 UNL     1     -11.928 -12.392  16.142  1.00  0.00     0.047 C 
ENDROOT
BRANCH   4  14
HETATM   14  O1  UNL     1     -11.415  -8.280  14.355  1.00  0.00    -0.370 OA
HETATM   15  H26 UNL     1     -12.170  -7.710  14.581  1.00  0.00     0.212 HD
ENDBRANCH   4  14
BRANCH   6  16
HETATM   16  C20 UNL     1     -10.905 -10.482  11.863  1.00  0.00     0.012 C 
BRANCH  16  17
HETATM   17  C21 UNL     1     -10.292  -9.920  10.575  1.00  0.00     0.027 C 
BRANCH  17  18
HETATM   18  C22 UNL     1     -11.294  -9.337   9.582  1.00  0.00     0.164 C 
BRANCH  18  19
HETATM   19  O3  UNL     1     -11.309  -7.919   9.676  1.00  0.00    -0.401 OA
HETATM   20  H34 UNL     1     -11.909  -7.595   8.981  1.00  0.00     0.209 HD
ENDBRANCH  18  19
ENDBRANCH  17  18
ENDBRANCH  16  17
ENDBRANCH   6  16
BRANCH  12  21
HETATM   21  O5  UNL     1     -12.413 -12.256  13.834  1.00  0.00    -0.389 OA
HETATM   22  H46 UNL     1     -12.776 -13.154  13.944  1.00  0.00     0.210 HD
ENDBRANCH  12  21
BRANCH   1  23
HETATM   23  C14 UNL     1     -10.328  -9.989  18.129  1.00  0.00     0.011 C 
HETATM   24  C12 UNL     1      -9.657  -9.492  19.192  1.00  0.00    -0.063 C 
HETATM   25  C13 UNL     1      -8.771  -8.274  19.133  1.00  0.00     0.048 C 
BRANCH  24  26
HETATM   26  C11 UNL     1      -9.757 -10.203  20.471  1.00  0.00     0.006 C 
HETATM   27  C10 UNL     1      -8.836 -10.222  21.450  1.00  0.00     0.001 C 
BRANCH  27  28
HETATM   28  C9  UNL     1      -9.020 -10.961  22.681  1.00  0.00     0.002 C 
HETATM   29  C7  UNL     1      -8.072 -11.290  23.582  1.00  0.00    -0.084 C 
HETATM   30  C8  UNL     1      -6.603 -10.972  23.464  1.00  0.00     0.043 C 
BRANCH  29  31
HETATM   31  C6  UNL     1      -8.452 -12.085  24.823  1.00  0.00     0.037 C 
BRANCH  31  32
HETATM   32  C5  UNL     1      -9.224 -13.368  24.498  1.00  0.00     0.031 C 
BRANCH  32  33
HETATM   33  C4  UNL     1      -9.493 -14.175  25.740  1.00  0.00    -0.024 C 
HETATM   34  C2  UNL     1     -10.269 -13.836  26.788  1.00  0.00    -0.091 C 
HETATM   35  C1  UNL     1     -10.999 -12.528  26.935  1.00  0.00     0.042 C 
HETATM   36  C3  UNL     1     -10.453 -14.781  27.946  1.00  0.00     0.042 C 
ENDBRANCH  32  33
ENDBRANCH  31  32
ENDBRANCH  29  31
ENDBRANCH  27  28
ENDBRANCH  24  26
ENDBRANCH   1  23
BRANCH   8  37
HETATM   37  C26 UNL     1      -7.073 -10.034  12.542  1.00  0.00     0.265 C 
HETATM   38  O4  UNL     1      -6.034  -9.842  11.917  1.00  0.00    -0.302 OA
ENDBRANCH   8  37
TORSDOF 13
ENDMDL
MODEL 3
REMARK minimizedAffinity -6.09088993
REMARK CNNscore 0.465949148
REMARK CNNaffinity 5.69246483
REMARK  13 active torsions:
REMARK  status: ('A' for Active; 'I' for Inactive)
REMARK    1  A    between atoms: C4_4  and  C5_5 
REMARK    2  A    between atoms: C5_5  and  C6_6 
REMARK    3  A    between atoms: C6_6  and  C7_7 
REMARK    4  A    between atoms: C9_9  and  C10_10 
REMARK    5  A    between atoms: C11_11  and  C12_12 
REMARK    6  A    between atoms: C14_14  and  C15_15 
REMARK    7  A    between atoms: C18_18  and  O1_19 
REMARK    8  A    between atoms: C19_21  and  C20_22 
REMARK    9  A    between atoms: C20_22  and  C21_23 
REMARK   10  A    between atoms: C21_23  and  C22_24 
REMARK   11  A    between atoms: C22_24  and  O3_25 
REMARK   12  A    between atoms: C24_27  and  C26_29 
REMARK   13  A    between atoms: C29_33  and  O5_35 
ROOT
HETATM    1  C15 UNL     1       0.455  10.969  19.541  1.00  0.00     0.149 C 
HETATM    2  C16 UNL     1      -0.563  12.079  19.237  1.00  0.00     0.054 C 
HETATM    3  C17 UNL     1      -0.742  12.093  17.692  1.00  0.00     0.050 C 
HETATM    4  C18 UNL     1      -0.194  10.697  17.358  1.00  0.00     0.270 C 
HETATM    5  O2  UNL     1       0.878  10.475  18.269  1.00  0.00    -0.351 OA
HETATM    6  C19 UNL     1      -2.274  12.282  17.345  1.00  0.00     0.032 C 
HETATM    7  C23 UNL     1      -2.709  13.702  17.761  1.00  0.00    -0.066 C 
HETATM    8  C24 UNL     1      -3.702  14.002  18.637  1.00  0.00    -0.021 C 
HETATM    9  C25 UNL     1      -4.030  15.406  19.073  1.00  0.00     0.052 C 
HETATM   10  C27 UNL     1      -1.896  14.779  17.065  1.00  0.00     0.038 C 
HETATM   11  C28 UNL     1      -0.408  14.635  17.353  1.00  0.00     0.042 C 
HETATM   12  C29 UNL     1       0.146  13.228  17.032  1.00  0.00     0.067 C 
HETATM   13  C30 UNL     1       1.640  13.219  17.397  1.00  0.00     0.047 C 
ENDROOT
BRANCH   4  14
HETATM   14  O1  UNL     1      -1.134   9.667  17.619  1.00  0.00    -0.370 OA
HETATM   15  H26 UNL     1      -0.675   8.854  17.345  1.00  0.00     0.212 HD
ENDBRANCH   4  14
BRANCH   6  16
HETATM   16  C20 UNL     1      -2.759  12.047  15.885  1.00  0.00     0.012 C 
BRANCH  16  17
HETATM   17  C21 UNL     1      -3.145  10.621  15.474  1.00  0.00     0.027 C 
BRANCH  17  18
HETATM   18  C22 UNL     1      -2.305  10.022  14.349  1.00  0.00     0.164 C 
BRANCH  18  19
HETATM   19  O3  UNL     1      -1.455  11.014  13.789  1.00  0.00    -0.401 OA
HETATM   20  H34 UNL     1      -0.897  10.568  13.127  1.00  0.00     0.209 HD
ENDBRANCH  18  19
ENDBRANCH  17  18
ENDBRANCH  16  17
ENDBRANCH   6  16
BRANCH  12  21
HETATM   21  O5  UNL     1       0.107  13.056  15.606  1.00  0.00    -0.389 OA
HETATM   22  H46 UNL     1       0.641  13.759  15.195  1.00  0.00     0.210 HD
ENDBRANCH  12  21
BRANCH   1  23
HETATM   23  C14 UNL     1       1.600  11.427  20.408  1.00  0.00     0.011 C 
HETATM   24  C12 UNL     1       2.369  10.739  21.281  1.00  0.00    -0.063 C 
HETATM   25  C13 UNL     1       2.138   9.296  21.650  1.00  0.00     0.048 C 
BRANCH  24  26
HETATM   26  C11 UNL     1       3.466  11.448  21.949  1.00  0.00     0.006 C 
HETATM   27  C10 UNL     1       4.645  10.924  22.325  1.00  0.00     0.001 C 
BRANCH  27  28
HETATM   28  C9  UNL     1       5.670  11.703  22.987  1.00  0.00     0.002 C 
HETATM   29  C7  UNL     1       6.677  12.385  22.403  1.00  0.00    -0.084 C 
HETATM   30  C8  UNL     1       6.954  12.444  20.923  1.00  0.00     0.043 C 
BRANCH  29  31
HETATM   31  C6  UNL     1       7.674  13.145  23.266  1.00  0.00     0.037 C 
BRANCH  31  32
HETATM   32  C5  UNL     1       7.512  14.666  23.170  1.00  0.00     0.031 C 
BRANCH  32  33
HETATM   33  C4  UNL     1       8.499  15.379  24.055  1.00  0.00    -0.024 C 
HETATM   34  C2  UNL     1       8.265  16.426  24.871  1.00  0.00    -0.091 C 
HETATM   35  C1  UNL     1       6.941  17.124  25.022  1.00  0.00     0.042 C 
HETATM   36  C3  UNL     1       9.370  17.006  25.714  1.00  0.00     0.042 C 
ENDBRANCH  32  33
ENDBRANCH  31  32
ENDBRANCH  29  31
ENDBRANCH  27  28
ENDBRANCH  24  26
ENDBRANCH   1  23
BRANCH   8  37
HETATM   37  C26 UNL     1      -4.575  12.946  19.238  1.00  0.00     0.265 C 
HETATM   38  O4  UNL     1      -5.586  13.202  19.886  1.00  0.00    -0.302 OA
ENDBRANCH   8  37
TORSDOF 13
ENDMDL
MODEL 4
REMARK minimizedAffinity -6.36560154
REMARK CNNscore 0.428539991
REMARK CNNaffinity 5.9935379
REMARK  13 active torsions:
REMARK  status: ('A' for Active; 'I' for Inactive)
REMARK    1  A    between atoms: C4_4  and  C5_5 
REMARK    2  A    between atoms: C5_5  and  C6_6 
REMARK    3  A    between atoms: C6_6  and  C7_7 
REMARK    4  A    between atoms: C9_9  and  C10_10 
REMARK    5  A    between atoms: C11_11  and  C12_12 
REMARK    6  A    between atoms: C14_14  and  C15_15 
REMARK    7  A    between atoms: C18_18  and  O1_19 
REMARK    8  A    between atoms: C19_21  and  C20_22 
REMARK    9  A    between atoms: C20_22  and  C21_23 
REMARK   10  A    between atoms: C21_23  and  C22_24 
REMARK   11  A    between atoms: C22_24  and  O3_25 
REMARK   12  A    between atoms: C24_27  and  C26_29 
REMARK   13  A    between atoms: C29_33  and  O5_35 
ROOT
HETATM    1  C15 UNL     1     -15.641   7.735  12.300  1.00  0.00     0.149 C 
HETATM    2  C16 UNL     1     -16.371   8.681  13.266  1.00  0.00     0.054 C 
HETATM    3  C17 UNL     1     -16.837   9.897  12.413  1.00  0.00     0.050 C 
HETATM    4  C18 UNL     1     -16.750   9.274  11.012  1.00  0.00     0.270 C 
HETATM    5  O2  UNL     1     -15.617   8.411  11.041  1.00  0.00    -0.351 OA
HETATM    6  C19 UNL     1     -18.303  10.307  12.845  1.00  0.00     0.032 C 
HETATM    7  C23 UNL     1     -18.261  10.878  14.277  1.00  0.00    -0.066 C 
HETATM    8  C24 UNL     1     -18.951  10.396  15.343  1.00  0.00    -0.021 C 
HETATM    9  C25 UNL     1     -18.807  10.941  16.740  1.00  0.00     0.052 C 
HETATM   10  C27 UNL     1     -17.345  12.084  14.388  1.00  0.00     0.038 C 
HETATM   11  C28 UNL     1     -15.920  11.748  13.968  1.00  0.00     0.042 C 
HETATM   12  C29 UNL     1     -15.828  11.109  12.564  1.00  0.00     0.067 C 
HETATM   13  C30 UNL     1     -14.347  10.800  12.288  1.00  0.00     0.047 C 
ENDROOT
BRANCH   4  14
HETATM   14  O1  UNL     1     -17.858   8.438  10.717  1.00  0.00    -0.370 OA
HETATM   15  H26 UNL     1     -17.690   8.137   9.807  1.00  0.00     0.212 HD
ENDBRANCH   4  14
BRANCH   6  16
HETATM   16  C20 UNL     1     -19.106  11.304  11.961  1.00  0.00     0.012 C 
BRANCH  16  17
HETATM   17  C21 UNL     1     -20.054  10.727  10.902  1.00  0.00     0.027 C 
BRANCH  17  18
HETATM   18  C22 UNL     1     -19.888  11.306   9.500  1.00  0.00     0.164 C 
BRANCH  18  19
HETATM   19  O3  UNL     1     -18.848  10.628   8.809  1.00  0.00    -0.401 OA
HETATM   20  H34 UNL     1     -18.828  10.988   7.904  1.00  0.00     0.209 HD
ENDBRANCH  18  19
ENDBRANCH  17  18
ENDBRANCH  16  17
ENDBRANCH   6  16
BRANCH  12  21
HETATM   21  O5  UNL     1     -16.187  12.114  11.601  1.00  0.00    -0.389 OA
HETATM   22  H46 UNL     1     -15.577  12.867  11.698  1.00  0.00     0.210 HD
ENDBRANCH  12  21
BRANCH   1  23
HETATM   23  C14 UNL     1     -14.270   7.331  12.779  1.00  0.00     0.011 C 
HETATM   24  C12 UNL     1     -13.899   6.496  13.775  1.00  0.00    -0.063 C 
HETATM   25  C13 UNL     1     -14.867   5.840  14.727  1.00  0.00     0.048 C 
BRANCH  24  26
HETATM   26  C11 UNL     1     -12.468   6.245  13.974  1.00  0.00     0.006 C 
HETATM   27  C10 UNL     1     -11.451   6.927  13.419  1.00  0.00     0.001 C 
BRANCH  27  28
HETATM   28  C9  UNL     1     -10.063   6.601  13.671  1.00  0.00     0.002 C 
HETATM   29  C7  UNL     1      -9.134   6.242  12.761  1.00  0.00    -0.084 C 
HETATM   30  C8  UNL     1      -9.373   6.077  11.282  1.00  0.00     0.043 C 
BRANCH  29  31
HETATM   31  C6  UNL     1      -7.717   5.924  13.214  1.00  0.00     0.037 C 
BRANCH  31  32
HETATM   32  C5  UNL     1      -7.583   4.526  13.826  1.00  0.00     0.031 C 
BRANCH  32  33
HETATM   33  C4  UNL     1      -7.209   3.505  12.785  1.00  0.00    -0.024 C 
HETATM   34  C2  UNL     1      -5.980   3.238  12.301  1.00  0.00    -0.091 C 
HETATM   35  C1  UNL     1      -4.721   3.962  12.692  1.00  0.00     0.042 C 
HETATM   36  C3  UNL     1      -5.778   2.155  11.273  1.00  0.00     0.042 C 
ENDBRANCH  32  33
ENDBRANCH  31  32
ENDBRANCH  29  31
ENDBRANCH  27  28
ENDBRANCH  24  26
ENDBRANCH   1  23
BRANCH   8  37
HETATM   37  C26 UNL     1     -19.936   9.278  15.210  1.00  0.00     0.265 C 
HETATM   38  O4  UNL     1     -20.216   8.758  14.135  1.00  0.00    -0.302 OA
ENDBRANCH   8  37
TORSDOF 13
ENDMDL
MODEL 5
REMARK minimizedAffinity -6.28511
REMARK CNNscore 0.420606375
REMARK CNNaffinity 6.25810623
REMARK  13 active torsions:
REMARK  status: ('A' for Active; 'I' for Inactive)
REMARK    1  A    between atoms: C4_4  and  C5_5 
REMARK    2  A    between atoms: C5_5  and  C6_6 
REMARK    3  A    between atoms: C6_6  and  C7_7 
REMARK    4  A    between atoms: C9_9  and  C10_10 
REMARK    5  A    between atoms: C11_11  and  C12_12 
REMARK    6  A    between atoms: C14_14  and  C15_15 
REMARK    7  A    between atoms: C18_18  and  O1_19 
REMARK    8  A    between atoms: C19_21  and  C20_22 
REMARK    9  A    between atoms: C20_22  and  C21_23 
REMARK   10  A    between atoms: C21_23  and  C22_24 
REMARK   11  A    between atoms: C22_24  and  O3_25 
REMARK   12  A    between atoms: C24_27  and  C26_29 
REMARK   13  A    between atoms: C29_33  and  O5_35 
ROOT
HETATM    1  C15 UNL     1      -9.690   8.058  15.756  1.00  0.00     0.149 C 
HETATM    2  C16 UNL     1     -10.147   8.942  16.926  1.00  0.00     0.054 C 
HETATM    3  C17 UNL     1     -11.377   9.742  16.411  1.00  0.00     0.050 C 
HETATM    4  C18 UNL     1     -11.761   8.872  15.205  1.00  0.00     0.270 C 
HETATM    5  O2  UNL     1     -10.531   8.408  14.656  1.00  0.00    -0.351 OA
HETATM    6  C19 UNL     1     -12.480   9.792  17.545  1.00  0.00     0.032 C 
HETATM    7  C23 UNL     1     -11.961  10.660  18.709  1.00  0.00    -0.066 C 
HETATM    8  C24 UNL     1     -11.812  10.251  19.996  1.00  0.00    -0.021 C 
HETATM    9  C25 UNL     1     -11.219  11.116  21.079  1.00  0.00     0.052 C 
HETATM   10  C27 UNL     1     -11.624  12.073  18.268  1.00  0.00     0.038 C 
HETATM   11  C28 UNL     1     -10.576  12.083  17.164  1.00  0.00     0.042 C 
HETATM   12  C29 UNL     1     -10.951  11.198  15.953  1.00  0.00     0.067 C 
HETATM   13  C30 UNL     1      -9.797  11.281  14.939  1.00  0.00     0.047 C 
ENDROOT
BRANCH   4  14
HETATM   14  O1  UNL     1     -12.475   7.705  15.580  1.00  0.00    -0.370 OA
HETATM   15  H26 UNL     1     -12.673   7.268  14.733  1.00  0.00     0.212 HD
ENDBRANCH   4  14
BRANCH   6  16
HETATM   16  C20 UNL     1     -13.914  10.284  17.191  1.00  0.00     0.012 C 
BRANCH  16  17
HETATM   17  C21 UNL     1     -14.893  10.540  18.343  1.00  0.00     0.027 C 
BRANCH  17  18
HETATM   18  C22 UNL     1     -16.155  11.310  17.961  1.00  0.00     0.164 C 
BRANCH  18  19
HETATM   19  O3  UNL     1     -16.582  12.121  19.047  1.00  0.00    -0.401 OA
HETATM   20  H34 UNL     1     -17.344  12.638  18.732  1.00  0.00     0.209 HD
ENDBRANCH  18  19
ENDBRANCH  17  18
ENDBRANCH  16  17
ENDBRANCH   6  16
BRANCH  12  21
HETATM   21  O5  UNL     1     -12.073  11.808  15.295  1.00  0.00    -0.389 OA
HETATM   22  H46 UNL     1     -11.820  12.709  15.022  1.00  0.00     0.210 HD
ENDBRANCH  12  21
BRANCH   1  23
HETATM   23  C14 UNL     1      -8.221   8.191  15.442  1.00  0.00     0.011 C 
HETATM   24  C12 UNL     1      -7.419   7.436  14.659  1.00  0.00    -0.063 C 
HETATM   25  C13 UNL     1      -7.861   6.165  13.981  1.00  0.00     0.048 C 
BRANCH  24  26
HETATM   26  C11 UNL     1      -6.022   7.850  14.492  1.00  0.00     0.006 C 
HETATM   27  C10 UNL     1      -5.389   8.080  13.329  1.00  0.00     0.001 C 
BRANCH  27  28
HETATM   28  C9  UNL     1      -3.999   8.480  13.262  1.00  0.00     0.002 C 
HETATM   29  C7  UNL     1      -2.925   7.673  13.130  1.00  0.00    -0.084 C 
HETATM   30  C8  UNL     1      -2.964   6.169  13.056  1.00  0.00     0.043 C 
BRANCH  29  31
HETATM   31  C6  UNL     1      -1.529   8.276  13.088  1.00  0.00     0.037 C 
BRANCH  31  32
HETATM   32  C5  UNL     1      -1.139   8.787  11.697  1.00  0.00     0.031 C 
BRANCH  32  33
HETATM   33  C4  UNL     1      -0.013   7.977  11.111  1.00  0.00    -0.024 C 
HETATM   34  C2  UNL     1       0.344   7.885   9.815  1.00  0.00    -0.091 C 
HETATM   35  C1  UNL     1      -0.364   8.561   8.673  1.00  0.00     0.042 C 
HETATM   36  C3  UNL     1       1.523   7.043   9.401  1.00  0.00     0.042 C 
ENDBRANCH  32  33
ENDBRANCH  31  32
ENDBRANCH  29  31
ENDBRANCH  27  28
ENDBRANCH  24  26
ENDBRANCH   1  23
BRANCH   8  37
HETATM   37  C26 UNL     1     -12.247   8.895  20.453  1.00  0.00     0.265 C 
HETATM   38  O4  UNL     1     -12.238   8.551  21.631  1.00  0.00    -0.302 OA
ENDBRANCH   8  37
TORSDOF 13
ENDMDL
MODEL 6
REMARK minimizedAffinity -6.87551641
REMARK CNNscore 0.40962261
REMARK CNNaffinity 6.07485247
REMARK  13 active torsions:
REMARK  status: ('A' for Active; 'I' for Inactive)
REMARK    1  A    between atoms: C4_4  and  C5_5 
REMARK    2  A    between atoms: C5_5  and  C6_6 
REMARK    3  A    between atoms: C6_6  and  C7_7 
REMARK    4  A    between atoms: C9_9  and  C10_10 
REMARK    5  A    between atoms: C11_11  and  C12_12 
REMARK    6  A    between atoms: C14_14  and  C15_15 
REMARK    7  A    between atoms: C18_18  and  O1_19 
REMARK    8  A    between atoms: C19_21  and  C20_22 
REMARK    9  A    between atoms: C20_22  and  C21_23 
REMARK   10  A    between atoms: C21_23  and  C22_24 
REMARK   11  A    between atoms: C22_24  and  O3_25 
REMARK   12  A    between atoms: C24_27  and  C26_29 
REMARK   13  A    between atoms: C29_33  and  O5_35 
ROOT
HETATM    1  C15 UNL     1       3.399   8.285  11.445  1.00  0.00     0.149 C 
HETATM    2  C16 UNL     1       4.270   9.220  12.298  1.00  0.00     0.054 C 
HETATM    3  C17 UNL     1       5.195   8.299  13.145  1.00  0.00     0.050 C 
HETATM    4  C18 UNL     1       5.084   7.004  12.327  1.00  0.00     0.270 C 
HETATM    5  O2  UNL     1       3.741   6.960  11.853  1.00  0.00    -0.351 OA
HETATM    6  C19 UNL     1       6.653   8.914  13.181  1.00  0.00     0.032 C 
HETATM    7  C23 UNL     1       6.623  10.224  13.994  1.00  0.00    -0.066 C 
HETATM    8  C24 UNL     1       6.992  11.449  13.538  1.00  0.00    -0.021 C 
HETATM    9  C25 UNL     1       6.862  12.712  14.350  1.00  0.00     0.052 C 
HETATM   10  C27 UNL     1       6.130  10.008  15.414  1.00  0.00     0.038 C 
HETATM   11  C28 UNL     1       4.733   9.401  15.438  1.00  0.00     0.042 C 
HETATM   12  C29 UNL     1       4.613   8.105  14.605  1.00  0.00     0.067 C 
HETATM   13  C30 UNL     1       3.154   7.626  14.696  1.00  0.00     0.047 C 
ENDROOT
BRANCH   4  14
HETATM   14  O1  UNL     1       5.897   7.023  11.164  1.00  0.00    -0.370 OA
HETATM   15  H26 UNL     1       5.752   6.148  10.762  1.00  0.00     0.212 HD
ENDBRANCH   4  14
BRANCH   6  16
HETATM   16  C20 UNL     1       7.830   8.050  13.718  1.00  0.00     0.012 C 
BRANCH  16  17
HETATM   17  C21 UNL     1       8.731   8.653  14.802  1.00  0.00     0.027 C 
BRANCH  17  18
HETATM   18  C22 UNL     1       9.001   7.744  15.999  1.00  0.00     0.164 C 
BRANCH  18  19
HETATM   19  O3  UNL     1       9.530   8.501  17.080  1.00  0.00    -0.401 OA
HETATM   20  H34 UNL     1       9.621   7.891  17.834  1.00  0.00     0.209 HD
ENDBRANCH  18  19
ENDBRANCH  17  18
ENDBRANCH  16  17
ENDBRANCH   6  16
BRANCH  12  21
HETATM   21  O5  UNL     1       5.383   7.087  15.264  1.00  0.00    -0.389 OA
HETATM   22  H46 UNL     1       5.037   6.972  16.167  1.00  0.00     0.210 HD
ENDBRANCH  12  21
BRANCH   1  23
HETATM   23  C14 UNL     1       1.923   8.574  11.555  1.00  0.00     0.011 C 
HETATM   24  C12 UNL     1       0.909   8.298  10.706  1.00  0.00    -0.063 C 
HETATM   25  C13 UNL     1       1.098   7.689   9.340  1.00  0.00     0.048 C 
BRANCH  24  26
HETATM   26  C11 UNL     1      -0.455   8.653  11.114  1.00  0.00     0.006 C 
HETATM   27  C10 UNL     1      -1.107   8.202  12.199  1.00  0.00     0.001 C 
BRANCH  27  28
HETATM   28  C9  UNL     1      -2.462   8.604  12.518  1.00  0.00     0.002 C 
HETATM   29  C7  UNL     1      -3.445   7.826  13.015  1.00  0.00    -0.084 C 
HETATM   30  C8  UNL     1      -3.333   6.352  13.311  1.00  0.00     0.043 C 
BRANCH  29  31
HETATM   31  C6  UNL     1      -4.819   8.424  13.281  1.00  0.00     0.037 C 
BRANCH  31  32
HETATM   32  C5  UNL     1      -5.171   8.474  14.772  1.00  0.00     0.031 C 
BRANCH  32  33
HETATM   33  C4  UNL     1      -4.547   9.669  15.442  1.00  0.00    -0.024 C 
HETATM   34  C2  UNL     1      -3.395   9.711  16.141  1.00  0.00    -0.091 C 
HETATM   35  C1  UNL     1      -2.514   8.524  16.427  1.00  0.00     0.042 C 
HETATM   36  C3  UNL     1      -2.898  11.006  16.727  1.00  0.00     0.042 C 
ENDBRANCH  32  33
ENDBRANCH  31  32
ENDBRANCH  29  31
ENDBRANCH  27  28
ENDBRANCH  24  26
ENDBRANCH   1  23
BRANCH   8  37
HETATM   37  C26 UNL     1       7.581  11.644  12.176  1.00  0.00     0.265 C 
HETATM   38  O4  UNL     1       8.760  11.421  11.920  1.00  0.00    -0.302 OA
ENDBRANCH   8  37
TORSDOF 13
ENDMDL
MODEL 7
REMARK minimizedAffinity -8.24324989
REMARK CNNscore 0.362075537
REMARK CNNaffinity 6.55169916
REMARK  13 active torsions:
REMARK  status: ('A' for Active; 'I' for Inactive)
REMARK    1  A    between atoms: C4_4  and  C5_5 
REMARK    2  A    between atoms: C5_5  and  C6_6 
REMARK    3  A    between atoms: C6_6  and  C7_7 
REMARK    4  A    between atoms: C9_9  and  C10_10 
REMARK    5  A    between atoms: C11_11  and  C12_12 
REMARK    6  A    between atoms: C14_14  and  C15_15 
REMARK    7  A    between atoms: C18_18  and  O1_19 
REMARK    8  A    between atoms: C19_21  and  C20_22 
REMARK    9  A    between atoms: C20_22  and  C21_23 
REMARK   10  A    between atoms: C21_23  and  C22_24 
REMARK   11  A    between atoms: C22_24  and  O3_25 
REMARK   12  A    between atoms: C24_27  and  C26_29 
REMARK   13  A    between atoms: C29_33  and  O5_35 
ROOT
HETATM    1  C15 UNL     1      -2.324   5.712  14.045  1.00  0.00     0.149 C 
HETATM    2  C16 UNL     1      -1.416   6.133  12.879  1.00  0.00     0.054 C 
HETATM    3  C17 UNL     1      -0.602   7.359  13.384  1.00  0.00     0.050 C 
HETATM    4  C18 UNL     1      -0.783   7.180  14.899  1.00  0.00     0.270 C 
HETATM    5  O2  UNL     1      -2.105   6.679  15.073  1.00  0.00    -0.351 OA
HETATM    6  C19 UNL     1       0.898   7.227  12.896  1.00  0.00     0.032 C 
HETATM    7  C23 UNL     1       0.940   7.386  11.362  1.00  0.00    -0.066 C 
HETATM    8  C24 UNL     1       1.423   6.469  10.484  1.00  0.00    -0.021 C 
HETATM    9  C25 UNL     1       1.362   6.640   8.988  1.00  0.00     0.052 C 
HETATM   10  C27 UNL     1       0.375   8.719  10.906  1.00  0.00     0.038 C 
HETATM   11  C28 UNL     1      -1.066   8.905  11.364  1.00  0.00     0.042 C 
HETATM   12  C29 UNL     1      -1.256   8.713  12.886  1.00  0.00     0.067 C 
HETATM   13  C30 UNL     1      -2.751   8.900  13.197  1.00  0.00     0.047 C 
ENDROOT
BRANCH   4  14
HETATM   14  O1  UNL     1       0.074   6.186  15.436  1.00  0.00    -0.370 OA
HETATM   15  H26 UNL     1      -0.123   6.195  16.389  1.00  0.00     0.212 HD
ENDBRANCH   4  14
BRANCH   6  16
HETATM   16  C20 UNL     1       1.980   8.168  13.499  1.00  0.00     0.012 C 
BRANCH  16  17
HETATM   17  C21 UNL     1       3.085   8.686  12.570  1.00  0.00     0.027 C 
BRANCH  17  18
HETATM   18  C22 UNL     1       4.477   8.124  12.844  1.00  0.00     0.164 C 
BRANCH  18  19
HETATM   19  O3  UNL     1       4.457   7.310  14.008  1.00  0.00    -0.401 OA
HETATM   20  H34 UNL     1       5.347   6.925  14.100  1.00  0.00     0.209 HD
ENDBRANCH  18  19
ENDBRANCH  17  18
ENDBRANCH  16  17
ENDBRANCH   6  16
BRANCH  12  21
HETATM   21  O5  UNL     1      -0.596   9.802  13.552  1.00  0.00    -0.389 OA
HETATM   22  H46 UNL     1      -0.986  10.638  13.239  1.00  0.00     0.210 HD
ENDBRANCH  12  21
BRANCH   1  23
HETATM   23  C14 UNL     1      -3.775   5.581  13.657  1.00  0.00     0.011 C 
HETATM   24  C12 UNL     1      -4.439   4.558  13.073  1.00  0.00    -0.063 C 
HETATM   25  C13 UNL     1      -3.774   3.300  12.575  1.00  0.00     0.048 C 
BRANCH  24  26
HETATM   26  C11 UNL     1      -5.885   4.695  12.868  1.00  0.00     0.006 C 
HETATM   27  C10 UNL     1      -6.634   5.775  13.151  1.00  0.00     0.001 C 
BRANCH  27  28
HETATM   28  C9  UNL     1      -8.063   5.816  12.920  1.00  0.00     0.002 C 
HETATM   29  C7  UNL     1      -8.988   6.461  13.659  1.00  0.00    -0.084 C 
HETATM   30  C8  UNL     1      -8.713   7.254  14.911  1.00  0.00     0.043 C 
BRANCH  29  31
HETATM   31  C6  UNL     1     -10.456   6.383  13.267  1.00  0.00     0.037 C 
BRANCH  31  32
HETATM   32  C5  UNL     1     -11.277   7.571  13.780  1.00  0.00     0.031 C 
BRANCH  32  33
HETATM   33  C4  UNL     1     -12.587   7.690  13.048  1.00  0.00    -0.024 C 
HETATM   34  C2  UNL     1     -13.727   7.014  13.289  1.00  0.00    -0.091 C 
HETATM   35  C1  UNL     1     -13.896   5.951  14.341  1.00  0.00     0.042 C 
HETATM   36  C3  UNL     1     -14.964   7.277  12.471  1.00  0.00     0.042 C 
ENDBRANCH  32  33
ENDBRANCH  31  32
ENDBRANCH  29  31
ENDBRANCH  27  28
ENDBRANCH  24  26
ENDBRANCH   1  23
BRANCH   8  37
HETATM   37  C26 UNL     1       2.080   5.204  10.939  1.00  0.00     0.265 C 
HETATM   38  O4  UNL     1       1.477   4.141  11.051  1.00  0.00    -0.302 OA
ENDBRANCH   8  37
TORSDOF 13
ENDMDL
MODEL 8
REMARK minimizedAffinity -6.5641942
REMARK CNNscore 0.348438382
REMARK CNNaffinity 5.87359428
REMARK  13 active torsions:
REMARK  status: ('A' for Active; 'I' for Inactive)
REMARK    1  A    between atoms: C4_4  and  C5_5 
REMARK    2  A    between atoms: C5_5  and  C6_6 
REMARK    3  A    between atoms: C6_6  and  C7_7 
REMARK    4  A    between atoms: C9_9  and  C10_10 
REMARK    5  A    between atoms: C11_11  and  C12_12 
REMARK    6  A    between atoms: C14_14  and  C15_15 
REMARK    7  A    between atoms: C18_18  and  O1_19 
REMARK    8  A    between atoms: C19_21  and  C20_22 
REMARK    9  A    between atoms: C20_22  and  C21_23 
REMARK   10  A    between atoms: C21_23  and  C22_24 
REMARK   11  A    between atoms: C22_24  and  O3_25 
REMARK   12  A    between atoms: C24_27  and  C26_29 
REMARK   13  A    between atoms: C29_33  and  O5_35 
ROOT
HETATM    1  C15 UNL     1      -2.226   9.146  14.223  1.00  0.00     0.149 C 
HETATM    2  C16 UNL     1      -1.075   8.664  13.327  1.00  0.00     0.054 C 
HETATM    3  C17 UNL     1      -1.055   7.112  13.444  1.00  0.00     0.050 C 
HETATM    4  C18 UNL     1      -2.472   6.878  13.986  1.00  0.00     0.270 C 
HETATM    5  O2  UNL     1      -2.738   7.973  14.858  1.00  0.00    -0.351 OA
HETATM    6  C19 UNL     1      -0.802   6.485  12.013  1.00  0.00     0.032 C 
HETATM    7  C23 UNL     1       0.636   6.821  11.566  1.00  0.00    -0.066 C 
HETATM    8  C24 UNL     1       0.977   7.498  10.439  1.00  0.00    -0.021 C 
HETATM    9  C25 UNL     1       2.394   7.874  10.093  1.00  0.00     0.052 C 
HETATM   10  C27 UNL     1       1.677   6.299  12.539  1.00  0.00     0.038 C 
HETATM   11  C28 UNL     1       1.471   6.861  13.939  1.00  0.00     0.042 C 
HETATM   12  C29 UNL     1       0.042   6.639  14.485  1.00  0.00     0.067 C 
HETATM   13  C30 UNL     1      -0.028   7.278  15.882  1.00  0.00     0.047 C 
ENDROOT
BRANCH   4  14
HETATM   14  O1  UNL     1      -3.462   6.950  12.973  1.00  0.00    -0.370 OA
HETATM   15  H26 UNL     1      -4.293   6.761  13.442  1.00  0.00     0.212 HD
ENDBRANCH   4  14
BRANCH   6  16
HETATM   16  C20 UNL     1      -1.017   4.958  11.802  1.00  0.00     0.012 C 
BRANCH  16  17
HETATM   17  C21 UNL     1      -2.029   4.513  10.739  1.00  0.00     0.027 C 
BRANCH  17  18
HETATM   18  C22 UNL     1      -2.684   3.158  10.996  1.00  0.00     0.164 C 
BRANCH  18  19
HETATM   19  O3  UNL     1      -3.989   3.130  10.434  1.00  0.00    -0.401 OA
HETATM   20  H34 UNL     1      -4.335   2.229  10.566  1.00  0.00     0.209 HD
ENDBRANCH  18  19
ENDBRANCH  17  18
ENDBRANCH  16  17
ENDBRANCH   6  16
BRANCH  12  21
HETATM   21  O5  UNL     1      -0.129   5.230  14.708  1.00  0.00    -0.389 OA
HETATM   22  H46 UNL     1       0.551   4.932  15.339  1.00  0.00     0.210 HD
ENDBRANCH  12  21
BRANCH   1  23
HETATM   23  C14 UNL     1      -1.815  10.216  15.203  1.00  0.00     0.011 C 
HETATM   24  C12 UNL     1      -2.564  11.007  16.003  1.00  0.00    -0.063 C 
HETATM   25  C13 UNL     1      -4.071  11.034  15.987  1.00  0.00     0.048 C 
BRANCH  24  26
HETATM   26  C11 UNL     1      -1.873  11.931  16.909  1.00  0.00     0.006 C 
HETATM   27  C10 UNL     1      -0.815  11.645  17.688  1.00  0.00     0.001 C 
BRANCH  27  28
HETATM   28  C9  UNL     1      -0.201  12.625  18.560  1.00  0.00     0.002 C 
HETATM   29  C7  UNL     1       0.494  12.384  19.691  1.00  0.00    -0.084 C 
HETATM   30  C8  UNL     1       0.744  11.026  20.294  1.00  0.00     0.043 C 
BRANCH  29  31
HETATM   31  C6  UNL     1       1.061  13.548  20.490  1.00  0.00     0.037 C 
BRANCH  31  32
HETATM   32  C5  UNL     1       2.300  13.165  21.307  1.00  0.00     0.031 C 
BRANCH  32  33
HETATM   33  C4  UNL     1       2.455  14.051  22.515  1.00  0.00    -0.024 C 
HETATM   34  C2  UNL     1       3.561  14.711  22.913  1.00  0.00    -0.091 C 
HETATM   35  C1  UNL     1       4.899  14.648  22.227  1.00  0.00     0.042 C 
HETATM   36  C3  UNL     1       3.535  15.583  24.141  1.00  0.00     0.042 C 
ENDBRANCH  32  33
ENDBRANCH  31  32
ENDBRANCH  29  31
ENDBRANCH  27  28
ENDBRANCH  24  26
ENDBRANCH   1  23
BRANCH   8  37
HETATM   37  C26 UNL     1      -0.042   7.916   9.426  1.00  0.00     0.265 C 
HETATM   38  O4  UNL     1       0.041   8.961   8.787  1.00  0.00    -0.302 OA
ENDBRANCH   8  37
TORSDOF 13
ENDMDL
MODEL 9
REMARK minimizedAffinity -7.2697711
REMARK CNNscore 0.32919544
REMARK CNNaffinity 6.04475021
REMARK  13 active torsions:
REMARK  status: ('A' for Active; 'I' for Inactive)
REMARK    1  A    between atoms: C4_4  and  C5_5 
REMARK    2  A    between atoms: C5_5  and  C6_6 
REMARK    3  A    between atoms: C6_6  and  C7_7 
REMARK    4  A    between atoms: C9_9  and  C10_10 
REMARK    5  A    between atoms: C11_11  and  C12_12 
REMARK    6  A    between atoms: C14_14  and  C15_15 
REMARK    7  A    between atoms: C18_18  and  O1_19 
REMARK    8  A    between atoms: C19_21  and  C20_22 
REMARK    9  A    between atoms: C20_22  and  C21_23 
REMARK   10  A    between atoms: C21_23  and  C22_24 
REMARK   11  A    between atoms: C22_24  and  O3_25 
REMARK   12  A    between atoms: C24_27  and  C26_29 
REMARK   13  A    between atoms: C29_33  and  O5_35 
ROOT
HETATM    1  C15 UNL     1       4.546   7.631  11.635  1.00  0.00     0.149 C 
HETATM    2  C16 UNL     1       4.709   8.948  12.410  1.00  0.00     0.054 C 
HETATM    3  C17 UNL     1       5.699   8.647  13.572  1.00  0.00     0.050 C 
HETATM    4  C18 UNL     1       6.343   7.362  13.033  1.00  0.00     0.270 C 
HETATM    5  O2  UNL     1       5.302   6.660  12.360  1.00  0.00    -0.351 OA
HETATM    6  C19 UNL     1       6.707   9.858  13.724  1.00  0.00     0.032 C 
HETATM    7  C23 UNL     1       5.934  11.092  14.231  1.00  0.00    -0.066 C 
HETATM    8  C24 UNL     1       5.854  12.292  13.600  1.00  0.00    -0.021 C 
HETATM    9  C25 UNL     1       5.014  13.439  14.098  1.00  0.00     0.052 C 
HETATM   10  C27 UNL     1       5.249  10.834  15.561  1.00  0.00     0.038 C 
HETATM   11  C28 UNL     1       4.276   9.666  15.476  1.00  0.00     0.042 C 
HETATM   12  C29 UNL     1       4.916   8.373  14.922  1.00  0.00     0.067 C 
HETATM   13  C30 UNL     1       3.819   7.297  14.864  1.00  0.00     0.047 C 
ENDROOT
BRANCH   4  14
HETATM   14  O1  UNL     1       7.328   7.619  12.045  1.00  0.00    -0.370 OA
HETATM   15  H26 UNL     1       7.666   6.736  11.815  1.00  0.00     0.212 HD
ENDBRANCH   4  14
BRANCH   6  16
HETATM   16  C20 UNL     1       7.969   9.689  14.618  1.00  0.00     0.012 C 
BRANCH  16  17
HETATM   17  C21 UNL     1       8.605   8.296  14.712  1.00  0.00     0.027 C 
BRANCH  17  18
HETATM   18  C22 UNL     1       9.463   8.059  15.952  1.00  0.00     0.164 C 
BRANCH  18  19
HETATM   19  O3  UNL     1       8.662   7.563  17.016  1.00  0.00    -0.401 OA
HETATM   20  H34 UNL     1       9.263   7.366  17.755  1.00  0.00     0.209 HD
ENDBRANCH  18  19
ENDBRANCH  17  18
ENDBRANCH  16  17
ENDBRANCH   6  16
BRANCH  12  21
HETATM   21  O5  UNL     1       5.857   7.897  15.897  1.00  0.00    -0.389 OA
HETATM   22  H46 UNL     1       5.383   7.738  16.733  1.00  0.00     0.210 HD
ENDBRANCH  12  21
BRANCH   1  23
HETATM   23  C14 UNL     1       3.107   7.228  11.433  1.00  0.00     0.011 C 
HETATM   24  C12 UNL     1       2.490   6.682  10.362  1.00  0.00    -0.063 C 
HETATM   25  C13 UNL     1       3.162   6.449   9.033  1.00  0.00     0.048 C 
BRANCH  24  26
HETATM   26  C11 UNL     1       1.069   6.337  10.479  1.00  0.00     0.006 C 
HETATM   27  C10 UNL     1       0.407   6.050  11.613  1.00  0.00     0.001 C 
BRANCH  27  28
HETATM   28  C9  UNL     1      -1.001   5.712  11.630  1.00  0.00     0.002 C 
HETATM   29  C7  UNL     1      -1.541   4.475  11.616  1.00  0.00    -0.084 C 
HETATM   30  C8  UNL     1      -0.769   3.183  11.545  1.00  0.00     0.043 C 
BRANCH  29  31
HETATM   31  C6  UNL     1      -3.053   4.312  11.628  1.00  0.00     0.037 C 
BRANCH  31  32
HETATM   32  C5  UNL     1      -3.624   4.131  13.038  1.00  0.00     0.031 C 
BRANCH  32  33
HETATM   33  C4  UNL     1      -5.048   4.614  13.120  1.00  0.00    -0.024 C 
HETATM   34  C2  UNL     1      -6.155   3.988  12.674  1.00  0.00    -0.091 C 
HETATM   35  C1  UNL     1      -6.170   2.668  11.952  1.00  0.00     0.042 C 
HETATM   36  C3  UNL     1      -7.516   4.606  12.863  1.00  0.00     0.042 C 
ENDBRANCH  32  33
ENDBRANCH  31  32
ENDBRANCH  29  31
ENDBRANCH  27  28
ENDBRANCH  24  26
ENDBRANCH   1  23
BRANCH   8  37
HETATM   37  C26 UNL     1       6.618  12.581  12.346  1.00  0.00     0.265 C 
HETATM   38  O4  UNL     1       7.832  12.756  12.328  1.00  0.00    -0.302 OA
ENDBRANCH   8  37
TORSDOF 13
ENDMDL
