MODEL 1
REMARK minimizedAffinity -8.68911934
REMARK  8 active torsions:
REMARK  status: ('A' for Active; 'I' for Inactive)
REMARK    1  A    between atoms: O1_2  and  C2_3 
REMARK    2  A    between atoms: C5_6  and  N1_7 
REMARK    3  A    between atoms: N1_7  and  C6_8 
REMARK    4  A    between atoms: C16_25  and  O4_26 
REMARK    5  A    between atoms: O4_26  and  C17_27 
REMARK    6  A    between atoms: C17_27  and  C18_28 
REMARK    7  A    between atoms: C18_28  and  C19_29 
REMARK    8  A    between atoms: C19_29  and  N4_30 
ROOT
HETATM    1  C2  UNL     1       6.144  -6.853  29.341  1.00  0.00     0.102 A 
HETATM    2  C3  UNL     1       7.070  -6.164  30.125  1.00  0.00     0.057 A 
HETATM    3  C4  UNL     1       6.785  -4.865  30.622  1.00  0.00     0.038 A 
HETATM    4  C5  UNL     1       7.644  -4.090  31.427  1.00  0.00     0.119 A 
HETATM    5  N2  UNL     1       7.325  -2.853  31.845  1.00  0.00    -0.338 N 
ATOM      6  H2  UNL     1       7.967  -2.293  32.405  1.00  0.00     0.168 HD
HETATM    7  C13 UNL     1       6.124  -2.398  31.489  1.00  0.00     0.182 A 
HETATM    8  N3  UNL     1       5.223  -3.045  30.740  1.00  0.00    -0.351 N 
ATOM      9  H3  UNL     1       4.322  -2.626  30.507  1.00  0.00     0.166 HD
HETATM   10  C14 UNL     1       5.559  -4.265  30.314  1.00  0.00     0.050 A 
HETATM   11  C15 UNL     1       4.649  -4.961  29.528  1.00  0.00     0.070 A 
HETATM   12  C16 UNL     1       4.920  -6.240  29.033  1.00  0.00     0.104 A 
ENDROOT
BRANCH   4  13
HETATM   13  N1  UNL     1       8.918  -4.564  31.811  1.00  0.00    -0.338 N 
HETATM   14  H5  UNL     1       8.912  -5.579  31.857  1.00  0.00     0.167 HD
BRANCH  13  15
HETATM   15  C6  UNL     1       9.717  -4.027  32.853  1.00  0.00     0.092 A 
HETATM   16  C7  UNL     1       9.611  -4.534  34.168  1.00  0.00     0.063 A 
HETATM   17 CL1  UNL     1       8.411  -5.722  34.552  1.00  0.00    -0.082 Cl
HETATM   18  C8  UNL     1      10.440  -4.076  35.211  1.00  0.00     0.029 A 
HETATM   19  C9  UNL     1      11.411  -3.108  34.964  1.00  0.00     0.041 A 
HETATM   20  C10 UNL     1      11.524  -2.633  33.675  1.00  0.00     0.107 A 
HETATM   21  C11 UNL     1      10.714  -3.077  32.650  1.00  0.00     0.133 A 
HETATM   22  O3  UNL     1      12.425  -1.697  33.268  1.00  0.00    -0.323 OA
HETATM   23  O2  UNL     1      11.021  -2.459  31.472  1.00  0.00    -0.321 OA
HETATM   24  C12 UNL     1      12.117  -1.614  31.863  1.00  0.00     0.352 A 
ENDBRANCH  13  15
ENDBRANCH   4  13
BRANCH   1  25
HETATM   25  O1  UNL     1       6.346  -8.106  28.822  1.00  0.00    -0.353 OA
HETATM   26  C1  UNL     1       7.591  -8.740  29.084  1.00  0.00     0.210 C 
ENDBRANCH   1  25
BRANCH  12  27
HETATM   27  O4  UNL     1       4.057  -6.974  28.260  1.00  0.00    -0.348 OA
BRANCH  27  28
HETATM   28  C17 UNL     1       2.672  -6.640  28.303  1.00  0.00     0.177 C 
BRANCH  28  29
HETATM   29  C18 UNL     1       1.842  -7.895  28.033  1.00  0.00     0.057 C 
BRANCH  29  30
HETATM   30  C19 UNL     1       2.670  -8.988  27.341  1.00  0.00     0.274 C 
BRANCH  30  31
HETATM   31  N4  UNL     1       2.600  -8.899  25.873  1.00  0.00     0.088 N 
HETATM   32  C20 UNL     1       1.276  -8.401  25.454  1.00  0.00     0.272 C 
HETATM   33  C21 UNL     1       0.898  -8.759  24.009  1.00  0.00     0.030 C 
HETATM   34  C22 UNL     1       2.129  -8.885  23.126  1.00  0.00     0.003 C 
HETATM   35  C23 UNL     1       3.106  -9.916  23.695  1.00  0.00     0.030 C 
HETATM   36  C24 UNL     1       2.927 -10.155  25.200  1.00  0.00     0.272 C 
ENDBRANCH  30  31
ENDBRANCH  29  30
ENDBRANCH  28  29
ENDBRANCH  27  28
ENDBRANCH  12  27
TORSDOF 8
ENDMDL
MODEL 2
REMARK minimizedAffinity -8.6284256
REMARK  8 active torsions:
REMARK  status: ('A' for Active; 'I' for Inactive)
REMARK    1  A    between atoms: O1_2  and  C2_3 
REMARK    2  A    between atoms: C5_6  and  N1_7 
REMARK    3  A    between atoms: N1_7  and  C6_8 
REMARK    4  A    between atoms: C16_25  and  O4_26 
REMARK    5  A    between atoms: O4_26  and  C17_27 
REMARK    6  A    between atoms: C17_27  and  C18_28 
REMARK    7  A    between atoms: C18_28  and  C19_29 
REMARK    8  A    between atoms: C19_29  and  N4_30 
ROOT
HETATM    1  C2  UNL     1      10.573  -6.301  30.712  1.00  0.00     0.102 A 
HETATM    2  C3  UNL     1       9.698  -5.382  31.292  1.00  0.00     0.057 A 
HETATM    3  C4  UNL     1       8.381  -5.209  30.792  1.00  0.00     0.038 A 
HETATM    4  C5  UNL     1       7.419  -4.318  31.311  1.00  0.00     0.119 A 
HETATM    5  N2  UNL     1       6.194  -4.181  30.774  1.00  0.00    -0.338 N 
ATOM      6  H2  UNL     1       5.517  -3.514  31.142  1.00  0.00     0.168 HD
HETATM    7  C13 UNL     1       5.912  -4.966  29.734  1.00  0.00     0.182 A 
HETATM    8  N3  UNL     1       6.736  -5.855  29.166  1.00  0.00    -0.351 N 
ATOM      9  H3  UNL     1       6.445  -6.419  28.367  1.00  0.00     0.166 HD
HETATM   10  C14 UNL     1       7.957  -5.967  29.695  1.00  0.00     0.050 A 
HETATM   11  C15 UNL     1       8.840  -6.874  29.124  1.00  0.00     0.070 A 
HETATM   12  C16 UNL     1      10.140  -7.052  29.609  1.00  0.00     0.104 A 
ENDROOT
BRANCH   4  13
HETATM   13  N1  UNL     1       7.709  -3.483  32.411  1.00  0.00    -0.338 N 
HETATM   14  H5  UNL     1       7.207  -2.603  32.322  1.00  0.00     0.167 HD
BRANCH  13  15
HETATM   15  C6  UNL     1       8.997  -3.263  32.962  1.00  0.00     0.092 A 
HETATM   16  C7  UNL     1       9.485  -4.095  33.994  1.00  0.00     0.063 A 
HETATM   17 CL1  UNL     1       8.466  -5.309  34.693  1.00  0.00    -0.082 Cl
HETATM   18  C8  UNL     1      10.787  -3.952  34.514  1.00  0.00     0.029 A 
HETATM   19  C9  UNL     1      11.645  -2.981  34.002  1.00  0.00     0.041 A 
HETATM   20  C10 UNL     1      11.171  -2.186  32.981  1.00  0.00     0.107 A 
HETATM   21  C11 UNL     1       9.896  -2.321  32.469  1.00  0.00     0.133 A 
HETATM   22  O3  UNL     1      11.884  -1.201  32.368  1.00  0.00    -0.323 OA
HETATM   23  O2  UNL     1       9.667  -1.424  31.467  1.00  0.00    -0.321 OA
HETATM   24  C12 UNL     1      10.931  -0.742  31.390  1.00  0.00     0.352 A 
ENDBRANCH  13  15
ENDBRANCH   4  13
BRANCH   1  25
HETATM   25  O1  UNL     1      11.858  -6.524  31.134  1.00  0.00    -0.353 OA
HETATM   26  C1  UNL     1      12.713  -5.397  31.275  1.00  0.00     0.210 C 
ENDBRANCH   1  25
BRANCH  12  27
HETATM   27  O4  UNL     1      11.050  -7.938  29.089  1.00  0.00    -0.348 OA
BRANCH  27  28
HETATM   28  C17 UNL     1      10.739  -9.327  29.147  1.00  0.00     0.177 C 
BRANCH  28  29
HETATM   29  C18 UNL     1      12.030 -10.125  29.335  1.00  0.00     0.057 C 
BRANCH  29  30
HETATM   30  C19 UNL     1      12.907  -9.534  30.448  1.00  0.00     0.274 C 
BRANCH  30  31
HETATM   31  N4  UNL     1      13.955 -10.468  30.891  1.00  0.00     0.088 N 
HETATM   32  C20 UNL     1      13.635 -10.999  32.230  1.00  0.00     0.272 C 
HETATM   33  C21 UNL     1      14.849 -11.535  33.002  1.00  0.00     0.030 C 
HETATM   34  C22 UNL     1      15.919 -12.064  32.060  1.00  0.00     0.003 C 
HETATM   35  C23 UNL     1      16.350 -10.987  31.063  1.00  0.00     0.030 C 
HETATM   36  C24 UNL     1      15.298  -9.889  30.862  1.00  0.00     0.272 C 
ENDBRANCH  30  31
ENDBRANCH  29  30
ENDBRANCH  28  29
ENDBRANCH  27  28
ENDBRANCH  12  27
TORSDOF 8
ENDMDL
MODEL 3
REMARK minimizedAffinity -8.59668446
REMARK  8 active torsions:
REMARK  status: ('A' for Active; 'I' for Inactive)
REMARK    1  A    between atoms: O1_2  and  C2_3 
REMARK    2  A    between atoms: C5_6  and  N1_7 
REMARK    3  A    between atoms: N1_7  and  C6_8 
REMARK    4  A    between atoms: C16_25  and  O4_26 
REMARK    5  A    between atoms: O4_26  and  C17_27 
REMARK    6  A    between atoms: C17_27  and  C18_28 
REMARK    7  A    between atoms: C18_28  and  C19_29 
REMARK    8  A    between atoms: C19_29  and  N4_30 
ROOT
HETATM    1  C2  UNL     1       6.070  -6.794  29.327  1.00  0.00     0.102 A 
HETATM    2  C3  UNL     1       7.004  -6.125  30.121  1.00  0.00     0.057 A 
HETATM    3  C4  UNL     1       6.740  -4.824  30.623  1.00  0.00     0.038 A 
HETATM    4  C5  UNL     1       7.607  -4.070  31.438  1.00  0.00     0.119 A 
HETATM    5  N2  UNL     1       7.309  -2.829  31.861  1.00  0.00    -0.338 N 
ATOM      6  H2  UNL     1       7.957  -2.284  32.428  1.00  0.00     0.168 HD
HETATM    7  C13 UNL     1       6.119  -2.349  31.498  1.00  0.00     0.182 A 
HETATM    8  N3  UNL     1       5.210  -2.976  30.741  1.00  0.00    -0.351 N 
ATOM      9  H3  UNL     1       4.319  -2.539  30.504  1.00  0.00     0.166 HD
HETATM   10  C14 UNL     1       5.527  -4.200  30.310  1.00  0.00     0.050 A 
HETATM   11  C15 UNL     1       4.609  -4.874  29.514  1.00  0.00     0.070 A 
HETATM   12  C16 UNL     1       4.860  -6.156  29.015  1.00  0.00     0.104 A 
ENDROOT
BRANCH   4  13
HETATM   13  N1  UNL     1       8.869  -4.569  31.828  1.00  0.00    -0.338 N 
HETATM   14  H5  UNL     1       8.837  -5.583  31.894  1.00  0.00     0.167 HD
BRANCH  13  15
HETATM   15  C6  UNL     1       9.685  -4.032  32.857  1.00  0.00     0.092 A 
HETATM   16  C7  UNL     1       9.607  -4.544  34.171  1.00  0.00     0.063 A 
HETATM   17 CL1  UNL     1       8.419  -5.739  34.574  1.00  0.00    -0.082 Cl
HETATM   18  C8  UNL     1      10.453  -4.087  35.200  1.00  0.00     0.029 A 
HETATM   19  C9  UNL     1      11.416  -3.113  34.938  1.00  0.00     0.041 A 
HETATM   20  C10 UNL     1      11.502  -2.633  33.649  1.00  0.00     0.107 A 
HETATM   21  C11 UNL     1      10.674  -3.078  32.638  1.00  0.00     0.133 A 
HETATM   22  O3  UNL     1      12.391  -1.692  33.228  1.00  0.00    -0.323 OA
HETATM   23  O2  UNL     1      10.957  -2.454  31.457  1.00  0.00    -0.321 OA
HETATM   24  C12 UNL     1      12.056  -1.606  31.830  1.00  0.00     0.352 A 
ENDBRANCH  13  15
ENDBRANCH   4  13
BRANCH   1  25
HETATM   25  O1  UNL     1       6.252  -8.046  28.802  1.00  0.00    -0.353 OA
HETATM   26  C1  UNL     1       7.094  -8.173  27.664  1.00  0.00     0.210 C 
ENDBRANCH   1  25
BRANCH  12  27
HETATM   27  O4  UNL     1       3.988  -6.870  28.232  1.00  0.00    -0.348 OA
BRANCH  27  28
HETATM   28  C17 UNL     1       2.594  -6.737  28.491  1.00  0.00     0.177 C 
BRANCH  28  29
HETATM   29  C18 UNL     1       1.807  -7.496  27.422  1.00  0.00     0.057 C 
BRANCH  29  30
HETATM   30  C19 UNL     1       2.656  -8.591  26.762  1.00  0.00     0.274 C 
BRANCH  30  31
HETATM   31  N4  UNL     1       2.263  -9.942  27.195  1.00  0.00     0.088 N 
HETATM   32  C20 UNL     1       3.303 -10.921  26.824  1.00  0.00     0.272 C 
HETATM   33  C21 UNL     1       2.801 -12.369  26.735  1.00  0.00     0.030 C 
HETATM   34  C22 UNL     1       1.635 -12.615  27.679  1.00  0.00     0.003 C 
HETATM   35  C23 UNL     1       0.493 -11.634  27.404  1.00  0.00     0.030 C 
HETATM   36  C24 UNL     1       0.951 -10.353  26.694  1.00  0.00     0.272 C 
ENDBRANCH  30  31
ENDBRANCH  29  30
ENDBRANCH  28  29
ENDBRANCH  27  28
ENDBRANCH  12  27
TORSDOF 8
ENDMDL
MODEL 4
REMARK minimizedAffinity -8.53933811
REMARK  8 active torsions:
REMARK  status: ('A' for Active; 'I' for Inactive)
REMARK    1  A    between atoms: O1_2  and  C2_3 
REMARK    2  A    between atoms: C5_6  and  N1_7 
REMARK    3  A    between atoms: N1_7  and  C6_8 
REMARK    4  A    between atoms: C16_25  and  O4_26 
REMARK    5  A    between atoms: O4_26  and  C17_27 
REMARK    6  A    between atoms: C17_27  and  C18_28 
REMARK    7  A    between atoms: C18_28  and  C19_29 
REMARK    8  A    between atoms: C19_29  and  N4_30 
ROOT
HETATM    1  C2  UNL     1       6.176  -6.792  29.049  1.00  0.00     0.102 A 
HETATM    2  C3  UNL     1       7.154  -6.136  29.798  1.00  0.00     0.057 A 
HETATM    3  C4  UNL     1       6.884  -4.891  30.424  1.00  0.00     0.038 A 
HETATM    4  C5  UNL     1       7.796  -4.154  31.207  1.00  0.00     0.119 A 
HETATM    5  N2  UNL     1       7.487  -2.964  31.752  1.00  0.00    -0.338 N 
ATOM      6  H2  UNL     1       8.164  -2.429  32.294  1.00  0.00     0.168 HD
HETATM    7  C13 UNL     1       6.247  -2.522  31.545  1.00  0.00     0.182 A 
HETATM    8  N3  UNL     1       5.295  -3.137  30.833  1.00  0.00    -0.351 N 
ATOM      9  H3  UNL     1       4.366  -2.730  30.718  1.00  0.00     0.166 HD
HETATM   10  C14 UNL     1       5.620  -4.308  30.279  1.00  0.00     0.050 A 
HETATM   11  C15 UNL     1       4.658  -4.969  29.527  1.00  0.00     0.070 A 
HETATM   12  C16 UNL     1       4.913  -6.197  28.907  1.00  0.00     0.104 A 
ENDROOT
BRANCH   4  13
HETATM   13  N1  UNL     1       9.111  -4.614  31.432  1.00  0.00    -0.338 N 
HETATM   14  H5  UNL     1       9.137  -5.630  31.385  1.00  0.00     0.167 HD
BRANCH  13  15
HETATM   15  C6  UNL     1       9.986  -4.145  32.445  1.00  0.00     0.092 A 
HETATM   16  C7  UNL     1      11.178  -3.467  32.102  1.00  0.00     0.063 A 
HETATM   17 CL1  UNL     1      11.652  -3.319  30.443  1.00  0.00    -0.082 Cl
HETATM   18  C8  UNL     1      12.033  -2.923  33.081  1.00  0.00     0.029 A 
HETATM   19  C9  UNL     1      11.711  -3.029  34.433  1.00  0.00     0.041 A 
HETATM   20  C10 UNL     1      10.537  -3.672  34.760  1.00  0.00     0.107 A 
HETATM   21  C11 UNL     1       9.696  -4.207  33.805  1.00  0.00     0.133 A 
HETATM   22  O3  UNL     1      10.075  -3.849  36.028  1.00  0.00    -0.323 OA
HETATM   23  O2  UNL     1       8.602  -4.788  34.378  1.00  0.00    -0.321 OA
HETATM   24  C12 UNL     1       8.833  -4.533  35.774  1.00  0.00     0.352 A 
ENDBRANCH  13  15
ENDBRANCH   4  13
BRANCH   1  25
HETATM   25  O1  UNL     1       6.359  -7.992  28.414  1.00  0.00    -0.353 OA
HETATM   26  C1  UNL     1       7.086  -9.001  29.101  1.00  0.00     0.210 C 
ENDBRANCH   1  25
BRANCH  12  27
HETATM   27  O4  UNL     1       3.999  -6.895  28.159  1.00  0.00    -0.348 OA
BRANCH  27  28
HETATM   28  C17 UNL     1       2.619  -6.578  28.322  1.00  0.00     0.177 C 
BRANCH  28  29
HETATM   29  C18 UNL     1       1.778  -7.820  28.027  1.00  0.00     0.057 C 
BRANCH  29  30
HETATM   30  C19 UNL     1       2.627  -8.955  27.434  1.00  0.00     0.274 C 
BRANCH  30  31
HETATM   31  N4  UNL     1       2.323  -9.198  26.014  1.00  0.00     0.088 N 
HETATM   32  C20 UNL     1       3.506  -8.908  25.181  1.00  0.00     0.272 C 
HETATM   33  C21 UNL     1       3.182  -8.611  23.710  1.00  0.00     0.030 C 
HETATM   34  C22 UNL     1       1.924  -9.336  23.259  1.00  0.00     0.003 C 
HETATM   35  C23 UNL     1       0.736  -8.976  24.152  1.00  0.00     0.030 C 
HETATM   36  C24 UNL     1       1.151  -8.464  25.538  1.00  0.00     0.272 C 
ENDBRANCH  30  31
ENDBRANCH  29  30
ENDBRANCH  28  29
ENDBRANCH  27  28
ENDBRANCH  12  27
TORSDOF 8
ENDMDL
MODEL 5
REMARK minimizedAffinity -8.23874092
REMARK  8 active torsions:
REMARK  status: ('A' for Active; 'I' for Inactive)
REMARK    1  A    between atoms: O1_2  and  C2_3 
REMARK    2  A    between atoms: C5_6  and  N1_7 
REMARK    3  A    between atoms: N1_7  and  C6_8 
REMARK    4  A    between atoms: C16_25  and  O4_26 
REMARK    5  A    between atoms: O4_26  and  C17_27 
REMARK    6  A    between atoms: C17_27  and  C18_28 
REMARK    7  A    between atoms: C18_28  and  C19_29 
REMARK    8  A    between atoms: C19_29  and  N4_30 
ROOT
HETATM    1  C2  UNL     1       4.853  -8.328  27.790  1.00  0.00     0.102 A 
HETATM    2  C3  UNL     1       5.897  -7.627  28.395  1.00  0.00     0.057 A 
HETATM    3  C4  UNL     1       5.662  -6.396  29.063  1.00  0.00     0.038 A 
HETATM    4  C5  UNL     1       6.642  -5.617  29.712  1.00  0.00     0.119 A 
HETATM    5  N2  UNL     1       6.359  -4.444  30.305  1.00  0.00    -0.338 N 
ATOM      6  H2  UNL     1       7.082  -3.878  30.748  1.00  0.00     0.168 HD
HETATM    7  C13 UNL     1       5.082  -4.062  30.284  1.00  0.00     0.182 A 
HETATM    8  N3  UNL     1       4.067  -4.721  29.712  1.00  0.00    -0.351 N 
ATOM      9  H3  UNL     1       3.114  -4.360  29.736  1.00  0.00     0.166 HD
HETATM   10  C14 UNL     1       4.364  -5.875  29.107  1.00  0.00     0.050 A 
HETATM   11  C15 UNL     1       3.335  -6.581  28.497  1.00  0.00     0.070 A 
HETATM   12  C16 UNL     1       3.556  -7.794  27.837  1.00  0.00     0.104 A 
ENDROOT
BRANCH   4  13
HETATM   13  N1  UNL     1       7.996  -6.014  29.740  1.00  0.00    -0.338 N 
HETATM   14  H5  UNL     1       8.219  -6.426  30.643  1.00  0.00     0.167 HD
BRANCH  13  15
HETATM   15  C6  UNL     1       9.090  -5.246  29.265  1.00  0.00     0.092 A 
HETATM   16  C7  UNL     1       9.539  -5.390  27.933  1.00  0.00     0.063 A 
HETATM   17 CL1  UNL     1       8.849  -6.602  26.905  1.00  0.00    -0.082 Cl
HETATM   18  C8  UNL     1      10.573  -4.592  27.406  1.00  0.00     0.029 A 
HETATM   19  C9  UNL     1      11.177  -3.614  28.193  1.00  0.00     0.041 A 
HETATM   20  C10 UNL     1      10.721  -3.463  29.484  1.00  0.00     0.107 A 
HETATM   21  C11 UNL     1       9.708  -4.243  30.006  1.00  0.00     0.133 A 
HETATM   22  O3  UNL     1      11.196  -2.550  30.375  1.00  0.00    -0.323 OA
HETATM   23  O2  UNL     1       9.436  -3.901  31.299  1.00  0.00    -0.321 OA
HETATM   24  C12 UNL     1      10.355  -2.817  31.514  1.00  0.00     0.352 A 
ENDBRANCH  13  15
ENDBRANCH   4  13
BRANCH   1  25
HETATM   25  O1  UNL     1       4.998  -9.517  27.126  1.00  0.00    -0.353 OA
HETATM   26  C1  UNL     1       6.316 -10.018  26.944  1.00  0.00     0.210 C 
ENDBRANCH   1  25
BRANCH  12  27
HETATM   27  O4  UNL     1       2.577  -8.535  27.224  1.00  0.00    -0.348 OA
BRANCH  27  28
HETATM   28  C17 UNL     1       1.650  -7.853  26.384  1.00  0.00     0.177 C 
BRANCH  28  29
HETATM   29  C18 UNL     1       1.726  -8.436  24.972  1.00  0.00     0.057 C 
BRANCH  29  30
HETATM   30  C19 UNL     1       0.330  -8.725  24.400  1.00  0.00     0.274 C 
BRANCH  30  31
HETATM   31  N4  UNL     1      -0.010  -7.836  23.277  1.00  0.00     0.088 N 
HETATM   32  C20 UNL     1      -1.371  -7.293  23.448  1.00  0.00     0.272 C 
HETATM   33  C21 UNL     1      -2.024  -6.810  22.146  1.00  0.00     0.030 C 
HETATM   34  C22 UNL     1      -0.985  -6.326  21.147  1.00  0.00     0.003 C 
HETATM   35  C23 UNL     1       0.044  -7.420  20.856  1.00  0.00     0.030 C 
HETATM   36  C24 UNL     1       0.142  -8.472  21.968  1.00  0.00     0.272 C 
ENDBRANCH  30  31
ENDBRANCH  29  30
ENDBRANCH  28  29
ENDBRANCH  27  28
ENDBRANCH  12  27
TORSDOF 8
ENDMDL
MODEL 6
REMARK minimizedAffinity -8.05190754
REMARK  8 active torsions:
REMARK  status: ('A' for Active; 'I' for Inactive)
REMARK    1  A    between atoms: O1_2  and  C2_3 
REMARK    2  A    between atoms: C5_6  and  N1_7 
REMARK    3  A    between atoms: N1_7  and  C6_8 
REMARK    4  A    between atoms: C16_25  and  O4_26 
REMARK    5  A    between atoms: O4_26  and  C17_27 
REMARK    6  A    between atoms: C17_27  and  C18_28 
REMARK    7  A    between atoms: C18_28  and  C19_29 
REMARK    8  A    between atoms: C19_29  and  N4_30 
ROOT
HETATM    1  C2  UNL     1       5.961  -7.911  28.618  1.00  0.00     0.102 A 
HETATM    2  C3  UNL     1       6.711  -7.193  29.550  1.00  0.00     0.057 A 
HETATM    3  C4  UNL     1       6.318  -5.893  29.962  1.00  0.00     0.038 A 
HETATM    4  C5  UNL     1       6.998  -5.090  30.901  1.00  0.00     0.119 A 
HETATM    5  N2  UNL     1       6.587  -3.853  31.229  1.00  0.00    -0.338 N 
ATOM      6  H2  UNL     1       7.103  -3.273  31.890  1.00  0.00     0.168 HD
HETATM    7  C13 UNL     1       5.467  -3.426  30.645  1.00  0.00     0.182 A 
HETATM    8  N3  UNL     1       4.733  -4.100  29.752  1.00  0.00    -0.351 N 
ATOM      9  H3  UNL     1       3.886  -3.701  29.347  1.00  0.00     0.166 HD
HETATM   10  C14 UNL     1       5.162  -5.320  29.418  1.00  0.00     0.050 A 
HETATM   11  C15 UNL     1       4.427  -6.044  28.488  1.00  0.00     0.070 A 
HETATM   12  C16 UNL     1       4.807  -7.325  28.076  1.00  0.00     0.104 A 
ENDROOT
BRANCH   4  13
HETATM   13  N1  UNL     1       8.183  -5.534  31.525  1.00  0.00    -0.338 N 
HETATM   14  H5  UNL     1       7.962  -6.212  32.250  1.00  0.00     0.167 HD
BRANCH  13  15
HETATM   15  C6  UNL     1       9.258  -4.705  31.936  1.00  0.00     0.092 A 
HETATM   16  C7  UNL     1       9.548  -4.538  33.309  1.00  0.00     0.063 A 
HETATM   17 CL1  UNL     1       8.512  -5.235  34.511  1.00  0.00    -0.082 Cl
HETATM   18  C8  UNL     1      10.651  -3.782  33.751  1.00  0.00     0.029 A 
HETATM   19  C9  UNL     1      11.507  -3.183  32.829  1.00  0.00     0.041 A 
HETATM   20  C10 UNL     1      11.232  -3.367  31.491  1.00  0.00     0.107 A 
HETATM   21  C11 UNL     1      10.152  -4.106  31.053  1.00  0.00     0.133 A 
HETATM   22  O3  UNL     1      11.974  -2.859  30.469  1.00  0.00    -0.323 OA
HETATM   23  O2  UNL     1      10.097  -4.142  29.690  1.00  0.00    -0.321 OA
HETATM   24  C12 UNL     1      11.262  -3.380  29.330  1.00  0.00     0.352 A 
ENDBRANCH  13  15
ENDBRANCH   4  13
BRANCH   1  25
HETATM   25  O1  UNL     1       6.276  -9.166  28.168  1.00  0.00    -0.353 OA
HETATM   26  C1  UNL     1       7.553  -9.690  28.507  1.00  0.00     0.210 C 
ENDBRANCH   1  25
BRANCH  12  27
HETATM   27  O4  UNL     1       4.116  -8.086  27.167  1.00  0.00    -0.348 OA
BRANCH  27  28
HETATM   28  C17 UNL     1       2.855  -8.620  27.563  1.00  0.00     0.177 C 
BRANCH  28  29
HETATM   29  C18 UNL     1       1.738  -7.845  26.864  1.00  0.00     0.057 C 
BRANCH  29  30
HETATM   30  C19 UNL     1       0.618  -8.776  26.377  1.00  0.00     0.274 C 
BRANCH  30  31
HETATM   31  N4  UNL     1      -0.657  -8.529  27.071  1.00  0.00     0.088 N 
HETATM   32  C20 UNL     1      -0.838  -9.499  28.168  1.00  0.00     0.272 C 
HETATM   33  C21 UNL     1      -2.298  -9.692  28.602  1.00  0.00     0.030 C 
HETATM   34  C22 UNL     1      -3.119  -8.432  28.375  1.00  0.00     0.003 C 
HETATM   35  C23 UNL     1      -3.049  -7.992  26.911  1.00  0.00     0.030 C 
HETATM   36  C24 UNL     1      -1.814  -8.526  26.175  1.00  0.00     0.272 C 
ENDBRANCH  30  31
ENDBRANCH  29  30
ENDBRANCH  28  29
ENDBRANCH  27  28
ENDBRANCH  12  27
TORSDOF 8
ENDMDL
MODEL 7
REMARK minimizedAffinity -7.99839163
REMARK  8 active torsions:
REMARK  status: ('A' for Active; 'I' for Inactive)
REMARK    1  A    between atoms: O1_2  and  C2_3 
REMARK    2  A    between atoms: C5_6  and  N1_7 
REMARK    3  A    between atoms: N1_7  and  C6_8 
REMARK    4  A    between atoms: C16_25  and  O4_26 
REMARK    5  A    between atoms: O4_26  and  C17_27 
REMARK    6  A    between atoms: C17_27  and  C18_28 
REMARK    7  A    between atoms: C18_28  and  C19_29 
REMARK    8  A    between atoms: C19_29  and  N4_30 
ROOT
HETATM    1  C2  UNL     1       6.809  -5.600  30.233  1.00  0.00     0.102 A 
HETATM    2  C3  UNL     1       7.747  -4.672  30.689  1.00  0.00     0.057 A 
HETATM    3  C4  UNL     1       8.982  -4.488  30.015  1.00  0.00     0.038 A 
HETATM    4  C5  UNL     1       9.989  -3.574  30.385  1.00  0.00     0.119 A 
HETATM    5  N2  UNL     1      11.152  -3.466  29.719  1.00  0.00    -0.338 N 
ATOM      6  H2  UNL     1      11.883  -2.819  30.013  1.00  0.00     0.168 HD
HETATM    7  C13 UNL     1      11.297  -4.250  28.650  1.00  0.00     0.182 A 
HETATM    8  N3  UNL     1      10.410  -5.143  28.197  1.00  0.00    -0.351 N 
ATOM      9  H3  UNL     1      10.597  -5.711  27.370  1.00  0.00     0.166 HD
HETATM   10  C14 UNL     1       9.267  -5.256  28.880  1.00  0.00     0.050 A 
HETATM   11  C15 UNL     1       8.327  -6.180  28.440  1.00  0.00     0.070 A 
HETATM   12  C16 UNL     1       7.107  -6.368  29.097  1.00  0.00     0.104 A 
ENDROOT
BRANCH   4  13
HETATM   13  N1  UNL     1       9.844  -2.739  31.514  1.00  0.00    -0.338 N 
HETATM   14  H5  UNL     1       9.984  -1.767  31.249  1.00  0.00     0.167 HD
BRANCH  13  15
HETATM   15  C6  UNL     1      10.399  -2.985  32.797  1.00  0.00     0.092 A 
HETATM   16  C7  UNL     1      11.591  -2.340  33.196  1.00  0.00     0.063 A 
HETATM   17 CL1  UNL     1      12.464  -1.348  32.076  1.00  0.00    -0.082 Cl
HETATM   18  C8  UNL     1      12.130  -2.503  34.487  1.00  0.00     0.029 A 
HETATM   19  C9  UNL     1      11.480  -3.305  35.424  1.00  0.00     0.041 A 
HETATM   20  C10 UNL     1      10.306  -3.914  35.036  1.00  0.00     0.107 A 
HETATM   21  C11 UNL     1       9.775  -3.758  33.772  1.00  0.00     0.133 A 
HETATM   22  O3  UNL     1       9.548  -4.716  35.832  1.00  0.00    -0.323 OA
HETATM   23  O2  UNL     1       8.610  -4.456  33.634  1.00  0.00    -0.321 OA
HETATM   24  C12 UNL     1       8.459  -5.033  34.943  1.00  0.00     0.352 A 
ENDBRANCH  13  15
ENDBRANCH   4  13
BRANCH   1  25
HETATM   25  O1  UNL     1       5.599  -5.838  30.829  1.00  0.00    -0.353 OA
HETATM   26  C1  UNL     1       4.581  -4.857  30.677  1.00  0.00     0.210 C 
ENDBRANCH   1  25
BRANCH  12  27
HETATM   27  O4  UNL     1       6.141  -7.260  28.704  1.00  0.00    -0.348 OA
BRANCH  27  28
HETATM   28  C17 UNL     1       6.487  -8.227  27.716  1.00  0.00     0.177 C 
BRANCH  28  29
HETATM   29  C18 UNL     1       5.319  -8.393  26.743  1.00  0.00     0.057 C 
BRANCH  29  30
HETATM   30  C19 UNL     1       3.979  -8.527  27.480  1.00  0.00     0.274 C 
BRANCH  30  31
HETATM   31  N4  UNL     1       2.826  -8.312  26.589  1.00  0.00     0.088 N 
HETATM   32  C20 UNL     1       1.568  -8.379  27.357  1.00  0.00     0.272 C 
HETATM   33  C21 UNL     1       0.329  -8.699  26.507  1.00  0.00     0.030 C 
HETATM   34  C22 UNL     1       0.485  -8.191  25.082  1.00  0.00     0.003 C 
HETATM   35  C23 UNL     1       1.744  -8.766  24.431  1.00  0.00     0.030 C 
HETATM   36  C24 UNL     1       2.797  -9.226  25.448  1.00  0.00     0.272 C 
ENDBRANCH  30  31
ENDBRANCH  29  30
ENDBRANCH  28  29
ENDBRANCH  27  28
ENDBRANCH  12  27
TORSDOF 8
ENDMDL
MODEL 8
REMARK minimizedAffinity -7.97798491
REMARK  8 active torsions:
REMARK  status: ('A' for Active; 'I' for Inactive)
REMARK    1  A    between atoms: O1_2  and  C2_3 
REMARK    2  A    between atoms: C5_6  and  N1_7 
REMARK    3  A    between atoms: N1_7  and  C6_8 
REMARK    4  A    between atoms: C16_25  and  O4_26 
REMARK    5  A    between atoms: O4_26  and  C17_27 
REMARK    6  A    between atoms: C17_27  and  C18_28 
REMARK    7  A    between atoms: C18_28  and  C19_29 
REMARK    8  A    between atoms: C19_29  and  N4_30 
ROOT
HETATM    1  C2  UNL     1       6.481  -7.933  29.029  1.00  0.00     0.102 A 
HETATM    2  C3  UNL     1       7.061  -7.107  29.993  1.00  0.00     0.057 A 
HETATM    3  C4  UNL     1       6.585  -5.788  30.209  1.00  0.00     0.038 A 
HETATM    4  C5  UNL     1       7.092  -4.880  31.161  1.00  0.00     0.119 A 
HETATM    5  N2  UNL     1       6.613  -3.631  31.299  1.00  0.00    -0.338 N 
ATOM      6  H2  UNL     1       7.007  -2.976  31.973  1.00  0.00     0.168 HD
HETATM    7  C13 UNL     1       5.594  -3.296  30.507  1.00  0.00     0.182 A 
HETATM    8  N3  UNL     1       5.023  -4.074  29.579  1.00  0.00    -0.351 N 
ATOM      9  H3  UNL     1       4.245  -3.743  29.008  1.00  0.00     0.166 HD
HETATM   10  C14 UNL     1       5.521  -5.306  29.437  1.00  0.00     0.050 A 
HETATM   11  C15 UNL     1       4.957  -6.136  28.478  1.00  0.00     0.070 A 
HETATM   12  C16 UNL     1       5.419  -7.438  28.258  1.00  0.00     0.104 A 
ENDROOT
BRANCH   4  13
HETATM   13  N1  UNL     1       8.170  -5.225  32.004  1.00  0.00    -0.338 N 
HETATM   14  H5  UNL     1       7.823  -5.685  32.842  1.00  0.00     0.167 HD
BRANCH  13  15
HETATM   15  C6  UNL     1       9.269  -4.386  32.322  1.00  0.00     0.092 A 
HETATM   16  C7  UNL     1       9.594  -4.113  33.669  1.00  0.00     0.063 A 
HETATM   17 CL1  UNL     1       8.575  -4.687  34.947  1.00  0.00    -0.082 Cl
HETATM   18  C8  UNL     1      10.721  -3.345  34.023  1.00  0.00     0.029 A 
HETATM   19  C9  UNL     1      11.566  -2.841  33.036  1.00  0.00     0.041 A 
HETATM   20  C10 UNL     1      11.256  -3.129  31.724  1.00  0.00     0.107 A 
HETATM   21  C11 UNL     1      10.153  -3.880  31.373  1.00  0.00     0.133 A 
HETATM   22  O3  UNL     1      11.983  -2.722  30.647  1.00  0.00    -0.323 OA
HETATM   23  O2  UNL     1      10.064  -4.027  30.019  1.00  0.00    -0.321 OA
HETATM   24  C12 UNL     1      11.234  -3.321  29.571  1.00  0.00     0.352 A 
ENDBRANCH  13  15
ENDBRANCH   4  13
BRANCH   1  25
HETATM   25  O1  UNL     1       6.885  -9.214  28.759  1.00  0.00    -0.353 OA
HETATM   26  C1  UNL     1       8.261  -9.526  28.932  1.00  0.00     0.210 C 
ENDBRANCH   1  25
BRANCH  12  27
HETATM   27  O4  UNL     1       4.895  -8.302  27.330  1.00  0.00    -0.348 OA
BRANCH  27  28
HETATM   28  C17 UNL     1       5.448  -8.290  26.017  1.00  0.00     0.177 C 
BRANCH  28  29
HETATM   29  C18 UNL     1       6.659  -7.357  25.989  1.00  0.00     0.057 C 
BRANCH  29  30
HETATM   30  C19 UNL     1       7.879  -8.028  25.341  1.00  0.00     0.274 C 
BRANCH  30  31
HETATM   31  N4  UNL     1       9.136  -7.329  25.655  1.00  0.00     0.088 N 
HETATM   32  C20 UNL     1      10.209  -8.303  25.932  1.00  0.00     0.272 C 
HETATM   33  C21 UNL     1      11.371  -7.741  26.763  1.00  0.00     0.030 C 
HETATM   34  C22 UNL     1      11.553  -6.250  26.529  1.00  0.00     0.003 C 
HETATM   35  C23 UNL     1      10.261  -5.487  26.830  1.00  0.00     0.030 C 
HETATM   36  C24 UNL     1       9.005  -6.365  26.748  1.00  0.00     0.272 C 
ENDBRANCH  30  31
ENDBRANCH  29  30
ENDBRANCH  28  29
ENDBRANCH  27  28
ENDBRANCH  12  27
TORSDOF 8
ENDMDL
MODEL 9
REMARK minimizedAffinity -7.96573877
REMARK  8 active torsions:
REMARK  status: ('A' for Active; 'I' for Inactive)
REMARK    1  A    between atoms: O1_2  and  C2_3 
REMARK    2  A    between atoms: C5_6  and  N1_7 
REMARK    3  A    between atoms: N1_7  and  C6_8 
REMARK    4  A    between atoms: C16_25  and  O4_26 
REMARK    5  A    between atoms: O4_26  and  C17_27 
REMARK    6  A    between atoms: C17_27  and  C18_28 
REMARK    7  A    between atoms: C18_28  and  C19_29 
REMARK    8  A    between atoms: C19_29  and  N4_30 
ROOT
HETATM    1  C2  UNL     1       4.695  -8.582  27.590  1.00  0.00     0.102 A 
HETATM    2  C3  UNL     1       5.637  -7.860  28.323  1.00  0.00     0.057 A 
HETATM    3  C4  UNL     1       5.281  -6.661  28.995  1.00  0.00     0.038 A 
HETATM    4  C5  UNL     1       6.151  -5.866  29.768  1.00  0.00     0.119 A 
HETATM    5  N2  UNL     1       5.757  -4.724  30.358  1.00  0.00    -0.338 N 
ATOM      6  H2  UNL     1       6.404  -4.144  30.892  1.00  0.00     0.168 HD
HETATM    7  C13 UNL     1       4.475  -4.391  30.208  1.00  0.00     0.182 A 
HETATM    8  N3  UNL     1       3.556  -5.070  29.511  1.00  0.00    -0.351 N 
ATOM      9  H3  UNL     1       2.591  -4.747  29.441  1.00  0.00     0.166 HD
HETATM   10  C14 UNL     1       3.965  -6.192  28.912  1.00  0.00     0.050 A 
HETATM   11  C15 UNL     1       3.038  -6.918  28.174  1.00  0.00     0.070 A 
HETATM   12  C16 UNL     1       3.380  -8.100  27.509  1.00  0.00     0.104 A 
ENDROOT
BRANCH   4  13
HETATM   13  N1  UNL     1       7.510  -6.210  29.932  1.00  0.00    -0.338 N 
HETATM   14  H5  UNL     1       7.666  -6.569  30.871  1.00  0.00     0.167 HD
BRANCH  13  15
HETATM   15  C6  UNL     1       8.616  -5.426  29.514  1.00  0.00     0.092 A 
HETATM   16  C7  UNL     1       9.285  -4.585  30.432  1.00  0.00     0.063 A 
HETATM   17 CL1  UNL     1       8.681  -4.399  32.045  1.00  0.00    -0.082 Cl
HETATM   18  C8  UNL     1      10.429  -3.850  30.069  1.00  0.00     0.029 A 
HETATM   19  C9  UNL     1      10.949  -3.947  28.780  1.00  0.00     0.041 A 
HETATM   20  C10 UNL     1      10.305  -4.784  27.895  1.00  0.00     0.107 A 
HETATM   21  C11 UNL     1       9.182  -5.507  28.245  1.00  0.00     0.133 A 
HETATM   22  O3  UNL     1      10.689  -4.997  26.607  1.00  0.00    -0.323 OA
HETATM   23  O2  UNL     1       8.733  -6.261  27.200  1.00  0.00    -0.321 OA
HETATM   24  C12 UNL     1       9.702  -5.957  26.182  1.00  0.00     0.352 A 
ENDBRANCH  13  15
ENDBRANCH   4  13
BRANCH   1  25
HETATM   25  O1  UNL     1       4.961  -9.743  26.913  1.00  0.00    -0.353 OA
HETATM   26  C1  UNL     1       6.294  -9.960  26.467  1.00  0.00     0.210 C 
ENDBRANCH   1  25
BRANCH  12  27
HETATM   27  O4  UNL     1       2.505  -8.859  26.773  1.00  0.00    -0.348 OA
BRANCH  27  28
HETATM   28  C17 UNL     1       2.100  -8.366  25.499  1.00  0.00     0.177 C 
BRANCH  28  29
HETATM   29  C18 UNL     1       0.680  -8.848  25.200  1.00  0.00     0.057 C 
BRANCH  29  30
HETATM   30  C19 UNL     1       0.520  -9.268  23.731  1.00  0.00     0.274 C 
BRANCH  30  31
HETATM   31  N4  UNL     1       0.155  -8.137  22.862  1.00  0.00     0.088 N 
HETATM   32  C20 UNL     1      -1.167  -7.604  23.244  1.00  0.00     0.272 C 
HETATM   33  C21 UNL     1      -1.874  -6.818  22.130  1.00  0.00     0.030 C 
HETATM   34  C22 UNL     1      -0.874  -6.152  21.197  1.00  0.00     0.003 C 
HETATM   35  C23 UNL     1       0.085  -7.183  20.599  1.00  0.00     0.030 C 
HETATM   36  C24 UNL     1       0.199  -8.463  21.437  1.00  0.00     0.272 C 
ENDBRANCH  30  31
ENDBRANCH  29  30
ENDBRANCH  28  29
ENDBRANCH  27  28
ENDBRANCH  12  27
TORSDOF 8
ENDMDL
