MODEL 1
REMARK minimizedAffinity -7.73335695
REMARK CNNscore 0.620036006
REMARK CNNaffinity 6.68390512
REMARK  7 active torsions:
REMARK  status: ('A' for Active; 'I' for Inactive)
REMARK    1  A    between atoms: C2_2  and  C4_4 
REMARK    2  A    between atoms: C7_7  and  C8_8 
REMARK    3  A    between atoms: C8_8  and  O2_10 
REMARK    4  A    between atoms: C15_17  and  O3_18 
REMARK    5  A    between atoms: C21_24  and  O4_25 
REMARK    6  A    between atoms: C22_26  and  C24_28 
REMARK    7  A    between atoms: C24_28  and  O5_29 
ROOT
HETATM    1  C4  UNL     1       0.871  10.187  15.001  1.00  0.00     0.019 C 
HETATM    2  C5  UNL     1       2.188  10.439  14.217  1.00  0.00     0.011 C 
HETATM    3  C6  UNL     1       2.063   9.688  12.882  1.00  0.00     0.021 C 
HETATM    4  C7  UNL     1       1.010   8.611  13.158  1.00  0.00     0.050 C 
HETATM    5  C9  UNL     1       0.305   8.048  11.918  1.00  0.00     0.022 C 
HETATM    6  C10 UNL     1      -0.888   7.159  12.327  1.00  0.00     0.011 C 
HETATM    7  C11 UNL     1      -1.933   7.849  13.276  1.00  0.00    -0.032 C 
HETATM    8  C12 UNL     1      -2.646   8.927  12.391  1.00  0.00     0.016 C 
HETATM    9  C13 UNL     1      -1.181   8.540  14.479  1.00  0.00     0.003 C 
HETATM   10  C14 UNL     1      -2.165   9.269  15.393  1.00  0.00     0.038 C 
HETATM   11  C15 UNL     1      -3.302   8.379  15.918  1.00  0.00     0.124 C 
HETATM   12  C16 UNL     1      -4.052   7.575  14.809  1.00  0.00     0.032 C 
HETATM   13  C17 UNL     1      -5.338   6.719  15.279  1.00  0.00    -0.033 C 
HETATM   14  C18 UNL     1      -4.956   5.667  16.347  1.00  0.00     0.016 C 
HETATM   15  C19 UNL     1      -6.404   7.660  15.924  1.00  0.00     0.012 C 
HETATM   16  C20 UNL     1      -7.788   7.037  16.124  1.00  0.00     0.033 C 
HETATM   17  C21 UNL     1      -8.362   6.461  14.836  1.00  0.00     0.128 C 
HETATM   18  C22 UNL     1      -7.417   5.433  14.144  1.00  0.00     0.007 C 
HETATM   19  C23 UNL     1      -7.389   4.124  14.960  1.00  0.00     0.020 C 
HETATM   20  C25 UNL     1      -5.989   6.096  13.974  1.00  0.00     0.007 C 
HETATM   21  C26 UNL     1      -4.975   5.239  13.196  1.00  0.00     0.007 C 
HETATM   22  C27 UNL     1      -3.772   6.069  12.748  1.00  0.00     0.011 C 
HETATM   23  C28 UNL     1      -3.011   6.793  13.889  1.00  0.00    -0.030 C 
HETATM   24  C29 UNL     1      -2.268   5.687  14.701  1.00  0.00     0.016 C 
HETATM   25  C30 UNL     1      -0.014   9.429  13.983  1.00  0.00     0.017 C 
ENDROOT
BRANCH   4  26
HETATM   26  C8  UNL     1       1.711   7.468  13.909  1.00  0.00     0.149 C 
HETATM   27  O1  UNL     1       1.518   7.096  15.054  1.00  0.00    -0.649 OA
BRANCH  26  28
HETATM   28  O2  UNL     1       2.662   6.859  13.171  1.00  0.00    -0.776 OA
HETATM   29  H11 UNL     1       3.025   6.174  13.771  1.00  0.00     0.167 HD
ENDBRANCH  26  28
ENDBRANCH   4  26
BRANCH   1  30
HETATM   30  C2  UNL     1       0.365  11.485  15.613  1.00  0.00    -0.088 C 
HETATM   31  C1  UNL     1      -0.219  11.596  16.818  1.00  0.00     0.014 C 
HETATM   32  C3  UNL     1       0.550  12.705  14.746  1.00  0.00     0.043 C 
ENDBRANCH   1  30
BRANCH  11  33
HETATM   33  O3  UNL     1      -4.180   9.252  16.627  1.00  0.00    -0.395 OA
HETATM   34  H23 UNL     1      -4.539   9.894  15.990  1.00  0.00     0.210 HD
ENDBRANCH  11  33
BRANCH  18  35
HETATM   35  C24 UNL     1      -8.052   5.121  12.747  1.00  0.00     0.176 C 
BRANCH  35  36
HETATM   36  O5  UNL     1      -8.704   3.855  12.686  1.00  0.00    -0.400 OA
HETATM   37  H39 UNL     1      -9.555   3.937  13.147  1.00  0.00     0.209 HD
ENDBRANCH  35  36
ENDBRANCH  18  35
BRANCH  17  38
HETATM   38  O4  UNL     1      -8.637   7.546  13.944  1.00  0.00    -0.395 OA
HETATM   39  H33 UNL     1      -9.227   8.167  14.406  1.00  0.00     0.210 HD
ENDBRANCH  17  38
TORSDOF 7
ENDMDL
MODEL 2
REMARK minimizedAffinity -6.80768061
REMARK CNNscore 0.523797929
REMARK CNNaffinity 6.33000422
REMARK  7 active torsions:
REMARK  status: ('A' for Active; 'I' for Inactive)
REMARK    1  A    between atoms: C2_2  and  C4_4 
REMARK    2  A    between atoms: C7_7  and  C8_8 
REMARK    3  A    between atoms: C8_8  and  O2_10 
REMARK    4  A    between atoms: C15_17  and  O3_18 
REMARK    5  A    between atoms: C21_24  and  O4_25 
REMARK    6  A    between atoms: C22_26  and  C24_28 
REMARK    7  A    between atoms: C24_28  and  O5_29 
ROOT
HETATM    1  C4  UNL     1       4.074  10.398  22.354  1.00  0.00     0.019 C 
HETATM    2  C5  UNL     1       5.348  10.751  23.170  1.00  0.00     0.011 C 
HETATM    3  C6  UNL     1       5.717  12.200  22.813  1.00  0.00     0.021 C 
HETATM    4  C7  UNL     1       5.052  12.430  21.453  1.00  0.00     0.050 C 
HETATM    5  C9  UNL     1       4.805  13.897  21.081  1.00  0.00     0.022 C 
HETATM    6  C10 UNL     1       3.925  13.998  19.819  1.00  0.00     0.011 C 
HETATM    7  C11 UNL     1       2.560  13.223  19.900  1.00  0.00    -0.032 C 
HETATM    8  C12 UNL     1       1.696  14.018  20.938  1.00  0.00     0.016 C 
HETATM    9  C13 UNL     1       2.814  11.754  20.412  1.00  0.00     0.003 C 
HETATM   10  C14 UNL     1       1.499  10.989  20.555  1.00  0.00     0.038 C 
HETATM   11  C15 UNL     1       0.650  10.966  19.275  1.00  0.00     0.124 C 
HETATM   12  C16 UNL     1       0.419  12.371  18.634  1.00  0.00     0.032 C 
HETATM   13  C17 UNL     1      -0.570  12.431  17.359  1.00  0.00    -0.033 C 
HETATM   14  C18 UNL     1      -0.053  11.542  16.202  1.00  0.00     0.016 C 
HETATM   15  C19 UNL     1      -1.985  11.898  17.748  1.00  0.00     0.012 C 
HETATM   16  C20 UNL     1      -3.094  12.189  16.734  1.00  0.00     0.033 C 
HETATM   17  C21 UNL     1      -3.206  13.671  16.401  1.00  0.00     0.128 C 
HETATM   18  C22 UNL     1      -1.867  14.298  15.910  1.00  0.00     0.007 C 
HETATM   19  C23 UNL     1      -1.549  13.791  14.489  1.00  0.00     0.020 C 
HETATM   20  C25 UNL     1      -0.736  13.958  16.965  1.00  0.00     0.007 C 
HETATM   21  C26 UNL     1       0.626  14.613  16.674  1.00  0.00     0.007 C 
HETATM   22  C27 UNL     1       1.543  14.558  17.896  1.00  0.00     0.011 C 
HETATM   23  C28 UNL     1       1.805  13.137  18.459  1.00  0.00    -0.030 C 
HETATM   24  C29 UNL     1       2.720  12.410  17.424  1.00  0.00     0.016 C 
HETATM   25  C30 UNL     1       3.686  11.741  21.691  1.00  0.00     0.017 C 
ENDROOT
BRANCH   4  26
HETATM   26  C8  UNL     1       5.951  11.778  20.388  1.00  0.00     0.149 C 
HETATM   27  O1  UNL     1       5.642  10.937  19.563  1.00  0.00    -0.649 OA
BRANCH  26  28
HETATM   28  O2  UNL     1       7.227  12.211  20.442  1.00  0.00    -0.776 OA
HETATM   29  H11 UNL     1       7.676  11.710  19.729  1.00  0.00     0.167 HD
ENDBRANCH  26  28
ENDBRANCH   4  26
BRANCH   1  30
HETATM   30  C2  UNL     1       3.065   9.679  23.237  1.00  0.00    -0.088 C 
HETATM   31  C1  UNL     1       2.689  10.076  24.465  1.00  0.00     0.014 C 
HETATM   32  C3  UNL     1       2.484   8.423  22.637  1.00  0.00     0.043 C 
ENDBRANCH   1  30
BRANCH  11  33
HETATM   33  O3  UNL     1      -0.579  10.338  19.638  1.00  0.00    -0.395 OA
HETATM   34  H23 UNL     1      -1.013  10.899  20.305  1.00  0.00     0.210 HD
ENDBRANCH  11  33
BRANCH  18  35
HETATM   35  C24 UNL     1      -2.105  15.843  15.833  1.00  0.00     0.176 C 
BRANCH  35  36
HETATM   36  O5  UNL     1      -3.386  16.200  15.318  1.00  0.00    -0.400 OA
HETATM   37  H39 UNL     1      -4.039  16.051  16.022  1.00  0.00     0.209 HD
ENDBRANCH  35  36
ENDBRANCH  18  35
BRANCH  17  38
HETATM   38  O4  UNL     1      -3.666  14.359  17.570  1.00  0.00    -0.395 OA
HETATM   39  H33 UNL     1      -4.501  13.945  17.849  1.00  0.00     0.210 HD
ENDBRANCH  17  38
TORSDOF 7
ENDMDL
MODEL 3
REMARK minimizedAffinity -5.76547623
REMARK CNNscore 0.480308145
REMARK CNNaffinity 6.51098776
REMARK  7 active torsions:
REMARK  status: ('A' for Active; 'I' for Inactive)
REMARK    1  A    between atoms: C2_2  and  C4_4 
REMARK    2  A    between atoms: C7_7  and  C8_8 
REMARK    3  A    between atoms: C8_8  and  O2_10 
REMARK    4  A    between atoms: C15_17  and  O3_18 
REMARK    5  A    between atoms: C21_24  and  O4_25 
REMARK    6  A    between atoms: C22_26  and  C24_28 
REMARK    7  A    between atoms: C24_28  and  O5_29 
ROOT
HETATM    1  C4  UNL     1     -16.298  -4.024  31.477  1.00  0.00     0.019 C 
HETATM    2  C5  UNL     1     -15.590  -3.587  32.789  1.00  0.00     0.011 C 
HETATM    3  C6  UNL     1     -14.220  -4.284  32.808  1.00  0.00     0.021 C 
HETATM    4  C7  UNL     1     -14.400  -5.486  31.876  1.00  0.00     0.050 C 
HETATM    5  C9  UNL     1     -13.106  -6.067  31.295  1.00  0.00     0.022 C 
HETATM    6  C10 UNL     1     -13.419  -7.104  30.196  1.00  0.00     0.011 C 
HETATM    7  C11 UNL     1     -14.345  -6.582  29.039  1.00  0.00    -0.032 C 
HETATM    8  C12 UNL     1     -13.473  -5.552  28.245  1.00  0.00     0.016 C 
HETATM    9  C13 UNL     1     -15.610  -5.867  29.654  1.00  0.00     0.003 C 
HETATM   10  C14 UNL     1     -16.505  -5.299  28.554  1.00  0.00     0.038 C 
HETATM   11  C15 UNL     1     -16.938  -6.336  27.505  1.00  0.00     0.124 C 
HETATM   12  C16 UNL     1     -15.761  -7.167  26.902  1.00  0.00     0.032 C 
HETATM   13  C17 UNL     1     -16.133  -8.185  25.705  1.00  0.00    -0.033 C 
HETATM   14  C18 UNL     1     -17.174  -9.235  26.160  1.00  0.00     0.016 C 
HETATM   15  C19 UNL     1     -16.765  -7.403  24.510  1.00  0.00     0.012 C 
HETATM   16  C20 UNL     1     -16.873  -8.188  23.200  1.00  0.00     0.033 C 
HETATM   17  C21 UNL     1     -15.536  -8.764  22.753  1.00  0.00     0.128 C 
HETATM   18  C22 UNL     1     -14.847  -9.644  23.839  1.00  0.00     0.007 C 
HETATM   19  C23 UNL     1     -15.608 -10.978  23.983  1.00  0.00     0.020 C 
HETATM   20  C25 UNL     1     -14.774  -8.816  25.186  1.00  0.00     0.007 C 
HETATM   21  C26 UNL     1     -14.011  -9.514  26.325  1.00  0.00     0.007 C 
HETATM   22  C27 UNL     1     -13.656  -8.533  27.442  1.00  0.00     0.011 C 
HETATM   23  C28 UNL     1     -14.861  -7.782  28.065  1.00  0.00    -0.030 C 
HETATM   24  C29 UNL     1     -15.661  -8.833  28.896  1.00  0.00     0.016 C 
HETATM   25  C30 UNL     1     -15.209  -4.830  30.730  1.00  0.00     0.017 C 
ENDROOT
BRANCH   4  26
HETATM   26  C8  UNL     1     -15.136  -6.576  32.672  1.00  0.00     0.149 C 
HETATM   27  O1  UNL     1     -16.161  -7.161  32.367  1.00  0.00    -0.649 OA
BRANCH  26  28
HETATM   28  O2  UNL     1     -14.543  -6.856  33.852  1.00  0.00    -0.776 OA
HETATM   29  H11 UNL     1     -15.118  -7.545  34.246  1.00  0.00     0.167 HD
ENDBRANCH  26  28
ENDBRANCH   4  26
BRANCH   1  30
HETATM   30  C2  UNL     1     -16.939  -2.823  30.798  1.00  0.00    -0.088 C 
HETATM   31  C1  UNL     1     -16.320  -2.000  29.935  1.00  0.00     0.014 C 
HETATM   32  C3  UNL     1     -18.380  -2.581  31.174  1.00  0.00     0.043 C 
ENDBRANCH   1  30
BRANCH  11  33
HETATM   33  O3  UNL     1     -17.640  -5.603  26.503  1.00  0.00    -0.395 OA
HETATM   34  H23 UNL     1     -17.014  -4.977  26.100  1.00  0.00     0.210 HD
ENDBRANCH  11  33
BRANCH  18  35
HETATM   35  C24 UNL     1     -13.410  -9.961  23.305  1.00  0.00     0.176 C 
BRANCH  35  36
HETATM   36  O5  UNL     1     -13.324 -10.001  21.883  1.00  0.00    -0.400 OA
HETATM   37  H39 UNL     1     -13.333  -9.085  21.560  1.00  0.00     0.209 HD
ENDBRANCH  35  36
ENDBRANCH  18  35
BRANCH  17  38
HETATM   38  O4  UNL     1     -14.677  -7.676  22.393  1.00  0.00    -0.395 OA
HETATM   39  H33 UNL     1     -15.136  -7.149  21.716  1.00  0.00     0.210 HD
ENDBRANCH  17  38
TORSDOF 7
ENDMDL
MODEL 4
REMARK minimizedAffinity -8.26640797
REMARK CNNscore 0.425038576
REMARK CNNaffinity 6.36754942
REMARK  7 active torsions:
REMARK  status: ('A' for Active; 'I' for Inactive)
REMARK    1  A    between atoms: C2_2  and  C4_4 
REMARK    2  A    between atoms: C7_7  and  C8_8 
REMARK    3  A    between atoms: C8_8  and  O2_10 
REMARK    4  A    between atoms: C15_17  and  O3_18 
REMARK    5  A    between atoms: C21_24  and  O4_25 
REMARK    6  A    between atoms: C22_26  and  C24_28 
REMARK    7  A    between atoms: C24_28  and  O5_29 
ROOT
HETATM    1  C4  UNL     1      -5.942   3.919  11.784  1.00  0.00     0.019 C 
HETATM    2  C5  UNL     1      -5.947   2.451  11.277  1.00  0.00     0.011 C 
HETATM    3  C6  UNL     1      -4.567   1.860  11.609  1.00  0.00     0.021 C 
HETATM    4  C7  UNL     1      -3.661   3.087  11.748  1.00  0.00     0.050 C 
HETATM    5  C9  UNL     1      -2.379   2.869  12.561  1.00  0.00     0.022 C 
HETATM    6  C10 UNL     1      -1.673   4.213  12.836  1.00  0.00     0.011 C 
HETATM    7  C11 UNL     1      -2.571   5.304  13.522  1.00  0.00    -0.032 C 
HETATM    8  C12 UNL     1      -2.811   4.783  14.981  1.00  0.00     0.016 C 
HETATM    9  C13 UNL     1      -3.943   5.423  12.753  1.00  0.00     0.003 C 
HETATM   10  C14 UNL     1      -4.864   6.438  13.429  1.00  0.00     0.038 C 
HETATM   11  C15 UNL     1      -4.233   7.827  13.609  1.00  0.00     0.124 C 
HETATM   12  C16 UNL     1      -2.823   7.809  14.280  1.00  0.00     0.032 C 
HETATM   13  C17 UNL     1      -2.161   9.244  14.612  1.00  0.00    -0.033 C 
HETATM   14  C18 UNL     1      -1.985  10.095  13.331  1.00  0.00     0.016 C 
HETATM   15  C19 UNL     1      -3.086  10.054  15.575  1.00  0.00     0.012 C 
HETATM   16  C20 UNL     1      -2.442  11.286  16.216  1.00  0.00     0.033 C 
HETATM   17  C21 UNL     1      -1.148  10.955  16.947  1.00  0.00     0.128 C 
HETATM   18  C22 UNL     1      -0.103  10.220  16.054  1.00  0.00     0.007 C 
HETATM   19  C23 UNL     1       0.487  11.209  15.027  1.00  0.00     0.020 C 
HETATM   20  C25 UNL     1      -0.805   8.968  15.386  1.00  0.00     0.007 C 
HETATM   21  C26 UNL     1       0.137   8.071  14.563  1.00  0.00     0.007 C 
HETATM   22  C27 UNL     1      -0.501   6.713  14.270  1.00  0.00     0.011 C 
HETATM   23  C28 UNL     1      -1.867   6.773  13.538  1.00  0.00    -0.030 C 
HETATM   24  C29 UNL     1      -1.569   7.233  12.076  1.00  0.00     0.016 C 
HETATM   25  C30 UNL     1      -4.595   4.036  12.537  1.00  0.00     0.017 C 
ENDROOT
BRANCH   4  26
HETATM   26  C8  UNL     1      -3.291   3.545  10.327  1.00  0.00     0.149 C 
HETATM   27  O1  UNL     1      -2.202   3.914   9.920  1.00  0.00    -0.649 OA
BRANCH  26  28
HETATM   28  O2  UNL     1      -4.343   3.542   9.483  1.00  0.00    -0.776 OA
HETATM   29  H11 UNL     1      -3.967   3.862   8.636  1.00  0.00     0.167 HD
ENDBRANCH  26  28
ENDBRANCH   4  26
BRANCH   1  30
HETATM   30  C2  UNL     1      -7.239   4.228  12.517  1.00  0.00    -0.088 C 
HETATM   31  C1  UNL     1      -8.156   5.126  12.122  1.00  0.00     0.014 C 
HETATM   32  C3  UNL     1      -7.448   3.440  13.787  1.00  0.00     0.043 C 
ENDBRANCH   1  30
BRANCH  11  33
HETATM   33  O3  UNL     1      -5.174   8.584  14.369  1.00  0.00    -0.395 OA
HETATM   34  H23 UNL     1      -5.267   8.155  15.238  1.00  0.00     0.210 HD
ENDBRANCH  11  33
BRANCH  18  35
HETATM   35  C24 UNL     1       1.051   9.764  17.008  1.00  0.00     0.176 C 
BRANCH  35  36
HETATM   36  O5  UNL     1       2.353  10.090  16.527  1.00  0.00    -0.400 OA
HETATM   37  H39 UNL     1       2.493  11.041  16.676  1.00  0.00     0.209 HD
ENDBRANCH  35  36
ENDBRANCH  18  35
BRANCH  17  38
HETATM   38  O4  UNL     1      -1.470  10.147  18.084  1.00  0.00    -0.395 OA
HETATM   39  H33 UNL     1      -2.121  10.634  18.618  1.00  0.00     0.210 HD
ENDBRANCH  17  38
TORSDOF 7
ENDMDL
MODEL 5
REMARK minimizedAffinity -6.24232483
REMARK CNNscore 0.417345524
REMARK CNNaffinity 6.2527957
REMARK  7 active torsions:
REMARK  status: ('A' for Active; 'I' for Inactive)
REMARK    1  A    between atoms: C2_2  and  C4_4 
REMARK    2  A    between atoms: C7_7  and  C8_8 
REMARK    3  A    between atoms: C8_8  and  O2_10 
REMARK    4  A    between atoms: C15_17  and  O3_18 
REMARK    5  A    between atoms: C21_24  and  O4_25 
REMARK    6  A    between atoms: C22_26  and  C24_28 
REMARK    7  A    between atoms: C24_28  and  O5_29 
ROOT
HETATM    1  C4  UNL     1      -7.934  17.008   3.537  1.00  0.00     0.019 C 
HETATM    2  C5  UNL     1      -7.432  17.304   4.977  1.00  0.00     0.011 C 
HETATM    3  C6  UNL     1      -8.401  16.598   5.939  1.00  0.00     0.021 C 
HETATM    4  C7  UNL     1      -9.683  16.427   5.118  1.00  0.00     0.050 C 
HETATM    5  C9  UNL     1     -10.634  15.328   5.607  1.00  0.00     0.022 C 
HETATM    6  C10 UNL     1     -11.759  15.085   4.579  1.00  0.00     0.011 C 
HETATM    7  C11 UNL     1     -11.266  14.766   3.121  1.00  0.00    -0.032 C 
HETATM    8  C12 UNL     1     -10.619  13.341   3.207  1.00  0.00     0.016 C 
HETATM    9  C13 UNL     1     -10.187  15.829   2.682  1.00  0.00     0.003 C 
HETATM   10  C14 UNL     1      -9.646  15.516   1.288  1.00  0.00     0.038 C 
HETATM   11  C15 UNL     1     -10.735  15.387   0.212  1.00  0.00     0.124 C 
HETATM   12  C16 UNL     1     -11.903  14.424   0.593  1.00  0.00     0.032 C 
HETATM   13  C17 UNL     1     -13.014  14.147  -0.545  1.00  0.00    -0.033 C 
HETATM   14  C18 UNL     1     -13.705  15.458  -0.989  1.00  0.00     0.016 C 
HETATM   15  C19 UNL     1     -12.345  13.531  -1.813  1.00  0.00     0.012 C 
HETATM   16  C20 UNL     1     -13.313  12.933  -2.837  1.00  0.00     0.033 C 
HETATM   17  C21 UNL     1     -14.244  11.895  -2.225  1.00  0.00     0.128 C 
HETATM   18  C22 UNL     1     -15.041  12.428  -0.996  1.00  0.00     0.007 C 
HETATM   19  C23 UNL     1     -16.122  13.420  -1.471  1.00  0.00     0.020 C 
HETATM   20  C25 UNL     1     -14.017  13.062   0.032  1.00  0.00     0.007 C 
HETATM   21  C26 UNL     1     -14.646  13.529   1.356  1.00  0.00     0.007 C 
HETATM   22  C27 UNL     1     -13.580  13.772   2.424  1.00  0.00     0.011 C 
HETATM   23  C28 UNL     1     -12.478  14.791   2.034  1.00  0.00    -0.030 C 
HETATM   24  C29 UNL     1     -13.154  16.197   2.025  1.00  0.00     0.016 C 
HETATM   25  C30 UNL     1      -9.085  15.998   3.756  1.00  0.00     0.017 C 
ENDROOT
BRANCH   4  26
HETATM   26  C8  UNL     1     -10.417  17.778   5.129  1.00  0.00     0.149 C 
HETATM   27  O1  UNL     1     -10.749  18.440   6.097  1.00  0.00    -0.649 OA
BRANCH  26  28
HETATM   28  O2  UNL     1     -10.728  18.218   3.892  1.00  0.00    -0.776 OA
HETATM   29  H11 UNL     1     -11.194  19.064   4.054  1.00  0.00     0.167 HD
ENDBRANCH  26  28
ENDBRANCH   4  26
BRANCH   1  30
HETATM   30  C2  UNL     1      -6.766  16.629   2.639  1.00  0.00    -0.088 C 
HETATM   31  C1  UNL     1      -6.818  15.735   1.638  1.00  0.00     0.014 C 
HETATM   32  C3  UNL     1      -5.472  17.338   2.955  1.00  0.00     0.043 C 
ENDBRANCH   1  30
BRANCH  11  33
HETATM   33  O3  UNL     1     -10.061  14.963  -0.972  1.00  0.00    -0.395 OA
HETATM   34  H23 UNL     1      -9.674  14.087  -0.796  1.00  0.00     0.210 HD
ENDBRANCH  11  33
BRANCH  18  35
HETATM   35  C24 UNL     1     -15.762  11.189  -0.366  1.00  0.00     0.176 C 
BRANCH  35  36
HETATM   36  O5  UNL     1     -14.932  10.429   0.509  1.00  0.00    -0.400 OA
HETATM   37  H39 UNL     1     -14.859  10.917   1.346  1.00  0.00     0.209 HD
ENDBRANCH  35  36
ENDBRANCH  18  35
BRANCH  17  38
HETATM   38  O4  UNL     1     -13.460  10.760  -1.841  1.00  0.00    -0.395 OA
HETATM   39  H33 UNL     1     -12.977  10.454  -2.628  1.00  0.00     0.210 HD
ENDBRANCH  17  38
TORSDOF 7
ENDMDL
MODEL 6
REMARK minimizedAffinity -5.55870819
REMARK CNNscore 0.405549198
REMARK CNNaffinity 5.82247686
REMARK  7 active torsions:
REMARK  status: ('A' for Active; 'I' for Inactive)
REMARK    1  A    between atoms: C2_2  and  C4_4 
REMARK    2  A    between atoms: C7_7  and  C8_8 
REMARK    3  A    between atoms: C8_8  and  O2_10 
REMARK    4  A    between atoms: C15_17  and  O3_18 
REMARK    5  A    between atoms: C21_24  and  O4_25 
REMARK    6  A    between atoms: C22_26  and  C24_28 
REMARK    7  A    between atoms: C24_28  and  O5_29 
ROOT
HETATM    1  C4  UNL     1      15.757  15.842  20.423  1.00  0.00     0.019 C 
HETATM    2  C5  UNL     1      16.801  15.628  21.553  1.00  0.00     0.011 C 
HETATM    3  C6  UNL     1      17.632  14.395  21.163  1.00  0.00     0.021 C 
HETATM    4  C7  UNL     1      16.729  13.629  20.192  1.00  0.00     0.050 C 
HETATM    5  C9  UNL     1      17.449  12.654  19.253  1.00  0.00     0.022 C 
HETATM    6  C10 UNL     1      16.485  12.126  18.172  1.00  0.00     0.011 C 
HETATM    7  C11 UNL     1      15.751  13.238  17.338  1.00  0.00    -0.032 C 
HETATM    8  C12 UNL     1      16.867  13.895  16.456  1.00  0.00     0.016 C 
HETATM    9  C13 UNL     1      15.127  14.308  18.315  1.00  0.00     0.003 C 
HETATM   10  C14 UNL     1      14.453  15.434  17.534  1.00  0.00     0.038 C 
HETATM   11  C15 UNL     1      13.395  14.950  16.531  1.00  0.00     0.124 C 
HETATM   12  C16 UNL     1      13.889  13.818  15.575  1.00  0.00     0.032 C 
HETATM   13  C17 UNL     1      12.866  13.353  14.415  1.00  0.00    -0.033 C 
HETATM   14  C18 UNL     1      11.539  12.824  15.010  1.00  0.00     0.016 C 
HETATM   15  C19 UNL     1      12.506  14.563  13.498  1.00  0.00     0.012 C 
HETATM   16  C20 UNL     1      11.804  14.202  12.186  1.00  0.00     0.033 C 
HETATM   17  C21 UNL     1      12.587  13.185  11.366  1.00  0.00     0.128 C 
HETATM   18  C22 UNL     1      12.929  11.886  12.154  1.00  0.00     0.007 C 
HETATM   19  C23 UNL     1      11.648  11.049  12.353  1.00  0.00     0.020 C 
HETATM   20  C25 UNL     1      13.628  12.292  13.515  1.00  0.00     0.007 C 
HETATM   21  C26 UNL     1      14.133  11.105  14.354  1.00  0.00     0.007 C 
HETATM   22  C27 UNL     1      15.109  11.563  15.438  1.00  0.00     0.011 C 
HETATM   23  C28 UNL     1      14.555  12.635  16.411  1.00  0.00    -0.030 C 
HETATM   24  C29 UNL     1      13.498  11.919  17.309  1.00  0.00     0.016 C 
HETATM   25  C30 UNL     1      16.164  14.801  19.354  1.00  0.00     0.017 C 
ENDROOT
BRANCH   4  26
HETATM   26  C8  UNL     1      15.701  12.857  21.036  1.00  0.00     0.149 C 
HETATM   27  O1  UNL     1      14.538  12.616  20.762  1.00  0.00    -0.649 OA
BRANCH  26  28
HETATM   28  O2  UNL     1      16.197  12.445  22.222  1.00  0.00    -0.776 OA
HETATM   29  H11 UNL     1      15.442  11.989  22.648  1.00  0.00     0.167 HD
ENDBRANCH  26  28
ENDBRANCH   4  26
BRANCH   1  30
HETATM   30  C2  UNL     1      15.683  17.314  20.046  1.00  0.00    -0.088 C 
HETATM   31  C1  UNL     1      14.702  18.158  20.408  1.00  0.00     0.014 C 
HETATM   32  C3  UNL     1      16.823  17.803  19.187  1.00  0.00     0.043 C 
ENDBRANCH   1  30
BRANCH  11  33
HETATM   33  O3  UNL     1      12.984  16.111  15.811  1.00  0.00    -0.395 OA
HETATM   34  H23 UNL     1      13.757  16.450  15.328  1.00  0.00     0.210 HD
ENDBRANCH  11  33
BRANCH  18  35
HETATM   35  C24 UNL     1      13.909  11.066  11.251  1.00  0.00     0.176 C 
BRANCH  35  36
HETATM   36  O5  UNL     1      13.403  10.808   9.944  1.00  0.00    -0.400 OA
HETATM   37  H39 UNL     1      13.482  11.628   9.429  1.00  0.00     0.209 HD
ENDBRANCH  35  36
ENDBRANCH  18  35
BRANCH  17  38
HETATM   38  O4  UNL     1      13.793  13.809  10.911  1.00  0.00    -0.395 OA
HETATM   39  H33 UNL     1      13.544  14.614  10.424  1.00  0.00     0.210 HD
ENDBRANCH  17  38
TORSDOF 7
ENDMDL
MODEL 7
REMARK minimizedAffinity -7.75397825
REMARK CNNscore 0.374777257
REMARK CNNaffinity 5.50169992
REMARK  7 active torsions:
REMARK  status: ('A' for Active; 'I' for Inactive)
REMARK    1  A    between atoms: C2_2  and  C4_4 
REMARK    2  A    between atoms: C7_7  and  C8_8 
REMARK    3  A    between atoms: C8_8  and  O2_10 
REMARK    4  A    between atoms: C15_17  and  O3_18 
REMARK    5  A    between atoms: C21_24  and  O4_25 
REMARK    6  A    between atoms: C22_26  and  C24_28 
REMARK    7  A    between atoms: C24_28  and  O5_29 
ROOT
HETATM    1  C4  UNL     1     -13.538  -6.867  -4.486  1.00  0.00     0.019 C 
HETATM    2  C5  UNL     1     -14.808  -7.702  -4.806  1.00  0.00     0.011 C 
HETATM    3  C6  UNL     1     -15.346  -7.197  -6.155  1.00  0.00     0.021 C 
HETATM    4  C7  UNL     1     -14.766  -5.786  -6.281  1.00  0.00     0.050 C 
HETATM    5  C9  UNL     1     -14.694  -5.230  -7.709  1.00  0.00     0.022 C 
HETATM    6  C10 UNL     1     -13.882  -3.919  -7.743  1.00  0.00     0.011 C 
HETATM    7  C11 UNL     1     -12.440  -4.017  -7.127  1.00  0.00    -0.032 C 
HETATM    8  C12 UNL     1     -11.624  -4.905  -8.127  1.00  0.00     0.016 C 
HETATM    9  C13 UNL     1     -12.513  -4.713  -5.713  1.00  0.00     0.003 C 
HETATM   10  C14 UNL     1     -11.119  -4.874  -5.111  1.00  0.00     0.038 C 
HETATM   11  C15 UNL     1     -10.325  -3.561  -5.016  1.00  0.00     0.124 C 
HETATM   12  C16 UNL     1     -10.274  -2.747  -6.347  1.00  0.00     0.032 C 
HETATM   13  C17 UNL     1      -9.351  -1.422  -6.350  1.00  0.00    -0.033 C 
HETATM   14  C18 UNL     1      -9.816  -0.408  -5.277  1.00  0.00     0.016 C 
HETATM   15  C19 UNL     1      -7.872  -1.794  -6.015  1.00  0.00     0.012 C 
HETATM   16  C20 UNL     1      -6.843  -0.695  -6.291  1.00  0.00     0.033 C 
HETATM   17  C21 UNL     1      -6.905  -0.183  -7.724  1.00  0.00     0.128 C 
HETATM   18  C22 UNL     1      -8.323   0.306  -8.146  1.00  0.00     0.007 C 
HETATM   19  C23 UNL     1      -8.644   1.638  -7.438  1.00  0.00     0.020 C 
HETATM   20  C25 UNL     1      -9.367  -0.841  -7.826  1.00  0.00     0.007 C 
HETATM   21  C26 UNL     1     -10.802  -0.550  -8.297  1.00  0.00     0.007 C 
HETATM   22  C27 UNL     1     -11.656  -1.817  -8.301  1.00  0.00     0.011 C 
HETATM   23  C28 UNL     1     -11.741  -2.557  -6.941  1.00  0.00    -0.030 C 
HETATM   24  C29 UNL     1     -12.614  -1.667  -6.003  1.00  0.00     0.016 C 
HETATM   25  C30 UNL     1     -13.325  -6.030  -5.770  1.00  0.00     0.017 C 
ENDROOT
BRANCH   4  26
HETATM   26  C8  UNL     1     -15.633  -4.856  -5.416  1.00  0.00     0.149 C 
HETATM   27  O1  UNL     1     -16.849  -4.813  -5.353  1.00  0.00    -0.649 OA
BRANCH  26  28
HETATM   28  O2  UNL     1     -14.904  -3.990  -4.681  1.00  0.00    -0.776 OA
HETATM   29  H11 UNL     1     -15.577  -3.464  -4.201  1.00  0.00     0.167 HD
ENDBRANCH  26  28
ENDBRANCH   4  26
BRANCH   1  30
HETATM   30  C2  UNL     1     -12.422  -7.773  -3.989  1.00  0.00    -0.088 C 
HETATM   31  C1  UNL     1     -12.598  -8.898  -3.276  1.00  0.00     0.014 C 
HETATM   32  C3  UNL     1     -11.030  -7.312  -4.346  1.00  0.00     0.043 C 
ENDBRANCH   1  30
BRANCH  11  33
HETATM   33  O3  UNL     1      -9.022  -3.928  -4.566  1.00  0.00    -0.395 OA
HETATM   34  H23 UNL     1      -8.624  -4.500  -5.246  1.00  0.00     0.210 HD
ENDBRANCH  11  33
BRANCH  18  35
HETATM   35  C24 UNL     1      -8.257   0.578  -9.686  1.00  0.00     0.176 C 
BRANCH  35  36
HETATM   36  O5  UNL     1      -7.016   1.135 -10.115  1.00  0.00    -0.400 OA
HETATM   37  H39 UNL     1      -6.360   0.418 -10.130  1.00  0.00     0.209 HD
ENDBRANCH  35  36
ENDBRANCH  18  35
BRANCH  17  38
HETATM   38  O4  UNL     1      -6.475  -1.235  -8.594  1.00  0.00    -0.395 OA
HETATM   39  H33 UNL     1      -5.589  -1.516  -8.305  1.00  0.00     0.210 HD
ENDBRANCH  17  38
TORSDOF 7
ENDMDL
MODEL 8
REMARK minimizedAffinity -9.22842026
REMARK CNNscore 0.353250504
REMARK CNNaffinity 6.36845922
REMARK  7 active torsions:
REMARK  status: ('A' for Active; 'I' for Inactive)
REMARK    1  A    between atoms: C2_2  and  C4_4 
REMARK    2  A    between atoms: C7_7  and  C8_8 
REMARK    3  A    between atoms: C8_8  and  O2_10 
REMARK    4  A    between atoms: C15_17  and  O3_18 
REMARK    5  A    between atoms: C21_24  and  O4_25 
REMARK    6  A    between atoms: C22_26  and  C24_28 
REMARK    7  A    between atoms: C24_28  and  O5_29 
ROOT
HETATM    1  C4  UNL     1      -1.458  11.527  15.826  1.00  0.00     0.019 C 
HETATM    2  C5  UNL     1       0.021  11.986  15.709  1.00  0.00     0.011 C 
HETATM    3  C6  UNL     1       0.743  10.943  14.840  1.00  0.00     0.021 C 
HETATM    4  C7  UNL     1      -0.126   9.688  14.967  1.00  0.00     0.050 C 
HETATM    5  C9  UNL     1       0.036   8.659  13.841  1.00  0.00     0.022 C 
HETATM    6  C10 UNL     1      -1.047   7.566  13.942  1.00  0.00     0.011 C 
HETATM    7  C11 UNL     1      -2.524   8.099  13.980  1.00  0.00    -0.032 C 
HETATM    8  C12 UNL     1      -2.796   8.663  12.543  1.00  0.00     0.016 C 
HETATM    9  C13 UNL     1      -2.646   9.250  15.051  1.00  0.00     0.003 C 
HETATM   10  C14 UNL     1      -4.059   9.829  15.073  1.00  0.00     0.038 C 
HETATM   11  C15 UNL     1      -5.159   8.779  15.295  1.00  0.00     0.124 C 
HETATM   12  C16 UNL     1      -5.069   7.546  14.341  1.00  0.00     0.032 C 
HETATM   13  C17 UNL     1      -6.268   6.468  14.437  1.00  0.00    -0.033 C 
HETATM   14  C18 UNL     1      -6.374   5.867  15.860  1.00  0.00     0.016 C 
HETATM   15  C19 UNL     1      -7.636   7.154  14.128  1.00  0.00     0.012 C 
HETATM   16  C20 UNL     1      -8.804   6.197  13.876  1.00  0.00     0.033 C 
HETATM   17  C21 UNL     1      -8.504   5.187  12.776  1.00  0.00     0.128 C 
HETATM   18  C22 UNL     1      -7.200   4.371  13.023  1.00  0.00     0.007 C 
HETATM   19  C23 UNL     1      -7.427   3.365  14.170  1.00  0.00     0.020 C 
HETATM   20  C25 UNL     1      -6.018   5.386  13.305  1.00  0.00     0.007 C 
HETATM   21  C26 UNL     1      -4.634   4.730  13.453  1.00  0.00     0.007 C 
HETATM   22  C27 UNL     1      -3.513   5.764  13.346  1.00  0.00     0.011 C 
HETATM   23  C28 UNL     1      -3.598   6.934  14.360  1.00  0.00    -0.030 C 
HETATM   24  C29 UNL     1      -3.258   6.336  15.760  1.00  0.00     0.016 C 
HETATM   25  C30 UNL     1      -1.538  10.316  14.867  1.00  0.00     0.017 C 
ENDROOT
BRANCH   4  26
HETATM   26  C8  UNL     1       0.217   9.028  16.313  1.00  0.00     0.149 C 
HETATM   27  O1  UNL     1       0.429   9.575  17.381  1.00  0.00    -0.649 OA
BRANCH  26  28
HETATM   28  O2  UNL     1       0.308   7.684  16.232  1.00  0.00    -0.776 OA
HETATM   29  H11 UNL     1       0.540   7.408  17.143  1.00  0.00     0.167 HD
ENDBRANCH  26  28
ENDBRANCH   4  26
BRANCH   1  30
HETATM   30  C2  UNL     1      -2.395  12.708  15.619  1.00  0.00    -0.088 C 
HETATM   31  C1  UNL     1      -2.445  13.472  14.515  1.00  0.00     0.014 C 
HETATM   32  C3  UNL     1      -3.305  13.004  16.786  1.00  0.00     0.043 C 
ENDBRANCH   1  30
BRANCH  11  33
HETATM   33  O3  UNL     1      -6.395   9.476  15.149  1.00  0.00    -0.395 OA
HETATM   34  H23 UNL     1      -6.442   9.807  14.235  1.00  0.00     0.210 HD
ENDBRANCH  11  33
BRANCH  18  35
HETATM   35  C24 UNL     1      -6.931   3.560  11.711  1.00  0.00     0.176 C 
BRANCH  35  36
HETATM   36  O5  UNL     1      -6.641   2.183  11.940  1.00  0.00    -0.400 OA
HETATM   37  H39 UNL     1      -7.479   1.734  12.145  1.00  0.00     0.209 HD
ENDBRANCH  35  36
ENDBRANCH  18  35
BRANCH  17  38
HETATM   38  O4  UNL     1      -8.409   5.893  11.534  1.00  0.00    -0.395 OA
HETATM   39  H33 UNL     1      -9.237   6.389  11.411  1.00  0.00     0.210 HD
ENDBRANCH  17  38
TORSDOF 7
ENDMDL
MODEL 9
REMARK minimizedAffinity -6.59898949
REMARK CNNscore 0.318811953
REMARK CNNaffinity 6.15151596
REMARK  7 active torsions:
REMARK  status: ('A' for Active; 'I' for Inactive)
REMARK    1  A    between atoms: C2_2  and  C4_4 
REMARK    2  A    between atoms: C7_7  and  C8_8 
REMARK    3  A    between atoms: C8_8  and  O2_10 
REMARK    4  A    between atoms: C15_17  and  O3_18 
REMARK    5  A    between atoms: C21_24  and  O4_25 
REMARK    6  A    between atoms: C22_26  and  C24_28 
REMARK    7  A    between atoms: C24_28  and  O5_29 
ROOT
HETATM    1  C4  UNL     1      -0.347  17.185   6.828  1.00  0.00     0.019 C 
HETATM    2  C5  UNL     1      -1.797  17.053   7.367  1.00  0.00     0.011 C 
HETATM    3  C6  UNL     1      -2.567  16.177   6.365  1.00  0.00     0.021 C 
HETATM    4  C7  UNL     1      -1.770  16.312   5.064  1.00  0.00     0.050 C 
HETATM    5  C9  UNL     1      -1.978  15.185   4.046  1.00  0.00     0.022 C 
HETATM    6  C10 UNL     1      -0.958  15.296   2.894  1.00  0.00     0.011 C 
HETATM    7  C11 UNL     1       0.546  15.349   3.344  1.00  0.00    -0.032 C 
HETATM    8  C12 UNL     1       0.863  13.916   3.893  1.00  0.00     0.016 C 
HETATM    9  C13 UNL     1       0.720  16.421   4.488  1.00  0.00     0.003 C 
HETATM   10  C14 UNL     1       2.164  16.459   4.988  1.00  0.00     0.038 C 
HETATM   11  C15 UNL     1       3.201  16.691   3.878  1.00  0.00     0.124 C 
HETATM   12  C16 UNL     1       3.053  15.736   2.652  1.00  0.00     0.032 C 
HETATM   13  C17 UNL     1       4.189  15.844   1.509  1.00  0.00    -0.033 C 
HETATM   14  C18 UNL     1       4.247  17.267   0.904  1.00  0.00     0.016 C 
HETATM   15  C19 UNL     1       5.596  15.549   2.118  1.00  0.00     0.012 C 
HETATM   16  C20 UNL     1       6.711  15.309   1.097  1.00  0.00     0.033 C 
HETATM   17  C21 UNL     1       6.368  14.206   0.105  1.00  0.00     0.128 C 
HETATM   18  C22 UNL     1       5.018  14.439  -0.637  1.00  0.00     0.007 C 
HETATM   19  C23 UNL     1       5.177  15.588  -1.653  1.00  0.00     0.020 C 
HETATM   20  C25 UNL     1       3.891  14.709   0.442  1.00  0.00     0.007 C 
HETATM   21  C26 UNL     1       2.471  14.843  -0.136  1.00  0.00     0.007 C 
HETATM   22  C27 UNL     1       1.410  14.725   0.958  1.00  0.00     0.011 C 
HETATM   23  C28 UNL     1       1.550  15.740   2.122  1.00  0.00    -0.030 C 
HETATM   24  C29 UNL     1       1.163  17.137   1.544  1.00  0.00     0.016 C 
HETATM   25  C30 UNL     1      -0.325  16.227   5.613  1.00  0.00     0.017 C 
ENDROOT
BRANCH   4  26
HETATM   26  C8  UNL     1      -2.163  17.655   4.425  1.00  0.00     0.149 C 
HETATM   27  O1  UNL     1      -3.274  18.025   4.087  1.00  0.00    -0.649 OA
BRANCH  26  28
HETATM   28  O2  UNL     1      -1.106  18.465   4.212  1.00  0.00    -0.776 OA
HETATM   29  H11 UNL     1      -1.499  19.261   3.797  1.00  0.00     0.167 HD
ENDBRANCH  26  28
ENDBRANCH   4  26
BRANCH   1  30
HETATM   30  C2  UNL     1       0.656  16.988   7.955  1.00  0.00    -0.088 C 
HETATM   31  C1  UNL     1       1.958  16.700   7.791  1.00  0.00     0.014 C 
HETATM   32  C3  UNL     1       0.079  17.126   9.342  1.00  0.00     0.043 C 
ENDBRANCH   1  30
BRANCH  11  33
HETATM   33  O3  UNL     1       4.475  16.558   4.506  1.00  0.00    -0.395 OA
HETATM   34  H23 UNL     1       4.550  15.644   4.833  1.00  0.00     0.210 HD
ENDBRANCH  11  33
BRANCH  18  35
HETATM   35  C24 UNL     1       4.717  13.125  -1.433  1.00  0.00     0.176 C 
BRANCH  35  36
HETATM   36  O5  UNL     1       5.859  12.288  -1.606  1.00  0.00    -0.400 OA
HETATM   37  H39 UNL     1       6.026  11.837  -0.762  1.00  0.00     0.209 HD
ENDBRANCH  35  36
ENDBRANCH  18  35
BRANCH  17  38
HETATM   38  O4  UNL     1       6.324  12.963   0.815  1.00  0.00    -0.395 OA
HETATM   39  H33 UNL     1       7.179  12.848   1.264  1.00  0.00     0.210 HD
ENDBRANCH  17  38
TORSDOF 7
ENDMDL
