MODEL 1
REMARK minimizedAffinity -6.05692244
REMARK CNNscore 0.559033811
REMARK CNNaffinity 6.10994577
REMARK  20 active torsions:
REMARK  status: ('A' for Active; 'I' for Inactive)
REMARK    1  A    between atoms: C2_2  and  C3_3 
REMARK    2  A    between atoms: C2_2  and  C28_35 
REMARK    3  A    between atoms: C4_4  and  C5_5 
REMARK    4  A    between atoms: C6_6  and  C7_7 
REMARK    5  A    between atoms: C6_6  and  C9_11 
REMARK    6  A    between atoms: C7_7  and  O1_8 
REMARK    7  A    between atoms: O1_8  and  C8_9 
REMARK    8  A    between atoms: C8_9  and  O2_10 
REMARK    9  A    between atoms: C13_15  and  O3_16 
REMARK   10  A    between atoms: C14_17  and  C15_18 
REMARK   11  A    between atoms: C15_18  and  C16_19 
REMARK   12  A    between atoms: C16_19  and  C17_20 
REMARK   13  A    between atoms: C17_20  and  O4_21 
REMARK   14  A    between atoms: C19_23  and  C21_25 
REMARK   15  A    between atoms: C24_29  and  O6_30 
REMARK   16  A    between atoms: C24_29  and  C25_31 
REMARK   17  A    between atoms: C25_31  and  C26_32 
REMARK   18  A    between atoms: C26_32  and  N1_33 
REMARK   19  A    between atoms: C28_35  and  C29_36 
REMARK   20  A    between atoms: C29_36  and  C30_37 
ROOT
HETATM    1  C9  UNL     1       4.357  11.033  15.828  1.00  0.00     0.046 C 
HETATM    2  C10 UNL     1       3.236  11.507  14.883  1.00  0.00     0.013 C 
HETATM    3  C11 UNL     1       2.716  10.265  14.147  1.00  0.00     0.017 C 
HETATM    4  C12 UNL     1       3.372   9.005  14.821  1.00  0.00     0.025 C 
HETATM    5  C13 UNL     1       3.811   9.626  16.189  1.00  0.00     0.138 C 
HETATM    6  C14 UNL     1       4.639   8.611  13.895  1.00  0.00     0.029 C 
HETATM    7  C18 UNL     1       4.137   8.166  12.501  1.00  0.00    -0.066 C 
HETATM    8  C19 UNL     1       4.514   8.735  11.329  1.00  0.00    -0.021 C 
HETATM    9  C20 UNL     1       3.974   8.341   9.985  1.00  0.00     0.052 C 
HETATM   10  C22 UNL     1       3.143   7.023  12.566  1.00  0.00     0.038 C 
HETATM   11  C23 UNL     1       1.964   7.327  13.493  1.00  0.00     0.043 C 
HETATM   12  C24 UNL     1       2.390   7.764  14.918  1.00  0.00     0.070 C 
ENDROOT
BRANCH   5  13
HETATM   13  O3  UNL     1       2.695   9.779  17.068  1.00  0.00    -0.394 OA
HETATM   14  H17 UNL     1       2.964  10.355  17.806  1.00  0.00     0.210 HD
ENDBRANCH   5  13
BRANCH   6  15
HETATM   15  C15 UNL     1       5.680   7.540  14.350  1.00  0.00     0.012 C 
BRANCH  15  16
HETATM   16  C16 UNL     1       7.169   7.862  14.175  1.00  0.00     0.027 C 
BRANCH  16  17
HETATM   17  C17 UNL     1       7.877   8.304  15.455  1.00  0.00     0.164 C 
BRANCH  17  18
HETATM   18  O4  UNL     1       7.049   8.124  16.598  1.00  0.00    -0.401 OA
HETATM   19  H25 UNL     1       6.433   8.881  16.618  1.00  0.00     0.209 HD
ENDBRANCH  17  18
ENDBRANCH  16  17
ENDBRANCH  15  16
ENDBRANCH   6  15
BRANCH  12  20
HETATM   20  O6  UNL     1       3.169   6.668  15.473  1.00  0.00    -0.389 OA
HETATM   21  H34 UNL     1       2.600   5.879  15.473  1.00  0.00     0.210 HD
ENDBRANCH  12  20
BRANCH  12  22
HETATM   22  C25 UNL     1       1.144   7.799  15.861  1.00  0.00     0.068 C 
BRANCH  22  23
HETATM   23  C26 UNL     1      -0.264   7.476  15.356  1.00  0.00     0.272 C 
BRANCH  23  24
HETATM   24  N1  UNL     1      -0.606   6.061  15.530  1.00  0.00     0.079 N 
HETATM   25  C27 UNL     1      -1.760   5.707  14.713  1.00  0.00     0.306 C 
HETATM   26  H39 UNL     1      -0.839   5.898  16.509  1.00  0.00     0.315 HD
ENDBRANCH  23  24
ENDBRANCH  22  23
ENDBRANCH  12  22
BRANCH   1  27
HETATM   27  C6  UNL     1       4.757  12.052  16.906  1.00  0.00    -0.050 C 
HETATM   28  C5  UNL     1       3.973  12.694  17.802  1.00  0.00     0.005 C 
BRANCH  28  29
HETATM   29  C4  UNL     1       2.554  12.559  18.034  1.00  0.00     0.001 C 
HETATM   30  C3  UNL     1       1.898  12.132  19.128  1.00  0.00     0.006 C 
BRANCH  30  31
HETATM   31  C2  UNL     1       2.358  11.661  20.434  1.00  0.00    -0.067 C 
HETATM   32  C1  UNL     1       2.206  10.353  20.720  1.00  0.00     0.019 C 
BRANCH  31  33
HETATM   33  C28 UNL     1       3.062  12.630  21.369  1.00  0.00     0.041 C 
BRANCH  33  34
HETATM   34  C29 UNL     1       3.404  12.136  22.784  1.00  0.00     0.032 C 
BRANCH  34  35
HETATM   35  C30 UNL     1       4.870  11.800  22.902  1.00  0.00    -0.024 C 
HETATM   36  C31 UNL     1       5.901  12.663  22.990  1.00  0.00    -0.091 C 
HETATM   37  C32 UNL     1       7.320  12.166  23.085  1.00  0.00     0.042 C 
HETATM   38  C33 UNL     1       5.769  14.164  23.022  1.00  0.00     0.042 C 
ENDBRANCH  34  35
ENDBRANCH  33  34
ENDBRANCH  31  33
ENDBRANCH  30  31
ENDBRANCH  28  29
BRANCH  27  39
HETATM   39  C7  UNL     1       6.263  12.258  17.052  1.00  0.00     0.205 C 
BRANCH  39  40
HETATM   40  O1  UNL     1       6.640  12.640  18.372  1.00  0.00    -0.363 OA
BRANCH  40  41
HETATM   41  C8  UNL     1       8.003  12.387  18.653  1.00  0.00     0.334 C 
BRANCH  41  42
HETATM   42  O2  UNL     1       8.062  11.426  19.688  1.00  0.00    -0.377 OA
HETATM   43  H10 UNL     1       7.470  11.777  20.375  1.00  0.00     0.212 HD
ENDBRANCH  41  42
ENDBRANCH  40  41
ENDBRANCH  39  40
ENDBRANCH  27  39
ENDBRANCH   1  27
BRANCH   8  44
HETATM   44  C21 UNL     1       5.503   9.853  11.260  1.00  0.00     0.265 C 
HETATM   45  O5  UNL     1       6.045  10.232  10.230  1.00  0.00    -0.302 OA
ENDBRANCH   8  44
TORSDOF 20
ENDMDL
MODEL 2
REMARK minimizedAffinity -8.74676132
REMARK CNNscore 0.268725157
REMARK CNNaffinity 6.96151972
REMARK  20 active torsions:
REMARK  status: ('A' for Active; 'I' for Inactive)
REMARK    1  A    between atoms: C2_2  and  C3_3 
REMARK    2  A    between atoms: C2_2  and  C28_35 
REMARK    3  A    between atoms: C4_4  and  C5_5 
REMARK    4  A    between atoms: C6_6  and  C7_7 
REMARK    5  A    between atoms: C6_6  and  C9_11 
REMARK    6  A    between atoms: C7_7  and  O1_8 
REMARK    7  A    between atoms: O1_8  and  C8_9 
REMARK    8  A    between atoms: C8_9  and  O2_10 
REMARK    9  A    between atoms: C13_15  and  O3_16 
REMARK   10  A    between atoms: C14_17  and  C15_18 
REMARK   11  A    between atoms: C15_18  and  C16_19 
REMARK   12  A    between atoms: C16_19  and  C17_20 
REMARK   13  A    between atoms: C17_20  and  O4_21 
REMARK   14  A    between atoms: C19_23  and  C21_25 
REMARK   15  A    between atoms: C24_29  and  O6_30 
REMARK   16  A    between atoms: C24_29  and  C25_31 
REMARK   17  A    between atoms: C25_31  and  C26_32 
REMARK   18  A    between atoms: C26_32  and  N1_33 
REMARK   19  A    between atoms: C28_35  and  C29_36 
REMARK   20  A    between atoms: C29_36  and  C30_37 
ROOT
HETATM    1  C9  UNL     1      -0.879   4.910  11.721  1.00  0.00     0.046 C 
HETATM    2  C10 UNL     1       0.086   4.586  12.879  1.00  0.00     0.013 C 
HETATM    3  C11 UNL     1       0.968   5.825  13.086  1.00  0.00     0.017 C 
HETATM    4  C12 UNL     1       0.376   6.981  12.200  1.00  0.00     0.025 C 
HETATM    5  C13 UNL     1      -1.070   6.431  11.964  1.00  0.00     0.138 C 
HETATM    6  C14 UNL     1       1.253   6.998  10.840  1.00  0.00     0.029 C 
HETATM    7  C18 UNL     1       2.712   7.388  11.175  1.00  0.00    -0.066 C 
HETATM    8  C19 UNL     1       3.798   6.630  10.883  1.00  0.00    -0.021 C 
HETATM    9  C20 UNL     1       5.205   6.984  11.268  1.00  0.00     0.052 C 
HETATM   10  C22 UNL     1       2.819   8.716  11.900  1.00  0.00     0.038 C 
HETATM   11  C23 UNL     1       1.945   8.768  13.154  1.00  0.00     0.043 C 
HETATM   12  C24 UNL     1       0.460   8.406  12.893  1.00  0.00     0.070 C 
ENDROOT
BRANCH   5  13
HETATM   13  O3  UNL     1      -1.887   6.612  13.122  1.00  0.00    -0.394 OA
HETATM   14  H17 UNL     1      -2.692   6.074  13.015  1.00  0.00     0.210 HD
ENDBRANCH   5  13
BRANCH   6  15
HETATM   15  C15 UNL     1       0.836   7.866   9.612  1.00  0.00     0.012 C 
BRANCH  15  16
HETATM   16  C16 UNL     1       1.857   8.056   8.484  1.00  0.00     0.027 C 
BRANCH  16  17
HETATM   17  C17 UNL     1       1.971   6.870   7.526  1.00  0.00     0.164 C 
BRANCH  17  18
HETATM   18  O4  UNL     1       1.864   7.284   6.169  1.00  0.00    -0.401 OA
HETATM   19  H25 UNL     1       0.913   7.403   5.988  1.00  0.00     0.209 HD
ENDBRANCH  17  18
ENDBRANCH  16  17
ENDBRANCH  15  16
ENDBRANCH   6  15
BRANCH  12  20
HETATM   20  O6  UNL     1      -0.037   9.365  11.919  1.00  0.00    -0.389 OA
HETATM   21  H34 UNL     1       0.074  10.252  12.302  1.00  0.00     0.210 HD
ENDBRANCH  12  20
BRANCH  12  22
HETATM   22  C25 UNL     1      -0.401   8.735  14.154  1.00  0.00     0.068 C 
BRANCH  22  23
HETATM   23  C26 UNL     1      -0.017   8.237  15.550  1.00  0.00     0.272 C 
BRANCH  23  24
HETATM   24  N1  UNL     1      -0.996   7.291  16.093  1.00  0.00     0.079 N 
HETATM   25  C27 UNL     1      -2.251   7.967  16.398  1.00  0.00     0.306 C 
HETATM   26  H39 UNL     1      -0.624   6.891  16.953  1.00  0.00     0.315 HD
ENDBRANCH  23  24
ENDBRANCH  22  23
ENDBRANCH  12  22
BRANCH   1  27
HETATM   27  C6  UNL     1      -2.073   3.950  11.598  1.00  0.00    -0.050 C 
HETATM   28  C5  UNL     1      -3.306   4.052  12.143  1.00  0.00     0.005 C 
BRANCH  28  29
HETATM   29  C4  UNL     1      -3.864   5.116  12.945  1.00  0.00     0.001 C 
HETATM   30  C3  UNL     1      -5.123   5.292  13.383  1.00  0.00     0.006 C 
BRANCH  30  31
HETATM   31  C2  UNL     1      -6.347   4.508  13.213  1.00  0.00    -0.067 C 
HETATM   32  C1  UNL     1      -6.434   3.705  12.136  1.00  0.00     0.019 C 
BRANCH  31  33
HETATM   33  C28 UNL     1      -7.419   4.560  14.290  1.00  0.00     0.041 C 
BRANCH  33  34
HETATM   34  C29 UNL     1      -8.020   5.933  14.633  1.00  0.00     0.032 C 
BRANCH  34  35
HETATM   35  C30 UNL     1      -9.122   6.298  13.670  1.00  0.00    -0.024 C 
HETATM   36  C31 UNL     1     -10.157   7.132  13.891  1.00  0.00    -0.091 C 
HETATM   37  C32 UNL     1     -11.191   7.380  12.824  1.00  0.00     0.042 C 
HETATM   38  C33 UNL     1     -10.388   7.900  15.166  1.00  0.00     0.042 C 
ENDBRANCH  34  35
ENDBRANCH  33  34
ENDBRANCH  31  33
ENDBRANCH  30  31
ENDBRANCH  28  29
BRANCH  27  39
HETATM   39  C7  UNL     1      -1.856   2.797  10.620  1.00  0.00     0.205 C 
BRANCH  39  40
HETATM   40  O1  UNL     1      -0.661   2.070  10.885  1.00  0.00    -0.363 OA
BRANCH  40  41
HETATM   41  C8  UNL     1      -0.769   0.695  10.572  1.00  0.00     0.334 C 
BRANCH  41  42
HETATM   42  O2  UNL     1      -0.588   0.551   9.176  1.00  0.00    -0.377 OA
HETATM   43  H10 UNL     1      -1.200   1.200   8.788  1.00  0.00     0.212 HD
ENDBRANCH  41  42
ENDBRANCH  40  41
ENDBRANCH  39  40
ENDBRANCH  27  39
ENDBRANCH   1  27
BRANCH   8  44
HETATM   44  C21 UNL     1       3.698   5.327  10.158  1.00  0.00     0.265 C 
HETATM   45  O5  UNL     1       4.591   4.850   9.469  1.00  0.00    -0.302 OA
ENDBRANCH   8  44
TORSDOF 20
ENDMDL
MODEL 3
REMARK minimizedAffinity -6.69077015
REMARK CNNscore 0.265277147
REMARK CNNaffinity 5.68255854
REMARK  20 active torsions:
REMARK  status: ('A' for Active; 'I' for Inactive)
REMARK    1  A    between atoms: C2_2  and  C3_3 
REMARK    2  A    between atoms: C2_2  and  C28_35 
REMARK    3  A    between atoms: C4_4  and  C5_5 
REMARK    4  A    between atoms: C6_6  and  C7_7 
REMARK    5  A    between atoms: C6_6  and  C9_11 
REMARK    6  A    between atoms: C7_7  and  O1_8 
REMARK    7  A    between atoms: O1_8  and  C8_9 
REMARK    8  A    between atoms: C8_9  and  O2_10 
REMARK    9  A    between atoms: C13_15  and  O3_16 
REMARK   10  A    between atoms: C14_17  and  C15_18 
REMARK   11  A    between atoms: C15_18  and  C16_19 
REMARK   12  A    between atoms: C16_19  and  C17_20 
REMARK   13  A    between atoms: C17_20  and  O4_21 
REMARK   14  A    between atoms: C19_23  and  C21_25 
REMARK   15  A    between atoms: C24_29  and  O6_30 
REMARK   16  A    between atoms: C24_29  and  C25_31 
REMARK   17  A    between atoms: C25_31  and  C26_32 
REMARK   18  A    between atoms: C26_32  and  N1_33 
REMARK   19  A    between atoms: C28_35  and  C29_36 
REMARK   20  A    between atoms: C29_36  and  C30_37 
ROOT
HETATM    1  C9  UNL     1       0.385  10.924  17.719  1.00  0.00     0.046 C 
HETATM    2  C10 UNL     1      -0.637  10.742  18.858  1.00  0.00     0.013 C 
HETATM    3  C11 UNL     1      -2.027  10.692  18.209  1.00  0.00     0.017 C 
HETATM    4  C12 UNL     1      -1.820  10.614  16.652  1.00  0.00     0.025 C 
HETATM    5  C13 UNL     1      -0.334  10.125  16.599  1.00  0.00     0.138 C 
HETATM    6  C14 UNL     1      -1.985  12.127  16.102  1.00  0.00     0.029 C 
HETATM    7  C18 UNL     1      -3.438  12.604  16.341  1.00  0.00    -0.066 C 
HETATM    8  C19 UNL     1      -3.778  13.709  17.050  1.00  0.00    -0.021 C 
HETATM    9  C20 UNL     1      -5.191  14.131  17.332  1.00  0.00     0.052 C 
HETATM   10  C22 UNL     1      -4.472  11.689  15.716  1.00  0.00     0.038 C 
HETATM   11  C23 UNL     1      -4.304  10.233  16.153  1.00  0.00     0.043 C 
HETATM   12  C24 UNL     1      -2.874   9.677  15.927  1.00  0.00     0.070 C 
ENDROOT
BRANCH   5  13
HETATM   13  O3  UNL     1      -0.238   8.731  16.894  1.00  0.00    -0.394 OA
HETATM   14  H17 UNL     1       0.697   8.518  17.063  1.00  0.00     0.210 HD
ENDBRANCH   5  13
BRANCH   6  15
HETATM   15  C15 UNL     1      -1.636  12.501  14.627  1.00  0.00     0.012 C 
BRANCH  15  16
HETATM   16  C16 UNL     1      -0.844  13.790  14.379  1.00  0.00     0.027 C 
BRANCH  16  17
HETATM   17  C17 UNL     1       0.557  13.801  14.992  1.00  0.00     0.164 C 
BRANCH  17  18
HETATM   18  O4  UNL     1       1.512  13.206  14.120  1.00  0.00    -0.401 OA
HETATM   19  H25 UNL     1       1.420  12.241  14.223  1.00  0.00     0.209 HD
ENDBRANCH  17  18
ENDBRANCH  16  17
ENDBRANCH  15  16
ENDBRANCH   6  15
BRANCH  12  20
HETATM   20  O6  UNL     1      -2.606   9.786  14.501  1.00  0.00    -0.389 OA
HETATM   21  H34 UNL     1      -3.290   9.272  14.038  1.00  0.00     0.210 HD
ENDBRANCH  12  20
BRANCH  12  22
HETATM   22  C25 UNL     1      -2.860   8.131  16.152  1.00  0.00     0.068 C 
BRANCH  22  23
HETATM   23  C26 UNL     1      -3.586   7.168  15.210  1.00  0.00     0.272 C 
BRANCH  23  24
HETATM   24  N1  UNL     1      -4.747   6.537  15.845  1.00  0.00     0.079 N 
HETATM   25  C27 UNL     1      -5.752   6.188  14.849  1.00  0.00     0.306 C 
HETATM   26  H39 UNL     1      -5.158   7.196  16.505  1.00  0.00     0.315 HD
ENDBRANCH  23  24
ENDBRANCH  22  23
ENDBRANCH  12  22
BRANCH   1  27
HETATM   27  C6  UNL     1       1.842  10.636  18.115  1.00  0.00    -0.050 C 
HETATM   28  C5  UNL     1       2.441  10.785  19.319  1.00  0.00     0.005 C 
BRANCH  28  29
HETATM   29  C4  UNL     1       1.868  11.202  20.578  1.00  0.00     0.001 C 
HETATM   30  C3  UNL     1       2.066  10.715  21.815  1.00  0.00     0.006 C 
BRANCH  30  31
HETATM   31  C2  UNL     1       2.898   9.625  22.327  1.00  0.00    -0.067 C 
HETATM   32  C1  UNL     1       2.352   8.396  22.391  1.00  0.00     0.019 C 
BRANCH  31  33
HETATM   33  C28 UNL     1       4.352   9.899  22.674  1.00  0.00     0.041 C 
BRANCH  33  34
HETATM   34  C29 UNL     1       4.785  11.367  22.823  1.00  0.00     0.032 C 
BRANCH  34  35
HETATM   35  C30 UNL     1       6.281  11.477  22.983  1.00  0.00    -0.024 C 
HETATM   36  C31 UNL     1       7.014  12.605  23.054  1.00  0.00    -0.091 C 
HETATM   37  C32 UNL     1       8.513  12.545  23.197  1.00  0.00     0.042 C 
HETATM   38  C33 UNL     1       6.452  14.003  23.021  1.00  0.00     0.042 C 
ENDBRANCH  34  35
ENDBRANCH  33  34
ENDBRANCH  31  33
ENDBRANCH  30  31
ENDBRANCH  28  29
BRANCH  27  39
HETATM   39  C7  UNL     1       2.675   9.973  17.020  1.00  0.00     0.205 C 
BRANCH  39  40
HETATM   40  O1  UNL     1       2.501   8.560  16.979  1.00  0.00    -0.363 OA
BRANCH  40  41
HETATM   41  C8  UNL     1       2.803   8.003  15.714  1.00  0.00     0.334 C 
BRANCH  41  42
HETATM   42  O2  UNL     1       3.127   6.640  15.905  1.00  0.00    -0.377 OA
HETATM   43  H10 UNL     1       3.791   6.649  16.616  1.00  0.00     0.212 HD
ENDBRANCH  41  42
ENDBRANCH  40  41
ENDBRANCH  39  40
ENDBRANCH  27  39
ENDBRANCH   1  27
BRANCH   8  44
HETATM   44  C21 UNL     1      -2.761  14.620  17.656  1.00  0.00     0.265 C 
HETATM   45  O5  UNL     1      -2.247  14.447  18.754  1.00  0.00    -0.302 OA
ENDBRANCH   8  44
TORSDOF 20
ENDMDL
MODEL 4
REMARK minimizedAffinity -6.49401569
REMARK CNNscore 0.24152264
REMARK CNNaffinity 5.34485769
REMARK  20 active torsions:
REMARK  status: ('A' for Active; 'I' for Inactive)
REMARK    1  A    between atoms: C2_2  and  C3_3 
REMARK    2  A    between atoms: C2_2  and  C28_35 
REMARK    3  A    between atoms: C4_4  and  C5_5 
REMARK    4  A    between atoms: C6_6  and  C7_7 
REMARK    5  A    between atoms: C6_6  and  C9_11 
REMARK    6  A    between atoms: C7_7  and  O1_8 
REMARK    7  A    between atoms: O1_8  and  C8_9 
REMARK    8  A    between atoms: C8_9  and  O2_10 
REMARK    9  A    between atoms: C13_15  and  O3_16 
REMARK   10  A    between atoms: C14_17  and  C15_18 
REMARK   11  A    between atoms: C15_18  and  C16_19 
REMARK   12  A    between atoms: C16_19  and  C17_20 
REMARK   13  A    between atoms: C17_20  and  O4_21 
REMARK   14  A    between atoms: C19_23  and  C21_25 
REMARK   15  A    between atoms: C24_29  and  O6_30 
REMARK   16  A    between atoms: C24_29  and  C25_31 
REMARK   17  A    between atoms: C25_31  and  C26_32 
REMARK   18  A    between atoms: C26_32  and  N1_33 
REMARK   19  A    between atoms: C28_35  and  C29_36 
REMARK   20  A    between atoms: C29_36  and  C30_37 
ROOT
HETATM    1  C9  UNL     1       9.958  11.341  17.512  1.00  0.00     0.046 C 
HETATM    2  C10 UNL     1       8.577  11.934  17.170  1.00  0.00     0.013 C 
HETATM    3  C11 UNL     1       8.215  11.442  15.761  1.00  0.00     0.017 C 
HETATM    4  C12 UNL     1       9.282  10.364  15.347  1.00  0.00     0.025 C 
HETATM    5  C13 UNL     1       9.851   9.989  16.756  1.00  0.00     0.138 C 
HETATM    6  C14 UNL     1      10.371  11.137  14.435  1.00  0.00     0.029 C 
HETATM    7  C18 UNL     1       9.694  11.625  13.131  1.00  0.00    -0.066 C 
HETATM    8  C19 UNL     1       9.659  12.917  12.719  1.00  0.00    -0.021 C 
HETATM    9  C20 UNL     1       8.946  13.393  11.487  1.00  0.00     0.052 C 
HETATM   10  C22 UNL     1       9.037  10.505  12.350  1.00  0.00     0.038 C 
HETATM   11  C23 UNL     1       8.053   9.699  13.200  1.00  0.00     0.043 C 
HETATM   12  C24 UNL     1       8.666   9.160  14.518  1.00  0.00     0.070 C 
ENDROOT
BRANCH   5  13
HETATM   13  O3  UNL     1       8.953   9.136  17.467  1.00  0.00    -0.394 OA
HETATM   14  H17 UNL     1       9.233   9.104  18.399  1.00  0.00     0.210 HD
ENDBRANCH   5  13
BRANCH   6  15
HETATM   15  C15 UNL     1      11.709  10.456  14.007  1.00  0.00     0.012 C 
BRANCH  15  16
HETATM   16  C16 UNL     1      12.557  11.145  12.932  1.00  0.00     0.027 C 
BRANCH  16  17
HETATM   17  C17 UNL     1      13.997  10.639  12.839  1.00  0.00     0.164 C 
BRANCH  17  18
HETATM   18  O4  UNL     1      14.325  10.243  11.512  1.00  0.00    -0.401 OA
HETATM   19  H25 UNL     1      13.951   9.351  11.387  1.00  0.00     0.209 HD
ENDBRANCH  17  18
ENDBRANCH  16  17
ENDBRANCH  15  16
ENDBRANCH   6  15
BRANCH  12  20
HETATM   20  O6  UNL     1       9.784   8.310  14.139  1.00  0.00    -0.389 OA
HETATM   21  H34 UNL     1       9.432   7.605  13.569  1.00  0.00     0.210 HD
ENDBRANCH  12  20
BRANCH  12  22
HETATM   22  C25 UNL     1       7.686   8.144  15.187  1.00  0.00     0.068 C 
BRANCH  22  23
HETATM   23  C26 UNL     1       6.674   7.336  14.372  1.00  0.00     0.272 C 
BRANCH  23  24
HETATM   24  N1  UNL     1       5.393   7.182  15.068  1.00  0.00     0.079 N 
HETATM   25  C27 UNL     1       4.679   8.452  15.117  1.00  0.00     0.306 C 
HETATM   26  H39 UNL     1       5.573   6.873  16.022  1.00  0.00     0.315 HD
ENDBRANCH  23  24
ENDBRANCH  22  23
ENDBRANCH  12  22
BRANCH   1  27
HETATM   27  C6  UNL     1      10.333  11.414  19.000  1.00  0.00    -0.050 C 
HETATM   28  C5  UNL     1       9.590  11.847  20.044  1.00  0.00     0.005 C 
BRANCH  28  29
HETATM   29  C4  UNL     1       8.222  12.309  20.061  1.00  0.00     0.001 C 
HETATM   30  C3  UNL     1       7.366  12.426  21.092  1.00  0.00     0.006 C 
BRANCH  30  31
HETATM   31  C2  UNL     1       7.496  12.137  22.521  1.00  0.00    -0.067 C 
HETATM   32  C1  UNL     1       8.699  12.333  23.094  1.00  0.00     0.019 C 
BRANCH  31  33
HETATM   33  C28 UNL     1       6.267  11.720  23.310  1.00  0.00     0.041 C 
BRANCH  33  34
HETATM   34  C29 UNL     1       4.959  11.503  22.532  1.00  0.00     0.032 C 
BRANCH  34  35
HETATM   35  C30 UNL     1       4.236  10.272  23.018  1.00  0.00    -0.024 C 
HETATM   36  C31 UNL     1       3.270   9.585  22.377  1.00  0.00    -0.091 C 
HETATM   37  C32 UNL     1       2.632   8.376  23.010  1.00  0.00     0.042 C 
HETATM   38  C33 UNL     1       2.746   9.912  21.003  1.00  0.00     0.042 C 
ENDBRANCH  34  35
ENDBRANCH  33  34
ENDBRANCH  31  33
ENDBRANCH  30  31
ENDBRANCH  28  29
BRANCH  27  39
HETATM   39  C7  UNL     1      11.684  10.789  19.341  1.00  0.00     0.205 C 
BRANCH  39  40
HETATM   40  O1  UNL     1      12.699  11.764  19.563  1.00  0.00    -0.363 OA
BRANCH  40  41
HETATM   41  C8  UNL     1      13.501  11.996  18.421  1.00  0.00     0.334 C 
BRANCH  41  42
HETATM   42  O2  UNL     1      13.917  10.740  17.920  1.00  0.00    -0.377 OA
HETATM   43  H10 UNL     1      14.279  10.280  18.697  1.00  0.00     0.212 HD
ENDBRANCH  41  42
ENDBRANCH  40  41
ENDBRANCH  39  40
ENDBRANCH  27  39
ENDBRANCH   1  27
BRANCH   8  44
HETATM   44  C21 UNL     1      10.316  14.022  13.480  1.00  0.00     0.265 C 
HETATM   45  O5  UNL     1       9.907  15.175  13.515  1.00  0.00    -0.302 OA
ENDBRANCH   8  44
TORSDOF 20
ENDMDL
MODEL 5
REMARK minimizedAffinity -6.29680157
REMARK CNNscore 0.219624162
REMARK CNNaffinity 5.2630868
REMARK  20 active torsions:
REMARK  status: ('A' for Active; 'I' for Inactive)
REMARK    1  A    between atoms: C2_2  and  C3_3 
REMARK    2  A    between atoms: C2_2  and  C28_35 
REMARK    3  A    between atoms: C4_4  and  C5_5 
REMARK    4  A    between atoms: C6_6  and  C7_7 
REMARK    5  A    between atoms: C6_6  and  C9_11 
REMARK    6  A    between atoms: C7_7  and  O1_8 
REMARK    7  A    between atoms: O1_8  and  C8_9 
REMARK    8  A    between atoms: C8_9  and  O2_10 
REMARK    9  A    between atoms: C13_15  and  O3_16 
REMARK   10  A    between atoms: C14_17  and  C15_18 
REMARK   11  A    between atoms: C15_18  and  C16_19 
REMARK   12  A    between atoms: C16_19  and  C17_20 
REMARK   13  A    between atoms: C17_20  and  O4_21 
REMARK   14  A    between atoms: C19_23  and  C21_25 
REMARK   15  A    between atoms: C24_29  and  O6_30 
REMARK   16  A    between atoms: C24_29  and  C25_31 
REMARK   17  A    between atoms: C25_31  and  C26_32 
REMARK   18  A    between atoms: C26_32  and  N1_33 
REMARK   19  A    between atoms: C28_35  and  C29_36 
REMARK   20  A    between atoms: C29_36  and  C30_37 
ROOT
HETATM    1  C9  UNL     1       2.245  11.003  16.290  1.00  0.00     0.046 C 
HETATM    2  C10 UNL     1       1.454  11.309  15.003  1.00  0.00     0.013 C 
HETATM    3  C11 UNL     1       1.612  10.091  14.082  1.00  0.00     0.017 C 
HETATM    4  C12 UNL     1       2.311   8.955  14.913  1.00  0.00     0.025 C 
HETATM    5  C13 UNL     1       2.031   9.467  16.365  1.00  0.00     0.138 C 
HETATM    6  C14 UNL     1       3.883   9.025  14.534  1.00  0.00     0.029 C 
HETATM    7  C18 UNL     1       4.066   8.668  13.039  1.00  0.00    -0.066 C 
HETATM    8  C19 UNL     1       4.661   9.473  12.123  1.00  0.00    -0.021 C 
HETATM    9  C20 UNL     1       4.778   9.149  10.662  1.00  0.00     0.052 C 
HETATM   10  C22 UNL     1       3.485   7.315  12.677  1.00  0.00     0.038 C 
HETATM   11  C23 UNL     1       2.018   7.181  13.088  1.00  0.00     0.043 C 
HETATM   12  C24 UNL     1       1.758   7.506  14.581  1.00  0.00     0.070 C 
ENDROOT
BRANCH   5  13
HETATM   13  O3  UNL     1       0.679   9.210  16.751  1.00  0.00    -0.394 OA
HETATM   14  H17 UNL     1       0.488   9.726  17.555  1.00  0.00     0.210 HD
ENDBRANCH   5  13
BRANCH   6  15
HETATM   15  C15 UNL     1       4.949   8.196  15.317  1.00  0.00     0.012 C 
BRANCH  15  16
HETATM   16  C16 UNL     1       6.422   8.588  15.162  1.00  0.00     0.027 C 
BRANCH  16  17
HETATM   17  C17 UNL     1       7.267   7.582  14.381  1.00  0.00     0.164 C 
BRANCH  17  18
HETATM   18  O4  UNL     1       6.576   6.352  14.197  1.00  0.00    -0.401 OA
HETATM   19  H25 UNL     1       6.665   5.855  15.031  1.00  0.00     0.209 HD
ENDBRANCH  17  18
ENDBRANCH  16  17
ENDBRANCH  15  16
ENDBRANCH   6  15
BRANCH  12  20
HETATM   20  O6  UNL     1       2.562   6.573  15.356  1.00  0.00    -0.389 OA
HETATM   21  H34 UNL     1       2.282   5.675  15.109  1.00  0.00     0.210 HD
ENDBRANCH  12  20
BRANCH  12  22
HETATM   22  C25 UNL     1       0.302   7.095  14.972  1.00  0.00     0.068 C 
BRANCH  22  23
HETATM   23  C26 UNL     1      -0.888   7.347  14.044  1.00  0.00     0.272 C 
BRANCH  23  24
HETATM   24  N1  UNL     1      -2.147   6.843  14.601  1.00  0.00     0.079 N 
HETATM   25  C27 UNL     1      -2.475   7.537  15.841  1.00  0.00     0.306 C 
HETATM   26  H39 UNL     1      -2.042   5.850  14.802  1.00  0.00     0.315 HD
ENDBRANCH  23  24
ENDBRANCH  22  23
ENDBRANCH  12  22
BRANCH   1  27
HETATM   27  C6  UNL     1       1.921  11.928  17.474  1.00  0.00    -0.050 C 
HETATM   28  C5  UNL     1       2.673  12.213  18.561  1.00  0.00     0.005 C 
BRANCH  28  29
HETATM   29  C4  UNL     1       4.010  11.774  18.886  1.00  0.00     0.001 C 
HETATM   30  C3  UNL     1       4.474  11.187  20.003  1.00  0.00     0.006 C 
BRANCH  30  31
HETATM   31  C2  UNL     1       3.826  10.793  21.255  1.00  0.00    -0.067 C 
HETATM   32  C1  UNL     1       2.960   9.762  21.216  1.00  0.00     0.019 C 
BRANCH  31  33
HETATM   33  C28 UNL     1       4.216  11.492  22.547  1.00  0.00     0.041 C 
BRANCH  33  34
HETATM   34  C29 UNL     1       5.676  11.369  23.012  1.00  0.00     0.032 C 
BRANCH  34  35
HETATM   35  C30 UNL     1       6.328  12.725  23.114  1.00  0.00    -0.024 C 
HETATM   36  C31 UNL     1       7.646  12.993  23.193  1.00  0.00    -0.091 C 
HETATM   37  C32 UNL     1       8.140  14.412  23.309  1.00  0.00     0.042 C 
HETATM   38  C33 UNL     1       8.741  11.959  23.157  1.00  0.00     0.042 C 
ENDBRANCH  34  35
ENDBRANCH  33  34
ENDBRANCH  31  33
ENDBRANCH  30  31
ENDBRANCH  28  29
BRANCH  27  39
HETATM   39  C7  UNL     1       0.624  12.719  17.319  1.00  0.00     0.205 C 
BRANCH  39  40
HETATM   40  O1  UNL     1      -0.533  11.935  17.593  1.00  0.00    -0.363 OA
BRANCH  40  41
HETATM   41  C8  UNL     1      -0.959  12.030  18.939  1.00  0.00     0.334 C 
BRANCH  41  42
HETATM   42  O2  UNL     1      -0.493  10.884  19.624  1.00  0.00    -0.377 OA
HETATM   43  H10 UNL     1      -0.774  10.139  19.064  1.00  0.00     0.212 HD
ENDBRANCH  41  42
ENDBRANCH  40  41
ENDBRANCH  39  40
ENDBRANCH  27  39
ENDBRANCH   1  27
BRANCH   8  44
HETATM   44  C21 UNL     1       5.245  10.801  12.479  1.00  0.00     0.265 C 
HETATM   45  O5  UNL     1       5.458  11.699  11.674  1.00  0.00    -0.302 OA
ENDBRANCH   8  44
TORSDOF 20
ENDMDL
MODEL 6
REMARK minimizedAffinity -7.29871893
REMARK CNNscore 0.219181687
REMARK CNNaffinity 5.72468901
REMARK  20 active torsions:
REMARK  status: ('A' for Active; 'I' for Inactive)
REMARK    1  A    between atoms: C2_2  and  C3_3 
REMARK    2  A    between atoms: C2_2  and  C28_35 
REMARK    3  A    between atoms: C4_4  and  C5_5 
REMARK    4  A    between atoms: C6_6  and  C7_7 
REMARK    5  A    between atoms: C6_6  and  C9_11 
REMARK    6  A    between atoms: C7_7  and  O1_8 
REMARK    7  A    between atoms: O1_8  and  C8_9 
REMARK    8  A    between atoms: C8_9  and  O2_10 
REMARK    9  A    between atoms: C13_15  and  O3_16 
REMARK   10  A    between atoms: C14_17  and  C15_18 
REMARK   11  A    between atoms: C15_18  and  C16_19 
REMARK   12  A    between atoms: C16_19  and  C17_20 
REMARK   13  A    between atoms: C17_20  and  O4_21 
REMARK   14  A    between atoms: C19_23  and  C21_25 
REMARK   15  A    between atoms: C24_29  and  O6_30 
REMARK   16  A    between atoms: C24_29  and  C25_31 
REMARK   17  A    between atoms: C25_31  and  C26_32 
REMARK   18  A    between atoms: C26_32  and  N1_33 
REMARK   19  A    between atoms: C28_35  and  C29_36 
REMARK   20  A    between atoms: C29_36  and  C30_37 
ROOT
HETATM    1  C9  UNL     1      -2.721  10.083  15.350  1.00  0.00     0.046 C 
HETATM    2  C10 UNL     1      -3.381  10.101  13.957  1.00  0.00     0.013 C 
HETATM    3  C11 UNL     1      -3.302   8.671  13.406  1.00  0.00     0.017 C 
HETATM    4  C12 UNL     1      -2.797   7.742  14.570  1.00  0.00     0.025 C 
HETATM    5  C13 UNL     1      -3.116   8.652  15.803  1.00  0.00     0.138 C 
HETATM    6  C14 UNL     1      -1.206   7.561  14.340  1.00  0.00     0.029 C 
HETATM    7  C18 UNL     1      -0.963   6.797  13.016  1.00  0.00    -0.066 C 
HETATM    8  C19 UNL     1      -0.218   7.265  11.983  1.00  0.00    -0.021 C 
HETATM    9  C20 UNL     1      -0.039   6.548  10.677  1.00  0.00     0.052 C 
HETATM   10  C22 UNL     1      -1.669   5.457  12.967  1.00  0.00     0.038 C 
HETATM   11  C23 UNL     1      -3.167   5.575  13.254  1.00  0.00     0.043 C 
HETATM   12  C24 UNL     1      -3.489   6.315  14.578  1.00  0.00     0.070 C 
ENDROOT
BRANCH   5  13
HETATM   13  O3  UNL     1      -4.511   8.636  16.110  1.00  0.00    -0.394 OA
HETATM   14  H17 UNL     1      -4.696   9.366  16.728  1.00  0.00     0.210 HD
ENDBRANCH   5  13
BRANCH   6  15
HETATM   15  C15 UNL     1      -0.299   6.880  15.413  1.00  0.00     0.012 C 
BRANCH  15  16
HETATM   16  C16 UNL     1       0.946   7.637  15.889  1.00  0.00     0.027 C 
BRANCH  16  17
HETATM   17  C17 UNL     1       2.205   7.369  15.065  1.00  0.00     0.164 C 
BRANCH  17  18
HETATM   18  O4  UNL     1       3.126   6.547  15.772  1.00  0.00    -0.401 OA
HETATM   19  H25 UNL     1       3.598   7.129  16.396  1.00  0.00     0.209 HD
ENDBRANCH  17  18
ENDBRANCH  16  17
ENDBRANCH  15  16
ENDBRANCH   6  15
BRANCH  12  20
HETATM   20  O6  UNL     1      -2.853   5.557  15.643  1.00  0.00    -0.389 OA
HETATM   21  H34 UNL     1      -3.217   4.655  15.615  1.00  0.00     0.210 HD
ENDBRANCH  12  20
BRANCH  12  22
HETATM   22  C25 UNL     1      -5.007   6.163  14.919  1.00  0.00     0.068 C 
BRANCH  22  23
HETATM   23  C26 UNL     1      -5.980   5.444  13.983  1.00  0.00     0.272 C 
BRANCH  23  24
HETATM   24  N1  UNL     1      -7.295   5.238  14.597  1.00  0.00     0.079 N 
HETATM   25  C27 UNL     1      -7.283   5.661  15.992  1.00  0.00     0.306 C 
HETATM   26  H39 UNL     1      -7.523   4.245  14.560  1.00  0.00     0.315 HD
ENDBRANCH  23  24
ENDBRANCH  22  23
ENDBRANCH  12  22
BRANCH   1  27
HETATM   27  C6  UNL     1      -3.017  11.320  16.213  1.00  0.00    -0.050 C 
HETATM   28  C5  UNL     1      -2.792  11.510  17.533  1.00  0.00     0.005 C 
BRANCH  28  29
HETATM   29  C4  UNL     1      -2.160  10.628  18.486  1.00  0.00     0.001 C 
HETATM   30  C3  UNL     1      -1.101  10.843  19.286  1.00  0.00     0.006 C 
BRANCH  30  31
HETATM   31  C2  UNL     1      -0.228  12.002  19.478  1.00  0.00    -0.067 C 
HETATM   32  C1  UNL     1      -0.755  13.225  19.281  1.00  0.00     0.019 C 
BRANCH  31  33
HETATM   33  C28 UNL     1       1.193  11.788  19.972  1.00  0.00     0.041 C 
BRANCH  33  34
HETATM   34  C29 UNL     1       1.498  10.484  20.728  1.00  0.00     0.032 C 
BRANCH  34  35
HETATM   35  C30 UNL     1       2.737  10.626  21.576  1.00  0.00    -0.024 C 
HETATM   36  C31 UNL     1       3.183   9.773  22.519  1.00  0.00    -0.091 C 
HETATM   37  C32 UNL     1       4.440  10.069  23.297  1.00  0.00     0.042 C 
HETATM   38  C33 UNL     1       2.524   8.468  22.884  1.00  0.00     0.042 C 
ENDBRANCH  34  35
ENDBRANCH  33  34
ENDBRANCH  31  33
ENDBRANCH  30  31
ENDBRANCH  28  29
BRANCH  27  39
HETATM   39  C7  UNL     1      -3.515  12.532  15.428  1.00  0.00     0.205 C 
BRANCH  39  40
HETATM   40  O1  UNL     1      -4.810  12.959  15.841  1.00  0.00    -0.363 OA
BRANCH  40  41
HETATM   41  C8  UNL     1      -5.113  14.279  15.432  1.00  0.00     0.334 C 
BRANCH  41  42
HETATM   42  O2  UNL     1      -6.449  14.294  14.968  1.00  0.00    -0.377 OA
HETATM   43  H10 UNL     1      -6.490  13.555  14.336  1.00  0.00     0.212 HD
ENDBRANCH  41  42
ENDBRANCH  40  41
ENDBRANCH  39  40
ENDBRANCH  27  39
ENDBRANCH   1  27
BRANCH   8  44
HETATM   44  C21 UNL     1       0.490   8.580  12.034  1.00  0.00     0.265 C 
HETATM   45  O5  UNL     1       1.567   8.805  11.497  1.00  0.00    -0.302 OA
ENDBRANCH   8  44
TORSDOF 20
ENDMDL
MODEL 7
REMARK minimizedAffinity -5.87778807
REMARK CNNscore 0.19933033
REMARK CNNaffinity 5.84000778
REMARK  20 active torsions:
REMARK  status: ('A' for Active; 'I' for Inactive)
REMARK    1  A    between atoms: C2_2  and  C3_3 
REMARK    2  A    between atoms: C2_2  and  C28_35 
REMARK    3  A    between atoms: C4_4  and  C5_5 
REMARK    4  A    between atoms: C6_6  and  C7_7 
REMARK    5  A    between atoms: C6_6  and  C9_11 
REMARK    6  A    between atoms: C7_7  and  O1_8 
REMARK    7  A    between atoms: O1_8  and  C8_9 
REMARK    8  A    between atoms: C8_9  and  O2_10 
REMARK    9  A    between atoms: C13_15  and  O3_16 
REMARK   10  A    between atoms: C14_17  and  C15_18 
REMARK   11  A    between atoms: C15_18  and  C16_19 
REMARK   12  A    between atoms: C16_19  and  C17_20 
REMARK   13  A    between atoms: C17_20  and  O4_21 
REMARK   14  A    between atoms: C19_23  and  C21_25 
REMARK   15  A    between atoms: C24_29  and  O6_30 
REMARK   16  A    between atoms: C24_29  and  C25_31 
REMARK   17  A    between atoms: C25_31  and  C26_32 
REMARK   18  A    between atoms: C26_32  and  N1_33 
REMARK   19  A    between atoms: C28_35  and  C29_36 
REMARK   20  A    between atoms: C29_36  and  C30_37 
ROOT
HETATM    1  C9  UNL     1      -1.013  11.969  16.663  1.00  0.00     0.046 C 
HETATM    2  C10 UNL     1      -0.110  12.930  15.864  1.00  0.00     0.013 C 
HETATM    3  C11 UNL     1       1.340  12.609  16.252  1.00  0.00     0.017 C 
HETATM    4  C12 UNL     1       1.319  11.296  17.116  1.00  0.00     0.025 C 
HETATM    5  C13 UNL     1      -0.083  10.727  16.715  1.00  0.00     0.138 C 
HETATM    6  C14 UNL     1       1.364  11.775  18.661  1.00  0.00     0.029 C 
HETATM    7  C18 UNL     1       2.714  12.477  18.941  1.00  0.00    -0.066 C 
HETATM    8  C19 UNL     1       2.840  13.744  19.410  1.00  0.00    -0.021 C 
HETATM    9  C20 UNL     1       4.153  14.442  19.618  1.00  0.00     0.052 C 
HETATM   10  C22 UNL     1       3.913  11.609  18.612  1.00  0.00     0.038 C 
HETATM   11  C23 UNL     1       3.870  11.073  17.180  1.00  0.00     0.043 C 
HETATM   12  C24 UNL     1       2.551  10.338  16.831  1.00  0.00     0.070 C 
ENDROOT
BRANCH   5  13
HETATM   13  O3  UNL     1      -0.046  10.127  15.420  1.00  0.00    -0.394 OA
HETATM   14  H17 UNL     1      -0.962   9.985  15.122  1.00  0.00     0.210 HD
ENDBRANCH   5  13
BRANCH   6  15
HETATM   15  C15 UNL     1       1.140  10.769  19.834  1.00  0.00     0.012 C 
BRANCH  15  16
HETATM   16  C16 UNL     1       1.749  11.108  21.200  1.00  0.00     0.027 C 
BRANCH  16  17
HETATM   17  C17 UNL     1       2.687  10.038  21.759  1.00  0.00     0.164 C 
BRANCH  17  18
HETATM   18  O4  UNL     1       2.183   8.729  21.523  1.00  0.00    -0.401 OA
HETATM   19  H25 UNL     1       1.506   8.564  22.206  1.00  0.00     0.209 HD
ENDBRANCH  17  18
ENDBRANCH  16  17
ENDBRANCH  15  16
ENDBRANCH   6  15
BRANCH  12  20
HETATM   20  O6  UNL     1       2.433   9.229  17.764  1.00  0.00    -0.389 OA
HETATM   21  H34 UNL     1       3.220   8.669  17.650  1.00  0.00     0.210 HD
ENDBRANCH  12  20
BRANCH  12  22
HETATM   22  C25 UNL     1       2.694   9.605  15.458  1.00  0.00     0.068 C 
BRANCH  22  23
HETATM   23  C26 UNL     1       3.532   8.334  15.301  1.00  0.00     0.272 C 
BRANCH  23  24
HETATM   24  N1  UNL     1       2.729   7.117  15.446  1.00  0.00     0.079 N 
HETATM   25  C27 UNL     1       1.676   7.072  14.439  1.00  0.00     0.306 C 
HETATM   26  H39 UNL     1       2.297   7.116  16.369  1.00  0.00     0.315 HD
ENDBRANCH  23  24
ENDBRANCH  22  23
ENDBRANCH  12  22
BRANCH   1  27
HETATM   27  C6  UNL     1      -2.460  11.882  16.154  1.00  0.00    -0.050 C 
HETATM   28  C5  UNL     1      -3.275  10.804  16.089  1.00  0.00     0.005 C 
BRANCH  28  29
HETATM   29  C4  UNL     1      -3.033   9.449  16.529  1.00  0.00     0.001 C 
HETATM   30  C3  UNL     1      -3.084   8.298  15.836  1.00  0.00     0.006 C 
BRANCH  30  31
HETATM   31  C2  UNL     1      -3.394   8.000  14.437  1.00  0.00    -0.067 C 
HETATM   32  C1  UNL     1      -2.454   8.278  13.513  1.00  0.00     0.019 C 
BRANCH  31  33
HETATM   33  C28 UNL     1      -4.707   7.316  14.095  1.00  0.00     0.041 C 
BRANCH  33  34
HETATM   34  C29 UNL     1      -4.649   6.070  13.196  1.00  0.00     0.032 C 
BRANCH  34  35
HETATM   35  C30 UNL     1      -5.851   5.187  13.416  1.00  0.00    -0.024 C 
HETATM   36  C31 UNL     1      -6.076   3.967  12.891  1.00  0.00    -0.091 C 
HETATM   37  C32 UNL     1      -7.345   3.215  13.198  1.00  0.00     0.042 C 
HETATM   38  C33 UNL     1      -5.122   3.227  11.990  1.00  0.00     0.042 C 
ENDBRANCH  34  35
ENDBRANCH  33  34
ENDBRANCH  31  33
ENDBRANCH  30  31
ENDBRANCH  28  29
BRANCH  27  39
HETATM   39  C7  UNL     1      -3.086  13.228  15.798  1.00  0.00     0.205 C 
BRANCH  39  40
HETATM   40  O1  UNL     1      -3.212  13.420  14.392  1.00  0.00    -0.363 OA
BRANCH  40  41
HETATM   41  C8  UNL     1      -2.810  14.710  13.973  1.00  0.00     0.334 C 
BRANCH  41  42
HETATM   42  O2  UNL     1      -2.137  14.575  12.736  1.00  0.00    -0.377 OA
HETATM   43  H10 UNL     1      -1.479  13.877  12.897  1.00  0.00     0.212 HD
ENDBRANCH  41  42
ENDBRANCH  40  41
ENDBRANCH  39  40
ENDBRANCH  27  39
ENDBRANCH   1  27
BRANCH   8  44
HETATM   44  C21 UNL     1       1.661  14.597  19.747  1.00  0.00     0.265 C 
HETATM   45  O5  UNL     1       1.036  14.528  20.798  1.00  0.00    -0.302 OA
ENDBRANCH   8  44
TORSDOF 20
ENDMDL
MODEL 8
REMARK minimizedAffinity -6.69272661
REMARK CNNscore 0.196149319
REMARK CNNaffinity 6.11806822
REMARK  20 active torsions:
REMARK  status: ('A' for Active; 'I' for Inactive)
REMARK    1  A    between atoms: C2_2  and  C3_3 
REMARK    2  A    between atoms: C2_2  and  C28_35 
REMARK    3  A    between atoms: C4_4  and  C5_5 
REMARK    4  A    between atoms: C6_6  and  C7_7 
REMARK    5  A    between atoms: C6_6  and  C9_11 
REMARK    6  A    between atoms: C7_7  and  O1_8 
REMARK    7  A    between atoms: O1_8  and  C8_9 
REMARK    8  A    between atoms: C8_9  and  O2_10 
REMARK    9  A    between atoms: C13_15  and  O3_16 
REMARK   10  A    between atoms: C14_17  and  C15_18 
REMARK   11  A    between atoms: C15_18  and  C16_19 
REMARK   12  A    between atoms: C16_19  and  C17_20 
REMARK   13  A    between atoms: C17_20  and  O4_21 
REMARK   14  A    between atoms: C19_23  and  C21_25 
REMARK   15  A    between atoms: C24_29  and  O6_30 
REMARK   16  A    between atoms: C24_29  and  C25_31 
REMARK   17  A    between atoms: C25_31  and  C26_32 
REMARK   18  A    between atoms: C26_32  and  N1_33 
REMARK   19  A    between atoms: C28_35  and  C29_36 
REMARK   20  A    between atoms: C29_36  and  C30_37 
ROOT
HETATM    1  C9  UNL     1      -0.791   9.687  15.836  1.00  0.00     0.046 C 
HETATM    2  C10 UNL     1      -1.794   9.954  14.697  1.00  0.00     0.013 C 
HETATM    3  C11 UNL     1      -1.914   8.652  13.892  1.00  0.00     0.017 C 
HETATM    4  C12 UNL     1      -1.152   7.531  14.689  1.00  0.00     0.025 C 
HETATM    5  C13 UNL     1      -1.102   8.191  16.107  1.00  0.00     0.138 C 
HETATM    6  C14 UNL     1       0.314   7.420  14.014  1.00  0.00     0.029 C 
HETATM    7  C18 UNL     1       0.172   6.921  12.557  1.00  0.00    -0.066 C 
HETATM    8  C19 UNL     1       0.634   7.584  11.467  1.00  0.00    -0.021 C 
HETATM    9  C20 UNL     1       0.436   7.126  10.051  1.00  0.00     0.052 C 
HETATM   10  C22 UNL     1      -0.569   5.602  12.452  1.00  0.00     0.038 C 
HETATM   11  C23 UNL     1      -1.932   5.642  13.144  1.00  0.00     0.043 C 
HETATM   12  C24 UNL     1      -1.867   6.117  14.618  1.00  0.00     0.070 C 
ENDROOT
BRANCH   5  13
HETATM   13  O3  UNL     1      -2.366   8.096  16.766  1.00  0.00    -0.394 OA
HETATM   14  H17 UNL     1      -2.355   8.695  17.534  1.00  0.00     0.210 HD
ENDBRANCH   5  13
BRANCH   6  15
HETATM   15  C15 UNL     1       1.448   6.566  14.663  1.00  0.00     0.012 C 
BRANCH  15  16
HETATM   16  C16 UNL     1       2.841   7.194  14.790  1.00  0.00     0.027 C 
BRANCH  16  17
HETATM   17  C17 UNL     1       2.856   8.576  15.444  1.00  0.00     0.164 C 
BRANCH  17  18
HETATM   18  O4  UNL     1       4.141   8.889  15.970  1.00  0.00    -0.401 OA
HETATM   19  H25 UNL     1       4.211   8.428  16.826  1.00  0.00     0.209 HD
ENDBRANCH  17  18
ENDBRANCH  16  17
ENDBRANCH  15  16
ENDBRANCH   6  15
BRANCH  12  20
HETATM   20  O6  UNL     1      -0.999   5.184  15.318  1.00  0.00    -0.389 OA
HETATM   21  H34 UNL     1      -1.389   4.298  15.223  1.00  0.00     0.210 HD
ENDBRANCH  12  20
BRANCH  12  22
HETATM   22  C25 UNL     1      -3.245   5.881  15.317  1.00  0.00     0.068 C 
BRANCH  22  23
HETATM   23  C26 UNL     1      -4.544   6.478  14.772  1.00  0.00     0.272 C 
BRANCH  23  24
HETATM   24  N1  UNL     1      -5.158   7.425  15.707  1.00  0.00     0.079 N 
HETATM   25  C27 UNL     1      -5.478   8.678  15.035  1.00  0.00     0.306 C 
HETATM   26  H39 UNL     1      -4.498   7.618  16.459  1.00  0.00     0.315 HD
ENDBRANCH  23  24
ENDBRANCH  22  23
ENDBRANCH  12  22
BRANCH   1  27
HETATM   27  C6  UNL     1      -0.805  10.737  16.959  1.00  0.00    -0.050 C 
HETATM   28  C5  UNL     1       0.182  11.074  17.820  1.00  0.00     0.005 C 
BRANCH  28  29
HETATM   29  C4  UNL     1       1.538  10.583  17.891  1.00  0.00     0.001 C 
HETATM   30  C3  UNL     1       2.340  10.423  18.959  1.00  0.00     0.006 C 
BRANCH  30  31
HETATM   31  C2  UNL     1       2.146  10.680  20.387  1.00  0.00    -0.067 C 
HETATM   32  C1  UNL     1       1.443  11.773  20.738  1.00  0.00     0.019 C 
BRANCH  31  33
HETATM   33  C28 UNL     1       2.660   9.671  21.400  1.00  0.00     0.041 C 
BRANCH  33  34
HETATM   34  C29 UNL     1       2.988  10.182  22.813  1.00  0.00     0.032 C 
BRANCH  34  35
HETATM   35  C30 UNL     1       4.450  10.532  22.937  1.00  0.00    -0.024 C 
HETATM   36  C31 UNL     1       4.999  11.762  22.920  1.00  0.00    -0.091 C 
HETATM   37  C32 UNL     1       6.491  11.944  23.039  1.00  0.00     0.042 C 
HETATM   38  C33 UNL     1       4.227  13.051  22.805  1.00  0.00     0.042 C 
ENDBRANCH  34  35
ENDBRANCH  33  34
ENDBRANCH  31  33
ENDBRANCH  30  31
ENDBRANCH  28  29
BRANCH  27  39
HETATM   39  C7  UNL     1      -2.070  11.592  17.007  1.00  0.00     0.205 C 
BRANCH  39  40
HETATM   40  O1  UNL     1      -2.568  11.759  18.331  1.00  0.00    -0.363 OA
BRANCH  40  41
HETATM   41  C8  UNL     1      -3.041  10.553  18.900  1.00  0.00     0.334 C 
BRANCH  41  42
HETATM   42  O2  UNL     1      -3.974   9.985  18.002  1.00  0.00    -0.377 OA
HETATM   43  H10 UNL     1      -4.587  10.714  17.801  1.00  0.00     0.212 HD
ENDBRANCH  41  42
ENDBRANCH  40  41
ENDBRANCH  39  40
ENDBRANCH  27  39
ENDBRANCH   1  27
BRANCH   8  44
HETATM   44  C21 UNL     1       1.375   8.878  11.568  1.00  0.00     0.265 C 
HETATM   45  O5  UNL     1       2.577   8.969  11.780  1.00  0.00    -0.302 OA
ENDBRANCH   8  44
TORSDOF 20
ENDMDL
MODEL 9
REMARK minimizedAffinity -6.79616547
REMARK CNNscore 0.192226499
REMARK CNNaffinity 6.06961823
REMARK  20 active torsions:
REMARK  status: ('A' for Active; 'I' for Inactive)
REMARK    1  A    between atoms: C2_2  and  C3_3 
REMARK    2  A    between atoms: C2_2  and  C28_35 
REMARK    3  A    between atoms: C4_4  and  C5_5 
REMARK    4  A    between atoms: C6_6  and  C7_7 
REMARK    5  A    between atoms: C6_6  and  C9_11 
REMARK    6  A    between atoms: C7_7  and  O1_8 
REMARK    7  A    between atoms: O1_8  and  C8_9 
REMARK    8  A    between atoms: C8_9  and  O2_10 
REMARK    9  A    between atoms: C13_15  and  O3_16 
REMARK   10  A    between atoms: C14_17  and  C15_18 
REMARK   11  A    between atoms: C15_18  and  C16_19 
REMARK   12  A    between atoms: C16_19  and  C17_20 
REMARK   13  A    between atoms: C17_20  and  O4_21 
REMARK   14  A    between atoms: C19_23  and  C21_25 
REMARK   15  A    between atoms: C24_29  and  O6_30 
REMARK   16  A    between atoms: C24_29  and  C25_31 
REMARK   17  A    between atoms: C25_31  and  C26_32 
REMARK   18  A    between atoms: C26_32  and  N1_33 
REMARK   19  A    between atoms: C28_35  and  C29_36 
REMARK   20  A    between atoms: C29_36  and  C30_37 
ROOT
HETATM    1  C9  UNL     1      -0.037   8.965  15.659  1.00  0.00     0.046 C 
HETATM    2  C10 UNL     1       0.763   7.659  15.830  1.00  0.00     0.013 C 
HETATM    3  C11 UNL     1       0.919   7.044  14.432  1.00  0.00     0.017 C 
HETATM    4  C12 UNL     1       0.407   8.103  13.389  1.00  0.00     0.025 C 
HETATM    5  C13 UNL     1       0.476   9.401  14.261  1.00  0.00     0.138 C 
HETATM    6  C14 UNL     1      -1.116   7.685  13.037  1.00  0.00     0.029 C 
HETATM    7  C18 UNL     1      -1.120   6.312  12.324  1.00  0.00    -0.066 C 
HETATM    8  C19 UNL     1      -1.799   5.221  12.758  1.00  0.00    -0.021 C 
HETATM    9  C20 UNL     1      -1.747   3.874  12.098  1.00  0.00     0.052 C 
HETATM   10  C22 UNL     1      -0.255   6.288  11.079  1.00  0.00     0.038 C 
HETATM   11  C23 UNL     1       1.177   6.750  11.355  1.00  0.00     0.043 C 
HETATM   12  C24 UNL     1       1.262   8.131  12.053  1.00  0.00     0.070 C 
ENDROOT
BRANCH   5  13
HETATM   13  O3  UNL     1       1.821   9.865  14.390  1.00  0.00    -0.394 OA
HETATM   14  H17 UNL     1       1.849  10.530  15.101  1.00  0.00     0.210 HD
ENDBRANCH   5  13
BRANCH   6  15
HETATM   15  C15 UNL     1      -2.046   8.618  12.199  1.00  0.00     0.012 C 
BRANCH  15  16
HETATM   16  C16 UNL     1      -3.481   8.836  12.690  1.00  0.00     0.027 C 
BRANCH  16  17
HETATM   17  C17 UNL     1      -3.621   8.948  14.209  1.00  0.00     0.164 C 
BRANCH  17  18
HETATM   18  O4  UNL     1      -4.848   9.568  14.575  1.00  0.00    -0.401 OA
HETATM   19  H25 UNL     1      -4.718  10.529  14.466  1.00  0.00     0.209 HD
ENDBRANCH  17  18
ENDBRANCH  16  17
ENDBRANCH  15  16
ENDBRANCH   6  15
BRANCH  12  20
HETATM   20  O6  UNL     1       0.610   9.085  11.170  1.00  0.00    -0.389 OA
HETATM   21  H34 UNL     1       1.082   9.061  10.319  1.00  0.00     0.210 HD
ENDBRANCH  12  20
BRANCH  12  22
HETATM   22  C25 UNL     1       2.740   8.638  12.059  1.00  0.00     0.068 C 
BRANCH  22  23
HETATM   23  C26 UNL     1       3.860   7.879  11.343  1.00  0.00     0.272 C 
BRANCH  23  24
HETATM   24  N1  UNL     1       4.673   7.083  12.267  1.00  0.00     0.079 N 
HETATM   25  C27 UNL     1       5.760   6.422  11.557  1.00  0.00     0.306 C 
HETATM   26  H39 UNL     1       4.083   6.371  12.695  1.00  0.00     0.315 HD
ENDBRANCH  23  24
ENDBRANCH  22  23
ENDBRANCH  12  22
BRANCH   1  27
HETATM   27  C6  UNL     1       0.011   9.907  16.873  1.00  0.00    -0.050 C 
HETATM   28  C5  UNL     1      -0.979  10.237  17.733  1.00  0.00     0.005 C 
BRANCH  28  29
HETATM   29  C4  UNL     1      -2.341   9.757  17.785  1.00  0.00     0.001 C 
HETATM   30  C3  UNL     1      -3.495  10.446  17.811  1.00  0.00     0.006 C 
BRANCH  30  31
HETATM   31  C2  UNL     1      -3.790  11.879  17.801  1.00  0.00    -0.067 C 
HETATM   32  C1  UNL     1      -4.387  12.390  16.707  1.00  0.00     0.019 C 
BRANCH  31  33
HETATM   33  C28 UNL     1      -3.499  12.707  19.041  1.00  0.00     0.041 C 
BRANCH  33  34
HETATM   34  C29 UNL     1      -4.513  13.797  19.425  1.00  0.00     0.032 C 
BRANCH  34  35
HETATM   35  C30 UNL     1      -5.135  13.510  20.769  1.00  0.00    -0.024 C 
HETATM   36  C31 UNL     1      -6.447  13.456  21.066  1.00  0.00    -0.091 C 
HETATM   37  C32 UNL     1      -6.910  13.172  22.472  1.00  0.00     0.042 C 
HETATM   38  C33 UNL     1      -7.566  13.644  20.074  1.00  0.00     0.042 C 
ENDBRANCH  34  35
ENDBRANCH  33  34
ENDBRANCH  31  33
ENDBRANCH  30  31
ENDBRANCH  28  29
BRANCH  27  39
HETATM   39  C7  UNL     1       1.406  10.429  17.212  1.00  0.00     0.205 C 
BRANCH  39  40
HETATM   40  O1  UNL     1       2.045   9.666  18.231  1.00  0.00    -0.363 OA
BRANCH  40  41
HETATM   41  C8  UNL     1       2.386  10.438  19.367  1.00  0.00     0.334 C 
BRANCH  41  42
HETATM   42  O2  UNL     1       2.770   9.549  20.397  1.00  0.00    -0.377 OA
HETATM   43  H10 UNL     1       2.046   8.900  20.436  1.00  0.00     0.212 HD
ENDBRANCH  41  42
ENDBRANCH  40  41
ENDBRANCH  39  40
ENDBRANCH  27  39
ENDBRANCH   1  27
BRANCH   8  44
HETATM   44  C21 UNL     1      -2.662   5.244  13.978  1.00  0.00     0.265 C 
HETATM   45  O5  UNL     1      -2.257   5.497  15.105  1.00  0.00    -0.302 OA
ENDBRANCH   8  44
TORSDOF 20
ENDMDL
