MODEL 1
REMARK minimizedAffinity -8.3622942
REMARK CNNscore 0.611263692
REMARK CNNaffinity 7.39794493
REMARK  6 active torsions:
REMARK  status: ('A' for Active; 'I' for Inactive)
REMARK    1  A    between atoms: C6_8  and  C7_9 
REMARK    2  A    between atoms: C10_12  and  O1_13 
REMARK    3  A    between atoms: O1_13  and  C11_14 
REMARK    4  A    between atoms: C18_22  and  C19_23 
REMARK    5  A    between atoms: C22_26  and  O2_27 
REMARK    6  A    between atoms: O2_27  and  C23_28 
ROOT
HETATM    1  C1  UNL     1       1.087  52.930 -18.247  1.00  0.00     0.049 C 
HETATM    2  C2  UNL     1       0.769  52.952 -19.717  1.00  0.00    -0.046 A 
HETATM    3  C3  UNL     1       1.418  53.787 -20.559  1.00  0.00     0.056 A 
HETATM    4  C4  UNL     1       1.108  53.803 -21.945  1.00  0.00     0.112 A 
HETATM    5  N1  UNL     1       1.589  54.538 -22.924  1.00  0.00    -0.350 N 
ATOM      6  H1  UNL     1       2.307  55.259 -22.862  1.00  0.00     0.166 HD
HETATM    7  C5  UNL     1       0.915  54.125 -24.042  1.00  0.00     0.120 A 
HETATM    8  C6  UNL     1       0.015  53.114 -23.760  1.00  0.00     0.066 A 
HETATM    9  N2  UNL     1       0.129  52.922 -22.392  1.00  0.00    -0.305 N 
HETATM   10  C17 UNL     1      -0.561  52.060 -21.540  1.00  0.00     0.112 A 
HETATM   11  C18 UNL     1      -0.278  52.042 -20.221  1.00  0.00    -0.004 A 
ENDROOT
BRANCH   8  12
HETATM   12  C7  UNL     1      -0.889  52.397 -24.650  1.00  0.00    -0.007 A 
HETATM   13  C8  UNL     1      -0.396  51.477 -25.584  1.00  0.00     0.016 A 
HETATM   14  C9  UNL     1      -1.269  50.801 -26.440  1.00  0.00     0.037 A 
HETATM   15  C10 UNL     1      -2.635  51.067 -26.387  1.00  0.00     0.069 A 
HETATM   16  C15 UNL     1      -3.140  51.952 -25.438  1.00  0.00     0.037 A 
HETATM   17  C16 UNL     1      -2.268  52.629 -24.583  1.00  0.00     0.016 A 
BRANCH  15  18
HETATM   18  O1  UNL     1      -3.499  50.367 -27.179  1.00  0.00    -0.341 OA
BRANCH  18  19
HETATM   19  C11 UNL     1      -3.859  49.039 -26.734  1.00  0.00     0.057 C 
HETATM   20  C12 UNL     1      -4.688  48.281 -27.780  1.00  0.00     0.045 C 
HETATM   21  C13 UNL     1      -2.511  48.313 -26.574  1.00  0.00     0.045 C 
HETATM   22  C14 UNL     1      -4.568  49.031 -25.372  1.00  0.00     0.045 C 
ENDBRANCH  18  19
ENDBRANCH  15  18
ENDBRANCH   8  12
BRANCH  11  23
HETATM   23  C19 UNL     1      -1.047  51.106 -19.384  1.00  0.00    -0.024 A 
HETATM   24  C20 UNL     1      -2.219  51.527 -18.748  1.00  0.00     0.015 A 
HETATM   25  C21 UNL     1      -2.948  50.631 -17.962  1.00  0.00     0.037 A 
HETATM   26  C22 UNL     1      -2.520  49.312 -17.795  1.00  0.00     0.069 A 
HETATM   27  C26 UNL     1      -1.354  48.890 -18.434  1.00  0.00     0.037 A 
HETATM   28  C27 UNL     1      -0.621  49.783 -19.224  1.00  0.00     0.015 A 
BRANCH  26  29
HETATM   29  O2  UNL     1      -3.335  48.551 -17.005  1.00  0.00    -0.347 OA
BRANCH  29  30
HETATM   30  C23 UNL     1      -2.761  47.532 -16.180  1.00  0.00     0.120 C 
HETATM   31  C24 UNL     1      -2.720  48.091 -14.759  1.00  0.00     0.040 C 
HETATM   32  C25 UNL     1      -3.632  46.280 -16.221  1.00  0.00     0.040 C 
ENDBRANCH  29  30
ENDBRANCH  26  29
ENDBRANCH  11  23
TORSDOF 6
ENDMDL
MODEL 2
REMARK minimizedAffinity -8.48035431
REMARK CNNscore 0.595289469
REMARK CNNaffinity 7.33284378
REMARK  6 active torsions:
REMARK  status: ('A' for Active; 'I' for Inactive)
REMARK    1  A    between atoms: C6_8  and  C7_9 
REMARK    2  A    between atoms: C10_12  and  O1_13 
REMARK    3  A    between atoms: O1_13  and  C11_14 
REMARK    4  A    between atoms: C18_22  and  C19_23 
REMARK    5  A    between atoms: C22_26  and  O2_27 
REMARK    6  A    between atoms: O2_27  and  C23_28 
ROOT
HETATM    1  C1  UNL     1      -0.650  53.178 -27.682  1.00  0.00     0.049 C 
HETATM    2  C2  UNL     1      -0.404  53.063 -26.203  1.00  0.00    -0.046 A 
HETATM    3  C3  UNL     1       0.380  53.953 -25.554  1.00  0.00     0.056 A 
HETATM    4  C4  UNL     1       0.610  53.832 -24.157  1.00  0.00     0.112 A 
HETATM    5  N1  UNL     1       1.343  54.558 -23.342  1.00  0.00    -0.350 N 
ATOM      6  H1  UNL     1       1.902  55.379 -23.575  1.00  0.00     0.166 HD
HETATM    7  C5  UNL     1       1.194  53.973 -22.113  1.00  0.00     0.120 A 
HETATM    8  C6  UNL     1       0.349  52.879 -22.160  1.00  0.00     0.066 A 
HETATM    9  N2  UNL     1      -0.013  52.779 -23.495  1.00  0.00    -0.305 N 
HETATM   10  C17 UNL     1      -0.816  51.843 -24.146  1.00  0.00     0.112 A 
HETATM   11  C18 UNL     1      -1.035  51.946 -25.474  1.00  0.00    -0.004 A 
ENDROOT
BRANCH   8  12
HETATM   12  C7  UNL     1      -0.079  51.986 -21.092  1.00  0.00    -0.007 A 
HETATM   13  C8  UNL     1      -0.635  52.495 -19.911  1.00  0.00     0.016 A 
HETATM   14  C9  UNL     1      -1.034  51.631 -18.888  1.00  0.00     0.037 A 
HETATM   15  C10 UNL     1      -0.845  50.258 -19.027  1.00  0.00     0.069 A 
HETATM   16  C15 UNL     1      -0.327  49.739 -20.211  1.00  0.00     0.037 A 
HETATM   17  C16 UNL     1       0.072  50.601 -21.234  1.00  0.00     0.016 A 
BRANCH  15  18
HETATM   18  O1  UNL     1      -1.286  49.406 -18.056  1.00  0.00    -0.341 OA
BRANCH  18  19
HETATM   19  C11 UNL     1      -0.799  49.638 -16.715  1.00  0.00     0.057 C 
HETATM   20  C12 UNL     1       0.623  50.216 -16.706  1.00  0.00     0.045 C 
HETATM   21  C13 UNL     1      -1.751  50.703 -16.143  1.00  0.00     0.045 C 
HETATM   22  C14 UNL     1      -0.883  48.393 -15.819  1.00  0.00     0.045 C 
ENDBRANCH  18  19
ENDBRANCH  15  18
ENDBRANCH   8  12
BRANCH  11  23
HETATM   23  C19 UNL     1      -1.893  50.922 -26.091  1.00  0.00    -0.024 A 
HETATM   24  C20 UNL     1      -2.052  49.673 -25.484  1.00  0.00     0.015 A 
HETATM   25  C21 UNL     1      -2.874  48.709 -26.071  1.00  0.00     0.037 A 
HETATM   26  C22 UNL     1      -3.543  48.972 -27.270  1.00  0.00     0.069 A 
HETATM   27  C26 UNL     1      -3.390  50.219 -27.874  1.00  0.00     0.037 A 
HETATM   28  C27 UNL     1      -2.568  51.190 -27.287  1.00  0.00     0.015 A 
BRANCH  26  29
HETATM   29  O2  UNL     1      -4.315  47.939 -27.722  1.00  0.00    -0.347 OA
BRANCH  29  30
HETATM   30  C23 UNL     1      -5.553  48.224 -28.381  1.00  0.00     0.120 C 
HETATM   31  C24 UNL     1      -5.415  47.712 -29.813  1.00  0.00     0.040 C 
HETATM   32  C25 UNL     1      -6.695  47.496 -27.677  1.00  0.00     0.040 C 
ENDBRANCH  29  30
ENDBRANCH  26  29
ENDBRANCH  11  23
TORSDOF 6
ENDMDL
MODEL 3
REMARK minimizedAffinity -6.48882961
REMARK CNNscore 0.594946861
REMARK CNNaffinity 6.4903264
REMARK  6 active torsions:
REMARK  status: ('A' for Active; 'I' for Inactive)
REMARK    1  A    between atoms: C6_8  and  C7_9 
REMARK    2  A    between atoms: C10_12  and  O1_13 
REMARK    3  A    between atoms: O1_13  and  C11_14 
REMARK    4  A    between atoms: C18_22  and  C19_23 
REMARK    5  A    between atoms: C22_26  and  O2_27 
REMARK    6  A    between atoms: O2_27  and  C23_28 
ROOT
HETATM    1  C1  UNL     1       6.849  55.155  -8.331  1.00  0.00     0.049 C 
HETATM    2  C2  UNL     1       5.350  55.267  -8.267  1.00  0.00    -0.046 A 
HETATM    3  C3  UNL     1       4.754  56.385  -7.798  1.00  0.00     0.056 A 
HETATM    4  C4  UNL     1       3.337  56.479  -7.738  1.00  0.00     0.112 A 
HETATM    5  N1  UNL     1       2.559  57.446  -7.303  1.00  0.00    -0.350 N 
ATOM      6  H1  UNL     1       2.844  58.346  -6.917  1.00  0.00     0.166 HD
HETATM    7  C5  UNL     1       1.283  56.983  -7.482  1.00  0.00     0.120 A 
HETATM    8  C6  UNL     1       1.265  55.720  -8.045  1.00  0.00     0.066 A 
HETATM    9  N2  UNL     1       2.603  55.388  -8.191  1.00  0.00    -0.305 N 
HETATM   10  C17 UNL     1       3.198  54.220  -8.668  1.00  0.00     0.112 A 
HETATM   11  C18 UNL     1       4.543  54.119  -8.724  1.00  0.00    -0.004 A 
ENDROOT
BRANCH   8  12
HETATM   12  C7  UNL     1       0.133  54.874  -8.401  1.00  0.00    -0.007 A 
HETATM   13  C8  UNL     1      -0.187  53.744  -7.636  1.00  0.00     0.016 A 
HETATM   14  C9  UNL     1      -1.268  52.934  -7.991  1.00  0.00     0.037 A 
HETATM   15  C10 UNL     1      -2.012  53.230  -9.130  1.00  0.00     0.069 A 
HETATM   16  C15 UNL     1      -1.726  54.371  -9.877  1.00  0.00     0.037 A 
HETATM   17  C16 UNL     1      -0.645  55.181  -9.523  1.00  0.00     0.016 A 
BRANCH  15  18
HETATM   18  O1  UNL     1      -3.105  52.477  -9.448  1.00  0.00    -0.341 OA
BRANCH  18  19
HETATM   19  C11 UNL     1      -3.188  51.992 -10.808  1.00  0.00     0.057 C 
HETATM   20  C12 UNL     1      -3.660  53.078 -11.784  1.00  0.00     0.045 C 
HETATM   21  C13 UNL     1      -1.739  51.621 -11.168  1.00  0.00     0.045 C 
HETATM   22  C14 UNL     1      -4.051  50.728 -10.945  1.00  0.00     0.045 C 
ENDBRANCH  18  19
ENDBRANCH  15  18
ENDBRANCH   8  12
BRANCH  11  23
HETATM   23  C19 UNL     1       5.098  52.857  -9.238  1.00  0.00    -0.024 A 
HETATM   24  C20 UNL     1       6.436  52.525  -9.003  1.00  0.00     0.015 A 
HETATM   25  C21 UNL     1       6.954  51.322  -9.487  1.00  0.00     0.037 A 
HETATM   26  C22 UNL     1       6.152  50.437 -10.213  1.00  0.00     0.069 A 
HETATM   27  C26 UNL     1       4.816  50.764 -10.444  1.00  0.00     0.037 A 
HETATM   28  C27 UNL     1       4.292  51.969  -9.958  1.00  0.00     0.015 A 
BRANCH  26  29
HETATM   29  O2  UNL     1       6.792  49.300 -10.618  1.00  0.00    -0.347 OA
BRANCH  29  30
HETATM   30  C23 UNL     1       7.732  48.674  -9.740  1.00  0.00     0.120 C 
HETATM   31  C24 UNL     1       6.973  47.577  -8.995  1.00  0.00     0.040 C 
HETATM   32  C25 UNL     1       8.870  48.060 -10.550  1.00  0.00     0.040 C 
ENDBRANCH  29  30
ENDBRANCH  26  29
ENDBRANCH  11  23
TORSDOF 6
ENDMDL
MODEL 4
REMARK minimizedAffinity -8.78160572
REMARK CNNscore 0.554642916
REMARK CNNaffinity 7.32987452
REMARK  6 active torsions:
REMARK  status: ('A' for Active; 'I' for Inactive)
REMARK    1  A    between atoms: C6_8  and  C7_9 
REMARK    2  A    between atoms: C10_12  and  O1_13 
REMARK    3  A    between atoms: O1_13  and  C11_14 
REMARK    4  A    between atoms: C18_22  and  C19_23 
REMARK    5  A    between atoms: C22_26  and  O2_27 
REMARK    6  A    between atoms: O2_27  and  C23_28 
ROOT
HETATM    1  C1  UNL     1      -0.667  53.305 -27.810  1.00  0.00     0.049 C 
HETATM    2  C2  UNL     1      -0.372  53.185 -26.341  1.00  0.00    -0.046 A 
HETATM    3  C3  UNL     1       0.408  54.091 -25.710  1.00  0.00     0.056 A 
HETATM    4  C4  UNL     1       0.684  53.966 -24.322  1.00  0.00     0.112 A 
HETATM    5  N1  UNL     1       1.423  54.706 -23.524  1.00  0.00    -0.350 N 
ATOM      6  H1  UNL     1       1.953  55.543 -23.768  1.00  0.00     0.166 HD
HETATM    7  C5  UNL     1       1.328  54.108 -22.296  1.00  0.00     0.120 A 
HETATM    8  C6  UNL     1       0.511  52.993 -22.325  1.00  0.00     0.066 A 
HETATM    9  N2  UNL     1       0.111  52.893 -23.649  1.00  0.00    -0.305 N 
HETATM   10  C17 UNL     1      -0.688  51.940 -24.282  1.00  0.00     0.112 A 
HETATM   11  C18 UNL     1      -0.951  52.047 -25.601  1.00  0.00    -0.004 A 
ENDROOT
BRANCH   8  12
HETATM   12  C7  UNL     1       0.141  52.081 -21.251  1.00  0.00    -0.007 A 
HETATM   13  C8  UNL     1      -0.103  50.726 -21.512  1.00  0.00     0.016 A 
HETATM   14  C9  UNL     1      -0.467  49.861 -20.477  1.00  0.00     0.037 A 
HETATM   15  C10 UNL     1      -0.622  50.354 -19.184  1.00  0.00     0.069 A 
HETATM   16  C15 UNL     1      -0.347  51.691 -18.906  1.00  0.00     0.037 A 
HETATM   17  C16 UNL     1       0.016  52.557 -19.940  1.00  0.00     0.016 A 
BRANCH  15  18
HETATM   18  O1  UNL     1      -0.919  49.503 -18.159  1.00  0.00    -0.341 OA
BRANCH  18  19
HETATM   19  C11 UNL     1      -2.319  49.344 -17.830  1.00  0.00     0.057 C 
HETATM   20  C12 UNL     1      -2.587  48.055 -17.041  1.00  0.00     0.045 C 
HETATM   21  C13 UNL     1      -2.632  50.540 -16.915  1.00  0.00     0.045 C 
HETATM   22  C14 UNL     1      -3.239  49.430 -19.057  1.00  0.00     0.045 C 
ENDBRANCH  18  19
ENDBRANCH  15  18
ENDBRANCH   8  12
BRANCH  11  23
HETATM   23  C19 UNL     1      -1.800  51.004 -26.200  1.00  0.00    -0.024 A 
HETATM   24  C20 UNL     1      -1.890  49.740 -25.611  1.00  0.00     0.015 A 
HETATM   25  C21 UNL     1      -2.704  48.759 -26.180  1.00  0.00     0.037 A 
HETATM   26  C22 UNL     1      -3.435  49.020 -27.342  1.00  0.00     0.069 A 
HETATM   27  C26 UNL     1      -3.352  50.283 -27.928  1.00  0.00     0.037 A 
HETATM   28  C27 UNL     1      -2.537  51.270 -27.359  1.00  0.00     0.015 A 
BRANCH  26  29
HETATM   29  O2  UNL     1      -4.190  47.969 -27.780  1.00  0.00    -0.347 OA
BRANCH  29  30
HETATM   30  C23 UNL     1      -5.412  48.226 -28.479  1.00  0.00     0.120 C 
HETATM   31  C24 UNL     1      -5.257  47.617 -29.871  1.00  0.00     0.040 C 
HETATM   32  C25 UNL     1      -6.578  47.564 -27.750  1.00  0.00     0.040 C 
ENDBRANCH  29  30
ENDBRANCH  26  29
ENDBRANCH  11  23
TORSDOF 6
ENDMDL
MODEL 5
REMARK minimizedAffinity -8.5401535
REMARK CNNscore 0.534554362
REMARK CNNaffinity 7.29066467
REMARK  6 active torsions:
REMARK  status: ('A' for Active; 'I' for Inactive)
REMARK    1  A    between atoms: C6_8  and  C7_9 
REMARK    2  A    between atoms: C10_12  and  O1_13 
REMARK    3  A    between atoms: O1_13  and  C11_14 
REMARK    4  A    between atoms: C18_22  and  C19_23 
REMARK    5  A    between atoms: C22_26  and  O2_27 
REMARK    6  A    between atoms: O2_27  and  C23_28 
ROOT
HETATM    1  C1  UNL     1       0.348  54.275 -25.812  1.00  0.00     0.049 C 
HETATM    2  C2  UNL     1       0.345  53.712 -24.417  1.00  0.00    -0.046 A 
HETATM    3  C3  UNL     1       1.082  54.278 -23.435  1.00  0.00     0.056 A 
HETATM    4  C4  UNL     1       1.075  53.735 -22.122  1.00  0.00     0.112 A 
HETATM    5  N1  UNL     1       1.723  54.104 -21.038  1.00  0.00    -0.350 N 
ATOM      6  H1  UNL     1       2.373  54.883 -20.939  1.00  0.00     0.166 HD
HETATM    7  C5  UNL     1       1.335  53.214 -20.072  1.00  0.00     0.120 A 
HETATM    8  C6  UNL     1       0.427  52.290 -20.555  1.00  0.00     0.066 A 
HETATM    9  N2  UNL     1       0.276  52.620 -21.893  1.00  0.00    -0.305 N 
HETATM   10  C17 UNL     1      -0.483  52.014 -22.895  1.00  0.00     0.112 A 
HETATM   11  C18 UNL     1      -0.478  52.518 -24.146  1.00  0.00    -0.004 A 
ENDROOT
BRANCH   8  12
HETATM   12  C7  UNL     1      -0.233  51.186 -19.870  1.00  0.00    -0.007 A 
HETATM   13  C8  UNL     1      -0.326  49.923 -20.468  1.00  0.00     0.016 A 
HETATM   14  C9  UNL     1      -0.969  48.873 -19.808  1.00  0.00     0.037 A 
HETATM   15  C10 UNL     1      -1.552  49.092 -18.562  1.00  0.00     0.069 A 
HETATM   16  C15 UNL     1      -1.434  50.334 -17.942  1.00  0.00     0.037 A 
HETATM   17  C16 UNL     1      -0.792  51.384 -18.602  1.00  0.00     0.016 A 
BRANCH  15  18
HETATM   18  O1  UNL     1      -2.129  48.056 -17.886  1.00  0.00    -0.341 OA
BRANCH  18  19
HETATM   19  C11 UNL     1      -3.470  47.687 -18.284  1.00  0.00     0.057 C 
HETATM   20  C12 UNL     1      -3.485  46.459 -19.204  1.00  0.00     0.045 C 
HETATM   21  C13 UNL     1      -4.165  47.305 -16.965  1.00  0.00     0.045 C 
HETATM   22  C14 UNL     1      -4.252  48.848 -18.916  1.00  0.00     0.045 C 
ENDBRANCH  18  19
ENDBRANCH  15  18
ENDBRANCH   8  12
BRANCH  11  23
HETATM   23  C19 UNL     1      -1.303  51.825 -25.149  1.00  0.00    -0.024 A 
HETATM   24  C20 UNL     1      -0.780  50.750 -25.874  1.00  0.00     0.015 A 
HETATM   25  C21 UNL     1      -1.571  50.092 -26.819  1.00  0.00     0.037 A 
HETATM   26  C22 UNL     1      -2.887  50.495 -27.057  1.00  0.00     0.069 A 
HETATM   27  C26 UNL     1      -3.412  51.563 -26.330  1.00  0.00     0.037 A 
HETATM   28  C27 UNL     1      -2.623  52.225 -25.380  1.00  0.00     0.015 A 
BRANCH  26  29
HETATM   29  O2  UNL     1      -3.540  49.757 -28.002  1.00  0.00    -0.347 OA
BRANCH  29  30
HETATM   30  C23 UNL     1      -3.941  48.418 -27.694  1.00  0.00     0.120 C 
HETATM   31  C24 UNL     1      -4.405  48.424 -26.239  1.00  0.00     0.040 C 
HETATM   32  C25 UNL     1      -5.091  47.997 -28.604  1.00  0.00     0.040 C 
ENDBRANCH  29  30
ENDBRANCH  26  29
ENDBRANCH  11  23
TORSDOF 6
ENDMDL
MODEL 6
REMARK minimizedAffinity -7.09962988
REMARK CNNscore 0.380302787
REMARK CNNaffinity 7.08048439
REMARK  6 active torsions:
REMARK  status: ('A' for Active; 'I' for Inactive)
REMARK    1  A    between atoms: C6_8  and  C7_9 
REMARK    2  A    between atoms: C10_12  and  O1_13 
REMARK    3  A    between atoms: O1_13  and  C11_14 
REMARK    4  A    between atoms: C18_22  and  C19_23 
REMARK    5  A    between atoms: C22_26  and  O2_27 
REMARK    6  A    between atoms: O2_27  and  C23_28 
ROOT
HETATM    1  C1  UNL     1      -3.108  48.958 -24.876  1.00  0.00     0.049 C 
HETATM    2  C2  UNL     1      -2.324  49.677 -23.814  1.00  0.00    -0.046 A 
HETATM    3  C3  UNL     1      -1.485  50.688 -24.130  1.00  0.00     0.056 A 
HETATM    4  C4  UNL     1      -0.745  51.359 -23.118  1.00  0.00     0.112 A 
HETATM    5  N1  UNL     1       0.130  52.336 -23.201  1.00  0.00    -0.350 N 
ATOM      6  H1  UNL     1       0.449  52.814 -24.044  1.00  0.00     0.166 HD
HETATM    7  C5  UNL     1       0.522  52.572 -21.911  1.00  0.00     0.120 A 
HETATM    8  C6  UNL     1      -0.125  51.743 -21.013  1.00  0.00     0.066 A 
HETATM    9  N2  UNL     1      -0.933  50.941 -21.805  1.00  0.00    -0.305 N 
HETATM   10  C17 UNL     1      -1.785  49.893 -21.457  1.00  0.00     0.112 A 
HETATM   11  C18 UNL     1      -2.487  49.246 -22.412  1.00  0.00    -0.004 A 
ENDROOT
BRANCH   8  12
HETATM   12  C7  UNL     1      -0.006  51.665 -19.563  1.00  0.00    -0.007 A 
HETATM   13  C8  UNL     1      -0.794  50.772 -18.826  1.00  0.00     0.016 A 
HETATM   14  C9  UNL     1      -0.680  50.712 -17.435  1.00  0.00     0.037 A 
HETATM   15  C10 UNL     1       0.196  51.568 -16.773  1.00  0.00     0.069 A 
HETATM   16  C15 UNL     1       1.010  52.435 -17.499  1.00  0.00     0.037 A 
HETATM   17  C16 UNL     1       0.897  52.496 -18.889  1.00  0.00     0.016 A 
BRANCH  15  18
HETATM   18  O1  UNL     1       0.354  51.473 -15.421  1.00  0.00    -0.341 OA
BRANCH  18  19
HETATM   19  C11 UNL     1       0.308  50.145 -14.852  1.00  0.00     0.057 C 
HETATM   20  C12 UNL     1       0.727  49.066 -15.860  1.00  0.00     0.045 C 
HETATM   21  C13 UNL     1       1.355  50.177 -13.724  1.00  0.00     0.045 C 
HETATM   22  C14 UNL     1      -1.053  49.804 -14.227  1.00  0.00     0.045 C 
ENDBRANCH  18  19
ENDBRANCH  15  18
ENDBRANCH   8  12
BRANCH  11  23
HETATM   23  C19 UNL     1      -3.365  48.151 -21.969  1.00  0.00    -0.024 A 
HETATM   24  C20 UNL     1      -2.819  46.975 -21.447  1.00  0.00     0.015 A 
HETATM   25  C21 UNL     1      -3.659  45.943 -21.021  1.00  0.00     0.037 A 
HETATM   26  C22 UNL     1      -5.048  46.065 -21.114  1.00  0.00     0.069 A 
HETATM   27  C26 UNL     1      -5.593  47.240 -21.629  1.00  0.00     0.037 A 
HETATM   28  C27 UNL     1      -4.755  48.278 -22.055  1.00  0.00     0.015 A 
BRANCH  26  29
HETATM   29  O2  UNL     1      -5.740  44.980 -20.656  1.00  0.00    -0.347 OA
BRANCH  29  30
HETATM   30  C23 UNL     1      -6.993  44.641 -21.258  1.00  0.00     0.120 C 
HETATM   31  C24 UNL     1      -6.720  43.476 -22.209  1.00  0.00     0.040 C 
HETATM   32  C25 UNL     1      -7.987  44.212 -20.184  1.00  0.00     0.040 C 
ENDBRANCH  29  30
ENDBRANCH  26  29
ENDBRANCH  11  23
TORSDOF 6
ENDMDL
MODEL 7
REMARK minimizedAffinity -8.17175579
REMARK CNNscore 0.366259575
REMARK CNNaffinity 7.11589289
REMARK  6 active torsions:
REMARK  status: ('A' for Active; 'I' for Inactive)
REMARK    1  A    between atoms: C6_8  and  C7_9 
REMARK    2  A    between atoms: C10_12  and  O1_13 
REMARK    3  A    between atoms: O1_13  and  C11_14 
REMARK    4  A    between atoms: C18_22  and  C19_23 
REMARK    5  A    between atoms: C22_26  and  O2_27 
REMARK    6  A    between atoms: O2_27  and  C23_28 
ROOT
HETATM    1  C1  UNL     1      -0.505  52.393 -27.481  1.00  0.00     0.049 C 
HETATM    2  C2  UNL     1      -0.483  52.216 -25.988  1.00  0.00    -0.046 A 
HETATM    3  C3  UNL     1       0.329  52.964 -25.208  1.00  0.00     0.056 A 
HETATM    4  C4  UNL     1       0.345  52.786 -23.798  1.00  0.00     0.112 A 
HETATM    5  N1  UNL     1       1.060  53.377 -22.867  1.00  0.00    -0.350 N 
ATOM      6  H1  UNL     1       1.763  54.106 -22.993  1.00  0.00     0.166 HD
HETATM    7  C5  UNL     1       0.658  52.802 -21.691  1.00  0.00     0.120 A 
HETATM    8  C6  UNL     1      -0.326  51.852 -21.891  1.00  0.00     0.066 A 
HETATM    9  N2  UNL     1      -0.513  51.831 -23.264  1.00  0.00    -0.305 N 
HETATM   10  C17 UNL     1      -1.351  51.040 -24.051  1.00  0.00     0.112 A 
HETATM   11  C18 UNL     1      -1.369  51.197 -25.391  1.00  0.00    -0.004 A 
ENDROOT
BRANCH   8  12
HETATM   12  C7  UNL     1      -1.025  51.017 -20.923  1.00  0.00    -0.007 A 
HETATM   13  C8  UNL     1      -2.237  51.435 -20.356  1.00  0.00     0.016 A 
HETATM   14  C9  UNL     1      -2.895  50.633 -19.422  1.00  0.00     0.037 A 
HETATM   15  C10 UNL     1      -2.328  49.425 -19.024  1.00  0.00     0.069 A 
HETATM   16  C15 UNL     1      -1.143  48.981 -19.607  1.00  0.00     0.037 A 
HETATM   17  C16 UNL     1      -0.484  49.783 -20.541  1.00  0.00     0.016 A 
BRANCH  15  18
HETATM   18  O1  UNL     1      -2.995  48.609 -18.156  1.00  0.00    -0.341 OA
BRANCH  18  19
HETATM   19  C11 UNL     1      -3.820  47.575 -18.739  1.00  0.00     0.057 C 
HETATM   20  C12 UNL     1      -3.247  46.171 -18.500  1.00  0.00     0.045 C 
HETATM   21  C13 UNL     1      -5.155  47.682 -17.981  1.00  0.00     0.045 C 
HETATM   22  C14 UNL     1      -4.102  47.799 -20.232  1.00  0.00     0.045 C 
ENDBRANCH  18  19
ENDBRANCH  15  18
ENDBRANCH   8  12
BRANCH  11  23
HETATM   23  C19 UNL     1      -2.278  50.328 -26.155  1.00  0.00    -0.024 A 
HETATM   24  C20 UNL     1      -2.709  49.111 -25.619  1.00  0.00     0.015 A 
HETATM   25  C21 UNL     1      -3.578  48.295 -26.346  1.00  0.00     0.037 A 
HETATM   26  C22 UNL     1      -4.026  48.675 -27.614  1.00  0.00     0.069 A 
HETATM   27  C26 UNL     1      -3.602  49.892 -28.147  1.00  0.00     0.037 A 
HETATM   28  C27 UNL     1      -2.731  50.714 -27.421  1.00  0.00     0.015 A 
BRANCH  26  29
HETATM   29  O2  UNL     1      -4.875  47.781 -28.203  1.00  0.00    -0.347 OA
BRANCH  29  30
HETATM   30  C23 UNL     1      -5.691  48.206 -29.298  1.00  0.00     0.120 C 
HETATM   31  C24 UNL     1      -5.322  47.321 -30.488  1.00  0.00     0.040 C 
HETATM   32  C25 UNL     1      -7.165  48.020 -28.951  1.00  0.00     0.040 C 
ENDBRANCH  29  30
ENDBRANCH  26  29
ENDBRANCH  11  23
TORSDOF 6
ENDMDL
MODEL 8
REMARK minimizedAffinity -7.38016605
REMARK CNNscore 0.360929191
REMARK CNNaffinity 7.11539221
REMARK  6 active torsions:
REMARK  status: ('A' for Active; 'I' for Inactive)
REMARK    1  A    between atoms: C6_8  and  C7_9 
REMARK    2  A    between atoms: C10_12  and  O1_13 
REMARK    3  A    between atoms: O1_13  and  C11_14 
REMARK    4  A    between atoms: C18_22  and  C19_23 
REMARK    5  A    between atoms: C22_26  and  O2_27 
REMARK    6  A    between atoms: O2_27  and  C23_28 
ROOT
HETATM    1  C1  UNL     1      -1.456  51.925 -24.938  1.00  0.00     0.049 C 
HETATM    2  C2  UNL     1      -0.882  52.113 -23.560  1.00  0.00    -0.046 A 
HETATM    3  C3  UNL     1       0.130  52.981 -23.338  1.00  0.00     0.056 A 
HETATM    4  C4  UNL     1       0.668  53.147 -22.034  1.00  0.00     0.112 A 
HETATM    5  N1  UNL     1       1.651  53.905 -21.601  1.00  0.00    -0.350 N 
ATOM      6  H1  UNL     1       2.230  54.542 -22.149  1.00  0.00     0.166 HD
HETATM    7  C5  UNL     1       1.731  53.653 -20.258  1.00  0.00     0.120 A 
HETATM    8  C6  UNL     1       0.779  52.739 -19.846  1.00  0.00     0.066 A 
HETATM    9  N2  UNL     1       0.103  52.397 -21.008  1.00  0.00    -0.305 N 
HETATM   10  C17 UNL     1      -0.935  51.488 -21.216  1.00  0.00     0.112 A 
HETATM   11  C18 UNL     1      -1.448  51.318 -22.453  1.00  0.00    -0.004 A 
ENDROOT
BRANCH   8  12
HETATM   12  C7  UNL     1       0.516  52.201 -18.518  1.00  0.00    -0.007 A 
HETATM   13  C8  UNL     1      -0.582  51.362 -18.288  1.00  0.00     0.016 A 
HETATM   14  C9  UNL     1      -0.831  50.859 -17.008  1.00  0.00     0.037 A 
HETATM   15  C10 UNL     1      -0.005  51.222 -15.948  1.00  0.00     0.069 A 
HETATM   16  C15 UNL     1       1.110  52.026 -16.172  1.00  0.00     0.037 A 
HETATM   17  C16 UNL     1       1.360  52.530 -17.450  1.00  0.00     0.016 A 
BRANCH  15  18
HETATM   18  O1  UNL     1      -0.209  50.687 -14.708  1.00  0.00    -0.341 OA
BRANCH  18  19
HETATM   19  C11 UNL     1       0.516  49.476 -14.394  1.00  0.00     0.057 C 
HETATM   20  C12 UNL     1       0.572  48.508 -15.584  1.00  0.00     0.045 C 
HETATM   21  C13 UNL     1       1.948  49.956 -14.100  1.00  0.00     0.045 C 
HETATM   22  C14 UNL     1      -0.015  48.764 -13.141  1.00  0.00     0.045 C 
ENDBRANCH  18  19
ENDBRANCH  15  18
ENDBRANCH   8  12
BRANCH  11  23
HETATM   23  C19 UNL     1      -2.540  50.342 -22.595  1.00  0.00    -0.024 A 
HETATM   24  C20 UNL     1      -2.263  48.972 -22.625  1.00  0.00     0.015 A 
HETATM   25  C21 UNL     1      -3.305  48.050 -22.752  1.00  0.00     0.037 A 
HETATM   26  C22 UNL     1      -4.631  48.478 -22.856  1.00  0.00     0.069 A 
HETATM   27  C26 UNL     1      -4.909  49.845 -22.821  1.00  0.00     0.037 A 
HETATM   28  C27 UNL     1      -3.867  50.772 -22.692  1.00  0.00     0.015 A 
BRANCH  26  29
HETATM   29  O2  UNL     1      -5.542  47.467 -22.970  1.00  0.00    -0.347 OA
BRANCH  29  30
HETATM   30  C23 UNL     1      -6.139  46.923 -21.789  1.00  0.00     0.120 C 
HETATM   31  C24 UNL     1      -5.377  45.639 -21.464  1.00  0.00     0.040 C 
HETATM   32  C25 UNL     1      -6.002  47.913 -20.635  1.00  0.00     0.040 C 
ENDBRANCH  29  30
ENDBRANCH  26  29
ENDBRANCH  11  23
TORSDOF 6
ENDMDL
MODEL 9
REMARK minimizedAffinity -8.36398315
REMARK CNNscore 0.355466723
REMARK CNNaffinity 6.95016718
REMARK  6 active torsions:
REMARK  status: ('A' for Active; 'I' for Inactive)
REMARK    1  A    between atoms: C6_8  and  C7_9 
REMARK    2  A    between atoms: C10_12  and  O1_13 
REMARK    3  A    between atoms: O1_13  and  C11_14 
REMARK    4  A    between atoms: C18_22  and  C19_23 
REMARK    5  A    between atoms: C22_26  and  O2_27 
REMARK    6  A    between atoms: O2_27  and  C23_28 
ROOT
HETATM    1  C1  UNL     1      -0.728  49.029 -16.731  1.00  0.00     0.049 C 
HETATM    2  C2  UNL     1      -0.456  50.015 -17.833  1.00  0.00    -0.046 A 
HETATM    3  C3  UNL     1       0.282  51.125 -17.609  1.00  0.00     0.056 A 
HETATM    4  C4  UNL     1       0.530  52.053 -18.656  1.00  0.00     0.112 A 
HETATM    5  N1  UNL     1       1.190  53.190 -18.657  1.00  0.00    -0.350 N 
ATOM      6  H1  UNL     1       1.668  53.630 -17.871  1.00  0.00     0.166 HD
HETATM    7  C5  UNL     1       1.094  53.656 -19.941  1.00  0.00     0.120 A 
HETATM    8  C6  UNL     1       0.379  52.795 -20.752  1.00  0.00     0.066 A 
HETATM    9  N2  UNL     1      -0.004  51.763 -19.908  1.00  0.00    -0.305 N 
HETATM   10  C17 UNL     1      -0.778  50.630 -20.158  1.00  0.00     0.112 A 
HETATM   11  C18 UNL     1      -1.023  49.746 -19.168  1.00  0.00    -0.004 A 
ENDROOT
BRANCH   8  12
HETATM   12  C7  UNL     1       0.049  52.905 -22.167  1.00  0.00    -0.007 A 
HETATM   13  C8  UNL     1      -1.155  52.391 -22.665  1.00  0.00     0.016 A 
HETATM   14  C9  UNL     1      -1.458  52.493 -24.025  1.00  0.00     0.037 A 
HETATM   15  C10 UNL     1      -0.544  53.078 -24.897  1.00  0.00     0.069 A 
HETATM   16  C15 UNL     1       0.640  53.625 -24.407  1.00  0.00     0.037 A 
HETATM   17  C16 UNL     1       0.944  53.523 -23.048  1.00  0.00     0.016 A 
BRANCH  15  18
HETATM   18  O1  UNL     1      -0.859  53.233 -26.216  1.00  0.00    -0.341 OA
BRANCH  18  19
HETATM   19  C11 UNL     1      -0.567  52.120 -27.091  1.00  0.00     0.057 C 
HETATM   20  C12 UNL     1       0.176  50.990 -26.364  1.00  0.00     0.045 C 
HETATM   21  C13 UNL     1      -1.950  51.592 -27.510  1.00  0.00     0.045 C 
HETATM   22  C14 UNL     1       0.190  52.535 -28.362  1.00  0.00     0.045 C 
ENDBRANCH  18  19
ENDBRANCH  15  18
ENDBRANCH   8  12
BRANCH  11  23
HETATM   23  C19 UNL     1      -1.848  48.575 -19.507  1.00  0.00    -0.024 A 
HETATM   24  C20 UNL     1      -1.591  47.841 -20.668  1.00  0.00     0.015 A 
HETATM   25  C21 UNL     1      -2.372  46.726 -20.979  1.00  0.00     0.037 A 
HETATM   26  C22 UNL     1      -3.420  46.330 -20.144  1.00  0.00     0.069 A 
HETATM   27  C26 UNL     1      -3.675  47.058 -18.982  1.00  0.00     0.037 A 
HETATM   28  C27 UNL     1      -2.892  48.176 -18.665  1.00  0.00     0.015 A 
BRANCH  26  29
HETATM   29  O2  UNL     1      -4.093  45.221 -20.571  1.00  0.00    -0.347 OA
BRANCH  29  30
HETATM   30  C23 UNL     1      -5.337  45.377 -21.261  1.00  0.00     0.120 C 
HETATM   31  C24 UNL     1      -6.440  45.231 -20.214  1.00  0.00     0.040 C 
HETATM   32  C25 UNL     1      -5.407  46.761 -21.899  1.00  0.00     0.040 C 
ENDBRANCH  29  30
ENDBRANCH  26  29
ENDBRANCH  11  23
TORSDOF 6
ENDMDL
