MODEL 1
REMARK minimizedAffinity -5.02528095
REMARK CNNscore 0.655790627
REMARK CNNaffinity 4.9709096
REMARK  2 active torsions:
REMARK  status: ('A' for Active; 'I' for Inactive)
REMARK    1  A    between atoms: C4_5  and  S1_6 
REMARK    2  A    between atoms: S1_6  and  C5_7 
ROOT
HETATM    1  C5  UNL     1     -13.863   2.147  26.127  1.00  0.00     0.029 A 
HETATM    2  C6  UNL     1     -14.664   2.598  27.187  1.00  0.00     0.046 A 
HETATM    3  C7  UNL     1     -14.143   2.708  28.480  1.00  0.00     0.057 A 
HETATM    4 CL2  UNL     1     -15.203   3.259  29.728  1.00  0.00    -0.083 Cl
HETATM    5  C8  UNL     1     -12.807   2.374  28.724  1.00  0.00     0.057 A 
HETATM    6 CL3  UNL     1     -12.097   2.483  30.294  1.00  0.00    -0.082 Cl
HETATM    7  C9  UNL     1     -11.998   1.936  27.674  1.00  0.00     0.051 A 
HETATM    8  C10 UNL     1     -12.519   1.826  26.379  1.00  0.00     0.052 A 
HETATM    9 CL4  UNL     1     -11.435   1.300  25.138  1.00  0.00    -0.083 Cl
ENDROOT
BRANCH   1  10
HETATM   10  S1  UNL     1     -14.628   2.041  24.510  1.00  0.00    -0.089 SA
BRANCH  10  11
HETATM   11  C4  UNL     1     -14.238   3.654  23.852  1.00  0.00     0.005 A 
HETATM   12  C3  UNL     1     -14.220   3.848  22.466  1.00  0.00     0.020 A 
HETATM   13  C2  UNL     1     -13.913   5.103  21.933  1.00  0.00     0.025 A 
HETATM   14  C1  UNL     1     -13.613   6.162  22.787  1.00  0.00     0.034 A 
HETATM   15 CL1  UNL     1     -13.234   7.707  22.133  1.00  0.00    -0.084 Cl
HETATM   16  C12 UNL     1     -13.615   5.978  24.168  1.00  0.00     0.025 A 
HETATM   17  C11 UNL     1     -13.924   4.722  24.700  1.00  0.00     0.020 A 
ENDBRANCH  10  11
ENDBRANCH   1  10
TORSDOF 2
ENDMDL
MODEL 2
REMARK minimizedAffinity -6.31584215
REMARK CNNscore 0.649418235
REMARK CNNaffinity 5.50789785
REMARK  2 active torsions:
REMARK  status: ('A' for Active; 'I' for Inactive)
REMARK    1  A    between atoms: C4_5  and  S1_6 
REMARK    2  A    between atoms: S1_6  and  C5_7 
ROOT
HETATM    1  C5  UNL     1      -1.124   7.487  12.747  1.00  0.00     0.029 A 
HETATM    2  C6  UNL     1      -2.369   8.125  12.846  1.00  0.00     0.046 A 
HETATM    3  C7  UNL     1      -3.544   7.380  12.993  1.00  0.00     0.057 A 
HETATM    4 CL2  UNL     1      -5.035   8.246  13.093  1.00  0.00    -0.083 Cl
HETATM    5  C8  UNL     1      -3.482   5.985  13.054  1.00  0.00     0.057 A 
HETATM    6 CL3  UNL     1      -4.890   5.002  13.234  1.00  0.00    -0.082 Cl
HETATM    7  C9  UNL     1      -2.246   5.340  12.970  1.00  0.00     0.051 A 
HETATM    8  C10 UNL     1      -1.070   6.085  12.822  1.00  0.00     0.052 A 
HETATM    9 CL4  UNL     1       0.415   5.202  12.752  1.00  0.00    -0.083 Cl
ENDROOT
BRANCH   1  10
HETATM   10  S1  UNL     1       0.320   8.532  12.558  1.00  0.00    -0.089 SA
BRANCH  10  11
HETATM   11  C4  UNL     1       0.760   8.187  10.863  1.00  0.00     0.005 A 
HETATM   12  C3  UNL     1      -0.161   8.453   9.843  1.00  0.00     0.020 A 
HETATM   13  C2  UNL     1       0.165   8.185   8.511  1.00  0.00     0.025 A 
HETATM   14  C1  UNL     1       1.409   7.641   8.199  1.00  0.00     0.034 A 
HETATM   15 CL1  UNL     1       1.812   7.310   6.560  1.00  0.00    -0.084 Cl
HETATM   16  C12 UNL     1       2.329   7.359   9.207  1.00  0.00     0.025 A 
HETATM   17  C11 UNL     1       2.002   7.629  10.540  1.00  0.00     0.020 A 
ENDBRANCH  10  11
ENDBRANCH   1  10
TORSDOF 2
ENDMDL
MODEL 3
REMARK minimizedAffinity -6.65749645
REMARK CNNscore 0.508614898
REMARK CNNaffinity 5.32466555
REMARK  2 active torsions:
REMARK  status: ('A' for Active; 'I' for Inactive)
REMARK    1  A    between atoms: C4_5  and  S1_6 
REMARK    2  A    between atoms: S1_6  and  C5_7 
ROOT
HETATM    1  C5  UNL     1      -4.576   5.075  13.194  1.00  0.00     0.029 A 
HETATM    2  C6  UNL     1      -5.908   4.653  13.323  1.00  0.00     0.046 A 
HETATM    3  C7  UNL     1      -6.368   3.520  12.646  1.00  0.00     0.057 A 
HETATM    4 CL2  UNL     1      -8.026   3.081  12.852  1.00  0.00    -0.083 Cl
HETATM    5  C8  UNL     1      -5.494   2.789  11.836  1.00  0.00     0.057 A 
HETATM    6 CL3  UNL     1      -5.992   1.381  10.968  1.00  0.00    -0.082 Cl
HETATM    7  C9  UNL     1      -4.163   3.192  11.710  1.00  0.00     0.051 A 
HETATM    8  C10 UNL     1      -3.702   4.326  12.388  1.00  0.00     0.052 A 
HETATM    9 CL4  UNL     1      -2.032   4.735  12.192  1.00  0.00    -0.083 Cl
ENDROOT
BRANCH   1  10
HETATM   10  S1  UNL     1      -4.088   6.540  14.103  1.00  0.00    -0.089 SA
BRANCH  10  11
HETATM   11  C4  UNL     1      -5.634   6.978  14.881  1.00  0.00     0.005 A 
HETATM   12  C3  UNL     1      -6.304   8.139  14.478  1.00  0.00     0.020 A 
HETATM   13  C2  UNL     1      -7.513   8.499  15.079  1.00  0.00     0.025 A 
HETATM   14  C1  UNL     1      -8.047   7.705  16.090  1.00  0.00     0.034 A 
HETATM   15 CL1  UNL     1      -9.535   8.147  16.831  1.00  0.00    -0.084 Cl
HETATM   16  C12 UNL     1      -7.382   6.554  16.509  1.00  0.00     0.025 A 
HETATM   17  C11 UNL     1      -6.173   6.193  15.906  1.00  0.00     0.020 A 
ENDBRANCH  10  11
ENDBRANCH   1  10
TORSDOF 2
ENDMDL
MODEL 4
REMARK minimizedAffinity -5.90347815
REMARK CNNscore 0.462732494
REMARK CNNaffinity 5.46440506
REMARK  2 active torsions:
REMARK  status: ('A' for Active; 'I' for Inactive)
REMARK    1  A    between atoms: C4_5  and  S1_6 
REMARK    2  A    between atoms: S1_6  and  C5_7 
ROOT
HETATM    1  C5  UNL     1      -0.668   6.831  12.875  1.00  0.00     0.029 A 
HETATM    2  C6  UNL     1      -1.568   5.797  12.575  1.00  0.00     0.046 A 
HETATM    3  C7  UNL     1      -2.948   5.996  12.686  1.00  0.00     0.057 A 
HETATM    4 CL2  UNL     1      -3.983   4.664  12.310  1.00  0.00    -0.083 Cl
HETATM    5  C8  UNL     1      -3.443   7.240  13.089  1.00  0.00     0.057 A 
HETATM    6 CL3  UNL     1      -5.133   7.557  13.249  1.00  0.00    -0.082 Cl
HETATM    7  C9  UNL     1      -2.557   8.280  13.377  1.00  0.00     0.051 A 
HETATM    8  C10 UNL     1      -1.176   8.081  13.267  1.00  0.00     0.052 A 
HETATM    9 CL4  UNL     1      -0.157   9.434  13.619  1.00  0.00    -0.083 Cl
ENDROOT
BRANCH   1  10
HETATM   10  S1  UNL     1       1.079   6.473  12.703  1.00  0.00    -0.089 SA
BRANCH  10  11
HETATM   11  C4  UNL     1       1.302   6.742  10.952  1.00  0.00     0.005 A 
HETATM   12  C3  UNL     1       2.241   5.976  10.251  1.00  0.00     0.020 A 
HETATM   13  C2  UNL     1       2.433   6.176   8.881  1.00  0.00     0.025 A 
HETATM   14  C1  UNL     1       1.692   7.149   8.214  1.00  0.00     0.034 A 
HETATM   15 CL1  UNL     1       1.927   7.396   6.528  1.00  0.00    -0.084 Cl
HETATM   16  C12 UNL     1       0.764   7.926   8.905  1.00  0.00     0.025 A 
HETATM   17  C11 UNL     1       0.572   7.724  10.275  1.00  0.00     0.020 A 
ENDBRANCH  10  11
ENDBRANCH   1  10
TORSDOF 2
ENDMDL
MODEL 5
REMARK minimizedAffinity -6.71248245
REMARK CNNscore 0.428615838
REMARK CNNaffinity 5.18966818
REMARK  2 active torsions:
REMARK  status: ('A' for Active; 'I' for Inactive)
REMARK    1  A    between atoms: C4_5  and  S1_6 
REMARK    2  A    between atoms: S1_6  and  C5_7 
ROOT
HETATM    1  C5  UNL     1      -5.823   3.420  12.592  1.00  0.00     0.029 A 
HETATM    2  C6  UNL     1      -5.226   4.616  13.018  1.00  0.00     0.046 A 
HETATM    3  C7  UNL     1      -3.952   4.979  12.568  1.00  0.00     0.057 A 
HETATM    4 CL2  UNL     1      -3.287   6.462  13.153  1.00  0.00    -0.083 Cl
HETATM    5  C8  UNL     1      -3.266   4.150  11.675  1.00  0.00     0.057 A 
HETATM    6 CL3  UNL     1      -1.691   4.534  11.079  1.00  0.00    -0.082 Cl
HETATM    7  C9  UNL     1      -3.857   2.964  11.235  1.00  0.00     0.051 A 
HETATM    8  C10 UNL     1      -5.130   2.600  11.685  1.00  0.00     0.052 A 
HETATM    9 CL4  UNL     1      -5.792   1.127  11.066  1.00  0.00    -0.083 Cl
ENDROOT
BRANCH   1  10
HETATM   10  S1  UNL     1      -7.455   3.047  13.230  1.00  0.00    -0.089 SA
BRANCH  10  11
HETATM   11  C4  UNL     1      -7.880   4.606  13.989  1.00  0.00     0.005 A 
HETATM   12  C3  UNL     1      -8.550   5.579  13.238  1.00  0.00     0.020 A 
HETATM   13  C2  UNL     1      -8.886   6.807  13.815  1.00  0.00     0.025 A 
HETATM   14  C1  UNL     1      -8.543   7.066  15.139  1.00  0.00     0.034 A 
HETATM   15 CL1  UNL     1      -8.956   8.577  15.850  1.00  0.00    -0.084 Cl
HETATM   16  C12 UNL     1      -7.864   6.110  15.893  1.00  0.00     0.025 A 
HETATM   17  C11 UNL     1      -7.529   4.881  15.316  1.00  0.00     0.020 A 
ENDBRANCH  10  11
ENDBRANCH   1  10
TORSDOF 2
ENDMDL
MODEL 6
REMARK minimizedAffinity -6.19544315
REMARK CNNscore 0.395093709
REMARK CNNaffinity 5.389925
REMARK  2 active torsions:
REMARK  status: ('A' for Active; 'I' for Inactive)
REMARK    1  A    between atoms: C4_5  and  S1_6 
REMARK    2  A    between atoms: S1_6  and  C5_7 
ROOT
HETATM    1  C5  UNL     1      -8.264   5.875  14.200  1.00  0.00     0.029 A 
HETATM    2  C6  UNL     1      -9.304   6.227  13.327  1.00  0.00     0.046 A 
HETATM    3  C7  UNL     1     -10.327   7.085  13.741  1.00  0.00     0.057 A 
HETATM    4 CL2  UNL     1     -11.574   7.454  12.605  1.00  0.00    -0.083 Cl
HETATM    5  C8  UNL     1     -10.313   7.610  15.037  1.00  0.00     0.057 A 
HETATM    6 CL3  UNL     1     -11.543   8.675  15.618  1.00  0.00    -0.082 Cl
HETATM    7  C9  UNL     1      -9.276   7.278  15.911  1.00  0.00     0.051 A 
HETATM    8  C10 UNL     1      -8.252   6.418  15.496  1.00  0.00     0.052 A 
HETATM    9 CL4  UNL     1      -6.997   6.083  16.638  1.00  0.00    -0.083 Cl
ENDROOT
BRANCH   1  10
HETATM   10  S1  UNL     1      -7.004   4.768  13.571  1.00  0.00    -0.089 SA
BRANCH  10  11
HETATM   11  C4  UNL     1      -5.637   5.898  13.372  1.00  0.00     0.005 A 
HETATM   12  C3  UNL     1      -5.876   7.277  13.376  1.00  0.00     0.020 A 
HETATM   13  C2  UNL     1      -4.819   8.177  13.217  1.00  0.00     0.025 A 
HETATM   14  C1  UNL     1      -3.523   7.698  13.044  1.00  0.00     0.034 A 
HETATM   15 CL1  UNL     1      -2.220   8.804  12.849  1.00  0.00    -0.084 Cl
HETATM   16  C12 UNL     1      -3.274   6.327  13.026  1.00  0.00     0.025 A 
HETATM   17  C11 UNL     1      -4.332   5.427  13.186  1.00  0.00     0.020 A 
ENDBRANCH  10  11
ENDBRANCH   1  10
TORSDOF 2
ENDMDL
MODEL 7
REMARK minimizedAffinity -5.68482304
REMARK CNNscore 0.367573947
REMARK CNNaffinity 5.23118353
REMARK  2 active torsions:
REMARK  status: ('A' for Active; 'I' for Inactive)
REMARK    1  A    between atoms: C4_5  and  S1_6 
REMARK    2  A    between atoms: S1_6  and  C5_7 
ROOT
HETATM    1  C5  UNL     1      -0.192   7.522  12.121  1.00  0.00     0.029 A 
HETATM    2  C6  UNL     1      -0.247   6.159  11.791  1.00  0.00     0.046 A 
HETATM    3  C7  UNL     1      -1.366   5.388  12.120  1.00  0.00     0.057 A 
HETATM    4 CL2  UNL     1      -1.343   3.716  11.689  1.00  0.00    -0.083 Cl
HETATM    5  C8  UNL     1      -2.451   5.979  12.775  1.00  0.00     0.057 A 
HETATM    6 CL3  UNL     1      -3.866   5.089  13.212  1.00  0.00    -0.082 Cl
HETATM    7  C9  UNL     1      -2.413   7.337  13.095  1.00  0.00     0.051 A 
HETATM    8  C10 UNL     1      -1.293   8.109  12.768  1.00  0.00     0.052 A 
HETATM    9 CL4  UNL     1      -1.346   9.787  13.182  1.00  0.00    -0.083 Cl
ENDROOT
BRANCH   1  10
HETATM   10  S1  UNL     1       1.289   8.418  11.657  1.00  0.00    -0.089 SA
BRANCH  10  11
HETATM   11  C4  UNL     1       1.750   7.549  10.168  1.00  0.00     0.005 A 
HETATM   12  C3  UNL     1       1.177   7.921   8.947  1.00  0.00     0.020 A 
HETATM   13  C2  UNL     1       1.524   7.248   7.772  1.00  0.00     0.025 A 
HETATM   14  C1  UNL     1       2.437   6.197   7.819  1.00  0.00     0.034 A 
HETATM   15 CL1  UNL     1       2.864   5.369   6.374  1.00  0.00    -0.084 Cl
HETATM   16  C12 UNL     1       3.004   5.810   9.032  1.00  0.00     0.025 A 
HETATM   17  C11 UNL     1       2.658   6.484  10.207  1.00  0.00     0.020 A 
ENDBRANCH  10  11
ENDBRANCH   1  10
TORSDOF 2
ENDMDL
MODEL 8
REMARK minimizedAffinity -4.96662188
REMARK CNNscore 0.348192275
REMARK CNNaffinity 4.34018469
REMARK  2 active torsions:
REMARK  status: ('A' for Active; 'I' for Inactive)
REMARK    1  A    between atoms: C4_5  and  S1_6 
REMARK    2  A    between atoms: S1_6  and  C5_7 
ROOT
HETATM    1  C5  UNL     1      12.633  -4.775   4.182  1.00  0.00     0.029 A 
HETATM    2  C6  UNL     1      12.619  -3.372   4.187  1.00  0.00     0.046 A 
HETATM    3  C7  UNL     1      13.239  -2.647   3.164  1.00  0.00     0.057 A 
HETATM    4 CL2  UNL     1      13.186  -0.923   3.257  1.00  0.00    -0.083 Cl
HETATM    5  C8  UNL     1      13.873  -3.323   2.117  1.00  0.00     0.057 A 
HETATM    6 CL3  UNL     1      14.659  -2.494   0.821  1.00  0.00    -0.082 Cl
HETATM    7  C9  UNL     1      13.880  -4.719   2.094  1.00  0.00     0.051 A 
HETATM    8  C10 UNL     1      13.261  -5.445   3.118  1.00  0.00     0.052 A 
HETATM    9 CL4  UNL     1      13.299  -7.169   2.993  1.00  0.00    -0.083 Cl
ENDROOT
BRANCH   1  10
HETATM   10  S1  UNL     1      11.811  -5.607   5.540  1.00  0.00    -0.089 SA
BRANCH  10  11
HETATM   11  C4  UNL     1      13.055  -5.471   6.813  1.00  0.00     0.005 A 
HETATM   12  C3  UNL     1      14.370  -5.862   6.538  1.00  0.00     0.020 A 
HETATM   13  C2  UNL     1      15.355  -5.767   7.524  1.00  0.00     0.025 A 
HETATM   14  C1  UNL     1      15.024  -5.289   8.790  1.00  0.00     0.034 A 
HETATM   15 CL1  UNL     1      16.236  -5.171  10.004  1.00  0.00    -0.084 Cl
HETATM   16  C12 UNL     1      13.715  -4.909   9.079  1.00  0.00     0.025 A 
HETATM   17  C11 UNL     1      12.729  -5.004   8.092  1.00  0.00     0.020 A 
ENDBRANCH  10  11
ENDBRANCH   1  10
TORSDOF 2
ENDMDL
MODEL 9
REMARK minimizedAffinity -6.26566982
REMARK CNNscore 0.341308296
REMARK CNNaffinity 5.04632378
REMARK  2 active torsions:
REMARK  status: ('A' for Active; 'I' for Inactive)
REMARK    1  A    between atoms: C4_5  and  S1_6 
REMARK    2  A    between atoms: S1_6  and  C5_7 
ROOT
HETATM    1  C5  UNL     1      -5.364   5.450  13.407  1.00  0.00     0.029 A 
HETATM    2  C6  UNL     1      -6.404   4.510  13.357  1.00  0.00     0.046 A 
HETATM    3  C7  UNL     1      -6.218   3.270  12.737  1.00  0.00     0.057 A 
HETATM    4 CL2  UNL     1      -7.556   2.178  12.709  1.00  0.00    -0.083 Cl
HETATM    5  C8  UNL     1      -4.980   2.955  12.167  1.00  0.00     0.057 A 
HETATM    6 CL3  UNL     1      -4.678   1.445  11.385  1.00  0.00    -0.082 Cl
HETATM    7  C9  UNL     1      -3.934   3.878  12.224  1.00  0.00     0.051 A 
HETATM    8  C10 UNL     1      -4.121   5.119  12.844  1.00  0.00     0.052 A 
HETATM    9 CL4  UNL     1      -2.762   6.188  12.887  1.00  0.00    -0.083 Cl
ENDROOT
BRANCH   1  10
HETATM   10  S1  UNL     1      -5.707   7.008  14.223  1.00  0.00    -0.089 SA
BRANCH  10  11
HETATM   11  C4  UNL     1      -7.488   6.944  14.326  1.00  0.00     0.005 A 
HETATM   12  C3  UNL     1      -8.225   6.460  13.238  1.00  0.00     0.020 A 
HETATM   13  C2  UNL     1      -9.620   6.407  13.299  1.00  0.00     0.025 A 
HETATM   14  C1  UNL     1     -10.280   6.847  14.444  1.00  0.00     0.034 A 
HETATM   15 CL1  UNL     1     -11.997   6.782  14.520  1.00  0.00    -0.084 Cl
HETATM   16  C12 UNL     1      -9.558   7.343  15.528  1.00  0.00     0.025 A 
HETATM   17  C11 UNL     1      -8.162   7.395  15.467  1.00  0.00     0.020 A 
ENDBRANCH  10  11
ENDBRANCH   1  10
TORSDOF 2
ENDMDL
