MODEL 1
REMARK minimizedAffinity -9.93267727
REMARK  7 active torsions:
REMARK  status: ('A' for Active; 'I' for Inactive)
REMARK    1  A    between atoms: C2_2  and  C30_33 
REMARK    2  A    between atoms: C3_3  and  C4_4 
REMARK    3  A    between atoms: C4_4  and  O1_5 
REMARK    4  A    between atoms: C4_4  and  C5_6 
REMARK    5  A    between atoms: C5_6  and  C6_7 
REMARK    6  A    between atoms: C6_7  and  C8_9 
REMARK    7  A    between atoms: C30_33  and  O5_35 
ROOT
HETATM    1  C8  UNL     1       0.046  51.005 -21.384  1.00  0.00    -0.002 C 
HETATM    2  C9  UNL     1      -0.108  50.996 -19.834  1.00  0.00     0.007 C 
HETATM    3  C10 UNL     1      -1.473  50.366 -19.503  1.00  0.00     0.015 C 
HETATM    4  C11 UNL     1      -1.937  49.707 -20.815  1.00  0.00    -0.005 C 
HETATM    5  C12 UNL     1      -1.248  48.310 -20.893  1.00  0.00     0.021 C 
HETATM    6  C13 UNL     1      -3.415  49.428 -21.047  1.00  0.00    -0.000 C 
HETATM    7  C14 UNL     1      -3.948  49.417 -22.295  1.00  0.00    -0.060 C 
HETATM    8  C15 UNL     1      -3.075  49.762 -23.512  1.00  0.00     0.036 C 
HETATM    9  C16 UNL     1      -1.607  50.157 -23.255  1.00  0.00     0.015 C 
HETATM   10  C17 UNL     1      -1.420  50.772 -21.862  1.00  0.00    -0.028 C 
HETATM   11  C18 UNL     1      -2.199  52.126 -21.799  1.00  0.00     0.016 C 
HETATM   12  C19 UNL     1      -5.434  49.099 -22.592  1.00  0.00    -0.014 C 
HETATM   13  C20 UNL     1      -6.132  50.445 -22.936  1.00  0.00     0.020 C 
HETATM   14  C21 UNL     1      -5.558  48.161 -23.830  1.00  0.00     0.021 C 
HETATM   15  C22 UNL     1      -6.836  47.342 -23.828  1.00  0.00     0.080 C 
HETATM   16  C23 UNL     1      -6.802  46.382 -22.663  1.00  0.00     0.135 C 
HETATM   17  O2  UNL     1      -7.244  45.240 -22.791  1.00  0.00    -0.297 OA
HETATM   18  C24 UNL     1      -6.215  46.894 -21.333  1.00  0.00     0.018 C 
HETATM   19  C25 UNL     1      -7.152  46.387 -20.211  1.00  0.00     0.023 C 
HETATM   20  C26 UNL     1      -4.843  46.231 -21.141  1.00  0.00     0.023 C 
HETATM   21  C27 UNL     1      -6.195  48.466 -21.365  1.00  0.00     0.020 C 
HETATM   22  C28 UNL     1      -5.765  49.143 -20.059  1.00  0.00     0.090 C 
HETATM   23  C29 UNL     1      -4.276  49.113 -19.868  1.00  0.00     0.157 C 
HETATM   24  O3  UNL     1      -3.789  48.860 -18.769  1.00  0.00    -0.293 OA
ENDROOT
BRANCH   1  25
HETATM   25  C6  UNL     1       0.861  52.243 -21.881  1.00  0.00    -0.011 C 
HETATM   26  C7  UNL     1       1.232  53.190 -20.739  1.00  0.00     0.010 C 
BRANCH  25  27
HETATM   27  C5  UNL     1       0.060  52.981 -23.002  1.00  0.00     0.040 C 
BRANCH  27  28
HETATM   28  C4  UNL     1       0.905  53.512 -24.175  1.00  0.00     0.142 C 
BRANCH  28  29
HETATM   29  C3  UNL     1       0.113  53.620 -25.448  1.00  0.00     0.018 C 
HETATM   30  C2  UNL     1      -0.108  52.624 -26.332  1.00  0.00     0.010 C 
HETATM   31  C1  UNL     1       0.420  51.224 -26.216  1.00  0.00     0.055 C 
BRANCH  30  32
HETATM   32  C30 UNL     1      -0.916  52.965 -27.528  1.00  0.00     0.171 C 
HETATM   33  O4  UNL     1      -2.057  53.390 -27.538  1.00  0.00    -0.646 OA
BRANCH  32  34
HETATM   34  O5  UNL     1      -0.247  52.755 -28.674  1.00  0.00    -0.773 OA
HETATM   35  H44 UNL     1      -0.887  53.022 -29.365  1.00  0.00     0.167 HD
ENDBRANCH  32  34
ENDBRANCH  30  32
ENDBRANCH  28  29
BRANCH  28  36
HETATM   36  O1  UNL     1       1.375  54.821 -23.874  1.00  0.00    -0.392 OA
HETATM   37  H6  UNL     1       0.615  55.427 -23.923  1.00  0.00     0.210 HD
ENDBRANCH  28  36
ENDBRANCH  27  28
ENDBRANCH  25  27
ENDBRANCH   1  25
TORSDOF 7
ENDMDL
MODEL 2
REMARK minimizedAffinity -9.86943054
REMARK  7 active torsions:
REMARK  status: ('A' for Active; 'I' for Inactive)
REMARK    1  A    between atoms: C2_2  and  C30_33 
REMARK    2  A    between atoms: C3_3  and  C4_4 
REMARK    3  A    between atoms: C4_4  and  O1_5 
REMARK    4  A    between atoms: C4_4  and  C5_6 
REMARK    5  A    between atoms: C5_6  and  C6_7 
REMARK    6  A    between atoms: C6_7  and  C8_9 
REMARK    7  A    between atoms: C30_33  and  O5_35 
ROOT
HETATM    1  C8  UNL     1      -0.504  49.838 -18.283  1.00  0.00    -0.002 C 
HETATM    2  C9  UNL     1      -1.395  48.610 -17.932  1.00  0.00     0.007 C 
HETATM    3  C10 UNL     1      -2.388  48.406 -19.092  1.00  0.00     0.015 C 
HETATM    4  C11 UNL     1      -1.846  49.278 -20.239  1.00  0.00    -0.005 C 
HETATM    5  C12 UNL     1      -0.743  48.446 -20.963  1.00  0.00     0.021 C 
HETATM    6  C13 UNL     1      -2.777  49.743 -21.348  1.00  0.00    -0.000 C 
HETATM    7  C14 UNL     1      -2.565  50.908 -22.012  1.00  0.00    -0.060 C 
HETATM    8  C15 UNL     1      -1.406  51.831 -21.603  1.00  0.00     0.036 C 
HETATM    9  C16 UNL     1      -0.538  51.406 -20.401  1.00  0.00     0.015 C 
HETATM   10  C17 UNL     1      -1.320  50.524 -19.420  1.00  0.00    -0.028 C 
HETATM   11  C18 UNL     1      -2.469  51.371 -18.784  1.00  0.00     0.016 C 
HETATM   12  C19 UNL     1      -3.456  51.409 -23.175  1.00  0.00    -0.014 C 
HETATM   13  C20 UNL     1      -4.336  52.563 -22.616  1.00  0.00     0.020 C 
HETATM   14  C21 UNL     1      -2.581  51.985 -24.329  1.00  0.00     0.021 C 
HETATM   15  C22 UNL     1      -3.269  51.932 -25.680  1.00  0.00     0.080 C 
HETATM   16  C23 UNL     1      -3.464  50.487 -26.075  1.00  0.00     0.135 C 
HETATM   17  O2  UNL     1      -3.314  50.142 -27.248  1.00  0.00    -0.297 OA
HETATM   18  C24 UNL     1      -3.863  49.491 -24.968  1.00  0.00     0.018 C 
HETATM   19  C25 UNL     1      -4.963  48.583 -25.566  1.00  0.00     0.023 C 
HETATM   20  C26 UNL     1      -2.639  48.616 -24.662  1.00  0.00     0.023 C 
HETATM   21  C27 UNL     1      -4.424  50.302 -23.743  1.00  0.00     0.020 C 
HETATM   22  C28 UNL     1      -4.996  49.453 -22.602  1.00  0.00     0.090 C 
HETATM   23  C29 UNL     1      -3.919  48.863 -21.738  1.00  0.00     0.157 C 
HETATM   24  O3  UNL     1      -3.993  47.701 -21.349  1.00  0.00    -0.293 OA
ENDROOT
BRANCH   1  25
HETATM   25  C6  UNL     1      -0.087  50.637 -17.005  1.00  0.00    -0.011 C 
HETATM   26  C7  UNL     1      -1.285  50.982 -16.120  1.00  0.00     0.010 C 
BRANCH  25  27
HETATM   27  C5  UNL     1       0.705  51.917 -17.424  1.00  0.00     0.040 C 
BRANCH  27  28
HETATM   28  C4  UNL     1       1.419  52.656 -16.276  1.00  0.00     0.142 C 
BRANCH  28  29
HETATM   29  C3  UNL     1       2.040  51.711 -15.286  1.00  0.00     0.018 C 
HETATM   30  C2  UNL     1       3.361  51.485 -15.126  1.00  0.00     0.010 C 
HETATM   31  C1  UNL     1       4.457  52.122 -15.928  1.00  0.00     0.055 C 
BRANCH  30  32
HETATM   32  C30 UNL     1       3.744  50.498 -14.087  1.00  0.00     0.171 C 
HETATM   33  O4  UNL     1       4.794  49.882 -14.021  1.00  0.00    -0.646 OA
BRANCH  32  34
HETATM   34  O5  UNL     1       2.783  50.326 -13.165  1.00  0.00    -0.773 OA
HETATM   35  H44 UNL     1       3.168  49.665 -12.554  1.00  0.00     0.167 HD
ENDBRANCH  32  34
ENDBRANCH  30  32
ENDBRANCH  28  29
BRANCH  28  36
HETATM   36  O1  UNL     1       2.476  53.451 -16.802  1.00  0.00    -0.392 OA
HETATM   37  H6  UNL     1       3.186  52.849 -17.085  1.00  0.00     0.210 HD
ENDBRANCH  28  36
ENDBRANCH  27  28
ENDBRANCH  25  27
ENDBRANCH   1  25
TORSDOF 7
ENDMDL
MODEL 3
REMARK minimizedAffinity -9.81631279
REMARK  7 active torsions:
REMARK  status: ('A' for Active; 'I' for Inactive)
REMARK    1  A    between atoms: C2_2  and  C30_33 
REMARK    2  A    between atoms: C3_3  and  C4_4 
REMARK    3  A    between atoms: C4_4  and  O1_5 
REMARK    4  A    between atoms: C4_4  and  C5_6 
REMARK    5  A    between atoms: C5_6  and  C6_7 
REMARK    6  A    between atoms: C6_7  and  C8_9 
REMARK    7  A    between atoms: C30_33  and  O5_35 
ROOT
HETATM    1  C8  UNL     1      -0.748  50.505 -22.237  1.00  0.00    -0.002 C 
HETATM    2  C9  UNL     1      -0.526  50.383 -20.701  1.00  0.00     0.007 C 
HETATM    3  C10 UNL     1      -1.726  49.617 -20.114  1.00  0.00     0.015 C 
HETATM    4  C11 UNL     1      -2.444  49.007 -21.332  1.00  0.00    -0.005 C 
HETATM    5  C12 UNL     1      -1.700  47.683 -21.685  1.00  0.00     0.021 C 
HETATM    6  C13 UNL     1      -3.912  48.619 -21.235  1.00  0.00    -0.000 C 
HETATM    7  C14 UNL     1      -4.726  48.643 -22.321  1.00  0.00    -0.060 C 
HETATM    8  C15 UNL     1      -4.195  49.141 -23.675  1.00  0.00     0.036 C 
HETATM    9  C16 UNL     1      -2.738  49.642 -23.735  1.00  0.00     0.015 C 
HETATM   10  C17 UNL     1      -2.266  50.180 -22.378  1.00  0.00    -0.028 C 
HETATM   11  C18 UNL     1      -3.097  51.454 -22.022  1.00  0.00     0.016 C 
HETATM   12  C19 UNL     1      -6.215  48.219 -22.289  1.00  0.00    -0.014 C 
HETATM   13  C20 UNL     1      -7.065  49.520 -22.346  1.00  0.00     0.020 C 
HETATM   14  C21 UNL     1      -6.568  47.356 -23.538  1.00  0.00     0.021 C 
HETATM   15  C22 UNL     1      -7.749  46.433 -23.306  1.00  0.00     0.080 C 
HETATM   16  C23 UNL     1      -7.373  45.405 -22.265  1.00  0.00     0.135 C 
HETATM   17  O2  UNL     1      -7.754  44.240 -22.382  1.00  0.00    -0.297 OA
HETATM   18  C24 UNL     1      -6.521  45.877 -21.071  1.00  0.00     0.018 C 
HETATM   19  C25 UNL     1      -7.125  45.220 -19.809  1.00  0.00     0.023 C 
HETATM   20  C26 UNL     1      -5.101  45.324 -21.261  1.00  0.00     0.023 C 
HETATM   21  C27 UNL     1      -6.616  47.444 -20.975  1.00  0.00     0.020 C 
HETATM   22  C28 UNL     1      -5.933  48.069 -19.754  1.00  0.00     0.090 C 
HETATM   23  C29 UNL     1      -4.442  48.154 -19.919  1.00  0.00     0.157 C 
HETATM   24  O3  UNL     1      -3.691  47.873 -18.989  1.00  0.00    -0.293 OA
ENDROOT
BRANCH   1  25
HETATM   25  C6  UNL     1      -0.162  51.839 -22.805  1.00  0.00    -0.011 C 
HETATM   26  C7  UNL     1       0.228  52.820 -21.698  1.00  0.00     0.010 C 
BRANCH  25  27
HETATM   27  C5  UNL     1      -1.180  52.475 -23.805  1.00  0.00     0.040 C 
BRANCH  27  28
HETATM   28  C4  UNL     1      -0.556  53.188 -25.019  1.00  0.00     0.142 C 
BRANCH  28  29
HETATM   29  C3  UNL     1       0.796  52.634 -25.374  1.00  0.00     0.018 C 
HETATM   30  C2  UNL     1       1.083  51.872 -26.450  1.00  0.00     0.010 C 
HETATM   31  C1  UNL     1       0.095  51.415 -27.483  1.00  0.00     0.055 C 
BRANCH  30  32
HETATM   32  C30 UNL     1       2.492  51.430 -26.594  1.00  0.00     0.171 C 
HETATM   33  O4  UNL     1       3.044  50.542 -25.968  1.00  0.00    -0.646 OA
BRANCH  32  34
HETATM   34  O5  UNL     1       3.155  52.130 -27.530  1.00  0.00    -0.773 OA
HETATM   35  H44 UNL     1       4.050  51.735 -27.519  1.00  0.00     0.167 HD
ENDBRANCH  32  34
ENDBRANCH  30  32
ENDBRANCH  28  29
BRANCH  28  36
HETATM   36  O1  UNL     1      -1.385  53.006 -26.161  1.00  0.00    -0.392 OA
HETATM   37  H6  UNL     1      -1.299  52.079 -26.444  1.00  0.00     0.210 HD
ENDBRANCH  28  36
ENDBRANCH  27  28
ENDBRANCH  25  27
ENDBRANCH   1  25
TORSDOF 7
ENDMDL
MODEL 4
REMARK minimizedAffinity -9.51842403
REMARK  7 active torsions:
REMARK  status: ('A' for Active; 'I' for Inactive)
REMARK    1  A    between atoms: C2_2  and  C30_33 
REMARK    2  A    between atoms: C3_3  and  C4_4 
REMARK    3  A    between atoms: C4_4  and  O1_5 
REMARK    4  A    between atoms: C4_4  and  C5_6 
REMARK    5  A    between atoms: C5_6  and  C6_7 
REMARK    6  A    between atoms: C6_7  and  C8_9 
REMARK    7  A    between atoms: C30_33  and  O5_35 
ROOT
HETATM    1  C8  UNL     1       0.183  51.779 -23.153  1.00  0.00    -0.002 C 
HETATM    2  C9  UNL     1       0.331  52.574 -21.822  1.00  0.00     0.007 C 
HETATM    3  C10 UNL     1      -0.778  52.095 -20.867  1.00  0.00     0.015 C 
HETATM    4  C11 UNL     1      -1.328  50.807 -21.506  1.00  0.00    -0.005 C 
HETATM    5  C12 UNL     1      -0.380  49.644 -21.079  1.00  0.00     0.021 C 
HETATM    6  C13 UNL     1      -2.727  50.321 -21.158  1.00  0.00    -0.000 C 
HETATM    7  C14 UNL     1      -3.471  49.608 -22.042  1.00  0.00    -0.060 C 
HETATM    8  C15 UNL     1      -2.940  49.337 -23.458  1.00  0.00     0.036 C 
HETATM    9  C16 UNL     1      -1.570  49.934 -23.839  1.00  0.00     0.015 C 
HETATM   10  C17 UNL     1      -1.261  51.203 -23.035  1.00  0.00    -0.028 C 
HETATM   11  C18 UNL     1      -2.288  52.314 -23.429  1.00  0.00     0.016 C 
HETATM   12  C19 UNL     1      -4.882  49.054 -21.726  1.00  0.00    -0.014 C 
HETATM   13  C20 UNL     1      -5.907  49.952 -22.476  1.00  0.00     0.020 C 
HETATM   14  C21 UNL     1      -5.032  47.598 -22.262  1.00  0.00     0.021 C 
HETATM   15  C22 UNL     1      -6.079  46.795 -21.512  1.00  0.00     0.080 C 
HETATM   16  C23 UNL     1      -5.619  46.599 -20.086  1.00  0.00     0.135 C 
HETATM   17  O2  UNL     1      -5.819  45.526 -19.515  1.00  0.00    -0.297 OA
HETATM   18  C24 UNL     1      -4.915  47.782 -19.394  1.00  0.00     0.018 C 
HETATM   19  C25 UNL     1      -5.491  47.862 -17.961  1.00  0.00     0.023 C 
HETATM   20  C26 UNL     1      -3.421  47.442 -19.288  1.00  0.00     0.023 C 
HETATM   21  C27 UNL     1      -5.242  49.098 -20.192  1.00  0.00     0.020 C 
HETATM   22  C28 UNL     1      -4.729  50.394 -19.556  1.00  0.00     0.090 C 
HETATM   23  C29 UNL     1      -3.260  50.599 -19.791  1.00  0.00     0.157 C 
HETATM   24  O3  UNL     1      -2.531  51.005 -18.890  1.00  0.00    -0.293 OA
ENDROOT
BRANCH   1  25
HETATM   25  C6  UNL     1       0.602  52.637 -24.392  1.00  0.00    -0.011 C 
HETATM   26  C7  UNL     1      -0.270  53.883 -24.556  1.00  0.00     0.010 C 
BRANCH  25  27
HETATM   27  C5  UNL     1       0.580  51.747 -25.676  1.00  0.00     0.040 C 
BRANCH  27  28
HETATM   28  C4  UNL     1      -0.141  52.360 -26.891  1.00  0.00     0.142 C 
BRANCH  28  29
HETATM   29  C3  UNL     1      -1.075  51.386 -27.554  1.00  0.00     0.018 C 
HETATM   30  C2  UNL     1      -2.399  51.272 -27.319  1.00  0.00     0.010 C 
HETATM   31  C1  UNL     1      -3.182  52.086 -26.331  1.00  0.00     0.055 C 
BRANCH  30  32
HETATM   32  C30 UNL     1      -3.122  50.229 -28.087  1.00  0.00     0.171 C 
HETATM   33  O4  UNL     1      -3.317  49.076 -27.743  1.00  0.00    -0.646 OA
BRANCH  32  34
HETATM   34  O5  UNL     1      -3.575  50.684 -29.267  1.00  0.00    -0.773 OA
HETATM   35  H44 UNL     1      -4.025  49.906 -29.654  1.00  0.00     0.167 HD
ENDBRANCH  32  34
ENDBRANCH  30  32
ENDBRANCH  28  29
BRANCH  28  36
HETATM   36  O1  UNL     1      -0.932  53.465 -26.472  1.00  0.00    -0.392 OA
HETATM   37  H6  UNL     1      -1.695  53.114 -25.981  1.00  0.00     0.210 HD
ENDBRANCH  28  36
ENDBRANCH  27  28
ENDBRANCH  25  27
ENDBRANCH   1  25
TORSDOF 7
ENDMDL
MODEL 5
REMARK minimizedAffinity -9.42085552
REMARK  7 active torsions:
REMARK  status: ('A' for Active; 'I' for Inactive)
REMARK    1  A    between atoms: C2_2  and  C30_33 
REMARK    2  A    between atoms: C3_3  and  C4_4 
REMARK    3  A    between atoms: C4_4  and  O1_5 
REMARK    4  A    between atoms: C4_4  and  C5_6 
REMARK    5  A    between atoms: C5_6  and  C6_7 
REMARK    6  A    between atoms: C6_7  and  C8_9 
REMARK    7  A    between atoms: C30_33  and  O5_35 
ROOT
HETATM    1  C8  UNL     1      -2.283  49.945 -23.745  1.00  0.00    -0.002 C 
HETATM    2  C9  UNL     1      -1.970  51.447 -23.480  1.00  0.00     0.007 C 
HETATM    3  C10 UNL     1      -1.969  51.662 -21.956  1.00  0.00     0.015 C 
HETATM    4  C11 UNL     1      -1.932  50.247 -21.352  1.00  0.00    -0.005 C 
HETATM    5  C12 UNL     1      -0.440  49.791 -21.346  1.00  0.00     0.021 C 
HETATM    6  C13 UNL     1      -2.419  50.011 -19.931  1.00  0.00    -0.000 C 
HETATM    7  C14 UNL     1      -2.954  48.822 -19.551  1.00  0.00    -0.060 C 
HETATM    8  C15 UNL     1      -3.150  47.698 -20.580  1.00  0.00     0.036 C 
HETATM    9  C16 UNL     1      -2.760  47.988 -22.044  1.00  0.00     0.015 C 
HETATM   10  C17 UNL     1      -2.865  49.482 -22.375  1.00  0.00    -0.028 C 
HETATM   11  C18 UNL     1      -4.364  49.916 -22.283  1.00  0.00     0.016 C 
HETATM   12  C19 UNL     1      -3.427  48.515 -18.109  1.00  0.00    -0.014 C 
HETATM   13  C20 UNL     1      -4.982  48.550 -18.119  1.00  0.00     0.020 C 
HETATM   14  C21 UNL     1      -2.980  47.086 -17.677  1.00  0.00     0.021 C 
HETATM   15  C22 UNL     1      -2.857  46.932 -16.173  1.00  0.00     0.080 C 
HETATM   16  C23 UNL     1      -1.735  47.816 -15.679  1.00  0.00     0.135 C 
HETATM   17  O2  UNL     1      -0.987  47.421 -14.784  1.00  0.00    -0.297 OA
HETATM   18  C24 UNL     1      -1.585  49.207 -16.325  1.00  0.00     0.018 C 
HETATM   19  C25 UNL     1      -1.303  50.201 -15.174  1.00  0.00     0.023 C 
HETATM   20  C26 UNL     1      -0.348  49.170 -17.234  1.00  0.00     0.023 C 
HETATM   21  C27 UNL     1      -2.932  49.572 -17.049  1.00  0.00     0.020 C 
HETATM   22  C28 UNL     1      -3.000  50.988 -17.631  1.00  0.00     0.090 C 
HETATM   23  C29 UNL     1      -2.253  51.106 -18.928  1.00  0.00     0.157 C 
HETATM   24  O3  UNL     1      -1.549  52.084 -19.160  1.00  0.00    -0.293 OA
ENDROOT
BRANCH   1  25
HETATM   25  C6  UNL     1      -3.097  49.744 -25.066  1.00  0.00    -0.011 C 
HETATM   26  C7  UNL     1      -4.052  48.552 -24.983  1.00  0.00     0.010 C 
BRANCH  25  27
HETATM   27  C5  UNL     1      -2.113  49.609 -26.272  1.00  0.00     0.040 C 
BRANCH  27  28
HETATM   28  C4  UNL     1      -1.419  50.913 -26.706  1.00  0.00     0.142 C 
BRANCH  28  29
HETATM   29  C3  UNL     1       0.079  50.786 -26.724  1.00  0.00     0.018 C 
HETATM   30  C2  UNL     1       0.960  51.729 -26.327  1.00  0.00     0.010 C 
HETATM   31  C1  UNL     1       0.604  53.093 -25.813  1.00  0.00     0.055 C 
BRANCH  30  32
HETATM   32  C30 UNL     1       2.398  51.384 -26.443  1.00  0.00     0.171 C 
HETATM   33  O4  UNL     1       2.982  50.490 -25.855  1.00  0.00    -0.646 OA
BRANCH  32  34
HETATM   34  O5  UNL     1       3.049  52.185 -27.303  1.00  0.00    -0.773 OA
HETATM   35  H44 UNL     1       3.966  51.845 -27.282  1.00  0.00     0.167 HD
ENDBRANCH  32  34
ENDBRANCH  30  32
ENDBRANCH  28  29
BRANCH  28  36
HETATM   36  O1  UNL     1      -1.816  51.250 -28.030  1.00  0.00    -0.392 OA
HETATM   37  H6  UNL     1      -1.390  50.620 -28.637  1.00  0.00     0.210 HD
ENDBRANCH  28  36
ENDBRANCH  27  28
ENDBRANCH  25  27
ENDBRANCH   1  25
TORSDOF 7
ENDMDL
MODEL 6
REMARK minimizedAffinity -9.19406223
REMARK  7 active torsions:
REMARK  status: ('A' for Active; 'I' for Inactive)
REMARK    1  A    between atoms: C2_2  and  C30_33 
REMARK    2  A    between atoms: C3_3  and  C4_4 
REMARK    3  A    between atoms: C4_4  and  O1_5 
REMARK    4  A    between atoms: C4_4  and  C5_6 
REMARK    5  A    between atoms: C5_6  and  C6_7 
REMARK    6  A    between atoms: C6_7  and  C8_9 
REMARK    7  A    between atoms: C30_33  and  O5_35 
ROOT
HETATM    1  C8  UNL     1      -2.127  49.810 -18.604  1.00  0.00    -0.002 C 
HETATM    2  C9  UNL     1      -3.641  50.116 -18.800  1.00  0.00     0.007 C 
HETATM    3  C10 UNL     1      -3.817  50.732 -20.200  1.00  0.00     0.015 C 
HETATM    4  C11 UNL     1      -2.486  50.460 -20.926  1.00  0.00    -0.005 C 
HETATM    5  C12 UNL     1      -2.564  49.009 -21.493  1.00  0.00     0.021 C 
HETATM    6  C13 UNL     1      -2.074  51.322 -22.109  1.00  0.00    -0.000 C 
HETATM    7  C14 UNL     1      -0.767  51.543 -22.405  1.00  0.00    -0.060 C 
HETATM    8  C15 UNL     1       0.338  50.982 -21.497  1.00  0.00     0.036 C 
HETATM    9  C16 UNL     1      -0.094  50.207 -20.235  1.00  0.00     0.015 C 
HETATM   10  C17 UNL     1      -1.470  50.663 -19.732  1.00  0.00    -0.028 C 
HETATM   11  C18 UNL     1      -1.368  52.148 -19.256  1.00  0.00     0.016 C 
HETATM   12  C19 UNL     1      -0.291  52.377 -23.621  1.00  0.00    -0.014 C 
HETATM   13  C20 UNL     1       0.203  53.746 -23.073  1.00  0.00     0.020 C 
HETATM   14  C21 UNL     1       0.909  51.679 -24.328  1.00  0.00     0.021 C 
HETATM   15  C22 UNL     1       1.040  52.062 -25.791  1.00  0.00     0.080 C 
HETATM   16  C23 UNL     1      -0.163  51.543 -26.544  1.00  0.00     0.135 C 
HETATM   17  O2  UNL     1      -0.029  51.083 -27.678  1.00  0.00    -0.297 OA
HETATM   18  C24 UNL     1      -1.534  51.628 -25.846  1.00  0.00     0.018 C 
HETATM   19  C25 UNL     1      -2.543  52.116 -26.911  1.00  0.00     0.023 C 
HETATM   20  C26 UNL     1      -1.936  50.206 -25.427  1.00  0.00     0.023 C 
HETATM   21  C27 UNL     1      -1.434  52.665 -24.667  1.00  0.00     0.020 C 
HETATM   22  C28 UNL     1      -2.753  52.973 -23.951  1.00  0.00     0.090 C 
HETATM   23  C29 UNL     1      -3.141  51.890 -22.986  1.00  0.00     0.157 C 
HETATM   24  O3  UNL     1      -4.305  51.506 -22.908  1.00  0.00    -0.293 OA
ENDROOT
BRANCH   1  25
HETATM   25  C6  UNL     1      -1.687  49.983 -17.114  1.00  0.00    -0.011 C 
HETATM   26  C7  UNL     1      -0.961  48.748 -16.577  1.00  0.00     0.010 C 
BRANCH  25  27
HETATM   27  C5  UNL     1      -2.929  50.344 -16.239  1.00  0.00     0.040 C 
BRANCH  27  28
HETATM   28  C4  UNL     1      -2.683  50.360 -14.718  1.00  0.00     0.142 C 
BRANCH  28  29
HETATM   29  C3  UNL     1      -3.327  51.542 -14.047  1.00  0.00     0.018 C 
HETATM   30  C2  UNL     1      -3.039  52.007 -12.813  1.00  0.00     0.010 C 
HETATM   31  C1  UNL     1      -2.034  51.413 -11.871  1.00  0.00     0.055 C 
BRANCH  30  32
HETATM   32  C30 UNL     1      -3.811  53.187 -12.352  1.00  0.00     0.171 C 
HETATM   33  O4  UNL     1      -4.023  53.511 -11.197  1.00  0.00    -0.646 OA
BRANCH  32  34
HETATM   34  O5  UNL     1      -4.288  53.918 -13.373  1.00  0.00    -0.773 OA
HETATM   35  H44 UNL     1      -4.762  54.650 -12.929  1.00  0.00     0.167 HD
ENDBRANCH  32  34
ENDBRANCH  30  32
ENDBRANCH  28  29
BRANCH  28  36
HETATM   36  O1  UNL     1      -3.250  49.196 -14.128  1.00  0.00    -0.392 OA
HETATM   37  H6  UNL     1      -4.218  49.297 -14.146  1.00  0.00     0.210 HD
ENDBRANCH  28  36
ENDBRANCH  27  28
ENDBRANCH  25  27
ENDBRANCH   1  25
TORSDOF 7
ENDMDL
MODEL 7
REMARK minimizedAffinity -9.15854836
REMARK  7 active torsions:
REMARK  status: ('A' for Active; 'I' for Inactive)
REMARK    1  A    between atoms: C2_2  and  C30_33 
REMARK    2  A    between atoms: C3_3  and  C4_4 
REMARK    3  A    between atoms: C4_4  and  O1_5 
REMARK    4  A    between atoms: C4_4  and  C5_6 
REMARK    5  A    between atoms: C5_6  and  C6_7 
REMARK    6  A    between atoms: C6_7  and  C8_9 
REMARK    7  A    between atoms: C30_33  and  O5_35 
ROOT
HETATM    1  C8  UNL     1      -1.312  49.745 -18.722  1.00  0.00    -0.002 C 
HETATM    2  C9  UNL     1      -2.868  49.784 -18.789  1.00  0.00     0.007 C 
HETATM    3  C10 UNL     1      -3.263  50.352 -20.164  1.00  0.00     0.015 C 
HETATM    4  C11 UNL     1      -1.971  50.308 -21.000  1.00  0.00    -0.005 C 
HETATM    5  C12 UNL     1      -1.844  48.862 -21.571  1.00  0.00     0.021 C 
HETATM    6  C13 UNL     1      -1.812  51.221 -22.207  1.00  0.00    -0.000 C 
HETATM    7  C14 UNL     1      -0.593  51.662 -22.609  1.00  0.00    -0.060 C 
HETATM    8  C15 UNL     1       0.664  51.305 -21.800  1.00  0.00     0.036 C 
HETATM    9  C16 UNL     1       0.479  50.476 -20.513  1.00  0.00     0.015 C 
HETATM   10  C17 UNL     1      -0.908  50.691 -19.893  1.00  0.00    -0.028 C 
HETATM   11  C18 UNL     1      -1.024  52.174 -19.416  1.00  0.00     0.016 C 
HETATM   12  C19 UNL     1      -0.370  52.557 -23.853  1.00  0.00    -0.014 C 
HETATM   13  C20 UNL     1      -0.076  53.994 -23.337  1.00  0.00     0.020 C 
HETATM   14  C21 UNL     1       0.869  52.072 -24.664  1.00  0.00     0.021 C 
HETATM   15  C22 UNL     1       0.809  52.463 -26.129  1.00  0.00     0.080 C 
HETATM   16  C23 UNL     1      -0.344  51.739 -26.783  1.00  0.00     0.135 C 
HETATM   17  O2  UNL     1      -0.228  51.301 -27.929  1.00  0.00    -0.297 OA
HETATM   18  C24 UNL     1      -1.647  51.591 -25.973  1.00  0.00     0.018 C 
HETATM   19  C25 UNL     1      -2.810  51.891 -26.947  1.00  0.00     0.023 C 
HETATM   20  C26 UNL     1      -1.761  50.124 -25.534  1.00  0.00     0.023 C 
HETATM   21  C27 UNL     1      -1.629  52.638 -24.799  1.00  0.00     0.020 C 
HETATM   22  C28 UNL     1      -2.917  52.718 -23.973  1.00  0.00     0.090 C 
HETATM   23  C29 UNL     1      -3.031  51.590 -22.987  1.00  0.00     0.157 C 
HETATM   24  O3  UNL     1      -4.100  51.013 -22.816  1.00  0.00    -0.293 OA
ENDROOT
BRANCH   1  25
HETATM   25  C6  UNL     1      -0.786  50.001 -17.272  1.00  0.00    -0.011 C 
HETATM   26  C7  UNL     1      -1.843  50.648 -16.376  1.00  0.00     0.010 C 
BRANCH  25  27
HETATM   27  C5  UNL     1       0.519  50.857 -17.332  1.00  0.00     0.040 C 
BRANCH  27  28
HETATM   28  C4  UNL     1       0.698  51.869 -16.184  1.00  0.00     0.142 C 
BRANCH  28  29
HETATM   29  C3  UNL     1       1.607  51.353 -15.103  1.00  0.00     0.018 C 
HETATM   30  C2  UNL     1       2.945  51.521 -15.044  1.00  0.00     0.010 C 
HETATM   31  C1  UNL     1       3.778  52.238 -16.065  1.00  0.00     0.055 C 
BRANCH  30  32
HETATM   32  C30 UNL     1       3.639  50.914 -13.883  1.00  0.00     0.171 C 
HETATM   33  O4  UNL     1       3.319  51.011 -12.711  1.00  0.00    -0.646 OA
BRANCH  32  34
HETATM   34  O5  UNL     1       4.718  50.200 -14.247  1.00  0.00    -0.773 OA
HETATM   35  H44 UNL     1       5.066  49.862 -13.398  1.00  0.00     0.167 HD
ENDBRANCH  32  34
ENDBRANCH  30  32
ENDBRANCH  28  29
BRANCH  28  36
HETATM   36  O1  UNL     1       1.293  53.061 -16.684  1.00  0.00    -0.392 OA
HETATM   37  H6  UNL     1       2.224  52.865 -16.885  1.00  0.00     0.210 HD
ENDBRANCH  28  36
ENDBRANCH  27  28
ENDBRANCH  25  27
ENDBRANCH   1  25
TORSDOF 7
ENDMDL
MODEL 8
REMARK minimizedAffinity -8.97992229
REMARK  7 active torsions:
REMARK  status: ('A' for Active; 'I' for Inactive)
REMARK    1  A    between atoms: C2_2  and  C30_33 
REMARK    2  A    between atoms: C3_3  and  C4_4 
REMARK    3  A    between atoms: C4_4  and  O1_5 
REMARK    4  A    between atoms: C4_4  and  C5_6 
REMARK    5  A    between atoms: C5_6  and  C6_7 
REMARK    6  A    between atoms: C6_7  and  C8_9 
REMARK    7  A    between atoms: C30_33  and  O5_35 
ROOT
HETATM    1  C8  UNL     1      -2.659  50.837 -23.256  1.00  0.00    -0.002 C 
HETATM    2  C9  UNL     1      -2.045  51.219 -21.876  1.00  0.00     0.007 C 
HETATM    3  C10 UNL     1      -2.621  50.252 -20.825  1.00  0.00     0.015 C 
HETATM    4  C11 UNL     1      -3.275  49.121 -21.638  1.00  0.00    -0.005 C 
HETATM    5  C12 UNL     1      -2.143  48.119 -22.022  1.00  0.00     0.021 C 
HETATM    6  C13 UNL     1      -4.363  48.262 -21.011  1.00  0.00    -0.000 C 
HETATM    7  C14 UNL     1      -5.343  47.696 -21.761  1.00  0.00    -0.060 C 
HETATM    8  C15 UNL     1      -5.419  47.974 -23.271  1.00  0.00     0.036 C 
HETATM    9  C16 UNL     1      -4.380  48.939 -23.877  1.00  0.00     0.015 C 
HETATM   10  C17 UNL     1      -3.875  49.953 -22.842  1.00  0.00    -0.028 C 
HETATM   11  C18 UNL     1      -5.061  50.879 -22.421  1.00  0.00     0.016 C 
HETATM   12  C19 UNL     1      -6.448  46.780 -21.181  1.00  0.00    -0.014 C 
HETATM   13  C20 UNL     1      -7.761  47.613 -21.144  1.00  0.00     0.020 C 
HETATM   14  C21 UNL     1      -6.684  45.550 -22.108  1.00  0.00     0.021 C 
HETATM   15  C22 UNL     1      -7.260  44.354 -21.372  1.00  0.00     0.080 C 
HETATM   16  C23 UNL     1      -6.241  43.853 -20.375  1.00  0.00     0.135 C 
HETATM   17  O2  UNL     1      -6.100  42.644 -20.191  1.00  0.00    -0.297 OA
HETATM   18  C24 UNL     1      -5.416  44.905 -19.608  1.00  0.00     0.018 C 
HETATM   19  C25 UNL     1      -5.357  44.434 -18.136  1.00  0.00     0.023 C 
HETATM   20  C26 UNL     1      -3.988  44.882 -20.171  1.00  0.00     0.023 C 
HETATM   21  C27 UNL     1      -6.150  46.293 -19.712  1.00  0.00     0.020 C 
HETATM   22  C28 UNL     1      -5.531  47.425 -18.886  1.00  0.00     0.090 C 
HETATM   23  C29 UNL     1      -4.309  48.004 -19.541  1.00  0.00     0.157 C 
HETATM   24  O3  UNL     1      -3.312  48.277 -18.879  1.00  0.00    -0.293 OA
ENDROOT
BRANCH   1  25
HETATM   25  C6  UNL     1      -2.858  52.090 -24.170  1.00  0.00    -0.011 C 
HETATM   26  C7  UNL     1      -4.223  52.093 -24.861  1.00  0.00     0.010 C 
BRANCH  25  27
HETATM   27  C5  UNL     1      -1.691  52.174 -25.205  1.00  0.00     0.040 C 
BRANCH  27  28
HETATM   28  C4  UNL     1      -0.481  53.021 -24.767  1.00  0.00     0.142 C 
BRANCH  28  29
HETATM   29  C3  UNL     1       0.828  52.398 -25.165  1.00  0.00     0.018 C 
HETATM   30  C2  UNL     1       1.210  52.089 -26.422  1.00  0.00     0.010 C 
HETATM   31  C1  UNL     1       0.384  52.293 -27.658  1.00  0.00     0.055 C 
BRANCH  30  32
HETATM   32  C30 UNL     1       2.549  51.470 -26.576  1.00  0.00     0.171 C 
HETATM   33  O4  UNL     1       2.974  50.497 -25.978  1.00  0.00    -0.646 OA
BRANCH  32  34
HETATM   34  O5  UNL     1       3.305  52.105 -27.487  1.00  0.00    -0.773 OA
HETATM   35  H44 UNL     1       4.141  51.595 -27.486  1.00  0.00     0.167 HD
ENDBRANCH  32  34
ENDBRANCH  30  32
ENDBRANCH  28  29
BRANCH  28  36
HETATM   36  O1  UNL     1      -0.535  54.296 -25.396  1.00  0.00    -0.392 OA
HETATM   37  H6  UNL     1      -0.323  54.171 -26.338  1.00  0.00     0.210 HD
ENDBRANCH  28  36
ENDBRANCH  27  28
ENDBRANCH  25  27
ENDBRANCH   1  25
TORSDOF 7
ENDMDL
MODEL 9
REMARK minimizedAffinity -8.88992023
REMARK  7 active torsions:
REMARK  status: ('A' for Active; 'I' for Inactive)
REMARK    1  A    between atoms: C2_2  and  C30_33 
REMARK    2  A    between atoms: C3_3  and  C4_4 
REMARK    3  A    between atoms: C4_4  and  O1_5 
REMARK    4  A    between atoms: C4_4  and  C5_6 
REMARK    5  A    between atoms: C5_6  and  C6_7 
REMARK    6  A    between atoms: C6_7  and  C8_9 
REMARK    7  A    between atoms: C30_33  and  O5_35 
ROOT
HETATM    1  C8  UNL     1      -1.365  51.482 -22.546  1.00  0.00    -0.002 C 
HETATM    2  C9  UNL     1      -1.547  50.794 -23.931  1.00  0.00     0.007 C 
HETATM    3  C10 UNL     1      -2.658  49.739 -23.787  1.00  0.00     0.015 C 
HETATM    4  C11 UNL     1      -3.341  50.058 -22.444  1.00  0.00    -0.005 C 
HETATM    5  C12 UNL     1      -4.376  51.193 -22.716  1.00  0.00     0.021 C 
HETATM    6  C13 UNL     1      -4.125  48.979 -21.712  1.00  0.00    -0.000 C 
HETATM    7  C14 UNL     1      -4.236  48.977 -20.358  1.00  0.00    -0.060 C 
HETATM    8  C15 UNL     1      -3.502  50.036 -19.520  1.00  0.00     0.036 C 
HETATM    9  C16 UNL     1      -2.616  51.055 -20.265  1.00  0.00     0.015 C 
HETATM   10  C17 UNL     1      -2.083  50.485 -21.586  1.00  0.00    -0.028 C 
HETATM   11  C18 UNL     1      -1.120  49.295 -21.271  1.00  0.00     0.016 C 
HETATM   12  C19 UNL     1      -5.055  47.929 -19.566  1.00  0.00    -0.014 C 
HETATM   13  C20 UNL     1      -4.038  46.958 -18.902  1.00  0.00     0.020 C 
HETATM   14  C21 UNL     1      -5.876  48.616 -18.433  1.00  0.00     0.021 C 
HETATM   15  C22 UNL     1      -7.105  47.824 -18.027  1.00  0.00     0.080 C 
HETATM   16  C23 UNL     1      -8.071  47.788 -19.188  1.00  0.00     0.135 C 
HETATM   17  O2  UNL     1      -9.282  47.878 -18.985  1.00  0.00    -0.297 OA
HETATM   18  C24 UNL     1      -7.482  47.622 -20.602  1.00  0.00     0.018 C 
HETATM   19  C25 UNL     1      -8.381  46.603 -21.339  1.00  0.00     0.023 C 
HETATM   20  C26 UNL     1      -7.606  48.972 -21.322  1.00  0.00     0.023 C 
HETATM   21  C27 UNL     1      -6.015  47.069 -20.473  1.00  0.00     0.020 C 
HETATM   22  C28 UNL     1      -5.329  46.717 -21.797  1.00  0.00     0.090 C 
HETATM   23  C29 UNL     1      -4.824  47.934 -22.517  1.00  0.00     0.157 C 
HETATM   24  O3  UNL     1      -4.962  48.048 -23.731  1.00  0.00    -0.293 OA
ENDROOT
BRANCH   1  25
HETATM   25  C6  UNL     1       0.121  51.901 -22.295  1.00  0.00    -0.011 C 
HETATM   26  C7  UNL     1       0.576  51.598 -20.867  1.00  0.00     0.010 C 
BRANCH  25  27
HETATM   27  C5  UNL     1       0.306  53.411 -22.649  1.00  0.00     0.040 C 
BRANCH  27  28
HETATM   28  C4  UNL     1       0.990  53.694 -23.999  1.00  0.00     0.142 C 
BRANCH  28  29
HETATM   29  C3  UNL     1       0.014  53.714 -25.142  1.00  0.00     0.018 C 
HETATM   30  C2  UNL     1       0.111  52.996 -26.281  1.00  0.00     0.010 C 
HETATM   31  C1  UNL     1       1.229  52.056 -26.626  1.00  0.00     0.055 C 
BRANCH  30  32
HETATM   32  C30 UNL     1      -0.971  53.185 -27.279  1.00  0.00     0.171 C 
HETATM   33  O4  UNL     1      -1.902  52.429 -27.494  1.00  0.00    -0.646 OA
BRANCH  32  34
HETATM   34  O5  UNL     1      -0.835  54.328 -27.971  1.00  0.00    -0.773 OA
HETATM   35  H44 UNL     1      -1.604  54.322 -28.575  1.00  0.00     0.167 HD
ENDBRANCH  32  34
ENDBRANCH  30  32
ENDBRANCH  28  29
BRANCH  28  36
HETATM   36  O1  UNL     1       1.608  54.976 -23.965  1.00  0.00    -0.392 OA
HETATM   37  H6  UNL     1       0.902  55.645 -23.989  1.00  0.00     0.210 HD
ENDBRANCH  28  36
ENDBRANCH  27  28
ENDBRANCH  25  27
ENDBRANCH   1  25
TORSDOF 7
ENDMDL
