MODEL 1
REMARK minimizedAffinity -8.32291698
REMARK  10 active torsions:
REMARK  status: ('A' for Active; 'I' for Inactive)
REMARK    1  A    between atoms: N1_2  and  C2_3 
REMARK    2  A    between atoms: C2_3  and  C3_4 
REMARK    3  A    between atoms: C3_4  and  O1_5 
REMARK    4  A    between atoms: O1_5  and  C4_6 
REMARK    5  A    between atoms: C4_6  and  C5_8 
REMARK    6  A    between atoms: C17_21  and  O4_22 
REMARK    7  A    between atoms: O4_22  and  C18_23 
REMARK    8  A    between atoms: C18_23  and  C19_25 
REMARK    9  A    between atoms: C19_25  and  C20_26 
REMARK   10  A    between atoms: C20_26  and  O6_29 
ROOT
HETATM    1  C5  UNL     1      -3.485  50.946 -25.890  1.00  0.00     0.085 C 
HETATM    2  C6  UNL     1      -2.930  51.205 -24.687  1.00  0.00    -0.070 C 
HETATM    3  C7  UNL     1      -1.476  51.558 -24.458  1.00  0.00     0.035 C 
HETATM    4  C8  UNL     1      -0.851  50.790 -23.285  1.00  0.00     0.010 C 
HETATM    5  C9  UNL     1      -1.696  50.891 -21.996  1.00  0.00     0.006 C 
HETATM    6  C10 UNL     1      -3.120  50.344 -22.324  1.00  0.00     0.068 C 
HETATM    7  C11 UNL     1      -4.027  50.157 -21.107  1.00  0.00     0.132 C 
HETATM    8  O3  UNL     1      -5.253  50.247 -21.195  1.00  0.00    -0.298 OA
HETATM    9  C12 UNL     1      -3.401  49.699 -19.805  1.00  0.00     0.085 C 
HETATM   10  C13 UNL     1      -2.102  50.472 -19.559  1.00  0.00     0.011 C 
HETATM   11  C14 UNL     1      -1.501  50.408 -18.111  1.00  0.00    -0.016 C 
HETATM   12  C15 UNL     1      -2.588  50.752 -17.058  1.00  0.00     0.018 C 
HETATM   13  C16 UNL     1      -0.991  49.000 -17.734  1.00  0.00     0.018 C 
HETATM   14  C17 UNL     1      -0.380  51.506 -17.985  1.00  0.00     0.140 C 
HETATM   15  C23 UNL     1       0.195  51.968 -19.335  1.00  0.00     0.034 C 
HETATM   16  C24 UNL     1       0.311  50.821 -20.329  1.00  0.00     0.012 C 
HETATM   17  C25 UNL     1      -1.067  50.205 -20.721  1.00  0.00    -0.035 C 
HETATM   18  C26 UNL     1      -0.817  48.707 -21.028  1.00  0.00     0.016 C 
HETATM   19  C27 UNL     1      -3.804  51.174 -23.437  1.00  0.00     0.022 C 
HETATM   20  C28 UNL     1      -4.155  52.612 -23.026  1.00  0.00     0.015 C 
ENDROOT
BRANCH   1  21
HETATM   21  C4  UNL     1      -2.850  51.018 -27.223  1.00  0.00     0.283 C 
HETATM   22  O2  UNL     1      -3.070  50.189 -28.095  1.00  0.00    -0.260 OA
BRANCH  21  23
HETATM   23  O1  UNL     1      -2.148  52.163 -27.356  1.00  0.00    -0.316 OA
BRANCH  23  24
HETATM   24  C3  UNL     1      -0.803  51.983 -27.817  1.00  0.00     0.209 C 
BRANCH  24  25
HETATM   25  C2  UNL     1      -0.119  53.353 -27.970  1.00  0.00     0.295 C 
BRANCH  25  26
HETATM   26  N1  UNL     1      -0.533  54.366 -26.988  1.00  0.00     0.081 N 
HETATM   27  C1  UNL     1       0.241  54.312 -25.755  1.00  0.00     0.306 C 
HETATM   28  H4  UNL     1      -1.525  54.250 -26.769  1.00  0.00     0.315 HD
ENDBRANCH  25  26
ENDBRANCH  24  25
ENDBRANCH  23  24
ENDBRANCH  21  23
ENDBRANCH   1  21
BRANCH  14  29
HETATM   29  O4  UNL     1       0.697  50.999 -17.169  1.00  0.00    -0.315 OA
BRANCH  29  30
HETATM   30  C18 UNL     1       1.117  51.788 -16.140  1.00  0.00     0.262 C 
HETATM   31  O5  UNL     1       1.027  53.005 -16.101  1.00  0.00    -0.265 OA
BRANCH  30  32
HETATM   32  C19 UNL     1       1.716  50.940 -15.047  1.00  0.00     0.148 C 
BRANCH  32  33
HETATM   33  C20 UNL     1       3.079  51.446 -14.566  1.00  0.00     0.059 C 
HETATM   34  C21 UNL     1       3.843  52.020 -15.765  1.00  0.00     0.045 C 
HETATM   35  C22 UNL     1       3.929  50.359 -13.898  1.00  0.00     0.045 C 
BRANCH  33  36
HETATM   36  O6  UNL     1       2.882  52.532 -13.653  1.00  0.00    -0.390 OA
HETATM   37  H34 UNL     1       2.911  52.180 -12.739  1.00  0.00     0.210 HD
ENDBRANCH  33  36
ENDBRANCH  32  33
ENDBRANCH  30  32
ENDBRANCH  29  30
ENDBRANCH  14  29
TORSDOF 10
ENDMDL
MODEL 2
REMARK minimizedAffinity -8.32100296
REMARK  10 active torsions:
REMARK  status: ('A' for Active; 'I' for Inactive)
REMARK    1  A    between atoms: N1_2  and  C2_3 
REMARK    2  A    between atoms: C2_3  and  C3_4 
REMARK    3  A    between atoms: C3_4  and  O1_5 
REMARK    4  A    between atoms: O1_5  and  C4_6 
REMARK    5  A    between atoms: C4_6  and  C5_8 
REMARK    6  A    between atoms: C17_21  and  O4_22 
REMARK    7  A    between atoms: O4_22  and  C18_23 
REMARK    8  A    between atoms: C18_23  and  C19_25 
REMARK    9  A    between atoms: C19_25  and  C20_26 
REMARK   10  A    between atoms: C20_26  and  O6_29 
ROOT
HETATM    1  C5  UNL     1      -3.618  51.594 -25.571  1.00  0.00     0.085 C 
HETATM    2  C6  UNL     1      -3.054  51.771 -24.357  1.00  0.00    -0.070 C 
HETATM    3  C7  UNL     1      -1.635  52.238 -24.117  1.00  0.00     0.035 C 
HETATM    4  C8  UNL     1      -0.904  51.410 -23.051  1.00  0.00     0.010 C 
HETATM    5  C9  UNL     1      -1.715  51.283 -21.743  1.00  0.00     0.006 C 
HETATM    6  C10 UNL     1      -3.089  50.638 -22.104  1.00  0.00     0.068 C 
HETATM    7  C11 UNL     1      -3.937  50.228 -20.899  1.00  0.00     0.132 C 
HETATM    8  O3  UNL     1      -5.168  50.206 -20.953  1.00  0.00    -0.298 OA
HETATM    9  C12 UNL     1      -3.231  49.692 -19.670  1.00  0.00     0.085 C 
HETATM   10  C13 UNL     1      -2.006  50.557 -19.362  1.00  0.00     0.011 C 
HETATM   11  C14 UNL     1      -1.358  50.391 -17.943  1.00  0.00    -0.016 C 
HETATM   12  C15 UNL     1      -2.440  50.507 -16.837  1.00  0.00     0.018 C 
HETATM   13  C16 UNL     1      -0.704  49.006 -17.738  1.00  0.00     0.018 C 
HETATM   14  C17 UNL     1      -0.343  51.573 -17.714  1.00  0.00     0.140 C 
HETATM   15  C23 UNL     1       0.144  52.237 -19.014  1.00  0.00     0.034 C 
HETATM   16  C24 UNL     1       0.339  51.225 -20.134  1.00  0.00     0.012 C 
HETATM   17  C25 UNL     1      -0.985  50.524 -20.567  1.00  0.00    -0.035 C 
HETATM   18  C26 UNL     1      -0.602  49.101 -21.047  1.00  0.00     0.016 C 
HETATM   19  C27 UNL     1      -3.883  51.515 -23.102  1.00  0.00     0.022 C 
HETATM   20  C28 UNL     1      -4.358  52.857 -22.523  1.00  0.00     0.015 C 
ENDROOT
BRANCH   1  21
HETATM   21  C4  UNL     1      -3.033  51.877 -26.899  1.00  0.00     0.283 C 
HETATM   22  O2  UNL     1      -2.439  52.918 -27.140  1.00  0.00    -0.260 OA
BRANCH  21  23
HETATM   23  O1  UNL     1      -3.130  50.797 -27.703  1.00  0.00    -0.316 OA
BRANCH  23  24
HETATM   24  C3  UNL     1      -2.813  49.554 -27.064  1.00  0.00     0.209 C 
BRANCH  24  25
HETATM   25  C2  UNL     1      -3.880  48.503 -27.418  1.00  0.00     0.295 C 
BRANCH  25  26
HETATM   26  N1  UNL     1      -4.850  48.923 -28.441  1.00  0.00     0.081 N 
HETATM   27  C1  UNL     1      -5.455  47.800 -29.145  1.00  0.00     0.306 C 
HETATM   28  H4  UNL     1      -4.393  49.538 -29.117  1.00  0.00     0.315 HD
ENDBRANCH  25  26
ENDBRANCH  24  25
ENDBRANCH  23  24
ENDBRANCH  21  23
ENDBRANCH   1  21
BRANCH  14  29
HETATM   29  O4  UNL     1       0.802  51.087 -16.983  1.00  0.00    -0.315 OA
BRANCH  29  30
HETATM   30  C18 UNL     1       1.107  51.725 -15.817  1.00  0.00     0.262 C 
HETATM   31  O5  UNL     1       0.883  52.902 -15.577  1.00  0.00    -0.265 OA
BRANCH  30  32
HETATM   32  C19 UNL     1       1.767  50.767 -14.859  1.00  0.00     0.148 C 
BRANCH  32  33
HETATM   33  C20 UNL     1       3.085  51.296 -14.286  1.00  0.00     0.059 C 
HETATM   34  C21 UNL     1       3.931  51.859 -15.434  1.00  0.00     0.045 C 
HETATM   35  C22 UNL     1       3.893  50.229 -13.537  1.00  0.00     0.045 C 
BRANCH  33  36
HETATM   36  O6  UNL     1       2.809  52.395 -13.409  1.00  0.00    -0.390 OA
HETATM   37  H34 UNL     1       2.773  52.058 -12.489  1.00  0.00     0.210 HD
ENDBRANCH  33  36
ENDBRANCH  32  33
ENDBRANCH  30  32
ENDBRANCH  29  30
ENDBRANCH  14  29
TORSDOF 10
ENDMDL
MODEL 3
REMARK minimizedAffinity -8.05560493
REMARK  10 active torsions:
REMARK  status: ('A' for Active; 'I' for Inactive)
REMARK    1  A    between atoms: N1_2  and  C2_3 
REMARK    2  A    between atoms: C2_3  and  C3_4 
REMARK    3  A    between atoms: C3_4  and  O1_5 
REMARK    4  A    between atoms: O1_5  and  C4_6 
REMARK    5  A    between atoms: C4_6  and  C5_8 
REMARK    6  A    between atoms: C17_21  and  O4_22 
REMARK    7  A    between atoms: O4_22  and  C18_23 
REMARK    8  A    between atoms: C18_23  and  C19_25 
REMARK    9  A    between atoms: C19_25  and  C20_26 
REMARK   10  A    between atoms: C20_26  and  O6_29 
ROOT
HETATM    1  C5  UNL     1      -5.133  48.412 -26.451  1.00  0.00     0.085 C 
HETATM    2  C6  UNL     1      -4.492  48.935 -25.384  1.00  0.00    -0.070 C 
HETATM    3  C7  UNL     1      -3.075  49.463 -25.394  1.00  0.00     0.035 C 
HETATM    4  C8  UNL     1      -2.247  48.982 -24.193  1.00  0.00     0.010 C 
HETATM    5  C9  UNL     1      -2.963  49.228 -22.847  1.00  0.00     0.006 C 
HETATM    6  C10 UNL     1      -4.338  48.493 -22.906  1.00  0.00     0.068 C 
HETATM    7  C11 UNL     1      -5.088  48.438 -21.574  1.00  0.00     0.132 C 
HETATM    8  O3  UNL     1      -6.319  48.390 -21.527  1.00  0.00    -0.298 OA
HETATM    9  C12 UNL     1      -4.283  48.283 -20.299  1.00  0.00     0.085 C 
HETATM   10  C13 UNL     1      -3.067  49.211 -20.343  1.00  0.00     0.011 C 
HETATM   11  C14 UNL     1      -2.318  49.465 -18.988  1.00  0.00    -0.016 C 
HETATM   12  C15 UNL     1      -3.325  49.883 -17.883  1.00  0.00     0.018 C 
HETATM   13  C16 UNL     1      -1.610  48.204 -18.446  1.00  0.00     0.018 C 
HETATM   14  C17 UNL     1      -1.326  50.673 -19.181  1.00  0.00     0.140 C 
HETATM   15  C23 UNL     1      -0.950  50.941 -20.649  1.00  0.00     0.034 C 
HETATM   16  C24 UNL     1      -0.802  49.653 -21.445  1.00  0.00     0.012 C 
HETATM   17  C25 UNL     1      -2.131  48.845 -21.561  1.00  0.00    -0.035 C 
HETATM   18  C26 UNL     1      -1.739  47.348 -21.643  1.00  0.00     0.016 C 
HETATM   19  C27 UNL     1      -5.225  49.041 -24.050  1.00  0.00     0.022 C 
HETATM   20  C28 UNL     1      -5.699  50.487 -23.844  1.00  0.00     0.015 C 
ENDROOT
BRANCH   1  21
HETATM   21  C4  UNL     1      -4.649  48.307 -27.845  1.00  0.00     0.283 C 
HETATM   22  O2  UNL     1      -3.496  48.004 -28.112  1.00  0.00    -0.260 OA
BRANCH  21  23
HETATM   23  O1  UNL     1      -5.670  48.448 -28.717  1.00  0.00    -0.316 OA
BRANCH  23  24
HETATM   24  C3  UNL     1      -6.716  47.480 -28.564  1.00  0.00     0.209 C 
BRANCH  24  25
HETATM   25  C2  UNL     1      -8.046  48.070 -29.065  1.00  0.00     0.295 C 
BRANCH  25  26
HETATM   26  N1  UNL     1      -8.734  48.950 -28.108  1.00  0.00     0.081 N 
HETATM   27  C1  UNL     1      -9.011  48.297 -26.835  1.00  0.00     0.306 C 
HETATM   28  H4  UNL     1      -9.610  49.282 -28.514  1.00  0.00     0.315 HD
ENDBRANCH  25  26
ENDBRANCH  24  25
ENDBRANCH  23  24
ENDBRANCH  21  23
ENDBRANCH   1  21
BRANCH  14  29
HETATM   29  O4  UNL     1      -0.120  50.428 -18.429  1.00  0.00    -0.315 OA
BRANCH  29  30
HETATM   30  C18 UNL     1       0.349  51.452 -17.662  1.00  0.00     0.262 C 
HETATM   31  O5  UNL     1       0.335  52.633 -17.975  1.00  0.00    -0.265 OA
BRANCH  30  32
HETATM   32  C19 UNL     1       0.895  50.919 -16.362  1.00  0.00     0.148 C 
BRANCH  32  33
HETATM   33  C20 UNL     1       1.367  52.020 -15.407  1.00  0.00     0.059 C 
HETATM   34  C21 UNL     1       2.773  51.669 -14.906  1.00  0.00     0.045 C 
HETATM   35  C22 UNL     1       0.436  52.219 -14.204  1.00  0.00     0.045 C 
BRANCH  33  36
HETATM   36  O6  UNL     1       1.488  53.250 -16.130  1.00  0.00    -0.390 OA
HETATM   37  H34 UNL     1       0.665  53.768 -16.006  1.00  0.00     0.210 HD
ENDBRANCH  33  36
ENDBRANCH  32  33
ENDBRANCH  30  32
ENDBRANCH  29  30
ENDBRANCH  14  29
TORSDOF 10
ENDMDL
MODEL 4
REMARK minimizedAffinity -8.02911949
REMARK  10 active torsions:
REMARK  status: ('A' for Active; 'I' for Inactive)
REMARK    1  A    between atoms: N1_2  and  C2_3 
REMARK    2  A    between atoms: C2_3  and  C3_4 
REMARK    3  A    between atoms: C3_4  and  O1_5 
REMARK    4  A    between atoms: O1_5  and  C4_6 
REMARK    5  A    between atoms: C4_6  and  C5_8 
REMARK    6  A    between atoms: C17_21  and  O4_22 
REMARK    7  A    between atoms: O4_22  and  C18_23 
REMARK    8  A    between atoms: C18_23  and  C19_25 
REMARK    9  A    between atoms: C19_25  and  C20_26 
REMARK   10  A    between atoms: C20_26  and  O6_29 
ROOT
HETATM    1  C5  UNL     1      -0.324  51.818 -24.917  1.00  0.00     0.085 C 
HETATM    2  C6  UNL     1      -0.770  51.700 -23.648  1.00  0.00    -0.070 C 
HETATM    3  C7  UNL     1       0.012  52.087 -22.412  1.00  0.00     0.035 C 
HETATM    4  C8  UNL     1      -0.055  51.027 -21.304  1.00  0.00     0.010 C 
HETATM    5  C9  UNL     1      -1.503  50.601 -20.980  1.00  0.00     0.006 C 
HETATM    6  C10 UNL     1      -2.142  50.069 -22.300  1.00  0.00     0.068 C 
HETATM    7  C11 UNL     1      -3.503  49.393 -22.122  1.00  0.00     0.132 C 
HETATM    8  O3  UNL     1      -4.346  49.393 -23.021  1.00  0.00    -0.298 OA
HETATM    9  C12 UNL     1      -3.744  48.578 -20.868  1.00  0.00     0.085 C 
HETATM   10  C13 UNL     1      -3.211  49.338 -19.651  1.00  0.00     0.011 C 
HETATM   11  C14 UNL     1      -3.682  48.838 -18.240  1.00  0.00    -0.016 C 
HETATM   12  C15 UNL     1      -5.227  48.698 -18.203  1.00  0.00     0.018 C 
HETATM   13  C16 UNL     1      -3.132  47.440 -17.882  1.00  0.00     0.018 C 
HETATM   14  C17 UNL     1      -3.297  49.926 -17.169  1.00  0.00     0.140 C 
HETATM   15  C23 UNL     1      -2.172  50.873 -17.620  1.00  0.00     0.034 C 
HETATM   16  C24 UNL     1      -1.112  50.152 -18.439  1.00  0.00     0.012 C 
HETATM   17  C25 UNL     1      -1.657  49.582 -19.785  1.00  0.00    -0.035 C 
HETATM   18  C26 UNL     1      -0.830  48.309 -20.099  1.00  0.00     0.016 C 
HETATM   19  C27 UNL     1      -2.175  51.162 -23.396  1.00  0.00     0.022 C 
HETATM   20  C28 UNL     1      -3.121  52.333 -23.091  1.00  0.00     0.015 C 
ENDROOT
BRANCH   1  21
HETATM   21  C4  UNL     1       0.952  52.401 -25.385  1.00  0.00     0.283 C 
HETATM   22  O2  UNL     1       1.314  53.522 -25.058  1.00  0.00    -0.260 OA
BRANCH  21  23
HETATM   23  O1  UNL     1       1.672  51.486 -26.069  1.00  0.00    -0.316 OA
BRANCH  23  24
HETATM   24  C3  UNL     1       1.888  51.813 -27.448  1.00  0.00     0.209 C 
BRANCH  24  25
HETATM   25  C2  UNL     1       0.547  51.786 -28.203  1.00  0.00     0.295 C 
BRANCH  25  26
HETATM   26  N1  UNL     1       0.154  53.064 -28.816  1.00  0.00     0.081 N 
HETATM   27  C1  UNL     1      -0.872  53.767 -28.057  1.00  0.00     0.306 C 
HETATM   28  H4  UNL     1      -0.182  52.901 -29.767  1.00  0.00     0.315 HD
ENDBRANCH  25  26
ENDBRANCH  24  25
ENDBRANCH  23  24
ENDBRANCH  21  23
ENDBRANCH   1  21
BRANCH  14  29
HETATM   29  O4  UNL     1      -2.894  49.273 -15.946  1.00  0.00    -0.315 OA
BRANCH  29  30
HETATM   30  C18 UNL     1      -2.260  50.041 -15.016  1.00  0.00     0.262 C 
HETATM   31  O5  UNL     1      -1.191  49.772 -14.487  1.00  0.00    -0.265 OA
BRANCH  30  32
HETATM   32  C19 UNL     1      -3.069  51.279 -14.725  1.00  0.00     0.148 C 
BRANCH  32  33
HETATM   33  C20 UNL     1      -2.916  51.779 -13.285  1.00  0.00     0.059 C 
HETATM   34  C21 UNL     1      -1.446  52.147 -13.045  1.00  0.00     0.045 C 
HETATM   35  C22 UNL     1      -3.358  50.752 -12.236  1.00  0.00     0.045 C 
BRANCH  33  36
HETATM   36  O6  UNL     1      -3.668  52.987 -13.125  1.00  0.00    -0.390 OA
HETATM   37  H34 UNL     1      -4.543  52.761 -12.743  1.00  0.00     0.210 HD
ENDBRANCH  33  36
ENDBRANCH  32  33
ENDBRANCH  30  32
ENDBRANCH  29  30
ENDBRANCH  14  29
TORSDOF 10
ENDMDL
MODEL 5
REMARK minimizedAffinity -8.01193619
REMARK  10 active torsions:
REMARK  status: ('A' for Active; 'I' for Inactive)
REMARK    1  A    between atoms: N1_2  and  C2_3 
REMARK    2  A    between atoms: C2_3  and  C3_4 
REMARK    3  A    between atoms: C3_4  and  O1_5 
REMARK    4  A    between atoms: O1_5  and  C4_6 
REMARK    5  A    between atoms: C4_6  and  C5_8 
REMARK    6  A    between atoms: C17_21  and  O4_22 
REMARK    7  A    between atoms: O4_22  and  C18_23 
REMARK    8  A    between atoms: C18_23  and  C19_25 
REMARK    9  A    between atoms: C19_25  and  C20_26 
REMARK   10  A    between atoms: C20_26  and  O6_29 
ROOT
HETATM    1  C5  UNL     1      -3.083  50.211 -16.185  1.00  0.00     0.085 C 
HETATM    2  C6  UNL     1      -2.665  50.285 -17.466  1.00  0.00    -0.070 C 
HETATM    3  C7  UNL     1      -1.851  51.420 -18.051  1.00  0.00     0.035 C 
HETATM    4  C8  UNL     1      -2.378  51.895 -19.412  1.00  0.00     0.010 C 
HETATM    5  C9  UNL     1      -2.576  50.732 -20.408  1.00  0.00     0.006 C 
HETATM    6  C10 UNL     1      -3.562  49.716 -19.754  1.00  0.00     0.068 C 
HETATM    7  C11 UNL     1      -4.051  48.609 -20.690  1.00  0.00     0.132 C 
HETATM    8  O3  UNL     1      -4.373  47.498 -20.263  1.00  0.00    -0.298 OA
HETATM    9  C12 UNL     1      -4.287  48.950 -22.147  1.00  0.00     0.085 C 
HETATM   10  C13 UNL     1      -3.129  49.804 -22.669  1.00  0.00     0.011 C 
HETATM   11  C14 UNL     1      -3.004  49.954 -24.226  1.00  0.00    -0.016 C 
HETATM   12  C15 UNL     1      -3.050  48.562 -24.910  1.00  0.00     0.018 C 
HETATM   13  C16 UNL     1      -4.166  50.759 -24.848  1.00  0.00     0.018 C 
HETATM   14  C17 UNL     1      -1.597  50.579 -24.558  1.00  0.00     0.140 C 
HETATM   15  C23 UNL     1      -0.958  51.335 -23.380  1.00  0.00     0.034 C 
HETATM   16  C24 UNL     1      -1.991  52.091 -22.559  1.00  0.00     0.012 C 
HETATM   17  C25 UNL     1      -3.026  51.156 -21.861  1.00  0.00    -0.035 C 
HETATM   18  C26 UNL     1      -4.353  51.950 -21.764  1.00  0.00     0.016 C 
HETATM   19  C27 UNL     1      -2.996  49.149 -18.429  1.00  0.00     0.022 C 
HETATM   20  C28 UNL     1      -1.761  48.253 -18.603  1.00  0.00     0.015 C 
ENDROOT
BRANCH   1  21
HETATM   21  C4  UNL     1      -2.791  51.142 -15.074  1.00  0.00     0.283 C 
HETATM   22  O2  UNL     1      -3.630  51.918 -14.638  1.00  0.00    -0.260 OA
BRANCH  21  23
HETATM   23  O1  UNL     1      -1.568  50.901 -14.557  1.00  0.00    -0.316 OA
BRANCH  23  24
HETATM   24  C3  UNL     1      -1.300  51.584 -13.326  1.00  0.00     0.209 C 
BRANCH  24  25
HETATM   25  C2  UNL     1       0.214  51.820 -13.183  1.00  0.00     0.295 C 
BRANCH  25  26
HETATM   26  N1  UNL     1       0.586  53.089 -12.539  1.00  0.00     0.081 N 
HETATM   27  C1  UNL     1      -0.272  53.427 -11.411  1.00  0.00     0.306 C 
HETATM   28  H4  UNL     1       0.554  53.846 -13.225  1.00  0.00     0.315 HD
ENDBRANCH  25  26
ENDBRANCH  24  25
ENDBRANCH  23  24
ENDBRANCH  21  23
ENDBRANCH   1  21
BRANCH  14  29
HETATM   29  O4  UNL     1      -1.724  51.481 -25.676  1.00  0.00    -0.315 OA
BRANCH  29  30
HETATM   30  C18 UNL     1      -1.269  51.039 -26.883  1.00  0.00     0.262 C 
HETATM   31  O5  UNL     1      -1.960  50.857 -27.874  1.00  0.00    -0.265 OA
BRANCH  30  32
HETATM   32  C19 UNL     1       0.217  50.800 -26.821  1.00  0.00     0.148 C 
BRANCH  32  33
HETATM   33  C20 UNL     1       1.044  52.051 -27.133  1.00  0.00     0.059 C 
HETATM   34  C21 UNL     1       0.384  52.801 -28.297  1.00  0.00     0.045 C 
HETATM   35  C22 UNL     1       2.502  51.741 -27.494  1.00  0.00     0.045 C 
BRANCH  33  36
HETATM   36  O6  UNL     1       1.004  52.935 -26.007  1.00  0.00    -0.390 OA
HETATM   37  H34 UNL     1       1.805  52.782 -25.462  1.00  0.00     0.210 HD
ENDBRANCH  33  36
ENDBRANCH  32  33
ENDBRANCH  30  32
ENDBRANCH  29  30
ENDBRANCH  14  29
TORSDOF 10
ENDMDL
MODEL 6
REMARK minimizedAffinity -7.73992252
REMARK  10 active torsions:
REMARK  status: ('A' for Active; 'I' for Inactive)
REMARK    1  A    between atoms: N1_2  and  C2_3 
REMARK    2  A    between atoms: C2_3  and  C3_4 
REMARK    3  A    between atoms: C3_4  and  O1_5 
REMARK    4  A    between atoms: O1_5  and  C4_6 
REMARK    5  A    between atoms: C4_6  and  C5_8 
REMARK    6  A    between atoms: C17_21  and  O4_22 
REMARK    7  A    between atoms: O4_22  and  C18_23 
REMARK    8  A    between atoms: C18_23  and  C19_25 
REMARK    9  A    between atoms: C19_25  and  C20_26 
REMARK   10  A    between atoms: C20_26  and  O6_29 
ROOT
HETATM    1  C5  UNL     1      -1.127  52.542 -26.101  1.00  0.00     0.085 C 
HETATM    2  C6  UNL     1      -1.515  52.331 -24.826  1.00  0.00    -0.070 C 
HETATM    3  C7  UNL     1      -0.989  53.081 -23.621  1.00  0.00     0.035 C 
HETATM    4  C8  UNL     1      -0.640  52.158 -22.445  1.00  0.00     0.010 C 
HETATM    5  C9  UNL     1      -1.794  51.196 -22.088  1.00  0.00     0.006 C 
HETATM    6  C10 UNL     1      -2.128  50.367 -23.366  1.00  0.00     0.068 C 
HETATM    7  C11 UNL     1      -3.095  49.205 -23.137  1.00  0.00     0.132 C 
HETATM    8  O3  UNL     1      -3.844  48.802 -24.030  1.00  0.00    -0.298 OA
HETATM    9  C12 UNL     1      -3.010  48.442 -21.831  1.00  0.00     0.085 C 
HETATM   10  C13 UNL     1      -2.863  49.429 -20.669  1.00  0.00     0.011 C 
HETATM   11  C14 UNL     1      -3.120  48.869 -19.226  1.00  0.00    -0.016 C 
HETATM   12  C15 UNL     1      -4.472  48.109 -19.173  1.00  0.00     0.018 C 
HETATM   13  C16 UNL     1      -2.053  47.845 -18.779  1.00  0.00     0.018 C 
HETATM   14  C17 UNL     1      -3.240  50.083 -18.231  1.00  0.00     0.140 C 
HETATM   15  C23 UNL     1      -2.592  51.379 -18.749  1.00  0.00     0.034 C 
HETATM   16  C24 UNL     1      -1.311  51.107 -19.524  1.00  0.00     0.012 C 
HETATM   17  C25 UNL     1      -1.543  50.281 -20.826  1.00  0.00    -0.035 C 
HETATM   18  C26 UNL     1      -0.260  49.443 -21.059  1.00  0.00     0.016 C 
HETATM   19  C27 UNL     1      -2.581  51.280 -24.532  1.00  0.00     0.022 C 
HETATM   20  C28 UNL     1      -3.931  51.975 -24.300  1.00  0.00     0.015 C 
ENDROOT
BRANCH   1  21
HETATM   21  C4  UNL     1      -0.192  53.567 -26.614  1.00  0.00     0.283 C 
HETATM   22  O2  UNL     1       0.210  54.487 -25.917  1.00  0.00    -0.260 OA
BRANCH  21  23
HETATM   23  O1  UNL     1       0.232  53.249 -27.855  1.00  0.00    -0.316 OA
BRANCH  23  24
HETATM   24  C3  UNL     1       0.597  51.873 -28.021  1.00  0.00     0.209 C 
BRANCH  24  25
HETATM   25  C2  UNL     1       2.107  51.768 -28.298  1.00  0.00     0.295 C 
BRANCH  25  26
HETATM   26  N1  UNL     1       2.964  51.862 -27.106  1.00  0.00     0.081 N 
HETATM   27  C1  UNL     1       2.442  51.115 -25.970  1.00  0.00     0.306 C 
HETATM   28  H4  UNL     1       3.079  52.842 -26.841  1.00  0.00     0.315 HD
ENDBRANCH  25  26
ENDBRANCH  24  25
ENDBRANCH  23  24
ENDBRANCH  21  23
ENDBRANCH   1  21
BRANCH  14  29
HETATM   29  O4  UNL     1      -2.633  49.732 -16.970  1.00  0.00    -0.315 OA
BRANCH  29  30
HETATM   30  C18 UNL     1      -2.532  50.719 -16.035  1.00  0.00     0.262 C 
HETATM   31  O5  UNL     1      -3.465  51.379 -15.602  1.00  0.00    -0.265 OA
BRANCH  30  32
HETATM   32  C19 UNL     1      -1.097  50.886 -15.609  1.00  0.00     0.148 C 
BRANCH  32  33
HETATM   33  C20 UNL     1      -0.921  50.964 -14.090  1.00  0.00     0.059 C 
HETATM   34  C21 UNL     1       0.517  51.399 -13.781  1.00  0.00     0.045 C 
HETATM   35  C22 UNL     1      -1.214  49.638 -13.376  1.00  0.00     0.045 C 
BRANCH  33  36
HETATM   36  O6  UNL     1      -1.776  51.989 -13.570  1.00  0.00    -0.390 OA
HETATM   37  H34 UNL     1      -2.606  51.573 -13.254  1.00  0.00     0.210 HD
ENDBRANCH  33  36
ENDBRANCH  32  33
ENDBRANCH  30  32
ENDBRANCH  29  30
ENDBRANCH  14  29
TORSDOF 10
ENDMDL
MODEL 7
REMARK minimizedAffinity -7.70971107
REMARK  10 active torsions:
REMARK  status: ('A' for Active; 'I' for Inactive)
REMARK    1  A    between atoms: N1_2  and  C2_3 
REMARK    2  A    between atoms: C2_3  and  C3_4 
REMARK    3  A    between atoms: C3_4  and  O1_5 
REMARK    4  A    between atoms: O1_5  and  C4_6 
REMARK    5  A    between atoms: C4_6  and  C5_8 
REMARK    6  A    between atoms: C17_21  and  O4_22 
REMARK    7  A    between atoms: O4_22  and  C18_23 
REMARK    8  A    between atoms: C18_23  and  C19_25 
REMARK    9  A    between atoms: C19_25  and  C20_26 
REMARK   10  A    between atoms: C20_26  and  O6_29 
ROOT
HETATM    1  C5  UNL     1      -2.640  49.489 -25.937  1.00  0.00     0.085 C 
HETATM    2  C6  UNL     1      -2.807  49.749 -24.622  1.00  0.00    -0.070 C 
HETATM    3  C7  UNL     1      -2.828  51.131 -24.005  1.00  0.00     0.035 C 
HETATM    4  C8  UNL     1      -1.978  51.231 -22.731  1.00  0.00     0.010 C 
HETATM    5  C9  UNL     1      -2.311  50.120 -21.711  1.00  0.00     0.006 C 
HETATM    6  C10 UNL     1      -2.090  48.749 -22.421  1.00  0.00     0.068 C 
HETATM    7  C11 UNL     1      -2.154  47.534 -21.494  1.00  0.00     0.132 C 
HETATM    8  O3  UNL     1      -2.516  46.428 -21.902  1.00  0.00    -0.298 OA
HETATM    9  C12 UNL     1      -1.609  47.671 -20.087  1.00  0.00     0.085 C 
HETATM   10  C13 UNL     1      -2.076  48.998 -19.482  1.00  0.00     0.011 C 
HETATM   11  C14 UNL     1      -1.925  49.162 -17.929  1.00  0.00    -0.016 C 
HETATM   12  C15 UNL     1      -2.541  47.943 -17.193  1.00  0.00     0.018 C 
HETATM   13  C16 UNL     1      -0.451  49.220 -17.471  1.00  0.00     0.018 C 
HETATM   14  C17 UNL     1      -2.743  50.429 -17.477  1.00  0.00     0.140 C 
HETATM   15  C23 UNL     1      -3.018  51.431 -18.612  1.00  0.00     0.034 C 
HETATM   16  C24 UNL     1      -1.842  51.543 -19.573  1.00  0.00     0.012 C 
HETATM   17  C25 UNL     1      -1.543  50.215 -20.335  1.00  0.00    -0.035 C 
HETATM   18  C26 UNL     1      -0.017  50.191 -20.607  1.00  0.00     0.016 C 
HETATM   19  C27 UNL     1      -3.016  48.591 -23.651  1.00  0.00     0.022 C 
HETATM   20  C28 UNL     1      -4.509  48.480 -23.306  1.00  0.00     0.015 C 
ENDROOT
BRANCH   1  21
HETATM   21  C4  UNL     1      -2.522  50.454 -27.050  1.00  0.00     0.283 C 
HETATM   22  O2  UNL     1      -3.026  50.249 -28.145  1.00  0.00    -0.260 OA
BRANCH  21  23
HETATM   23  O1  UNL     1      -1.930  51.594 -26.634  1.00  0.00    -0.316 OA
BRANCH  23  24
HETATM   24  C3  UNL     1      -0.566  51.737 -27.049  1.00  0.00     0.209 C 
BRANCH  24  25
HETATM   25  C2  UNL     1       0.306  52.120 -25.840  1.00  0.00     0.295 C 
BRANCH  25  26
HETATM   26  N1  UNL     1       1.684  52.513 -26.169  1.00  0.00     0.081 N 
HETATM   27  C1  UNL     1       2.534  51.379 -26.506  1.00  0.00     0.306 C 
HETATM   28  H4  UNL     1       2.095  53.020 -25.383  1.00  0.00     0.315 HD
ENDBRANCH  25  26
ENDBRANCH  24  25
ENDBRANCH  23  24
ENDBRANCH  21  23
ENDBRANCH   1  21
BRANCH  14  29
HETATM   29  O4  UNL     1      -2.033  51.107 -16.420  1.00  0.00    -0.315 OA
BRANCH  29  30
HETATM   30  C18 UNL     1      -2.656  51.189 -15.210  1.00  0.00     0.262 C 
HETATM   31  O5  UNL     1      -3.674  51.825 -14.982  1.00  0.00    -0.265 OA
BRANCH  30  32
HETATM   32  C19 UNL     1      -1.905  50.380 -14.184  1.00  0.00     0.148 C 
BRANCH  32  33
HETATM   33  C20 UNL     1      -1.718  51.115 -12.853  1.00  0.00     0.059 C 
HETATM   34  C21 UNL     1      -0.434  50.607 -12.186  1.00  0.00     0.045 C 
HETATM   35  C22 UNL     1      -2.896  50.933 -11.889  1.00  0.00     0.045 C 
BRANCH  33  36
HETATM   36  O6  UNL     1      -1.517  52.509 -13.110  1.00  0.00    -0.390 OA
HETATM   37  H34 UNL     1      -2.377  52.971 -13.017  1.00  0.00     0.210 HD
ENDBRANCH  33  36
ENDBRANCH  32  33
ENDBRANCH  30  32
ENDBRANCH  29  30
ENDBRANCH  14  29
TORSDOF 10
ENDMDL
MODEL 8
REMARK minimizedAffinity -7.6651535
REMARK  10 active torsions:
REMARK  status: ('A' for Active; 'I' for Inactive)
REMARK    1  A    between atoms: N1_2  and  C2_3 
REMARK    2  A    between atoms: C2_3  and  C3_4 
REMARK    3  A    between atoms: C3_4  and  O1_5 
REMARK    4  A    between atoms: O1_5  and  C4_6 
REMARK    5  A    between atoms: C4_6  and  C5_8 
REMARK    6  A    between atoms: C17_21  and  O4_22 
REMARK    7  A    between atoms: O4_22  and  C18_23 
REMARK    8  A    between atoms: C18_23  and  C19_25 
REMARK    9  A    between atoms: C19_25  and  C20_26 
REMARK   10  A    between atoms: C20_26  and  O6_29 
ROOT
HETATM    1  C5  UNL     1      -3.023  50.091 -15.832  1.00  0.00     0.085 C 
HETATM    2  C6  UNL     1      -2.685  50.101 -17.139  1.00  0.00    -0.070 C 
HETATM    3  C7  UNL     1      -1.756  51.103 -17.789  1.00  0.00     0.035 C 
HETATM    4  C8  UNL     1      -2.297  51.648 -19.118  1.00  0.00     0.010 C 
HETATM    5  C9  UNL     1      -2.728  50.524 -20.085  1.00  0.00     0.006 C 
HETATM    6  C10 UNL     1      -3.806  49.664 -19.355  1.00  0.00     0.068 C 
HETATM    7  C11 UNL     1      -4.512  48.638 -20.244  1.00  0.00     0.132 C 
HETATM    8  O3  UNL     1      -4.963  47.587 -19.785  1.00  0.00    -0.298 OA
HETATM    9  C12 UNL     1      -4.792  49.007 -21.687  1.00  0.00     0.085 C 
HETATM   10  C13 UNL     1      -3.559  49.681 -22.294  1.00  0.00     0.011 C 
HETATM   11  C14 UNL     1      -3.517  49.808 -23.857  1.00  0.00    -0.016 C 
HETATM   12  C15 UNL     1      -3.811  48.436 -24.520  1.00  0.00     0.018 C 
HETATM   13  C16 UNL     1      -4.588  50.772 -24.412  1.00  0.00     0.018 C 
HETATM   14  C17 UNL     1      -2.059  50.219 -24.288  1.00  0.00     0.140 C 
HETATM   15  C23 UNL     1      -1.240  50.877 -23.164  1.00  0.00     0.034 C 
HETATM   16  C24 UNL     1      -2.096  51.778 -22.285  1.00  0.00     0.012 C 
HETATM   17  C25 UNL     1      -3.207  51.005 -21.510  1.00  0.00    -0.035 C 
HETATM   18  C26 UNL     1      -4.395  51.986 -21.337  1.00  0.00     0.016 C 
HETATM   19  C27 UNL     1      -3.242  49.023 -18.064  1.00  0.00     0.022 C 
HETATM   20  C28 UNL     1      -2.164  47.956 -18.308  1.00  0.00     0.015 C 
ENDROOT
BRANCH   1  21
HETATM   21  C4  UNL     1      -2.526  50.972 -14.753  1.00  0.00     0.283 C 
HETATM   22  O2  UNL     1      -3.234  51.818 -14.226  1.00  0.00    -0.260 OA
BRANCH  21  23
HETATM   23  O1  UNL     1      -1.284  50.606 -14.372  1.00  0.00    -0.316 OA
BRANCH  23  24
HETATM   24  C3  UNL     1      -0.433  51.697 -14.002  1.00  0.00     0.209 C 
BRANCH  24  25
HETATM   25  C2  UNL     1       0.941  51.534 -14.676  1.00  0.00     0.295 C 
BRANCH  25  26
HETATM   26  N1  UNL     1       1.435  52.731 -15.374  1.00  0.00     0.081 N 
HETATM   27  C1  UNL     1       2.216  52.414 -16.563  1.00  0.00     0.306 C 
HETATM   28  H4  UNL     1       2.004  53.292 -14.737  1.00  0.00     0.315 HD
ENDBRANCH  25  26
ENDBRANCH  24  25
ENDBRANCH  23  24
ENDBRANCH  21  23
ENDBRANCH   1  21
BRANCH  14  29
HETATM   29  O4  UNL     1      -2.128  51.128 -25.406  1.00  0.00    -0.315 OA
BRANCH  29  30
HETATM   30  C18 UNL     1      -1.698  50.659 -26.612  1.00  0.00     0.262 C 
HETATM   31  O5  UNL     1      -2.414  50.191 -27.484  1.00  0.00    -0.265 OA
BRANCH  30  32
HETATM   32  C19 UNL     1      -0.201  50.798 -26.719  1.00  0.00     0.148 C 
BRANCH  32  33
HETATM   33  C20 UNL     1       0.239  52.105 -27.386  1.00  0.00     0.059 C 
HETATM   34  C21 UNL     1       1.591  51.876 -28.073  1.00  0.00     0.045 C 
HETATM   35  C22 UNL     1       0.363  53.276 -26.403  1.00  0.00     0.045 C 
BRANCH  33  36
HETATM   36  O6  UNL     1      -0.691  52.441 -28.422  1.00  0.00    -0.390 OA
HETATM   37  H34 UNL     1      -1.344  53.076 -28.060  1.00  0.00     0.210 HD
ENDBRANCH  33  36
ENDBRANCH  32  33
ENDBRANCH  30  32
ENDBRANCH  29  30
ENDBRANCH  14  29
TORSDOF 10
ENDMDL
MODEL 9
REMARK minimizedAffinity -7.63110304
REMARK  10 active torsions:
REMARK  status: ('A' for Active; 'I' for Inactive)
REMARK    1  A    between atoms: N1_2  and  C2_3 
REMARK    2  A    between atoms: C2_3  and  C3_4 
REMARK    3  A    between atoms: C3_4  and  O1_5 
REMARK    4  A    between atoms: O1_5  and  C4_6 
REMARK    5  A    between atoms: C4_6  and  C5_8 
REMARK    6  A    between atoms: C17_21  and  O4_22 
REMARK    7  A    between atoms: O4_22  and  C18_23 
REMARK    8  A    between atoms: C18_23  and  C19_25 
REMARK    9  A    between atoms: C19_25  and  C20_26 
REMARK   10  A    between atoms: C20_26  and  O6_29 
ROOT
HETATM    1  C5  UNL     1      -7.841  45.800 -26.979  1.00  0.00     0.085 C 
HETATM    2  C6  UNL     1      -7.140  46.945 -26.831  1.00  0.00    -0.070 C 
HETATM    3  C7  UNL     1      -6.321  47.609 -27.916  1.00  0.00     0.035 C 
HETATM    4  C8  UNL     1      -4.936  48.061 -27.430  1.00  0.00     0.010 C 
HETATM    5  C9  UNL     1      -5.011  48.908 -26.141  1.00  0.00     0.006 C 
HETATM    6  C10 UNL     1      -5.729  48.047 -25.055  1.00  0.00     0.068 C 
HETATM    7  C11 UNL     1      -5.691  48.640 -23.646  1.00  0.00     0.132 C 
HETATM    8  O3  UNL     1      -6.583  48.413 -22.826  1.00  0.00    -0.298 OA
HETATM    9  C12 UNL     1      -4.448  49.391 -23.212  1.00  0.00     0.085 C 
HETATM   10  C13 UNL     1      -3.989  50.319 -24.340  1.00  0.00     0.011 C 
HETATM   11  C14 UNL     1      -2.951  51.433 -23.963  1.00  0.00    -0.016 C 
HETATM   12  C15 UNL     1      -3.435  52.227 -22.721  1.00  0.00     0.018 C 
HETATM   13  C16 UNL     1      -1.569  50.862 -23.576  1.00  0.00     0.018 C 
HETATM   14  C17 UNL     1      -2.862  52.459 -25.155  1.00  0.00     0.140 C 
HETATM   15  C23 UNL     1      -3.346  51.894 -26.501  1.00  0.00     0.034 C 
HETATM   16  C24 UNL     1      -2.961  50.432 -26.678  1.00  0.00     0.012 C 
HETATM   17  C25 UNL     1      -3.633  49.488 -25.634  1.00  0.00    -0.035 C 
HETATM   18  C26 UNL     1      -2.650  48.314 -25.394  1.00  0.00     0.016 C 
HETATM   19  C27 UNL     1      -7.166  47.670 -25.489  1.00  0.00     0.022 C 
HETATM   20  C28 UNL     1      -8.132  48.861 -25.573  1.00  0.00     0.015 C 
ENDROOT
BRANCH   1  21
HETATM   21  C4  UNL     1      -8.031  44.999 -28.207  1.00  0.00     0.283 C 
HETATM   22  O2  UNL     1      -7.196  44.194 -28.594  1.00  0.00    -0.260 OA
BRANCH  21  23
HETATM   23  O1  UNL     1      -9.269  45.185 -28.712  1.00  0.00    -0.316 OA
BRANCH  23  24
HETATM   24  C3  UNL     1      -9.291  45.671 -30.060  1.00  0.00     0.209 C 
BRANCH  24  25
HETATM   25  C2  UNL     1     -10.181  46.924 -30.144  1.00  0.00     0.295 C 
BRANCH  25  26
HETATM   26  N1  UNL     1      -9.682  47.980 -31.038  1.00  0.00     0.081 N 
HETATM   27  C1  UNL     1      -8.777  48.907 -30.372  1.00  0.00     0.306 C 
HETATM   28  H4  UNL     1     -10.469  48.500 -31.431  1.00  0.00     0.315 HD
ENDBRANCH  25  26
ENDBRANCH  24  25
ENDBRANCH  23  24
ENDBRANCH  21  23
ENDBRANCH   1  21
BRANCH  14  29
HETATM   29  O4  UNL     1      -1.499  52.908 -25.301  1.00  0.00    -0.315 OA
BRANCH  29  30
HETATM   30  C18 UNL     1      -1.096  53.262 -26.554  1.00  0.00     0.262 C 
HETATM   31  O5  UNL     1      -1.832  53.645 -27.451  1.00  0.00    -0.265 OA
BRANCH  30  32
HETATM   32  C19 UNL     1       0.398  53.112 -26.681  1.00  0.00     0.148 C 
BRANCH  32  33
HETATM   33  C20 UNL     1       0.818  51.838 -27.420  1.00  0.00     0.059 C 
HETATM   34  C21 UNL     1       0.533  50.629 -26.521  1.00  0.00     0.045 C 
HETATM   35  C22 UNL     1       2.298  51.831 -27.824  1.00  0.00     0.045 C 
BRANCH  33  36
HETATM   36  O6  UNL     1      -0.000  51.679 -28.585  1.00  0.00    -0.390 OA
HETATM   37  H34 UNL     1       0.480  52.049 -29.356  1.00  0.00     0.210 HD
ENDBRANCH  33  36
ENDBRANCH  32  33
ENDBRANCH  30  32
ENDBRANCH  29  30
ENDBRANCH  14  29
TORSDOF 10
ENDMDL
