MODEL 1
REMARK minimizedAffinity -7.908813
REMARK CNNscore 0.379564404
REMARK CNNaffinity 7.05964422
REMARK  19 active torsions:
REMARK  status: ('A' for Active; 'I' for Inactive)
REMARK    1  A    between atoms: O1_2  and  C2_3 
REMARK    2  A    between atoms: C2_3  and  C3_4 
REMARK    3  A    between atoms: C2_3  and  C28_36 
REMARK    4  A    between atoms: C3_4  and  C4_5 
REMARK    5  A    between atoms: C4_5  and  C6_7 
REMARK    6  A    between atoms: C6_7  and  O2_8 
REMARK    7  A    between atoms: C6_7  and  C7_9 
REMARK    8  A    between atoms: C8_10  and  C9_11 
REMARK    9  A    between atoms: C10_12  and  C11_13 
REMARK   10  A    between atoms: C11_13  and  N1_14 
REMARK       I    between atoms: N1_14  and  C12_15 
REMARK   11  A    between atoms: C12_15  and  C13_17 
REMARK   12  A    between atoms: C13_17  and  C16_20 
REMARK   13  A    between atoms: C16_20  and  O4_21 
REMARK   14  A    between atoms: C16_20  and  C17_22 
REMARK   15  A    between atoms: C19_24  and  C20_25 
REMARK   16  A    between atoms: C21_26  and  C22_27 
REMARK   17  A    between atoms: C23_28  and  C24_29 
REMARK   18  A    between atoms: C26_31  and  N2_33 
REMARK   19  A    between atoms: C28_36  and  O7_37 
ROOT
HETATM    1  C9  UNL     1       6.309   7.536  13.238  1.00  0.00    -0.003 C 
HETATM    2  C10 UNL     1       6.126   7.485  11.911  1.00  0.00    -0.007 C 
ENDROOT
BRANCH   1   3
HETATM    3  C8  UNL     1       6.471   8.769  13.972  1.00  0.00    -0.002 C 
HETATM    4  C7  UNL     1       7.666   9.170  14.421  1.00  0.00     0.005 C 
BRANCH   4   5
HETATM    5  C6  UNL     1       7.895  10.483  15.115  1.00  0.00     0.144 C 
BRANCH   5   6
HETATM    6  C4  UNL     1       8.523  10.304  16.520  1.00  0.00     0.016 C 
HETATM    7  C5  UNL     1       9.445   9.078  16.631  1.00  0.00     0.013 C 
BRANCH   6   8
HETATM    8  C3  UNL     1       9.174  11.598  17.072  1.00  0.00     0.042 C 
BRANCH   8   9
HETATM    9  C2  UNL     1      10.137  11.489  18.292  1.00  0.00     0.159 C 
BRANCH   9  10
HETATM   10  O1  UNL     1      11.385  12.093  17.919  1.00  0.00    -0.388 OA
HETATM   11  C1  UNL     1      11.745  11.984  16.547  1.00  0.00     0.202 C 
ENDBRANCH   9  10
BRANCH   9  12
HETATM   12  C28 UNL     1       9.579  12.303  19.498  1.00  0.00     0.133 C 
HETATM   13  C29 UNL     1      10.529  13.378  20.109  1.00  0.00     0.114 C 
HETATM   14  C30 UNL     1      11.257  14.278  19.118  1.00  0.00     0.023 C 
HETATM   15  C31 UNL     1       9.574  14.210  20.945  1.00  0.00     0.227 C 
HETATM   16  O8  UNL     1       9.896  14.929  21.874  1.00  0.00    -0.273 OA
HETATM   17  N3  UNL     1       8.303  14.052  20.420  1.00  0.00    -0.332 N 
HETATM   18  C32 UNL     1       7.118  14.469  21.129  1.00  0.00     0.154 C 
HETATM   19  C33 UNL     1       8.275  13.099  19.260  1.00  0.00     0.183 C 
HETATM   20  C34 UNL     1       6.997  12.229  19.025  1.00  0.00     0.294 C 
HETATM   21  C35 UNL     1       7.720  13.831  17.977  1.00  0.00     0.169 C 
HETATM   22  O9  UNL     1       6.389  11.346  19.587  1.00  0.00    -0.262 OA
HETATM   23  O10 UNL     1       6.722  12.786  17.812  1.00  0.00    -0.311 OA
HETATM   24  C36 UNL     1       8.444  14.104  16.675  1.00  0.00     0.043 C 
BRANCH  12  25
HETATM   25  O7  UNL     1       9.372  11.358  20.589  1.00  0.00    -0.383 OA
HETATM   26  H42 UNL     1       8.604  10.784  20.367  1.00  0.00     0.210 HD
ENDBRANCH  12  25
ENDBRANCH   9  12
ENDBRANCH   8   9
ENDBRANCH   6   8
ENDBRANCH   5   6
BRANCH   5  27
HETATM   27  O2  UNL     1       6.623  11.116  15.222  1.00  0.00    -0.391 OA
HETATM   28  H12 UNL     1       6.054  10.566  15.785  1.00  0.00     0.210 HD
ENDBRANCH   5  27
ENDBRANCH   4   5
ENDBRANCH   1   3
BRANCH   2  29
HETATM   29  C11 UNL     1       5.975   6.260  11.055  1.00  0.00     0.149 C 
BRANCH  29  30
HETATM   30  N1  UNL     1       4.687   6.211  10.412  1.00  0.00    -0.357 N 
HETATM   31  C12 UNL     1       4.113   7.333   9.864  1.00  0.00     0.228 C 
HETATM   32  O3  UNL     1       4.686   8.419   9.897  1.00  0.00    -0.273 OA
HETATM   33  H19 UNL     1       4.108   5.399  10.578  1.00  0.00     0.162 HD
BRANCH  31  34
HETATM   34  C13 UNL     1       2.791   7.117   9.101  1.00  0.00     0.063 C 
HETATM   35  C14 UNL     1       2.847   5.876   8.189  1.00  0.00     0.028 C 
HETATM   36  C15 UNL     1       2.592   8.375   8.222  1.00  0.00     0.028 C 
BRANCH  34  37
HETATM   37  C16 UNL     1       1.579   7.003  10.086  1.00  0.00     0.164 C 
BRANCH  37  38
HETATM   38  O4  UNL     1       1.103   5.659  10.212  1.00  0.00    -0.390 OA
HETATM   39  H27 UNL     1       0.922   5.338   9.304  1.00  0.00     0.210 HD
ENDBRANCH  37  38
BRANCH  37  40
HETATM   40  C17 UNL     1       0.387   7.934   9.857  1.00  0.00    -0.054 C 
HETATM   41  C18 UNL     1       0.050   8.261   8.420  1.00  0.00     0.046 C 
HETATM   42  C19 UNL     1      -0.388   8.466  10.832  1.00  0.00     0.005 C 
BRANCH  42  43
HETATM   43  C20 UNL     1      -0.252   8.287  12.267  1.00  0.00     0.000 C 
HETATM   44  C21 UNL     1      -1.162   7.775  13.115  1.00  0.00     0.000 C 
BRANCH  44  45
HETATM   45  C22 UNL     1      -2.490   7.289  12.806  1.00  0.00     0.001 C 
HETATM   46  C23 UNL     1      -3.069   6.293  13.495  1.00  0.00     0.009 C 
BRANCH  46  47
HETATM   47  C24 UNL     1      -4.407   5.735  13.253  1.00  0.00    -0.034 C 
HETATM   48  C25 UNL     1      -5.567   6.681  13.515  1.00  0.00     0.050 C 
HETATM   49  C26 UNL     1      -4.547   4.437  12.884  1.00  0.00     0.082 C 
HETATM   50  C27 UNL     1      -3.532   3.381  12.597  1.00  0.00     0.075 C 
BRANCH  49  51
HETATM   51  N2  UNL     1      -5.887   3.944  12.662  1.00  0.00    -0.120 N 
HETATM   52  O5  UNL     1      -6.598   3.765  13.660  1.00  0.00    -0.532 OA
HETATM   53  O6  UNL     1      -6.225   3.763  11.485  1.00  0.00    -0.532 OA
ENDBRANCH  49  51
ENDBRANCH  46  47
ENDBRANCH  44  45
ENDBRANCH  42  43
ENDBRANCH  37  40
ENDBRANCH  34  37
ENDBRANCH  31  34
ENDBRANCH  29  30
ENDBRANCH   2  29
TORSDOF 19
ENDMDL
MODEL 2
REMARK minimizedAffinity -8.55620861
REMARK CNNscore 0.304834932
REMARK CNNaffinity 7.37022781
REMARK  19 active torsions:
REMARK  status: ('A' for Active; 'I' for Inactive)
REMARK    1  A    between atoms: O1_2  and  C2_3 
REMARK    2  A    between atoms: C2_3  and  C3_4 
REMARK    3  A    between atoms: C2_3  and  C28_36 
REMARK    4  A    between atoms: C3_4  and  C4_5 
REMARK    5  A    between atoms: C4_5  and  C6_7 
REMARK    6  A    between atoms: C6_7  and  O2_8 
REMARK    7  A    between atoms: C6_7  and  C7_9 
REMARK    8  A    between atoms: C8_10  and  C9_11 
REMARK    9  A    between atoms: C10_12  and  C11_13 
REMARK   10  A    between atoms: C11_13  and  N1_14 
REMARK       I    between atoms: N1_14  and  C12_15 
REMARK   11  A    between atoms: C12_15  and  C13_17 
REMARK   12  A    between atoms: C13_17  and  C16_20 
REMARK   13  A    between atoms: C16_20  and  O4_21 
REMARK   14  A    between atoms: C16_20  and  C17_22 
REMARK   15  A    between atoms: C19_24  and  C20_25 
REMARK   16  A    between atoms: C21_26  and  C22_27 
REMARK   17  A    between atoms: C23_28  and  C24_29 
REMARK   18  A    between atoms: C26_31  and  N2_33 
REMARK   19  A    between atoms: C28_36  and  O7_37 
ROOT
HETATM    1  C9  UNL     1      -5.942   4.091  12.247  1.00  0.00    -0.003 C 
HETATM    2  C10 UNL     1      -7.127   3.619  12.656  1.00  0.00    -0.007 C 
ENDROOT
BRANCH   1   3
HETATM    3  C8  UNL     1      -4.789   3.254  12.014  1.00  0.00    -0.002 C 
HETATM    4  C7  UNL     1      -3.756   3.668  11.270  1.00  0.00     0.005 C 
BRANCH   4   5
HETATM    5  C6  UNL     1      -2.502   2.865  11.071  1.00  0.00     0.144 C 
BRANCH   5   6
HETATM    6  C4  UNL     1      -1.289   3.474  11.818  1.00  0.00     0.016 C 
HETATM    7  C5  UNL     1       0.057   2.843  11.424  1.00  0.00     0.013 C 
BRANCH   6   8
HETATM    8  C3  UNL     1      -1.260   5.023  11.784  1.00  0.00     0.042 C 
BRANCH   8   9
HETATM    9  C2  UNL     1       0.037   5.758  12.239  1.00  0.00     0.159 C 
BRANCH   9  10
HETATM   10  O1  UNL     1       0.192   6.922  11.413  1.00  0.00    -0.388 OA
HETATM   11  C1  UNL     1       0.885   6.729  10.187  1.00  0.00     0.202 C 
ENDBRANCH   9  10
BRANCH   9  12
HETATM   12  C28 UNL     1      -0.109   6.256  13.708  1.00  0.00     0.133 C 
HETATM   13  C29 UNL     1       1.134   6.966  14.327  1.00  0.00     0.114 C 
HETATM   14  C30 UNL     1       1.824   8.005  13.452  1.00  0.00     0.023 C 
HETATM   15  C31 UNL     1       0.539   7.643  15.548  1.00  0.00     0.227 C 
HETATM   16  O8  UNL     1       1.169   8.011  16.524  1.00  0.00    -0.273 OA
HETATM   17  N3  UNL     1      -0.814   7.821  15.317  1.00  0.00    -0.332 N 
HETATM   18  C32 UNL     1      -1.736   8.174  16.369  1.00  0.00     0.154 C 
HETATM   19  C33 UNL     1      -1.250   7.258  13.996  1.00  0.00     0.183 C 
HETATM   20  C34 UNL     1      -2.696   6.679  13.859  1.00  0.00     0.294 C 
HETATM   21  C35 UNL     1      -1.882   8.401  13.109  1.00  0.00     0.169 C 
HETATM   22  O9  UNL     1      -3.349   5.764  14.308  1.00  0.00    -0.262 OA
HETATM   23  O10 UNL     1      -3.081   7.596  12.928  1.00  0.00    -0.311 OA
HETATM   24  C36 UNL     1      -1.380   8.937  11.784  1.00  0.00     0.043 C 
BRANCH  12  25
HETATM   25  O7  UNL     1      -0.288   5.074  14.541  1.00  0.00    -0.383 OA
HETATM   26  H42 UNL     1      -1.182   4.700  14.372  1.00  0.00     0.210 HD
ENDBRANCH  12  25
ENDBRANCH   9  12
ENDBRANCH   8   9
ENDBRANCH   6   8
ENDBRANCH   5   6
BRANCH   5  27
HETATM   27  O2  UNL     1      -2.252   2.839   9.667  1.00  0.00    -0.391 OA
HETATM   28  H12 UNL     1      -2.085   3.748   9.370  1.00  0.00     0.210 HD
ENDBRANCH   5  27
ENDBRANCH   4   5
ENDBRANCH   1   3
BRANCH   2  29
HETATM   29  C11 UNL     1      -8.373   4.405  12.953  1.00  0.00     0.149 C 
BRANCH  29  30
HETATM   30  N1  UNL     1      -8.069   5.732  13.424  1.00  0.00    -0.357 N 
HETATM   31  C12 UNL     1      -7.911   6.001  14.762  1.00  0.00     0.228 C 
HETATM   32  O3  UNL     1      -8.017   5.114  15.605  1.00  0.00    -0.273 OA
HETATM   33  H19 UNL     1      -8.208   6.503  12.784  1.00  0.00     0.162 HD
BRANCH  31  34
HETATM   34  C13 UNL     1      -7.468   7.434  15.119  1.00  0.00     0.063 C 
HETATM   35  C14 UNL     1      -6.226   7.872  14.319  1.00  0.00     0.028 C 
HETATM   36  C15 UNL     1      -7.110   7.411  16.624  1.00  0.00     0.028 C 
BRANCH  34  37
HETATM   37  C16 UNL     1      -8.632   8.460  14.902  1.00  0.00     0.164 C 
BRANCH  37  38
HETATM   38  O4  UNL     1      -8.227   9.807  15.160  1.00  0.00    -0.390 OA
HETATM   39  H27 UNL     1      -7.837   9.818  16.058  1.00  0.00     0.210 HD
ENDBRANCH  37  38
BRANCH  37  40
HETATM   40  C17 UNL     1      -9.958   8.193  15.617  1.00  0.00    -0.054 C 
HETATM   41  C18 UNL     1     -10.003   8.503  17.097  1.00  0.00     0.046 C 
HETATM   42  C19 UNL     1     -11.083   7.722  15.030  1.00  0.00     0.005 C 
BRANCH  42  43
HETATM   43  C20 UNL     1     -11.268   7.363  13.634  1.00  0.00     0.000 C 
HETATM   44  C21 UNL     1     -12.408   6.970  13.037  1.00  0.00     0.000 C 
BRANCH  44  45
HETATM   45  C22 UNL     1     -13.714   6.804  13.638  1.00  0.00     0.001 C 
HETATM   46  C23 UNL     1     -14.077   5.674  14.266  1.00  0.00     0.009 C 
BRANCH  46  47
HETATM   47  C24 UNL     1     -15.377   5.416  14.902  1.00  0.00    -0.034 C 
HETATM   48  C25 UNL     1     -16.146   6.651  15.344  1.00  0.00     0.050 C 
HETATM   49  C26 UNL     1     -15.788   4.142  15.117  1.00  0.00     0.082 C 
HETATM   50  C27 UNL     1     -15.163   2.833  14.763  1.00  0.00     0.075 C 
BRANCH  49  51
HETATM   51  N2  UNL     1     -17.075   3.950  15.748  1.00  0.00    -0.120 N 
HETATM   52  O5  UNL     1     -17.803   4.945  15.866  1.00  0.00    -0.532 OA
HETATM   53  O6  UNL     1     -17.355   2.797  16.100  1.00  0.00    -0.532 OA
ENDBRANCH  49  51
ENDBRANCH  46  47
ENDBRANCH  44  45
ENDBRANCH  42  43
ENDBRANCH  37  40
ENDBRANCH  34  37
ENDBRANCH  31  34
ENDBRANCH  29  30
ENDBRANCH   2  29
TORSDOF 19
ENDMDL
MODEL 3
REMARK minimizedAffinity -7.86799955
REMARK CNNscore 0.288712561
REMARK CNNaffinity 6.56041861
REMARK  19 active torsions:
REMARK  status: ('A' for Active; 'I' for Inactive)
REMARK    1  A    between atoms: O1_2  and  C2_3 
REMARK    2  A    between atoms: C2_3  and  C3_4 
REMARK    3  A    between atoms: C2_3  and  C28_36 
REMARK    4  A    between atoms: C3_4  and  C4_5 
REMARK    5  A    between atoms: C4_5  and  C6_7 
REMARK    6  A    between atoms: C6_7  and  O2_8 
REMARK    7  A    between atoms: C6_7  and  C7_9 
REMARK    8  A    between atoms: C8_10  and  C9_11 
REMARK    9  A    between atoms: C10_12  and  C11_13 
REMARK   10  A    between atoms: C11_13  and  N1_14 
REMARK       I    between atoms: N1_14  and  C12_15 
REMARK   11  A    between atoms: C12_15  and  C13_17 
REMARK   12  A    between atoms: C13_17  and  C16_20 
REMARK   13  A    between atoms: C16_20  and  O4_21 
REMARK   14  A    between atoms: C16_20  and  C17_22 
REMARK   15  A    between atoms: C19_24  and  C20_25 
REMARK   16  A    between atoms: C21_26  and  C22_27 
REMARK   17  A    between atoms: C23_28  and  C24_29 
REMARK   18  A    between atoms: C26_31  and  N2_33 
REMARK   19  A    between atoms: C28_36  and  O7_37 
ROOT
HETATM    1  C9  UNL     1      -8.916   7.392  15.592  1.00  0.00    -0.003 C 
HETATM    2  C10 UNL     1      -8.054   6.866  16.473  1.00  0.00    -0.007 C 
ENDROOT
BRANCH   1   3
HETATM    3  C8  UNL     1     -10.096   8.129  15.976  1.00  0.00    -0.002 C 
HETATM    4  C7  UNL     1     -10.049   9.114  16.881  1.00  0.00     0.005 C 
BRANCH   4   5
HETATM    5  C6  UNL     1     -11.233   9.962  17.248  1.00  0.00     0.144 C 
BRANCH   5   6
HETATM    6  C4  UNL     1     -10.991  10.785  18.538  1.00  0.00     0.016 C 
HETATM    7  C5  UNL     1     -10.709  12.273  18.276  1.00  0.00     0.013 C 
BRANCH   6   8
HETATM    8  C3  UNL     1     -12.074  10.560  19.624  1.00  0.00     0.042 C 
BRANCH   8   9
HETATM    9  C2  UNL     1     -11.915  11.276  20.999  1.00  0.00     0.159 C 
BRANCH   9  10
HETATM   10  O1  UNL     1     -13.115  12.028  21.241  1.00  0.00    -0.388 OA
HETATM   11  C1  UNL     1     -13.087  13.392  20.837  1.00  0.00     0.202 C 
ENDBRANCH   9  10
BRANCH   9  12
HETATM   12  C28 UNL     1     -11.796  10.227  22.146  1.00  0.00     0.133 C 
HETATM   13  C29 UNL     1     -11.286  10.757  23.521  1.00  0.00     0.114 C 
HETATM   14  C30 UNL     1     -11.906  12.057  24.017  1.00  0.00     0.023 C 
HETATM   15  C31 UNL     1     -11.660   9.624  24.458  1.00  0.00     0.227 C 
HETATM   16  O8  UNL     1     -11.157   9.419  25.549  1.00  0.00    -0.273 OA
HETATM   17  N3  UNL     1     -12.706   8.925  23.881  1.00  0.00    -0.332 N 
HETATM   18  C32 UNL     1     -13.123   7.629  24.358  1.00  0.00     0.154 C 
HETATM   19  C33 UNL     1     -13.085   9.466  22.533  1.00  0.00     0.183 C 
HETATM   20  C34 UNL     1     -13.630   8.482  21.447  1.00  0.00     0.294 C 
HETATM   21  C35 UNL     1     -14.598   9.915  22.542  1.00  0.00     0.169 C 
HETATM   22  O9  UNL     1     -13.233   7.538  20.803  1.00  0.00    -0.262 OA
HETATM   23  O10 UNL     1     -14.852   9.082  21.377  1.00  0.00    -0.311 OA
HETATM   24  C36 UNL     1     -15.157  11.309  22.347  1.00  0.00     0.043 C 
BRANCH  12  25
HETATM   25  O7  UNL     1     -10.777   9.268  21.739  1.00  0.00    -0.383 OA
HETATM   26  H42 UNL     1     -11.136   8.717  21.007  1.00  0.00     0.210 HD
ENDBRANCH  12  25
ENDBRANCH   9  12
ENDBRANCH   8   9
ENDBRANCH   6   8
ENDBRANCH   5   6
BRANCH   5  27
HETATM   27  O2  UNL     1     -12.332   9.073  17.431  1.00  0.00    -0.391 OA
HETATM   28  H12 UNL     1     -12.130   8.488  18.179  1.00  0.00     0.210 HD
ENDBRANCH   5  27
ENDBRANCH   4   5
ENDBRANCH   1   3
BRANCH   2  29
HETATM   29  C11 UNL     1      -6.819   6.063  16.178  1.00  0.00     0.149 C 
BRANCH  29  30
HETATM   30  N1  UNL     1      -5.688   6.906  15.888  1.00  0.00    -0.357 N 
HETATM   31  C12 UNL     1      -4.921   6.719  14.762  1.00  0.00     0.228 C 
HETATM   32  O3  UNL     1      -5.180   5.826  13.959  1.00  0.00    -0.273 OA
HETATM   33  H19 UNL     1      -5.324   7.482  16.635  1.00  0.00     0.162 HD
BRANCH  31  34
HETATM   34  C13 UNL     1      -3.819   7.766  14.509  1.00  0.00     0.063 C 
HETATM   35  C14 UNL     1      -4.255   9.180  14.937  1.00  0.00     0.028 C 
HETATM   36  C15 UNL     1      -3.564   7.761  12.983  1.00  0.00     0.028 C 
BRANCH  34  37
HETATM   37  C16 UNL     1      -2.487   7.375  15.235  1.00  0.00     0.164 C 
BRANCH  37  38
HETATM   38  O4  UNL     1      -2.608   7.423  16.660  1.00  0.00    -0.390 OA
HETATM   39  H27 UNL     1      -2.948   8.314  16.884  1.00  0.00     0.210 HD
ENDBRANCH  37  38
BRANCH  37  40
HETATM   40  C17 UNL     1      -1.209   8.106  14.819  1.00  0.00    -0.054 C 
HETATM   41  C18 UNL     1      -1.143   9.584  15.130  1.00  0.00     0.046 C 
HETATM   42  C19 UNL     1      -0.140   7.532  14.216  1.00  0.00     0.005 C 
BRANCH  42  43
HETATM   43  C20 UNL     1       0.016   6.140  13.831  1.00  0.00     0.000 C 
HETATM   44  C21 UNL     1       0.547   5.665  12.690  1.00  0.00     0.000 C 
BRANCH  44  45
HETATM   45  C22 UNL     1       1.080   6.419  11.576  1.00  0.00     0.001 C 
HETATM   46  C23 UNL     1       0.358   6.683  10.476  1.00  0.00     0.009 C 
BRANCH  46  47
HETATM   47  C24 UNL     1       0.815   7.437   9.299  1.00  0.00    -0.034 C 
HETATM   48  C25 UNL     1      -0.068   8.604   8.887  1.00  0.00     0.050 C 
HETATM   49  C26 UNL     1       1.920   7.037   8.622  1.00  0.00     0.082 C 
HETATM   50  C27 UNL     1       2.882   5.925   8.878  1.00  0.00     0.075 C 
BRANCH  49  51
HETATM   51  N2  UNL     1       2.320   7.817   7.472  1.00  0.00    -0.120 N 
HETATM   52  O5  UNL     1       3.056   8.792   7.676  1.00  0.00    -0.532 OA
HETATM   53  O6  UNL     1       1.911   7.431   6.370  1.00  0.00    -0.532 OA
ENDBRANCH  49  51
ENDBRANCH  46  47
ENDBRANCH  44  45
ENDBRANCH  42  43
ENDBRANCH  37  40
ENDBRANCH  34  37
ENDBRANCH  31  34
ENDBRANCH  29  30
ENDBRANCH   2  29
TORSDOF 19
ENDMDL
MODEL 4
REMARK minimizedAffinity -8.02370071
REMARK CNNscore 0.271261603
REMARK CNNaffinity 6.60504723
REMARK  19 active torsions:
REMARK  status: ('A' for Active; 'I' for Inactive)
REMARK    1  A    between atoms: O1_2  and  C2_3 
REMARK    2  A    between atoms: C2_3  and  C3_4 
REMARK    3  A    between atoms: C2_3  and  C28_36 
REMARK    4  A    between atoms: C3_4  and  C4_5 
REMARK    5  A    between atoms: C4_5  and  C6_7 
REMARK    6  A    between atoms: C6_7  and  O2_8 
REMARK    7  A    between atoms: C6_7  and  C7_9 
REMARK    8  A    between atoms: C8_10  and  C9_11 
REMARK    9  A    between atoms: C10_12  and  C11_13 
REMARK   10  A    between atoms: C11_13  and  N1_14 
REMARK       I    between atoms: N1_14  and  C12_15 
REMARK   11  A    between atoms: C12_15  and  C13_17 
REMARK   12  A    between atoms: C13_17  and  C16_20 
REMARK   13  A    between atoms: C16_20  and  O4_21 
REMARK   14  A    between atoms: C16_20  and  C17_22 
REMARK   15  A    between atoms: C19_24  and  C20_25 
REMARK   16  A    between atoms: C21_26  and  C22_27 
REMARK   17  A    between atoms: C23_28  and  C24_29 
REMARK   18  A    between atoms: C26_31  and  N2_33 
REMARK   19  A    between atoms: C28_36  and  O7_37 
ROOT
HETATM    1  C9  UNL     1      -0.109  10.876  19.243  1.00  0.00    -0.003 C 
HETATM    2  C10 UNL     1      -0.940  11.789  18.722  1.00  0.00    -0.007 C 
ENDROOT
BRANCH   1   3
HETATM    3  C8  UNL     1       0.875  11.181  20.255  1.00  0.00    -0.002 C 
HETATM    4  C7  UNL     1       1.886  10.348  20.530  1.00  0.00     0.005 C 
BRANCH   4   5
HETATM    5  C6  UNL     1       2.977  10.661  21.513  1.00  0.00     0.144 C 
BRANCH   5   6
HETATM    6  C4  UNL     1       3.263  12.181  21.609  1.00  0.00     0.016 C 
HETATM    7  C5  UNL     1       3.502  12.673  23.045  1.00  0.00     0.013 C 
BRANCH   6   8
HETATM    8  C3  UNL     1       4.354  12.665  20.618  1.00  0.00     0.042 C 
BRANCH   8   9
HETATM    9  C2  UNL     1       5.852  12.468  20.999  1.00  0.00     0.159 C 
BRANCH   9  10
HETATM   10  O1  UNL     1       6.413  11.514  20.084  1.00  0.00    -0.388 OA
HETATM   11  C1  UNL     1       5.802  11.447  18.801  1.00  0.00     0.202 C 
ENDBRANCH   9  10
BRANCH   9  12
HETATM   12  C28 UNL     1       6.639  13.799  20.811  1.00  0.00     0.133 C 
HETATM   13  C29 UNL     1       6.204  14.996  21.709  1.00  0.00     0.114 C 
HETATM   14  C30 UNL     1       5.977  14.688  23.184  1.00  0.00     0.023 C 
HETATM   15  C31 UNL     1       7.377  15.948  21.563  1.00  0.00     0.227 C 
HETATM   16  O8  UNL     1       7.342  17.146  21.782  1.00  0.00    -0.273 OA
HETATM   17  N3  UNL     1       8.486  15.201  21.206  1.00  0.00    -0.332 N 
HETATM   18  C32 UNL     1       9.699  15.809  20.712  1.00  0.00     0.154 C 
HETATM   19  C33 UNL     1       8.168  13.744  21.035  1.00  0.00     0.183 C 
HETATM   20  C34 UNL     1       8.967  12.912  19.980  1.00  0.00     0.294 C 
HETATM   21  C35 UNL     1       9.046  12.884  22.025  1.00  0.00     0.169 C 
HETATM   22  O9  UNL     1       9.115  12.879  18.779  1.00  0.00    -0.262 OA
HETATM   23  O10 UNL     1       9.515  12.078  20.908  1.00  0.00    -0.311 OA
HETATM   24  C36 UNL     1       8.574  12.009  23.168  1.00  0.00     0.043 C 
BRANCH  12  25
HETATM   25  O7  UNL     1       6.370  14.262  19.455  1.00  0.00    -0.383 OA
HETATM   26  H42 UNL     1       6.833  13.669  18.821  1.00  0.00     0.210 HD
ENDBRANCH  12  25
ENDBRANCH   9  12
ENDBRANCH   8   9
ENDBRANCH   6   8
ENDBRANCH   5   6
BRANCH   5  27
HETATM   27  O2  UNL     1       4.140   9.969  21.068  1.00  0.00    -0.391 OA
HETATM   28  H12 UNL     1       4.395  10.326  20.201  1.00  0.00     0.210 HD
ENDBRANCH   5  27
ENDBRANCH   4   5
ENDBRANCH   1   3
BRANCH   2  29
HETATM   29  C11 UNL     1      -1.974  11.580  17.652  1.00  0.00     0.149 C 
BRANCH  29  30
HETATM   30  N1  UNL     1      -1.778  10.335  16.954  1.00  0.00    -0.357 N 
HETATM   31  C12 UNL     1      -1.336  10.301  15.653  1.00  0.00     0.228 C 
HETATM   32  O3  UNL     1      -1.085  11.336  15.041  1.00  0.00    -0.273 OA
HETATM   33  H19 UNL     1      -2.194   9.503  17.350  1.00  0.00     0.162 HD
BRANCH  31  34
HETATM   34  C13 UNL     1      -1.053   8.903  15.068  1.00  0.00     0.063 C 
HETATM   35  C14 UNL     1       0.102   8.193  15.800  1.00  0.00     0.028 C 
HETATM   36  C15 UNL     1      -0.646   9.130  13.593  1.00  0.00     0.028 C 
BRANCH  34  37
HETATM   37  C16 UNL     1      -2.336   8.005  15.096  1.00  0.00     0.164 C 
BRANCH  37  38
HETATM   38  O4  UNL     1      -2.145   6.804  15.849  1.00  0.00    -0.390 OA
HETATM   39  H27 UNL     1      -1.349   6.366  15.484  1.00  0.00     0.210 HD
ENDBRANCH  37  38
BRANCH  37  40
HETATM   40  C17 UNL     1      -2.989   7.655  13.757  1.00  0.00    -0.054 C 
HETATM   41  C18 UNL     1      -4.143   8.529  13.319  1.00  0.00     0.046 C 
HETATM   42  C19 UNL     1      -2.605   6.647  12.940  1.00  0.00     0.005 C 
BRANCH  42  43
HETATM   43  C20 UNL     1      -1.530   5.694  13.155  1.00  0.00     0.000 C 
HETATM   44  C21 UNL     1      -0.527   5.391  12.311  1.00  0.00     0.000 C 
BRANCH  44  45
HETATM   45  C22 UNL     1      -0.283   5.932  10.991  1.00  0.00     0.001 C 
HETATM   46  C23 UNL     1       0.600   6.920  10.772  1.00  0.00     0.009 C 
BRANCH  46  47
HETATM   47  C24 UNL     1       0.911   7.530   9.471  1.00  0.00    -0.034 C 
HETATM   48  C25 UNL     1      -0.097   8.553   8.971  1.00  0.00     0.050 C 
HETATM   49  C26 UNL     1       2.002   7.127   8.774  1.00  0.00     0.082 C 
HETATM   50  C27 UNL     1       3.074   6.143   9.106  1.00  0.00     0.075 C 
BRANCH  49  51
HETATM   51  N2  UNL     1       2.256   7.762   7.500  1.00  0.00    -0.120 N 
HETATM   52  O5  UNL     1       2.909   8.815   7.512  1.00  0.00    -0.532 OA
HETATM   53  O6  UNL     1       1.817   7.188   6.496  1.00  0.00    -0.532 OA
ENDBRANCH  49  51
ENDBRANCH  46  47
ENDBRANCH  44  45
ENDBRANCH  42  43
ENDBRANCH  37  40
ENDBRANCH  34  37
ENDBRANCH  31  34
ENDBRANCH  29  30
ENDBRANCH   2  29
TORSDOF 19
ENDMDL
MODEL 5
REMARK minimizedAffinity -8.18457127
REMARK CNNscore 0.266110063
REMARK CNNaffinity 6.28710938
REMARK  19 active torsions:
REMARK  status: ('A' for Active; 'I' for Inactive)
REMARK    1  A    between atoms: O1_2  and  C2_3 
REMARK    2  A    between atoms: C2_3  and  C3_4 
REMARK    3  A    between atoms: C2_3  and  C28_36 
REMARK    4  A    between atoms: C3_4  and  C4_5 
REMARK    5  A    between atoms: C4_5  and  C6_7 
REMARK    6  A    between atoms: C6_7  and  O2_8 
REMARK    7  A    between atoms: C6_7  and  C7_9 
REMARK    8  A    between atoms: C8_10  and  C9_11 
REMARK    9  A    between atoms: C10_12  and  C11_13 
REMARK   10  A    between atoms: C11_13  and  N1_14 
REMARK       I    between atoms: N1_14  and  C12_15 
REMARK   11  A    between atoms: C12_15  and  C13_17 
REMARK   12  A    between atoms: C13_17  and  C16_20 
REMARK   13  A    between atoms: C16_20  and  O4_21 
REMARK   14  A    between atoms: C16_20  and  C17_22 
REMARK   15  A    between atoms: C19_24  and  C20_25 
REMARK   16  A    between atoms: C21_26  and  C22_27 
REMARK   17  A    between atoms: C23_28  and  C24_29 
REMARK   18  A    between atoms: C26_31  and  N2_33 
REMARK   19  A    between atoms: C28_36  and  O7_37 
ROOT
HETATM    1  C9  UNL     1      -8.333   8.640  15.602  1.00  0.00    -0.003 C 
HETATM    2  C10 UNL     1      -8.370   7.495  16.298  1.00  0.00    -0.007 C 
ENDROOT
BRANCH   1   3
HETATM    3  C8  UNL     1      -9.513   9.309  15.107  1.00  0.00    -0.002 C 
HETATM    4  C7  UNL     1     -10.441   8.663  14.391  1.00  0.00     0.005 C 
BRANCH   4   5
HETATM    5  C6  UNL     1     -11.722   9.297  13.927  1.00  0.00     0.144 C 
BRANCH   5   6
HETATM    6  C4  UNL     1     -12.368   8.524  12.751  1.00  0.00     0.016 C 
HETATM    7  C5  UNL     1     -11.422   7.512  12.085  1.00  0.00     0.013 C 
BRANCH   6   8
HETATM    8  C3  UNL     1     -13.751   7.915  13.100  1.00  0.00     0.042 C 
BRANCH   8   9
HETATM    9  C2  UNL     1     -15.024   8.796  12.919  1.00  0.00     0.159 C 
BRANCH   9  10
HETATM   10  O1  UNL     1     -14.736   9.776  11.910  1.00  0.00    -0.388 OA
HETATM   11  C1  UNL     1     -14.636  11.122  12.359  1.00  0.00     0.202 C 
ENDBRANCH   9  10
BRANCH   9  12
HETATM   12  C28 UNL     1     -16.209   7.933  12.391  1.00  0.00     0.133 C 
HETATM   13  C29 UNL     1     -16.546   6.645  13.203  1.00  0.00     0.114 C 
HETATM   14  C30 UNL     1     -16.597   6.795  14.719  1.00  0.00     0.023 C 
HETATM   15  C31 UNL     1     -17.925   6.289  12.680  1.00  0.00     0.227 C 
HETATM   16  O8  UNL     1     -18.440   5.187  12.747  1.00  0.00    -0.273 OA
HETATM   17  N3  UNL     1     -18.502   7.446  12.185  1.00  0.00    -0.332 N 
HETATM   18  C32 UNL     1     -19.686   7.426  11.361  1.00  0.00     0.154 C 
HETATM   19  C33 UNL     1     -17.584   8.630  12.277  1.00  0.00     0.183 C 
HETATM   20  C34 UNL     1     -17.676   9.747  11.186  1.00  0.00     0.294 C 
HETATM   21  C35 UNL     1     -18.255   9.762  13.149  1.00  0.00     0.169 C 
HETATM   22  O9  UNL     1     -17.486   9.866   9.997  1.00  0.00    -0.262 OA
HETATM   23  O10 UNL     1     -18.052  10.715  12.069  1.00  0.00    -0.311 OA
HETATM   24  C36 UNL     1     -17.775  10.326  14.471  1.00  0.00     0.043 C 
BRANCH  12  25
HETATM   25  O7  UNL     1     -15.817   7.429  11.081  1.00  0.00    -0.383 OA
HETATM   26  H42 UNL     1     -15.819   8.177  10.441  1.00  0.00     0.210 HD
ENDBRANCH  12  25
ENDBRANCH   9  12
ENDBRANCH   8   9
ENDBRANCH   6   8
ENDBRANCH   5   6
BRANCH   5  27
HETATM   27  O2  UNL     1     -11.399  10.626  13.525  1.00  0.00    -0.391 OA
HETATM   28  H12 UNL     1     -10.790  10.577  12.770  1.00  0.00     0.210 HD
ENDBRANCH   5  27
ENDBRANCH   4   5
ENDBRANCH   1   3
BRANCH   2  29
HETATM   29  C11 UNL     1      -7.205   6.710  16.830  1.00  0.00     0.149 C 
BRANCH  29  30
HETATM   30  N1  UNL     1      -6.039   6.850  15.996  1.00  0.00    -0.357 N 
HETATM   31  C12 UNL     1      -5.777   5.970  14.972  1.00  0.00     0.228 C 
HETATM   32  O3  UNL     1      -6.536   5.035  14.730  1.00  0.00    -0.273 OA
HETATM   33  H19 UNL     1      -5.297   7.456  16.320  1.00  0.00     0.162 HD
BRANCH  31  34
HETATM   34  C13 UNL     1      -4.564   6.305  14.082  1.00  0.00     0.063 C 
HETATM   35  C14 UNL     1      -4.622   7.749  13.546  1.00  0.00     0.028 C 
HETATM   36  C15 UNL     1      -4.626   5.325  12.887  1.00  0.00     0.028 C 
BRANCH  34  37
HETATM   37  C16 UNL     1      -3.217   6.072  14.846  1.00  0.00     0.164 C 
BRANCH  37  38
HETATM   38  O4  UNL     1      -3.342   6.295  16.253  1.00  0.00    -0.390 OA
HETATM   39  H27 UNL     1      -3.723   7.191  16.364  1.00  0.00     0.210 HD
ENDBRANCH  37  38
BRANCH  37  40
HETATM   40  C17 UNL     1      -1.973   6.802  14.334  1.00  0.00    -0.054 C 
HETATM   41  C18 UNL     1      -1.643   8.120  14.997  1.00  0.00     0.046 C 
HETATM   42  C19 UNL     1      -1.149   6.354  13.358  1.00  0.00     0.005 C 
BRANCH  42  43
HETATM   43  C20 UNL     1      -1.269   5.124  12.594  1.00  0.00     0.000 C 
HETATM   44  C21 UNL     1      -0.575   4.775  11.496  1.00  0.00     0.000 C 
BRANCH  44  45
HETATM   45  C22 UNL     1       0.447   5.537  10.812  1.00  0.00     0.001 C 
HETATM   46  C23 UNL     1       1.757   5.306  10.995  1.00  0.00     0.009 C 
BRANCH  46  47
HETATM   47  C24 UNL     1       2.862   6.028  10.347  1.00  0.00    -0.034 C 
HETATM   48  C25 UNL     1       3.117   5.665   8.893  1.00  0.00     0.050 C 
HETATM   49  C26 UNL     1       3.616   6.900  11.060  1.00  0.00     0.082 C 
HETATM   50  C27 UNL     1       3.514   7.360  12.477  1.00  0.00     0.075 C 
BRANCH  49  51
HETATM   51  N2  UNL     1       4.690   7.579  10.370  1.00  0.00    -0.120 N 
HETATM   52  O5  UNL     1       4.411   8.634   9.785  1.00  0.00    -0.532 OA
HETATM   53  O6  UNL     1       5.811   7.059  10.439  1.00  0.00    -0.532 OA
ENDBRANCH  49  51
ENDBRANCH  46  47
ENDBRANCH  44  45
ENDBRANCH  42  43
ENDBRANCH  37  40
ENDBRANCH  34  37
ENDBRANCH  31  34
ENDBRANCH  29  30
ENDBRANCH   2  29
TORSDOF 19
ENDMDL
MODEL 6
REMARK minimizedAffinity -7.61140251
REMARK CNNscore 0.248599082
REMARK CNNaffinity 5.77037811
REMARK  19 active torsions:
REMARK  status: ('A' for Active; 'I' for Inactive)
REMARK    1  A    between atoms: O1_2  and  C2_3 
REMARK    2  A    between atoms: C2_3  and  C3_4 
REMARK    3  A    between atoms: C2_3  and  C28_36 
REMARK    4  A    between atoms: C3_4  and  C4_5 
REMARK    5  A    between atoms: C4_5  and  C6_7 
REMARK    6  A    between atoms: C6_7  and  O2_8 
REMARK    7  A    between atoms: C6_7  and  C7_9 
REMARK    8  A    between atoms: C8_10  and  C9_11 
REMARK    9  A    between atoms: C10_12  and  C11_13 
REMARK   10  A    between atoms: C11_13  and  N1_14 
REMARK       I    between atoms: N1_14  and  C12_15 
REMARK   11  A    between atoms: C12_15  and  C13_17 
REMARK   12  A    between atoms: C13_17  and  C16_20 
REMARK   13  A    between atoms: C16_20  and  O4_21 
REMARK   14  A    between atoms: C16_20  and  C17_22 
REMARK   15  A    between atoms: C19_24  and  C20_25 
REMARK   16  A    between atoms: C21_26  and  C22_27 
REMARK   17  A    between atoms: C23_28  and  C24_29 
REMARK   18  A    between atoms: C26_31  and  N2_33 
REMARK   19  A    between atoms: C28_36  and  O7_37 
ROOT
HETATM    1  C9  UNL     1      -1.121   8.972  15.189  1.00  0.00    -0.003 C 
HETATM    2  C10 UNL     1      -1.900   9.962  15.644  1.00  0.00    -0.007 C 
ENDROOT
BRANCH   1   3
HETATM    3  C8  UNL     1       0.315   8.958  15.335  1.00  0.00    -0.002 C 
HETATM    4  C7  UNL     1       1.080   8.058  14.704  1.00  0.00     0.005 C 
BRANCH   4   5
HETATM    5  C6  UNL     1       2.581   8.058  14.760  1.00  0.00     0.144 C 
BRANCH   5   6
HETATM    6  C4  UNL     1       3.221   8.240  13.362  1.00  0.00     0.016 C 
HETATM    7  C5  UNL     1       2.241   8.763  12.299  1.00  0.00     0.013 C 
BRANCH   6   8
HETATM    8  C3  UNL     1       4.553   9.033  13.393  1.00  0.00     0.042 C 
BRANCH   8   9
HETATM    9  C2  UNL     1       5.895   8.242  13.435  1.00  0.00     0.159 C 
BRANCH   9  10
HETATM   10  O1  UNL     1       6.793   8.854  12.497  1.00  0.00    -0.388 OA
HETATM   11  C1  UNL     1       6.254   9.134  11.210  1.00  0.00     0.202 C 
ENDBRANCH   9  10
BRANCH   9  12
HETATM   12  C28 UNL     1       6.553   8.364  14.843  1.00  0.00     0.133 C 
HETATM   13  C29 UNL     1       8.002   7.805  14.982  1.00  0.00     0.114 C 
HETATM   14  C30 UNL     1       8.980   8.178  13.876  1.00  0.00     0.023 C 
HETATM   15  C31 UNL     1       8.456   8.421  16.292  1.00  0.00     0.227 C 
HETATM   16  O8  UNL     1       9.364   8.002  16.988  1.00  0.00    -0.273 OA
HETATM   17  N3  UNL     1       7.704   9.563  16.507  1.00  0.00    -0.332 N 
HETATM   18  C32 UNL     1       7.673  10.237  17.783  1.00  0.00     0.154 C 
HETATM   19  C33 UNL     1       6.680   9.787  15.433  1.00  0.00     0.183 C 
HETATM   20  C34 UNL     1       5.327  10.476  15.808  1.00  0.00     0.294 C 
HETATM   21  C35 UNL     1       6.925  11.184  14.742  1.00  0.00     0.169 C 
HETATM   22  O9  UNL     1       4.356  10.248  16.494  1.00  0.00    -0.262 OA
HETATM   23  O10 UNL     1       5.543  11.557  15.005  1.00  0.00    -0.311 OA
HETATM   24  C36 UNL     1       7.297  11.457  13.299  1.00  0.00     0.043 C 
BRANCH  12  25
HETATM   25  O7  UNL     1       5.769   7.536  15.751  1.00  0.00    -0.383 OA
HETATM   26  H42 UNL     1       4.899   7.971  15.903  1.00  0.00     0.210 HD
ENDBRANCH  12  25
ENDBRANCH   9  12
ENDBRANCH   8   9
ENDBRANCH   6   8
ENDBRANCH   5   6
BRANCH   5  27
HETATM   27  O2  UNL     1       2.970   6.805  15.319  1.00  0.00    -0.391 OA
HETATM   28  H12 UNL     1       2.685   6.100  14.716  1.00  0.00     0.210 HD
ENDBRANCH   5  27
ENDBRANCH   4   5
ENDBRANCH   1   3
BRANCH   2  29
HETATM   29  C11 UNL     1      -3.392  10.084  15.519  1.00  0.00     0.149 C 
BRANCH  29  30
HETATM   30  N1  UNL     1      -4.040   8.798  15.565  1.00  0.00    -0.357 N 
HETATM   31  C12 UNL     1      -4.791   8.333  14.511  1.00  0.00     0.228 C 
HETATM   32  O3  UNL     1      -4.929   8.998  13.488  1.00  0.00    -0.273 OA
HETATM   33  H19 UNL     1      -4.134   8.349  16.466  1.00  0.00     0.162 HD
BRANCH  31  34
HETATM   34  C13 UNL     1      -5.326   6.893  14.642  1.00  0.00     0.063 C 
HETATM   35  C14 UNL     1      -4.269   5.934  15.223  1.00  0.00     0.028 C 
HETATM   36  C15 UNL     1      -5.682   6.436  13.207  1.00  0.00     0.028 C 
BRANCH  34  37
HETATM   37  C16 UNL     1      -6.626   6.847  15.514  1.00  0.00     0.164 C 
BRANCH  37  38
HETATM   38  O4  UNL     1      -6.388   6.315  16.821  1.00  0.00    -0.390 OA
HETATM   39  H27 UNL     1      -5.950   5.447  16.696  1.00  0.00     0.210 HD
ENDBRANCH  37  38
BRANCH  37  40
HETATM   40  C17 UNL     1      -7.860   6.168  14.917  1.00  0.00    -0.054 C 
HETATM   41  C18 UNL     1      -7.688   4.738  14.455  1.00  0.00     0.046 C 
HETATM   42  C19 UNL     1      -9.082   6.738  14.788  1.00  0.00     0.005 C 
BRANCH  42  43
HETATM   43  C20 UNL     1      -9.473   8.085  15.164  1.00  0.00     0.000 C 
HETATM   44  C21 UNL     1     -10.682   8.655  15.013  1.00  0.00     0.000 C 
BRANCH  44  45
HETATM   45  C22 UNL     1     -11.874   8.071  14.436  1.00  0.00     0.001 C 
HETATM   46  C23 UNL     1     -12.649   8.735  13.564  1.00  0.00     0.009 C 
BRANCH  46  47
HETATM   47  C24 UNL     1     -13.874   8.225  12.931  1.00  0.00    -0.034 C 
HETATM   48  C25 UNL     1     -13.989   6.711  12.854  1.00  0.00     0.050 C 
HETATM   49  C26 UNL     1     -14.780   9.088  12.408  1.00  0.00     0.082 C 
HETATM   50  C27 UNL     1     -14.820  10.580  12.388  1.00  0.00     0.075 C 
BRANCH  49  51
HETATM   51  N2  UNL     1     -15.965   8.528  11.797  1.00  0.00    -0.120 N 
HETATM   52  O5  UNL     1     -16.093   8.671  10.574  1.00  0.00    -0.532 OA
HETATM   53  O6  UNL     1     -16.746   7.929  12.546  1.00  0.00    -0.532 OA
ENDBRANCH  49  51
ENDBRANCH  46  47
ENDBRANCH  44  45
ENDBRANCH  42  43
ENDBRANCH  37  40
ENDBRANCH  34  37
ENDBRANCH  31  34
ENDBRANCH  29  30
ENDBRANCH   2  29
TORSDOF 19
ENDMDL
MODEL 7
REMARK minimizedAffinity -7.84863997
REMARK CNNscore 0.244908825
REMARK CNNaffinity 6.49696541
REMARK  19 active torsions:
REMARK  status: ('A' for Active; 'I' for Inactive)
REMARK    1  A    between atoms: O1_2  and  C2_3 
REMARK    2  A    between atoms: C2_3  and  C3_4 
REMARK    3  A    between atoms: C2_3  and  C28_36 
REMARK    4  A    between atoms: C3_4  and  C4_5 
REMARK    5  A    between atoms: C4_5  and  C6_7 
REMARK    6  A    between atoms: C6_7  and  O2_8 
REMARK    7  A    between atoms: C6_7  and  C7_9 
REMARK    8  A    between atoms: C8_10  and  C9_11 
REMARK    9  A    between atoms: C10_12  and  C11_13 
REMARK   10  A    between atoms: C11_13  and  N1_14 
REMARK       I    between atoms: N1_14  and  C12_15 
REMARK   11  A    between atoms: C12_15  and  C13_17 
REMARK   12  A    between atoms: C13_17  and  C16_20 
REMARK   13  A    between atoms: C16_20  and  O4_21 
REMARK   14  A    between atoms: C16_20  and  C17_22 
REMARK   15  A    between atoms: C19_24  and  C20_25 
REMARK   16  A    between atoms: C21_26  and  C22_27 
REMARK   17  A    between atoms: C23_28  and  C24_29 
REMARK   18  A    between atoms: C26_31  and  N2_33 
REMARK   19  A    between atoms: C28_36  and  O7_37 
ROOT
HETATM    1  C9  UNL     1       0.918  11.903  18.953  1.00  0.00    -0.003 C 
HETATM    2  C10 UNL     1      -0.305  11.794  18.418  1.00  0.00    -0.007 C 
ENDROOT
BRANCH   1   3
HETATM    3  C8  UNL     1       1.159  12.010  20.372  1.00  0.00    -0.002 C 
HETATM    4  C7  UNL     1       2.116  12.804  20.867  1.00  0.00     0.005 C 
BRANCH   4   5
HETATM    5  C6  UNL     1       2.347  13.010  22.337  1.00  0.00     0.144 C 
BRANCH   5   6
HETATM    6  C4  UNL     1       3.174  14.287  22.629  1.00  0.00     0.016 C 
HETATM    7  C5  UNL     1       2.553  15.190  23.708  1.00  0.00     0.013 C 
BRANCH   6   8
HETATM    8  C3  UNL     1       4.678  14.003  22.876  1.00  0.00     0.042 C 
BRANCH   8   9
HETATM    9  C2  UNL     1       5.729  14.669  21.938  1.00  0.00     0.159 C 
BRANCH   9  10
HETATM   10  O1  UNL     1       5.932  16.015  22.394  1.00  0.00    -0.388 OA
HETATM   11  C1  UNL     1       5.887  16.209  23.803  1.00  0.00     0.202 C 
ENDBRANCH   9  10
BRANCH   9  12
HETATM   12  C28 UNL     1       7.100  13.937  22.053  1.00  0.00     0.133 C 
HETATM   13  C29 UNL     1       7.181  12.775  23.090  1.00  0.00     0.114 C 
HETATM   14  C30 UNL     1       6.021  11.788  23.092  1.00  0.00     0.023 C 
HETATM   15  C31 UNL     1       8.454  12.063  22.672  1.00  0.00     0.227 C 
HETATM   16  O8  UNL     1       9.114  11.327  23.384  1.00  0.00    -0.273 OA
HETATM   17  N3  UNL     1       8.681  12.348  21.337  1.00  0.00    -0.332 N 
HETATM   18  C32 UNL     1       9.941  12.071  20.692  1.00  0.00     0.154 C 
HETATM   19  C33 UNL     1       7.653  13.282  20.767  1.00  0.00     0.183 C 
HETATM   20  C34 UNL     1       8.078  14.281  19.641  1.00  0.00     0.294 C 
HETATM   21  C35 UNL     1       6.921  12.595  19.549  1.00  0.00     0.169 C 
HETATM   22  O9  UNL     1       8.815  15.231  19.507  1.00  0.00    -0.262 OA
HETATM   23  O10 UNL     1       7.243  13.738  18.710  1.00  0.00    -0.311 OA
HETATM   24  C36 UNL     1       5.456  12.227  19.431  1.00  0.00     0.043 C 
BRANCH  12  25
HETATM   25  O7  UNL     1       8.062  14.914  22.546  1.00  0.00    -0.383 OA
HETATM   26  H42 UNL     1       8.247  15.564  21.830  1.00  0.00     0.210 HD
ENDBRANCH  12  25
ENDBRANCH   9  12
ENDBRANCH   8   9
ENDBRANCH   6   8
ENDBRANCH   5   6
BRANCH   5  27
HETATM   27  O2  UNL     1       3.040  11.857  22.808  1.00  0.00    -0.391 OA
HETATM   28  H12 UNL     1       3.903  11.817  22.365  1.00  0.00     0.210 HD
ENDBRANCH   5  27
ENDBRANCH   4   5
ENDBRANCH   1   3
BRANCH   2  29
HETATM   29  C11 UNL     1      -0.663  11.706  16.961  1.00  0.00     0.149 C 
BRANCH  29  30
HETATM   30  N1  UNL     1      -0.663  10.344  16.491  1.00  0.00    -0.357 N 
HETATM   31  C12 UNL     1      -1.819   9.728  16.074  1.00  0.00     0.228 C 
HETATM   32  O3  UNL     1      -2.894  10.322  16.080  1.00  0.00    -0.273 OA
HETATM   33  H19 UNL     1       0.147   9.775  16.695  1.00  0.00     0.162 HD
BRANCH  31  34
HETATM   34  C13 UNL     1      -1.658   8.314  15.481  1.00  0.00     0.063 C 
HETATM   35  C14 UNL     1      -2.728   7.340  16.011  1.00  0.00     0.028 C 
HETATM   36  C15 UNL     1      -0.263   7.817  15.930  1.00  0.00     0.028 C 
BRANCH  34  37
HETATM   37  C16 UNL     1      -1.693   8.346  13.915  1.00  0.00     0.164 C 
BRANCH  37  38
HETATM   38  O4  UNL     1      -1.667   9.679  13.397  1.00  0.00    -0.390 OA
HETATM   39  H27 UNL     1      -2.399  10.165  13.831  1.00  0.00     0.210 HD
ENDBRANCH  37  38
BRANCH  37  40
HETATM   40  C17 UNL     1      -2.800   7.559  13.212  1.00  0.00    -0.054 C 
HETATM   41  C18 UNL     1      -4.078   8.310  12.914  1.00  0.00     0.046 C 
HETATM   42  C19 UNL     1      -2.715   6.264  12.825  1.00  0.00     0.005 C 
BRANCH  42  43
HETATM   43  C20 UNL     1      -1.592   5.360  13.004  1.00  0.00     0.000 C 
HETATM   44  C21 UNL     1      -0.564   5.160  12.160  1.00  0.00     0.000 C 
BRANCH  44  45
HETATM   45  C22 UNL     1      -0.333   5.787  10.876  1.00  0.00     0.001 C 
HETATM   46  C23 UNL     1       0.601   6.736  10.699  1.00  0.00     0.009 C 
BRANCH  46  47
HETATM   47  C24 UNL     1       0.904   7.427   9.438  1.00  0.00    -0.034 C 
HETATM   48  C25 UNL     1      -0.087   8.506   9.029  1.00  0.00     0.050 C 
HETATM   49  C26 UNL     1       1.971   7.048   8.692  1.00  0.00     0.082 C 
HETATM   50  C27 UNL     1       3.024   6.018   8.935  1.00  0.00     0.075 C 
BRANCH  49  51
HETATM   51  N2  UNL     1       2.218   7.764   7.461  1.00  0.00    -0.120 N 
HETATM   52  O5  UNL     1       2.903   8.793   7.531  1.00  0.00    -0.532 OA
HETATM   53  O6  UNL     1       1.742   7.274   6.429  1.00  0.00    -0.532 OA
ENDBRANCH  49  51
ENDBRANCH  46  47
ENDBRANCH  44  45
ENDBRANCH  42  43
ENDBRANCH  37  40
ENDBRANCH  34  37
ENDBRANCH  31  34
ENDBRANCH  29  30
ENDBRANCH   2  29
TORSDOF 19
ENDMDL
MODEL 8
REMARK minimizedAffinity -8.25499153
REMARK CNNscore 0.243362695
REMARK CNNaffinity 6.41470098
REMARK  19 active torsions:
REMARK  status: ('A' for Active; 'I' for Inactive)
REMARK    1  A    between atoms: O1_2  and  C2_3 
REMARK    2  A    between atoms: C2_3  and  C3_4 
REMARK    3  A    between atoms: C2_3  and  C28_36 
REMARK    4  A    between atoms: C3_4  and  C4_5 
REMARK    5  A    between atoms: C4_5  and  C6_7 
REMARK    6  A    between atoms: C6_7  and  O2_8 
REMARK    7  A    between atoms: C6_7  and  C7_9 
REMARK    8  A    between atoms: C8_10  and  C9_11 
REMARK    9  A    between atoms: C10_12  and  C11_13 
REMARK   10  A    between atoms: C11_13  and  N1_14 
REMARK       I    between atoms: N1_14  and  C12_15 
REMARK   11  A    between atoms: C12_15  and  C13_17 
REMARK   12  A    between atoms: C13_17  and  C16_20 
REMARK   13  A    between atoms: C16_20  and  O4_21 
REMARK   14  A    between atoms: C16_20  and  C17_22 
REMARK   15  A    between atoms: C19_24  and  C20_25 
REMARK   16  A    between atoms: C21_26  and  C22_27 
REMARK   17  A    between atoms: C23_28  and  C24_29 
REMARK   18  A    between atoms: C26_31  and  N2_33 
REMARK   19  A    between atoms: C28_36  and  O7_37 
ROOT
HETATM    1  C9  UNL     1      -0.257  10.818  19.261  1.00  0.00    -0.003 C 
HETATM    2  C10 UNL     1      -1.120  11.686  18.717  1.00  0.00    -0.007 C 
ENDROOT
BRANCH   1   3
HETATM    3  C8  UNL     1       0.795  11.206  20.170  1.00  0.00    -0.002 C 
HETATM    4  C7  UNL     1       1.738  10.344  20.568  1.00  0.00     0.005 C 
BRANCH   4   5
HETATM    5  C6  UNL     1       2.897  10.725  21.445  1.00  0.00     0.144 C 
BRANCH   5   6
HETATM    6  C4  UNL     1       3.151  12.253  21.451  1.00  0.00     0.016 C 
HETATM    7  C5  UNL     1       2.913  12.911  22.820  1.00  0.00     0.013 C 
BRANCH   6   8
HETATM    8  C3  UNL     1       4.509  12.654  20.820  1.00  0.00     0.042 C 
BRANCH   8   9
HETATM    9  C2  UNL     1       5.824  12.213  21.530  1.00  0.00     0.159 C 
BRANCH   9  10
HETATM   10  O1  UNL     1       6.777  11.872  20.512  1.00  0.00    -0.388 OA
HETATM   11  C1  UNL     1       6.239  11.331  19.311  1.00  0.00     0.202 C 
ENDBRANCH   9  10
BRANCH   9  12
HETATM   12  C28 UNL     1       6.427  13.401  22.339  1.00  0.00     0.133 C 
HETATM   13  C29 UNL     1       7.745  13.109  23.121  1.00  0.00     0.114 C 
HETATM   14  C30 UNL     1       8.824  12.344  22.366  1.00  0.00     0.023 C 
HETATM   15  C31 UNL     1       8.241  14.507  23.442  1.00  0.00     0.227 C 
HETATM   16  O8  UNL     1       9.026  14.788  24.330  1.00  0.00    -0.273 OA
HETATM   17  N3  UNL     1       7.697  15.374  22.510  1.00  0.00    -0.332 N 
HETATM   18  C32 UNL     1       7.728  16.807  22.679  1.00  0.00     0.154 C 
HETATM   19  C33 UNL     1       6.780  14.680  21.545  1.00  0.00     0.183 C 
HETATM   20  C34 UNL     1       5.557  15.462  20.964  1.00  0.00     0.294 C 
HETATM   21  C35 UNL     1       7.303  14.879  20.070  1.00  0.00     0.169 C 
HETATM   22  O9  UNL     1       4.531  15.961  21.367  1.00  0.00    -0.262 OA
HETATM   23  O10 UNL     1       6.000  15.394  19.678  1.00  0.00    -0.311 OA
HETATM   24  C36 UNL     1       7.785  13.819  19.101  1.00  0.00     0.043 C 
BRANCH  12  25
HETATM   25  O7  UNL     1       5.466  13.734  23.383  1.00  0.00    -0.383 OA
HETATM   26  H42 UNL     1       4.683  14.160  22.967  1.00  0.00     0.210 HD
ENDBRANCH  12  25
ENDBRANCH   9  12
ENDBRANCH   8   9
ENDBRANCH   6   8
ENDBRANCH   5   6
BRANCH   5  27
HETATM   27  O2  UNL     1       4.038  10.039  20.935  1.00  0.00    -0.391 OA
HETATM   28  H12 UNL     1       4.213  10.363  20.037  1.00  0.00     0.210 HD
ENDBRANCH   5  27
ENDBRANCH   4   5
ENDBRANCH   1   3
BRANCH   2  29
HETATM   29  C11 UNL     1      -2.226  11.388  17.744  1.00  0.00     0.149 C 
BRANCH  29  30
HETATM   30  N1  UNL     1      -1.977  10.178  17.004  1.00  0.00    -0.357 N 
HETATM   31  C12 UNL     1      -1.699  10.202  15.658  1.00  0.00     0.228 C 
HETATM   32  O3  UNL     1      -1.646  11.261  15.039  1.00  0.00    -0.273 OA
HETATM   33  H19 UNL     1      -2.242   9.301  17.431  1.00  0.00     0.162 HD
BRANCH  31  34
HETATM   34  C13 UNL     1      -1.332   8.849  15.016  1.00  0.00     0.063 C 
HETATM   35  C14 UNL     1      -0.146   8.172  15.731  1.00  0.00     0.028 C 
HETATM   36  C15 UNL     1      -0.923   9.163  13.557  1.00  0.00     0.028 C 
BRANCH  34  37
HETATM   37  C16 UNL     1      -2.563   7.880  14.988  1.00  0.00     0.164 C 
BRANCH  37  38
HETATM   38  O4  UNL     1      -2.344   6.698  15.764  1.00  0.00    -0.390 OA
HETATM   39  H27 UNL     1      -1.507   6.302  15.445  1.00  0.00     0.210 HD
ENDBRANCH  37  38
BRANCH  37  40
HETATM   40  C17 UNL     1      -3.125   7.483  13.622  1.00  0.00    -0.054 C 
HETATM   41  C18 UNL     1      -4.314   8.273  13.124  1.00  0.00     0.046 C 
HETATM   42  C19 UNL     1      -2.633   6.502  12.829  1.00  0.00     0.005 C 
BRANCH  42  43
HETATM   43  C20 UNL     1      -1.506   5.626  13.101  1.00  0.00     0.000 C 
HETATM   44  C21 UNL     1      -0.461   5.368  12.294  1.00  0.00     0.000 C 
BRANCH  44  45
HETATM   45  C22 UNL     1      -0.212   5.890  10.967  1.00  0.00     0.001 C 
HETATM   46  C23 UNL     1       0.598   6.938  10.749  1.00  0.00     0.009 C 
BRANCH  46  47
HETATM   47  C24 UNL     1       0.907   7.536   9.442  1.00  0.00    -0.034 C 
HETATM   48  C25 UNL     1      -0.124   8.519   8.912  1.00  0.00     0.050 C 
HETATM   49  C26 UNL     1       2.018   7.153   8.764  1.00  0.00     0.082 C 
HETATM   50  C27 UNL     1       3.114   6.208   9.127  1.00  0.00     0.075 C 
BRANCH  49  51
HETATM   51  N2  UNL     1       2.269   7.775   7.483  1.00  0.00    -0.120 N 
HETATM   52  O5  UNL     1       2.922   8.827   7.481  1.00  0.00    -0.532 OA
HETATM   53  O6  UNL     1       1.829   7.189   6.486  1.00  0.00    -0.532 OA
ENDBRANCH  49  51
ENDBRANCH  46  47
ENDBRANCH  44  45
ENDBRANCH  42  43
ENDBRANCH  37  40
ENDBRANCH  34  37
ENDBRANCH  31  34
ENDBRANCH  29  30
ENDBRANCH   2  29
TORSDOF 19
ENDMDL
MODEL 9
REMARK minimizedAffinity -8.36875439
REMARK CNNscore 0.218474522
REMARK CNNaffinity 6.6674571
REMARK  19 active torsions:
REMARK  status: ('A' for Active; 'I' for Inactive)
REMARK    1  A    between atoms: O1_2  and  C2_3 
REMARK    2  A    between atoms: C2_3  and  C3_4 
REMARK    3  A    between atoms: C2_3  and  C28_36 
REMARK    4  A    between atoms: C3_4  and  C4_5 
REMARK    5  A    between atoms: C4_5  and  C6_7 
REMARK    6  A    between atoms: C6_7  and  O2_8 
REMARK    7  A    between atoms: C6_7  and  C7_9 
REMARK    8  A    between atoms: C8_10  and  C9_11 
REMARK    9  A    between atoms: C10_12  and  C11_13 
REMARK   10  A    between atoms: C11_13  and  N1_14 
REMARK       I    between atoms: N1_14  and  C12_15 
REMARK   11  A    between atoms: C12_15  and  C13_17 
REMARK   12  A    between atoms: C13_17  and  C16_20 
REMARK   13  A    between atoms: C16_20  and  O4_21 
REMARK   14  A    between atoms: C16_20  and  C17_22 
REMARK   15  A    between atoms: C19_24  and  C20_25 
REMARK   16  A    between atoms: C21_26  and  C22_27 
REMARK   17  A    between atoms: C23_28  and  C24_29 
REMARK   18  A    between atoms: C26_31  and  N2_33 
REMARK   19  A    between atoms: C28_36  and  O7_37 
ROOT
HETATM    1  C9  UNL     1      -1.704   4.711  11.888  1.00  0.00    -0.003 C 
HETATM    2  C10 UNL     1      -2.359   3.544  11.964  1.00  0.00    -0.007 C 
ENDROOT
BRANCH   1   3
HETATM    3  C8  UNL     1      -0.302   4.818  11.563  1.00  0.00    -0.002 C 
HETATM    4  C7  UNL     1       0.201   5.899  10.955  1.00  0.00     0.005 C 
BRANCH   4   5
HETATM    5  C6  UNL     1       1.664   6.089  10.674  1.00  0.00     0.144 C 
BRANCH   5   6
HETATM    6  C4  UNL     1       2.037   7.580  10.481  1.00  0.00     0.016 C 
HETATM    7  C5  UNL     1       1.383   8.224   9.247  1.00  0.00     0.013 C 
BRANCH   6   8
HETATM    8  C3  UNL     1       1.862   8.430  11.766  1.00  0.00     0.042 C 
BRANCH   8   9
HETATM    9  C2  UNL     1       3.067   9.279  12.271  1.00  0.00     0.159 C 
BRANCH   9  10
HETATM   10  O1  UNL     1       2.804   9.642  13.635  1.00  0.00    -0.388 OA
HETATM   11  C1  UNL     1       1.649   9.057  14.224  1.00  0.00     0.202 C 
ENDBRANCH   9  10
BRANCH   9  12
HETATM   12  C28 UNL     1       4.371   8.425  12.271  1.00  0.00     0.133 C 
HETATM   13  C29 UNL     1       4.925   8.004  10.875  1.00  0.00     0.114 C 
HETATM   14  C30 UNL     1       4.972   9.092   9.810  1.00  0.00     0.023 C 
HETATM   15  C31 UNL     1       6.336   7.560  11.213  1.00  0.00     0.227 C 
HETATM   16  O8  UNL     1       7.025   6.825  10.528  1.00  0.00    -0.273 OA
HETATM   17  N3  UNL     1       6.709   8.190  12.387  1.00  0.00    -0.332 N 
HETATM   18  C32 UNL     1       7.869   7.787  13.145  1.00  0.00     0.154 C 
HETATM   19  C33 UNL     1       5.611   9.042  12.956  1.00  0.00     0.183 C 
HETATM   20  C34 UNL     1       5.504   9.205  14.507  1.00  0.00     0.294 C 
HETATM   21  C35 UNL     1       6.100  10.538  13.073  1.00  0.00     0.169 C 
HETATM   22  O9  UNL     1       5.280   8.513  15.475  1.00  0.00    -0.262 OA
HETATM   23  O10 UNL     1       5.729  10.549  14.480  1.00  0.00    -0.311 OA
HETATM   24  C36 UNL     1       5.553  11.756  12.357  1.00  0.00     0.043 C 
BRANCH  12  25
HETATM   25  O7  UNL     1       4.048   7.158  12.916  1.00  0.00    -0.383 OA
HETATM   26  H42 UNL     1       3.919   7.318  13.879  1.00  0.00     0.210 HD
ENDBRANCH  12  25
ENDBRANCH   9  12
ENDBRANCH   8   9
ENDBRANCH   6   8
ENDBRANCH   5   6
BRANCH   5  27
HETATM   27  O2  UNL     1       1.952   5.353   9.488  1.00  0.00    -0.391 OA
HETATM   28  H12 UNL     1       1.445   5.742   8.756  1.00  0.00     0.210 HD
ENDBRANCH   5  27
ENDBRANCH   4   5
ENDBRANCH   1   3
BRANCH   2  29
HETATM   29  C11 UNL     1      -3.802   3.324  12.320  1.00  0.00     0.149 C 
BRANCH  29  30
HETATM   30  N1  UNL     1      -4.401   4.509  12.880  1.00  0.00    -0.357 N 
HETATM   31  C12 UNL     1      -5.662   4.487  13.427  1.00  0.00     0.228 C 
HETATM   32  O3  UNL     1      -6.320   3.451  13.463  1.00  0.00    -0.273 OA
HETATM   33  H19 UNL     1      -3.983   5.401  12.652  1.00  0.00     0.162 HD
BRANCH  31  34
HETATM   34  C13 UNL     1      -6.133   5.792  14.099  1.00  0.00     0.063 C 
HETATM   35  C14 UNL     1      -5.868   7.026  13.216  1.00  0.00     0.028 C 
HETATM   36  C15 UNL     1      -5.310   5.923  15.403  1.00  0.00     0.028 C 
BRANCH  34  37
HETATM   37  C16 UNL     1      -7.651   5.720  14.477  1.00  0.00     0.164 C 
BRANCH  37  38
HETATM   38  O4  UNL     1      -7.968   4.555  15.245  1.00  0.00    -0.390 OA
HETATM   39  H27 UNL     1      -7.638   3.785  14.737  1.00  0.00     0.210 HD
ENDBRANCH  37  38
BRANCH  37  40
HETATM   40  C17 UNL     1      -8.673   5.866  13.348  1.00  0.00    -0.054 C 
HETATM   41  C18 UNL     1      -8.335   5.190  12.039  1.00  0.00     0.046 C 
HETATM   42  C19 UNL     1      -9.849   6.532  13.438  1.00  0.00     0.005 C 
BRANCH  42  43
HETATM   43  C20 UNL     1     -10.375   7.247  14.588  1.00  0.00     0.000 C 
HETATM   44  C21 UNL     1     -11.612   7.752  14.738  1.00  0.00     0.000 C 
BRANCH  44  45
HETATM   45  C22 UNL     1     -12.708   7.714  13.794  1.00  0.00     0.001 C 
HETATM   46  C23 UNL     1     -13.879   8.327  14.027  1.00  0.00     0.009 C 
BRANCH  46  47
HETATM   47  C24 UNL     1     -15.044   8.340  13.131  1.00  0.00    -0.034 C 
HETATM   48  C25 UNL     1     -15.733   6.999  12.934  1.00  0.00     0.050 C 
HETATM   49  C26 UNL     1     -15.401   9.484  12.496  1.00  0.00     0.082 C 
HETATM   50  C27 UNL     1     -14.838  10.865  12.565  1.00  0.00     0.075 C 
BRANCH  49  51
HETATM   51  N2  UNL     1     -16.555   9.435  11.625  1.00  0.00    -0.120 N 
HETATM   52  O5  UNL     1     -17.658   9.678  12.132  1.00  0.00    -0.532 OA
HETATM   53  O6  UNL     1     -16.341   9.177  10.434  1.00  0.00    -0.532 OA
ENDBRANCH  49  51
ENDBRANCH  46  47
ENDBRANCH  44  45
ENDBRANCH  42  43
ENDBRANCH  37  40
ENDBRANCH  34  37
ENDBRANCH  31  34
ENDBRANCH  29  30
ENDBRANCH   2  29
TORSDOF 19
ENDMDL
