MODEL 1
REMARK minimizedAffinity -8.81923008
REMARK CNNscore 0.571084678
REMARK CNNaffinity 6.81073999
REMARK  12 active torsions:
REMARK  status: ('A' for Active; 'I' for Inactive)
REMARK    1  A    between atoms: C3_3  and  O1_4 
REMARK    2  A    between atoms: N1_14  and  O2_16 
REMARK    3  A    between atoms: O2_16  and  C13_17 
REMARK    4  A    between atoms: C13_17  and  C14_18 
REMARK       I    between atoms: C14_18  and  N2_20 
REMARK    5  A    between atoms: N2_20  and  C15_21 
REMARK    6  A    between atoms: C15_21  and  C16_22 
REMARK    7  A    between atoms: C15_21  and  C27_38 
REMARK       I    between atoms: C16_22  and  N3_24 
REMARK    8  A    between atoms: N3_24  and  C17_25 
REMARK    9  A    between atoms: C17_25  and  C18_26 
REMARK   10  A    between atoms: C17_25  and  C20_30 
REMARK   11  A    between atoms: C18_26  and  C19_27 
REMARK   12  A    between atoms: C19_27  and  O6_29 
ROOT
HETATM    1  C1  UNL     1       0.013  55.560 -27.024  1.00  0.00     0.015 C 
HETATM    2  C2  UNL     1      -0.371  54.422 -27.039  1.00  0.00    -0.078 C 
HETATM    3  C3  UNL     1      -0.840  53.027 -27.073  1.00  0.00     0.128 C 
HETATM    4  C4  UNL     1       0.274  52.069 -27.506  1.00  0.00     0.052 C 
HETATM    5  C5  UNL     1      -0.296  50.707 -27.131  1.00  0.00     0.010 C 
HETATM    6  C6  UNL     1      -0.874  50.941 -25.733  1.00  0.00     0.002 C 
HETATM    7  C7  UNL     1      -1.888  49.888 -25.221  1.00  0.00    -0.004 C 
HETATM    8  C8  UNL     1      -2.883  49.326 -26.252  1.00  0.00     0.010 C 
HETATM    9  C9  UNL     1      -3.797  48.260 -25.641  1.00  0.00     0.035 C 
HETATM   10  C10 UNL     1      -4.455  48.679 -24.344  1.00  0.00    -0.069 C 
HETATM   11  C11 UNL     1      -5.763  48.428 -24.144  1.00  0.00     0.030 C 
HETATM   12  C12 UNL     1      -6.420  48.690 -22.829  1.00  0.00     0.032 C 
HETATM   13  N1  UNL     1      -7.687  48.578 -22.571  1.00  0.00    -0.271 N 
ATOM     14  H1  UNL     1      -8.101  48.763 -21.656  1.00  0.00     0.194 HD
HETATM   15  C30 UNL     1      -5.519  49.067 -21.670  1.00  0.00     0.060 C 
HETATM   16  C31 UNL     1      -4.387  49.964 -22.148  1.00  0.00     0.020 C 
HETATM   17  C32 UNL     1      -3.551  49.332 -23.300  1.00  0.00    -0.016 C 
HETATM   18  C33 UNL     1      -2.656  48.230 -22.674  1.00  0.00     0.020 C 
HETATM   19  C34 UNL     1      -2.640  50.429 -23.979  1.00  0.00     0.002 C 
HETATM   20  C35 UNL     1      -3.399  51.743 -24.321  1.00  0.00     0.007 C 
HETATM   21  C36 UNL     1      -2.844  52.557 -25.493  1.00  0.00     0.014 C 
HETATM   22  C37 UNL     1      -1.322  52.442 -25.690  1.00  0.00     0.003 C 
HETATM   23  C38 UNL     1      -0.608  53.132 -24.495  1.00  0.00     0.020 C 
ENDROOT
BRANCH   3  24
HETATM   24  O1  UNL     1      -1.876  52.932 -28.054  1.00  0.00    -0.377 OA
HETATM   25  H2  UNL     1      -1.565  53.400 -28.847  1.00  0.00     0.211 HD
ENDBRANCH   3  24
BRANCH  13  26
HETATM   26  O2  UNL     1      -8.421  48.172 -23.698  1.00  0.00    -0.271 OA
BRANCH  26  27
HETATM   27  C13 UNL     1      -9.449  47.291 -23.271  1.00  0.00     0.303 C 
BRANCH  27  28
HETATM   28  C14 UNL     1     -10.223  46.751 -24.476  1.00  0.00     0.244 C 
HETATM   29  O3  UNL     1      -9.718  46.657 -25.590  1.00  0.00    -0.271 OA
HETATM   30  N2  UNL     1     -11.533  46.395 -24.186  1.00  0.00    -0.346 N 
HETATM   31  H16 UNL     1     -11.757  46.329 -23.201  1.00  0.00     0.163 HD
BRANCH  30  32
HETATM   32  C15 UNL     1     -12.369  45.550 -25.054  1.00  0.00     0.180 C 
BRANCH  32  33
HETATM   33  C16 UNL     1     -13.728  46.286 -25.224  1.00  0.00     0.241 C 
HETATM   34  O4  UNL     1     -13.836  47.409 -25.712  1.00  0.00    -0.271 OA
HETATM   35  N3  UNL     1     -14.831  45.547 -24.847  1.00  0.00    -0.354 N 
HETATM   36  H18 UNL     1     -14.692  44.602 -24.490  1.00  0.00     0.162 HD
BRANCH  35  37
HETATM   37  C17 UNL     1     -16.198  46.002 -25.043  1.00  0.00     0.098 C 
BRANCH  37  38
HETATM   38  C18 UNL     1     -16.822  46.631 -23.786  1.00  0.00     0.135 C 
BRANCH  38  39
HETATM   39  C19 UNL     1     -18.296  46.917 -23.839  1.00  0.00     0.141 C 
HETATM   40  O5  UNL     1     -18.943  47.407 -24.746  1.00  0.00    -0.650 OA
BRANCH  39  41
HETATM   41  O6  UNL     1     -18.913  46.545 -22.695  1.00  0.00    -0.776 OA
HETATM   42  H22 UNL     1     -19.859  46.729 -22.862  1.00  0.00     0.167 HD
ENDBRANCH  39  41
ENDBRANCH  38  39
ENDBRANCH  37  38
BRANCH  37  43
HETATM   43  C20 UNL     1     -17.108  44.977 -25.794  1.00  0.00     0.014 C 
HETATM   44  C21 UNL     1     -17.020  43.509 -25.374  1.00  0.00     0.033 C 
HETATM   45  C22 UNL     1     -15.733  42.821 -25.819  1.00  0.00     0.169 C 
HETATM   46  O7  UNL     1     -15.018  43.569 -26.805  1.00  0.00    -0.381 OA
HETATM   47  C23 UNL     1     -15.825  44.090 -27.874  1.00  0.00     0.054 C 
HETATM   48  C24 UNL     1     -16.445  42.944 -28.690  1.00  0.00     0.045 C 
HETATM   49  C25 UNL     1     -14.867  44.859 -28.795  1.00  0.00     0.045 C 
HETATM   50  C26 UNL     1     -16.909  45.054 -27.326  1.00  0.00     0.044 C 
ENDBRANCH  37  43
ENDBRANCH  35  37
ENDBRANCH  32  33
BRANCH  32  51
HETATM   51  C27 UNL     1     -12.501  44.060 -24.655  1.00  0.00     0.009 C 
HETATM   52  C28 UNL     1     -11.634  43.149 -25.530  1.00  0.00     0.012 C 
HETATM   53  C29 UNL     1     -12.107  43.842 -23.187  1.00  0.00     0.012 C 
ENDBRANCH  32  51
ENDBRANCH  30  32
ENDBRANCH  27  28
ENDBRANCH  26  27
ENDBRANCH  13  26
TORSDOF 12
ENDMDL
MODEL 2
REMARK minimizedAffinity -9.53028011
REMARK CNNscore 0.360779881
REMARK CNNaffinity 6.44465828
REMARK  12 active torsions:
REMARK  status: ('A' for Active; 'I' for Inactive)
REMARK    1  A    between atoms: C3_3  and  O1_4 
REMARK    2  A    between atoms: N1_14  and  O2_16 
REMARK    3  A    between atoms: O2_16  and  C13_17 
REMARK    4  A    between atoms: C13_17  and  C14_18 
REMARK       I    between atoms: C14_18  and  N2_20 
REMARK    5  A    between atoms: N2_20  and  C15_21 
REMARK    6  A    between atoms: C15_21  and  C16_22 
REMARK    7  A    between atoms: C15_21  and  C27_38 
REMARK       I    between atoms: C16_22  and  N3_24 
REMARK    8  A    between atoms: N3_24  and  C17_25 
REMARK    9  A    between atoms: C17_25  and  C18_26 
REMARK   10  A    between atoms: C17_25  and  C20_30 
REMARK   11  A    between atoms: C18_26  and  C19_27 
REMARK   12  A    between atoms: C19_27  and  O6_29 
ROOT
HETATM    1  C1  UNL     1       0.618  55.421 -24.992  1.00  0.00     0.015 C 
HETATM    2  C2  UNL     1       0.166  54.358 -25.321  1.00  0.00    -0.078 C 
HETATM    3  C3  UNL     1      -0.384  53.057 -25.739  1.00  0.00     0.128 C 
HETATM    4  C4  UNL     1       0.725  52.082 -26.147  1.00  0.00     0.052 C 
HETATM    5  C5  UNL     1      -0.006  50.747 -26.185  1.00  0.00     0.010 C 
HETATM    6  C6  UNL     1      -0.845  50.768 -24.904  1.00  0.00     0.002 C 
HETATM    7  C7  UNL     1      -2.016  49.757 -24.831  1.00  0.00    -0.004 C 
HETATM    8  C8  UNL     1      -2.811  49.521 -26.127  1.00  0.00     0.010 C 
HETATM    9  C9  UNL     1      -3.906  48.467 -25.942  1.00  0.00     0.035 C 
HETATM   10  C10 UNL     1      -4.789  48.698 -24.734  1.00  0.00    -0.069 C 
HETATM   11  C11 UNL     1      -6.124  48.562 -24.844  1.00  0.00     0.030 C 
HETATM   12  C12 UNL     1      -7.021  48.636 -23.653  1.00  0.00     0.032 C 
HETATM   13  N1  UNL     1      -8.319  48.619 -23.669  1.00  0.00    -0.271 N 
ATOM     14  H1  UNL     1      -8.900  48.669 -22.832  1.00  0.00     0.194 HD
HETATM   15  C30 UNL     1      -6.358  48.678 -22.291  1.00  0.00     0.060 C 
HETATM   16  C31 UNL     1      -5.091  49.517 -22.343  1.00  0.00     0.020 C 
HETATM   17  C32 UNL     1      -4.079  49.030 -23.423  1.00  0.00    -0.016 C 
HETATM   18  C33 UNL     1      -3.415  47.734 -22.888  1.00  0.00     0.020 C 
HETATM   19  C34 UNL     1      -2.971  50.129 -23.667  1.00  0.00     0.002 C 
HETATM   20  C35 UNL     1      -3.546  51.560 -23.860  1.00  0.00     0.007 C 
HETATM   21  C36 UNL     1      -2.702  52.518 -24.706  1.00  0.00     0.014 C 
HETATM   22  C37 UNL     1      -1.185  52.274 -24.630  1.00  0.00     0.003 C 
HETATM   23  C38 UNL     1      -0.689  52.634 -23.202  1.00  0.00     0.020 C 
ENDROOT
BRANCH   3  24
HETATM   24  O1  UNL     1      -1.196  53.272 -26.896  1.00  0.00    -0.377 OA
HETATM   25  H2  UNL     1      -0.694  53.847 -27.498  1.00  0.00     0.211 HD
ENDBRANCH   3  24
BRANCH  13  26
HETATM   26  O2  UNL     1      -8.829  48.525 -24.975  1.00  0.00    -0.271 OA
BRANCH  26  27
HETATM   27  C13 UNL     1      -9.645  47.367 -25.057  1.00  0.00     0.303 C 
BRANCH  27  28
HETATM   28  C14 UNL     1     -11.031  47.727 -25.597  1.00  0.00     0.244 C 
HETATM   29  O3  UNL     1     -11.231  48.737 -26.266  1.00  0.00    -0.271 OA
HETATM   30  N2  UNL     1     -12.021  46.818 -25.252  1.00  0.00    -0.346 N 
HETATM   31  H16 UNL     1     -11.690  45.937 -24.879  1.00  0.00     0.163 HD
BRANCH  30  32
HETATM   32  C15 UNL     1     -13.335  46.741 -25.909  1.00  0.00     0.180 C 
BRANCH  32  33
HETATM   33  C16 UNL     1     -14.405  46.762 -24.780  1.00  0.00     0.241 C 
HETATM   34  O4  UNL     1     -14.669  47.759 -24.112  1.00  0.00    -0.271 OA
HETATM   35  N3  UNL     1     -15.098  45.578 -24.626  1.00  0.00    -0.354 N 
HETATM   36  H18 UNL     1     -14.873  44.792 -25.235  1.00  0.00     0.162 HD
BRANCH  35  37
HETATM   37  C17 UNL     1     -16.221  45.428 -23.716  1.00  0.00     0.098 C 
BRANCH  37  38
HETATM   38  C18 UNL     1     -17.187  46.625 -23.732  1.00  0.00     0.135 C 
BRANCH  38  39
HETATM   39  C19 UNL     1     -18.264  46.606 -24.780  1.00  0.00     0.141 C 
HETATM   40  O5  UNL     1     -19.195  47.377 -24.926  1.00  0.00    -0.650 OA
BRANCH  39  41
HETATM   41  O6  UNL     1     -18.101  45.574 -25.637  1.00  0.00    -0.776 OA
HETATM   42  H22 UNL     1     -18.818  45.692 -26.294  1.00  0.00     0.167 HD
ENDBRANCH  39  41
ENDBRANCH  38  39
ENDBRANCH  37  38
BRANCH  37  43
HETATM   43  C20 UNL     1     -15.823  44.916 -22.294  1.00  0.00     0.014 C 
HETATM   44  C21 UNL     1     -16.205  43.482 -21.923  1.00  0.00     0.033 C 
HETATM   45  C22 UNL     1     -17.697  43.293 -21.667  1.00  0.00     0.169 C 
HETATM   46  O7  UNL     1     -18.392  44.532 -21.502  1.00  0.00    -0.381 OA
HETATM   47  C23 UNL     1     -17.745  45.479 -20.637  1.00  0.00     0.054 C 
HETATM   48  C24 UNL     1     -17.667  44.933 -19.202  1.00  0.00     0.045 C 
HETATM   49  C25 UNL     1     -18.646  46.722 -20.618  1.00  0.00     0.045 C 
HETATM   50  C26 UNL     1     -16.345  45.858 -21.182  1.00  0.00     0.044 C 
ENDBRANCH  37  43
ENDBRANCH  35  37
ENDBRANCH  32  33
BRANCH  32  51
HETATM   51  C27 UNL     1     -13.529  45.607 -26.944  1.00  0.00     0.009 C 
HETATM   52  C28 UNL     1     -14.862  45.726 -27.689  1.00  0.00     0.012 C 
HETATM   53  C29 UNL     1     -12.394  45.601 -27.979  1.00  0.00     0.012 C 
ENDBRANCH  32  51
ENDBRANCH  30  32
ENDBRANCH  27  28
ENDBRANCH  26  27
ENDBRANCH  13  26
TORSDOF 12
ENDMDL
MODEL 3
REMARK minimizedAffinity -8.09778309
REMARK CNNscore 0.357696414
REMARK CNNaffinity 6.74254465
REMARK  12 active torsions:
REMARK  status: ('A' for Active; 'I' for Inactive)
REMARK    1  A    between atoms: C3_3  and  O1_4 
REMARK    2  A    between atoms: N1_14  and  O2_16 
REMARK    3  A    between atoms: O2_16  and  C13_17 
REMARK    4  A    between atoms: C13_17  and  C14_18 
REMARK       I    between atoms: C14_18  and  N2_20 
REMARK    5  A    between atoms: N2_20  and  C15_21 
REMARK    6  A    between atoms: C15_21  and  C16_22 
REMARK    7  A    between atoms: C15_21  and  C27_38 
REMARK       I    between atoms: C16_22  and  N3_24 
REMARK    8  A    between atoms: N3_24  and  C17_25 
REMARK    9  A    between atoms: C17_25  and  C18_26 
REMARK   10  A    between atoms: C17_25  and  C20_30 
REMARK   11  A    between atoms: C18_26  and  C19_27 
REMARK   12  A    between atoms: C19_27  and  O6_29 
ROOT
HETATM    1  C1  UNL     1       0.115  55.588 -26.613  1.00  0.00     0.015 C 
HETATM    2  C2  UNL     1      -0.243  54.453 -26.775  1.00  0.00    -0.078 C 
HETATM    3  C3  UNL     1      -0.677  53.062 -26.989  1.00  0.00     0.128 C 
HETATM    4  C4  UNL     1       0.504  52.149 -27.329  1.00  0.00     0.052 C 
HETATM    5  C5  UNL     1      -0.091  50.758 -27.152  1.00  0.00     0.010 C 
HETATM    6  C6  UNL     1      -0.872  50.874 -25.840  1.00  0.00     0.002 C 
HETATM    7  C7  UNL     1      -1.932  49.778 -25.569  1.00  0.00    -0.004 C 
HETATM    8  C8  UNL     1      -2.755  49.296 -26.778  1.00  0.00     0.010 C 
HETATM    9  C9  UNL     1      -3.730  48.179 -26.395  1.00  0.00     0.035 C 
HETATM   10  C10 UNL     1      -4.579  48.488 -25.180  1.00  0.00    -0.069 C 
HETATM   11  C11 UNL     1      -5.898  48.214 -25.197  1.00  0.00     0.030 C 
HETATM   12  C12 UNL     1      -6.745  48.366 -23.977  1.00  0.00     0.032 C 
HETATM   13  N1  UNL     1      -8.034  48.226 -23.918  1.00  0.00    -0.271 N 
ATOM     14  H1  UNL     1      -8.581  48.334 -23.064  1.00  0.00     0.194 HD
HETATM   15  C30 UNL     1      -6.031  48.652 -22.672  1.00  0.00     0.060 C 
HETATM   16  C31 UNL     1      -4.857  49.590 -22.903  1.00  0.00     0.020 C 
HETATM   17  C32 UNL     1      -3.850  49.059 -23.966  1.00  0.00    -0.016 C 
HETATM   18  C33 UNL     1      -3.037  47.914 -23.304  1.00  0.00     0.020 C 
HETATM   19  C34 UNL     1      -2.868  50.212 -24.413  1.00  0.00     0.002 C 
HETATM   20  C35 UNL     1      -3.591  51.545 -24.757  1.00  0.00     0.007 C 
HETATM   21  C36 UNL     1      -2.883  52.455 -25.766  1.00  0.00     0.014 C 
HETATM   22  C37 UNL     1      -1.348  52.365 -25.744  1.00  0.00     0.003 C 
HETATM   23  C38 UNL     1      -0.829  52.958 -24.406  1.00  0.00     0.020 C 
ENDROOT
BRANCH   3  24
HETATM   24  O1  UNL     1      -1.556  53.042 -28.118  1.00  0.00    -0.377 OA
HETATM   25  H2  UNL     1      -1.140  53.576 -28.816  1.00  0.00     0.211 HD
ENDBRANCH   3  24
BRANCH  13  26
HETATM   26  O2  UNL     1      -8.588  47.909 -25.170  1.00  0.00    -0.271 OA
BRANCH  26  27
HETATM   27  C13 UNL     1      -9.944  47.539 -24.981  1.00  0.00     0.303 C 
BRANCH  27  28
HETATM   28  C14 UNL     1     -10.467  46.780 -26.204  1.00  0.00     0.244 C 
HETATM   29  O3  UNL     1      -9.755  46.527 -27.171  1.00  0.00    -0.271 OA
HETATM   30  N2  UNL     1     -11.805  46.423 -26.112  1.00  0.00    -0.346 N 
HETATM   31  H16 UNL     1     -12.214  46.508 -25.191  1.00  0.00     0.163 HD
BRANCH  30  32
HETATM   32  C15 UNL     1     -12.449  45.416 -26.969  1.00  0.00     0.180 C 
BRANCH  32  33
HETATM   33  C16 UNL     1     -13.814  45.068 -26.308  1.00  0.00     0.241 C 
HETATM   34  O4  UNL     1     -13.918  44.518 -25.214  1.00  0.00    -0.271 OA
HETATM   35  N3  UNL     1     -14.919  45.493 -27.018  1.00  0.00    -0.354 N 
HETATM   36  H18 UNL     1     -14.779  45.986 -27.899  1.00  0.00     0.162 HD
BRANCH  35  37
HETATM   37  C17 UNL     1     -16.278  45.380 -26.514  1.00  0.00     0.098 C 
BRANCH  37  38
HETATM   38  C18 UNL     1     -16.401  45.682 -25.011  1.00  0.00     0.135 C 
BRANCH  38  39
HETATM   39  C19 UNL     1     -16.736  47.098 -24.635  1.00  0.00     0.141 C 
HETATM   40  O5  UNL     1     -15.993  47.969 -24.220  1.00  0.00    -0.650 OA
BRANCH  39  41
HETATM   41  O6  UNL     1     -18.048  47.362 -24.819  1.00  0.00    -0.776 OA
HETATM   42  H22 UNL     1     -18.137  48.310 -24.594  1.00  0.00     0.167 HD
ENDBRANCH  39  41
ENDBRANCH  38  39
ENDBRANCH  37  38
BRANCH  37  43
HETATM   43  C20 UNL     1     -17.030  44.097 -26.997  1.00  0.00     0.014 C 
HETATM   44  C21 UNL     1     -18.559  44.134 -27.011  1.00  0.00     0.033 C 
HETATM   45  C22 UNL     1     -19.185  44.082 -25.622  1.00  0.00     0.169 C 
HETATM   46  O7  UNL     1     -18.257  43.684 -24.610  1.00  0.00    -0.381 OA
HETATM   47  C23 UNL     1     -17.441  42.551 -24.948  1.00  0.00     0.054 C 
HETATM   48  C24 UNL     1     -18.310  41.296 -25.133  1.00  0.00     0.045 C 
HETATM   49  C25 UNL     1     -16.522  42.313 -23.741  1.00  0.00     0.045 C 
HETATM   50  C26 UNL     1     -16.585  42.844 -26.206  1.00  0.00     0.044 C 
ENDBRANCH  37  43
ENDBRANCH  35  37
ENDBRANCH  32  33
BRANCH  32  51
HETATM   51  C27 UNL     1     -11.598  44.181 -27.351  1.00  0.00     0.009 C 
HETATM   52  C28 UNL     1     -10.564  44.504 -28.435  1.00  0.00     0.012 C 
HETATM   53  C29 UNL     1     -10.859  43.616 -26.129  1.00  0.00     0.012 C 
ENDBRANCH  32  51
ENDBRANCH  30  32
ENDBRANCH  27  28
ENDBRANCH  26  27
ENDBRANCH  13  26
TORSDOF 12
ENDMDL
MODEL 4
REMARK minimizedAffinity -8.46922302
REMARK CNNscore 0.297259659
REMARK CNNaffinity 6.64831209
REMARK  12 active torsions:
REMARK  status: ('A' for Active; 'I' for Inactive)
REMARK    1  A    between atoms: C3_3  and  O1_4 
REMARK    2  A    between atoms: N1_14  and  O2_16 
REMARK    3  A    between atoms: O2_16  and  C13_17 
REMARK    4  A    between atoms: C13_17  and  C14_18 
REMARK       I    between atoms: C14_18  and  N2_20 
REMARK    5  A    between atoms: N2_20  and  C15_21 
REMARK    6  A    between atoms: C15_21  and  C16_22 
REMARK    7  A    between atoms: C15_21  and  C27_38 
REMARK       I    between atoms: C16_22  and  N3_24 
REMARK    8  A    between atoms: N3_24  and  C17_25 
REMARK    9  A    between atoms: C17_25  and  C18_26 
REMARK   10  A    between atoms: C17_25  and  C20_30 
REMARK   11  A    between atoms: C18_26  and  C19_27 
REMARK   12  A    between atoms: C19_27  and  O6_29 
ROOT
HETATM    1  C1  UNL     1       0.285  54.677 -25.465  1.00  0.00     0.015 C 
HETATM    2  C2  UNL     1      -0.415  53.701 -25.455  1.00  0.00    -0.078 C 
HETATM    3  C3  UNL     1      -1.278  52.508 -25.457  1.00  0.00     0.128 C 
HETATM    4  C4  UNL     1      -0.802  51.470 -26.479  1.00  0.00     0.052 C 
HETATM    5  C5  UNL     1      -1.577  50.224 -26.071  1.00  0.00     0.010 C 
HETATM    6  C6  UNL     1      -1.438  50.207 -24.546  1.00  0.00     0.002 C 
HETATM    7  C7  UNL     1      -2.442  49.316 -23.772  1.00  0.00    -0.004 C 
HETATM    8  C8  UNL     1      -3.889  49.286 -24.296  1.00  0.00     0.010 C 
HETATM    9  C9  UNL     1      -4.770  48.334 -23.483  1.00  0.00     0.035 C 
HETATM   10  C10 UNL     1      -4.682  48.536 -21.985  1.00  0.00    -0.069 C 
HETATM   11  C11 UNL     1      -5.805  48.545 -21.243  1.00  0.00     0.030 C 
HETATM   12  C12 UNL     1      -5.759  48.595 -19.751  1.00  0.00     0.032 C 
HETATM   13  N1  UNL     1      -6.779  48.710 -18.957  1.00  0.00    -0.271 N 
ATOM     14  H1  UNL     1      -6.709  48.737 -17.939  1.00  0.00     0.194 HD
HETATM   15  C30 UNL     1      -4.401  48.439 -19.097  1.00  0.00     0.060 C 
HETATM   16  C31 UNL     1      -3.333  49.148 -19.915  1.00  0.00     0.020 C 
HETATM   17  C32 UNL     1      -3.278  48.669 -21.396  1.00  0.00    -0.016 C 
HETATM   18  C33 UNL     1      -2.612  47.267 -21.406  1.00  0.00     0.020 C 
HETATM   19  C34 UNL     1      -2.417  49.669 -22.263  1.00  0.00     0.002 C 
HETATM   20  C35 UNL     1      -2.785  51.163 -22.038  1.00  0.00     0.007 C 
HETATM   21  C36 UNL     1      -2.517  52.108 -23.213  1.00  0.00     0.014 C 
HETATM   22  C37 UNL     1      -1.326  51.706 -24.100  1.00  0.00     0.003 C 
HETATM   23  C38 UNL     1      -0.013  51.877 -23.286  1.00  0.00     0.020 C 
ENDROOT
BRANCH   3  24
HETATM   24  O1  UNL     1      -2.590  52.912 -25.856  1.00  0.00    -0.377 OA
HETATM   25  H2  UNL     1      -2.491  53.489 -26.632  1.00  0.00     0.211 HD
ENDBRANCH   3  24
BRANCH  13  26
HETATM   26  O2  UNL     1      -7.991  48.791 -19.664  1.00  0.00    -0.271 OA
BRANCH  26  27
HETATM   27  C13 UNL     1      -8.682  47.561 -19.515  1.00  0.00     0.303 C 
BRANCH  27  28
HETATM   28  C14 UNL     1     -10.133  47.703 -19.983  1.00  0.00     0.244 C 
HETATM   29  O3  UNL     1     -10.885  48.560 -19.531  1.00  0.00    -0.271 OA
HETATM   30  N2  UNL     1     -10.504  46.774 -20.945  1.00  0.00    -0.346 N 
HETATM   31  H16 UNL     1      -9.742  46.265 -21.374  1.00  0.00     0.163 HD
BRANCH  30  32
HETATM   32  C15 UNL     1     -11.700  46.900 -21.793  1.00  0.00     0.180 C 
BRANCH  32  33
HETATM   33  C16 UNL     1     -12.915  46.464 -20.926  1.00  0.00     0.241 C 
HETATM   34  O4  UNL     1     -13.005  45.363 -20.388  1.00  0.00    -0.271 OA
HETATM   35  N3  UNL     1     -13.868  47.445 -20.741  1.00  0.00    -0.354 N 
HETATM   36  H18 UNL     1     -13.725  48.358 -21.171  1.00  0.00     0.162 HD
BRANCH  35  37
HETATM   37  C17 UNL     1     -15.015  47.283 -19.862  1.00  0.00     0.098 C 
BRANCH  37  38
HETATM   38  C18 UNL     1     -14.758  47.763 -18.424  1.00  0.00     0.135 C 
BRANCH  38  39
HETATM   39  C19 UNL     1     -14.174  46.757 -17.473  1.00  0.00     0.141 C 
HETATM   40  O5  UNL     1     -13.582  45.724 -17.730  1.00  0.00    -0.650 OA
BRANCH  39  41
HETATM   41  O6  UNL     1     -14.364  47.123 -16.186  1.00  0.00    -0.776 OA
HETATM   42  H22 UNL     1     -13.905  46.431 -15.669  1.00  0.00     0.167 HD
ENDBRANCH  39  41
ENDBRANCH  38  39
ENDBRANCH  37  38
BRANCH  37  43
HETATM   43  C20 UNL     1     -15.715  45.890 -19.982  1.00  0.00     0.014 C 
HETATM   44  C21 UNL     1     -15.939  45.326 -21.386  1.00  0.00     0.033 C 
HETATM   45  C22 UNL     1     -17.039  46.041 -22.164  1.00  0.00     0.169 C 
HETATM   46  O7  UNL     1     -17.858  46.868 -21.333  1.00  0.00    -0.381 OA
HETATM   47  C23 UNL     1     -18.285  46.257 -20.104  1.00  0.00     0.054 C 
HETATM   48  C24 UNL     1     -19.191  45.048 -20.390  1.00  0.00     0.045 C 
HETATM   49  C25 UNL     1     -19.127  47.314 -19.375  1.00  0.00     0.045 C 
HETATM   50  C26 UNL     1     -17.067  45.866 -19.230  1.00  0.00     0.044 C 
ENDBRANCH  37  43
ENDBRANCH  35  37
ENDBRANCH  32  33
BRANCH  32  51
HETATM   51  C27 UNL     1     -11.639  46.224 -23.184  1.00  0.00     0.009 C 
HETATM   52  C28 UNL     1     -11.326  44.727 -23.086  1.00  0.00     0.012 C 
HETATM   53  C29 UNL     1     -12.964  46.393 -23.942  1.00  0.00     0.012 C 
ENDBRANCH  32  51
ENDBRANCH  30  32
ENDBRANCH  27  28
ENDBRANCH  26  27
ENDBRANCH  13  26
TORSDOF 12
ENDMDL
MODEL 5
REMARK minimizedAffinity -9.01915646
REMARK CNNscore 0.258973539
REMARK CNNaffinity 6.89125633
REMARK  12 active torsions:
REMARK  status: ('A' for Active; 'I' for Inactive)
REMARK    1  A    between atoms: C3_3  and  O1_4 
REMARK    2  A    between atoms: N1_14  and  O2_16 
REMARK    3  A    between atoms: O2_16  and  C13_17 
REMARK    4  A    between atoms: C13_17  and  C14_18 
REMARK       I    between atoms: C14_18  and  N2_20 
REMARK    5  A    between atoms: N2_20  and  C15_21 
REMARK    6  A    between atoms: C15_21  and  C16_22 
REMARK    7  A    between atoms: C15_21  and  C27_38 
REMARK       I    between atoms: C16_22  and  N3_24 
REMARK    8  A    between atoms: N3_24  and  C17_25 
REMARK    9  A    between atoms: C17_25  and  C18_26 
REMARK   10  A    between atoms: C17_25  and  C20_30 
REMARK   11  A    between atoms: C18_26  and  C19_27 
REMARK   12  A    between atoms: C19_27  and  O6_29 
ROOT
HETATM    1  C1  UNL     1       0.585  51.943 -27.679  1.00  0.00     0.015 C 
HETATM    2  C2  UNL     1      -0.287  52.065 -26.862  1.00  0.00    -0.078 C 
HETATM    3  C3  UNL     1      -1.358  52.230 -25.865  1.00  0.00     0.128 C 
HETATM    4  C4  UNL     1      -2.720  52.446 -26.532  1.00  0.00     0.052 C 
HETATM    5  C5  UNL     1      -3.691  52.231 -25.378  1.00  0.00     0.010 C 
HETATM    6  C6  UNL     1      -3.145  50.978 -24.687  1.00  0.00     0.002 C 
HETATM    7  C7  UNL     1      -3.641  50.715 -23.244  1.00  0.00    -0.004 C 
HETATM    8  C8  UNL     1      -3.803  51.944 -22.332  1.00  0.00     0.010 C 
HETATM    9  C9  UNL     1      -4.347  51.563 -20.952  1.00  0.00     0.035 C 
HETATM   10  C10 UNL     1      -3.606  50.421 -20.288  1.00  0.00    -0.069 C 
HETATM   11  C11 UNL     1      -3.275  50.505 -18.986  1.00  0.00     0.030 C 
HETATM   12  C12 UNL     1      -2.675  49.350 -18.254  1.00  0.00     0.032 C 
HETATM   13  N1  UNL     1      -2.231  49.363 -17.035  1.00  0.00    -0.271 N 
ATOM     14  H1  UNL     1      -1.830  48.551 -16.565  1.00  0.00     0.194 HD
HETATM   15  C30 UNL     1      -2.633  48.020 -18.980  1.00  0.00     0.060 C 
HETATM   16  C31 UNL     1      -2.325  48.229 -20.454  1.00  0.00     0.020 C 
HETATM   17  C32 UNL     1      -3.323  49.197 -21.156  1.00  0.00    -0.016 C 
HETATM   18  C33 UNL     1      -4.654  48.425 -21.358  1.00  0.00     0.020 C 
HETATM   19  C34 UNL     1      -2.754  49.644 -22.560  1.00  0.00     0.002 C 
HETATM   20  C35 UNL     1      -1.270  50.104 -22.511  1.00  0.00     0.007 C 
HETATM   21  C36 UNL     1      -0.842  51.115 -23.580  1.00  0.00     0.014 C 
HETATM   22  C37 UNL     1      -1.594  50.993 -24.916  1.00  0.00     0.003 C 
HETATM   23  C38 UNL     1      -1.189  49.659 -25.601  1.00  0.00     0.020 C 
ENDROOT
BRANCH   3  24
HETATM   24  O1  UNL     1      -1.076  53.408 -25.104  1.00  0.00    -0.377 OA
HETATM   25  H2  UNL     1      -0.834  54.107 -25.734  1.00  0.00     0.211 HD
ENDBRANCH   3  24
BRANCH  13  26
HETATM   26  O2  UNL     1      -2.367  50.628 -16.438  1.00  0.00    -0.271 OA
BRANCH  26  27
HETATM   27  C13 UNL     1      -1.403  50.743 -15.403  1.00  0.00     0.303 C 
BRANCH  27  28
HETATM   28  C14 UNL     1      -2.087  51.040 -14.066  1.00  0.00     0.244 C 
HETATM   29  O3  UNL     1      -2.840  50.238 -13.524  1.00  0.00    -0.271 OA
HETATM   30  N2  UNL     1      -1.781  52.290 -13.547  1.00  0.00    -0.346 N 
HETATM   31  H16 UNL     1      -0.999  52.762 -13.982  1.00  0.00     0.163 HD
BRANCH  30  32
HETATM   32  C15 UNL     1      -2.021  52.682 -12.149  1.00  0.00     0.180 C 
BRANCH  32  33
HETATM   33  C16 UNL     1      -0.674  52.502 -11.393  1.00  0.00     0.241 C 
HETATM   34  O4  UNL     1       0.057  51.524 -11.531  1.00  0.00    -0.271 OA
HETATM   35  N3  UNL     1      -0.317  53.571 -10.595  1.00  0.00    -0.354 N 
HETATM   36  H18 UNL     1      -0.936  54.379 -10.549  1.00  0.00     0.162 HD
BRANCH  35  37
HETATM   37  C17 UNL     1       0.960  53.655  -9.905  1.00  0.00     0.098 C 
BRANCH  37  38
HETATM   38  C18 UNL     1       0.900  54.470  -8.603  1.00  0.00     0.135 C 
BRANCH  38  39
HETATM   39  C19 UNL     1      -0.261  55.412  -8.451  1.00  0.00     0.141 C 
HETATM   40  O5  UNL     1      -1.011  55.837  -9.311  1.00  0.00    -0.650 OA
BRANCH  39  41
HETATM   41  O6  UNL     1      -0.435  55.780  -7.163  1.00  0.00    -0.776 OA
HETATM   42  H22 UNL     1      -1.236  56.342  -7.179  1.00  0.00     0.167 HD
ENDBRANCH  39  41
ENDBRANCH  38  39
ENDBRANCH  37  38
BRANCH  37  43
HETATM   43  C20 UNL     1       2.167  53.986 -10.841  1.00  0.00     0.014 C 
HETATM   44  C21 UNL     1       3.247  52.917 -11.012  1.00  0.00     0.033 C 
HETATM   45  C22 UNL     1       4.136  52.743  -9.785  1.00  0.00     0.169 C 
HETATM   46  O7  UNL     1       4.005  53.816  -8.849  1.00  0.00    -0.381 OA
HETATM   47  C23 UNL     1       4.026  55.131  -9.429  1.00  0.00     0.054 C 
HETATM   48  C24 UNL     1       5.387  55.409 -10.087  1.00  0.00     0.045 C 
HETATM   49  C25 UNL     1       3.858  56.113  -8.261  1.00  0.00     0.045 C 
HETATM   50  C26 UNL     1       2.858  55.309 -10.433  1.00  0.00     0.044 C 
ENDBRANCH  37  43
ENDBRANCH  35  37
ENDBRANCH  32  33
BRANCH  32  51
HETATM   51  C27 UNL     1      -3.235  52.031 -11.444  1.00  0.00     0.009 C 
HETATM   52  C28 UNL     1      -2.810  51.085 -10.315  1.00  0.00     0.012 C 
HETATM   53  C29 UNL     1      -4.173  53.095 -10.857  1.00  0.00     0.012 C 
ENDBRANCH  32  51
ENDBRANCH  30  32
ENDBRANCH  27  28
ENDBRANCH  26  27
ENDBRANCH  13  26
TORSDOF 12
ENDMDL
MODEL 6
REMARK minimizedAffinity -9.87489414
REMARK CNNscore 0.250110924
REMARK CNNaffinity 7.62760401
REMARK  12 active torsions:
REMARK  status: ('A' for Active; 'I' for Inactive)
REMARK    1  A    between atoms: C3_3  and  O1_4 
REMARK    2  A    between atoms: N1_14  and  O2_16 
REMARK    3  A    between atoms: O2_16  and  C13_17 
REMARK    4  A    between atoms: C13_17  and  C14_18 
REMARK       I    between atoms: C14_18  and  N2_20 
REMARK    5  A    between atoms: N2_20  and  C15_21 
REMARK    6  A    between atoms: C15_21  and  C16_22 
REMARK    7  A    between atoms: C15_21  and  C27_38 
REMARK       I    between atoms: C16_22  and  N3_24 
REMARK    8  A    between atoms: N3_24  and  C17_25 
REMARK    9  A    between atoms: C17_25  and  C18_26 
REMARK   10  A    between atoms: C17_25  and  C20_30 
REMARK   11  A    between atoms: C18_26  and  C19_27 
REMARK   12  A    between atoms: C19_27  and  O6_29 
ROOT
HETATM    1  C1  UNL     1      -9.835  47.921 -19.937  1.00  0.00     0.015 C 
HETATM    2  C2  UNL     1      -8.676  47.701 -20.163  1.00  0.00    -0.078 C 
HETATM    3  C3  UNL     1      -7.255  47.420 -20.430  1.00  0.00     0.128 C 
HETATM    4  C4  UNL     1      -7.075  46.100 -21.186  1.00  0.00     0.052 C 
HETATM    5  C5  UNL     1      -5.631  46.186 -21.661  1.00  0.00     0.010 C 
HETATM    6  C6  UNL     1      -5.518  47.620 -22.188  1.00  0.00     0.002 C 
HETATM    7  C7  UNL     1      -4.085  48.178 -22.367  1.00  0.00    -0.004 C 
HETATM    8  C8  UNL     1      -3.053  47.796 -21.291  1.00  0.00     0.010 C 
HETATM    9  C9  UNL     1      -1.665  48.363 -21.604  1.00  0.00     0.035 C 
HETATM   10  C10 UNL     1      -1.662  49.840 -21.937  1.00  0.00    -0.069 C 
HETATM   11  C11 UNL     1      -0.727  50.646 -21.398  1.00  0.00     0.030 C 
HETATM   12  C12 UNL     1      -0.594  52.076 -21.808  1.00  0.00     0.032 C 
HETATM   13  N1  UNL     1       0.202  52.953 -21.277  1.00  0.00    -0.271 N 
ATOM     14  H1  UNL     1       0.268  53.923 -21.587  1.00  0.00     0.194 HD
HETATM   15  C30 UNL     1      -1.421  52.534 -22.992  1.00  0.00     0.060 C 
HETATM   16  C31 UNL     1      -2.790  51.874 -22.970  1.00  0.00     0.020 C 
HETATM   17  C32 UNL     1      -2.719  50.318 -22.931  1.00  0.00    -0.016 C 
HETATM   18  C33 UNL     1      -2.308  49.835 -24.347  1.00  0.00     0.020 C 
HETATM   19  C34 UNL     1      -4.129  49.716 -22.556  1.00  0.00     0.002 C 
HETATM   20  C35 UNL     1      -4.795  50.405 -21.331  1.00  0.00     0.007 C 
HETATM   21  C36 UNL     1      -5.767  49.544 -20.519  1.00  0.00     0.014 C 
HETATM   22  C37 UNL     1      -6.517  48.478 -21.337  1.00  0.00     0.003 C 
HETATM   23  C38 UNL     1      -7.500  49.189 -22.307  1.00  0.00     0.020 C 
ENDROOT
BRANCH   3  24
HETATM   24  O1  UNL     1      -6.590  47.275 -19.173  1.00  0.00    -0.377 OA
HETATM   25  H2  UNL     1      -7.143  46.699 -18.619  1.00  0.00     0.211 HD
ENDBRANCH   3  24
BRANCH  13  26
HETATM   26  O2  UNL     1       0.960  52.410 -20.226  1.00  0.00    -0.271 OA
BRANCH  26  27
HETATM   27  C13 UNL     1       0.507  52.974 -19.006  1.00  0.00     0.303 C 
BRANCH  27  28
HETATM   28  C14 UNL     1       0.616  51.952 -17.872  1.00  0.00     0.244 C 
HETATM   29  O3  UNL     1       0.172  50.812 -17.973  1.00  0.00    -0.271 OA
HETATM   30  N2  UNL     1       1.246  52.441 -16.736  1.00  0.00    -0.346 N 
HETATM   31  H16 UNL     1       1.739  53.316 -16.856  1.00  0.00     0.163 HD
BRANCH  30  32
HETATM   32  C15 UNL     1       1.775  51.591 -15.658  1.00  0.00     0.180 C 
BRANCH  32  33
HETATM   33  C16 UNL     1       0.643  51.447 -14.601  1.00  0.00     0.241 C 
HETATM   34  O4  UNL     1       0.035  50.400 -14.395  1.00  0.00    -0.271 OA
HETATM   35  N3  UNL     1       0.415  52.582 -13.848  1.00  0.00    -0.354 N 
HETATM   36  H18 UNL     1       0.978  53.413 -14.027  1.00  0.00     0.162 HD
BRANCH  35  37
HETATM   37  C17 UNL     1      -0.509  52.618 -12.727  1.00  0.00     0.098 C 
BRANCH  37  38
HETATM   38  C18 UNL     1       0.188  52.631 -11.357  1.00  0.00     0.135 C 
BRANCH  38  39
HETATM   39  C19 UNL     1       0.428  53.979 -10.737  1.00  0.00     0.141 C 
HETATM   40  O5  UNL     1      -0.197  54.528  -9.847  1.00  0.00    -0.650 OA
BRANCH  39  41
HETATM   41  O6  UNL     1       1.498  54.594 -11.288  1.00  0.00    -0.776 OA
HETATM   42  H22 UNL     1       1.585  55.426 -10.780  1.00  0.00     0.167 HD
ENDBRANCH  39  41
ENDBRANCH  38  39
ENDBRANCH  37  38
BRANCH  37  43
HETATM   43  C20 UNL     1      -1.702  51.616 -12.854  1.00  0.00     0.014 C 
HETATM   44  C21 UNL     1      -2.993  52.126 -13.498  1.00  0.00     0.033 C 
HETATM   45  C22 UNL     1      -3.781  53.085 -12.611  1.00  0.00     0.169 C 
HETATM   46  O7  UNL     1      -3.344  53.067 -11.250  1.00  0.00    -0.381 OA
HETATM   47  C23 UNL     1      -3.143  51.757 -10.695  1.00  0.00     0.054 C 
HETATM   48  C24 UNL     1      -4.472  50.985 -10.642  1.00  0.00     0.045 C 
HETATM   49  C25 UNL     1      -2.668  51.975  -9.252  1.00  0.00     0.045 C 
HETATM   50  C26 UNL     1      -2.062  50.982 -11.489  1.00  0.00     0.044 C 
ENDBRANCH  37  43
ENDBRANCH  35  37
ENDBRANCH  32  33
BRANCH  32  51
HETATM   51  C27 UNL     1       3.147  51.994 -15.065  1.00  0.00     0.009 C 
HETATM   52  C28 UNL     1       3.812  50.840 -14.308  1.00  0.00     0.012 C 
HETATM   53  C29 UNL     1       4.108  52.470 -16.164  1.00  0.00     0.012 C 
ENDBRANCH  32  51
ENDBRANCH  30  32
ENDBRANCH  27  28
ENDBRANCH  26  27
ENDBRANCH  13  26
TORSDOF 12
ENDMDL
MODEL 7
REMARK minimizedAffinity -8.73750496
REMARK CNNscore 0.214192227
REMARK CNNaffinity 6.96833086
REMARK  12 active torsions:
REMARK  status: ('A' for Active; 'I' for Inactive)
REMARK    1  A    between atoms: C3_3  and  O1_4 
REMARK    2  A    between atoms: N1_14  and  O2_16 
REMARK    3  A    between atoms: O2_16  and  C13_17 
REMARK    4  A    between atoms: C13_17  and  C14_18 
REMARK       I    between atoms: C14_18  and  N2_20 
REMARK    5  A    between atoms: N2_20  and  C15_21 
REMARK    6  A    between atoms: C15_21  and  C16_22 
REMARK    7  A    between atoms: C15_21  and  C27_38 
REMARK       I    between atoms: C16_22  and  N3_24 
REMARK    8  A    between atoms: N3_24  and  C17_25 
REMARK    9  A    between atoms: C17_25  and  C18_26 
REMARK   10  A    between atoms: C17_25  and  C20_30 
REMARK   11  A    between atoms: C18_26  and  C19_27 
REMARK   12  A    between atoms: C19_27  and  O6_29 
ROOT
HETATM    1  C1  UNL     1       2.788  58.021  -7.288  1.00  0.00     0.015 C 
HETATM    2  C2  UNL     1       2.718  56.888  -7.681  1.00  0.00    -0.078 C 
HETATM    3  C3  UNL     1       2.647  55.498  -8.162  1.00  0.00     0.128 C 
HETATM    4  C4  UNL     1       3.022  54.502  -7.060  1.00  0.00     0.052 C 
HETATM    5  C5  UNL     1       2.545  53.175  -7.638  1.00  0.00     0.010 C 
HETATM    6  C6  UNL     1       1.161  53.513  -8.200  1.00  0.00     0.002 C 
HETATM    7  C7  UNL     1       0.566  52.509  -9.217  1.00  0.00    -0.004 C 
HETATM    8  C8  UNL     1       1.545  51.883 -10.227  1.00  0.00     0.010 C 
HETATM    9  C9  UNL     1       0.851  50.872 -11.144  1.00  0.00     0.035 C 
HETATM   10  C10 UNL     1      -0.419  51.389 -11.786  1.00  0.00    -0.069 C 
HETATM   11  C11 UNL     1      -0.649  51.164 -13.093  1.00  0.00     0.030 C 
HETATM   12  C12 UNL     1      -1.947  51.525 -13.735  1.00  0.00     0.032 C 
HETATM   13  N1  UNL     1      -2.225  51.443 -15.000  1.00  0.00    -0.271 N 
ATOM     14  H1  UNL     1      -3.128  51.696 -15.403  1.00  0.00     0.194 HD
HETATM   15  C30 UNL     1      -3.068  51.976 -12.819  1.00  0.00     0.060 C 
HETATM   16  C31 UNL     1      -2.517  52.826 -11.685  1.00  0.00     0.020 C 
HETATM   17  C32 UNL     1      -1.405  52.106 -10.865  1.00  0.00    -0.016 C 
HETATM   18  C33 UNL     1      -2.100  51.044  -9.973  1.00  0.00     0.020 C 
HETATM   19  C34 UNL     1      -0.641  53.144  -9.953  1.00  0.00     0.002 C 
HETATM   20  C35 UNL     1      -0.214  54.436 -10.704  1.00  0.00     0.007 C 
HETATM   21  C36 UNL     1       1.020  55.159 -10.154  1.00  0.00     0.014 C 
HETATM   22  C37 UNL     1       1.222  55.018  -8.635  1.00  0.00     0.003 C 
HETATM   23  C38 UNL     1       0.086  55.784  -7.903  1.00  0.00     0.020 C 
ENDROOT
BRANCH   3  24
HETATM   24  O1  UNL     1       3.610  55.342  -9.208  1.00  0.00    -0.377 OA
HETATM   25  H2  UNL     1       4.437  55.750  -8.901  1.00  0.00     0.211 HD
ENDBRANCH   3  24
BRANCH  13  26
HETATM   26  O2  UNL     1      -1.137  50.964 -15.749  1.00  0.00    -0.271 OA
BRANCH  26  27
HETATM   27  C13 UNL     1      -1.633  50.106 -16.765  1.00  0.00     0.303 C 
BRANCH  27  28
HETATM   28  C14 UNL     1      -1.928  50.902 -18.039  1.00  0.00     0.244 C 
HETATM   29  O3  UNL     1      -2.873  51.681 -18.120  1.00  0.00    -0.271 OA
HETATM   30  N2  UNL     1      -1.041  50.649 -19.075  1.00  0.00    -0.346 N 
HETATM   31  H16 UNL     1      -0.200  50.151 -18.815  1.00  0.00     0.163 HD
BRANCH  30  32
HETATM   32  C15 UNL     1      -0.892  51.509 -20.260  1.00  0.00     0.180 C 
BRANCH  32  33
HETATM   33  C16 UNL     1      -1.242  50.635 -21.498  1.00  0.00     0.241 C 
HETATM   34  O4  UNL     1      -0.891  49.464 -21.624  1.00  0.00    -0.271 OA
HETATM   35  N3  UNL     1      -2.050  51.257 -22.428  1.00  0.00    -0.354 N 
HETATM   36  H18 UNL     1      -2.352  52.215 -22.256  1.00  0.00     0.162 HD
BRANCH  35  37
HETATM   37  C17 UNL     1      -2.594  50.574 -23.591  1.00  0.00     0.098 C 
BRANCH  37  38
HETATM   38  C18 UNL     1      -1.943  51.006 -24.916  1.00  0.00     0.135 C 
BRANCH  38  39
HETATM   39  C19 UNL     1      -2.836  51.694 -25.910  1.00  0.00     0.141 C 
HETATM   40  O5  UNL     1      -3.154  52.868 -25.959  1.00  0.00    -0.650 OA
BRANCH  39  41
HETATM   41  O6  UNL     1      -3.298  50.830 -26.841  1.00  0.00    -0.776 OA
HETATM   42  H22 UNL     1      -3.817  51.391 -27.452  1.00  0.00     0.167 HD
ENDBRANCH  39  41
ENDBRANCH  38  39
ENDBRANCH  37  38
BRANCH  37  43
HETATM   43  C20 UNL     1      -4.155  50.498 -23.612  1.00  0.00     0.014 C 
HETATM   44  C21 UNL     1      -4.923  51.414 -22.657  1.00  0.00     0.033 C 
HETATM   45  C22 UNL     1      -4.837  50.985 -21.196  1.00  0.00     0.169 C 
HETATM   46  O7  UNL     1      -4.341  49.654 -21.038  1.00  0.00    -0.381 OA
HETATM   47  C23 UNL     1      -4.924  48.681 -21.919  1.00  0.00     0.054 C 
HETATM   48  C24 UNL     1      -6.427  48.526 -21.634  1.00  0.00     0.045 C 
HETATM   49  C25 UNL     1      -4.243  47.345 -21.589  1.00  0.00     0.045 C 
HETATM   50  C26 UNL     1      -4.658  49.050 -23.401  1.00  0.00     0.044 C 
ENDBRANCH  37  43
ENDBRANCH  35  37
ENDBRANCH  32  33
BRANCH  32  51
HETATM   51  C27 UNL     1       0.440  52.287 -20.391  1.00  0.00     0.009 C 
HETATM   52  C28 UNL     1       0.889  52.423 -21.849  1.00  0.00     0.012 C 
HETATM   53  C29 UNL     1       0.324  53.693 -19.786  1.00  0.00     0.012 C 
ENDBRANCH  32  51
ENDBRANCH  30  32
ENDBRANCH  27  28
ENDBRANCH  26  27
ENDBRANCH  13  26
TORSDOF 12
ENDMDL
MODEL 8
REMARK minimizedAffinity -9.01342678
REMARK CNNscore 0.20186162
REMARK CNNaffinity 6.33982658
REMARK  12 active torsions:
REMARK  status: ('A' for Active; 'I' for Inactive)
REMARK    1  A    between atoms: C3_3  and  O1_4 
REMARK    2  A    between atoms: N1_14  and  O2_16 
REMARK    3  A    between atoms: O2_16  and  C13_17 
REMARK    4  A    between atoms: C13_17  and  C14_18 
REMARK       I    between atoms: C14_18  and  N2_20 
REMARK    5  A    between atoms: N2_20  and  C15_21 
REMARK    6  A    between atoms: C15_21  and  C16_22 
REMARK    7  A    between atoms: C15_21  and  C27_38 
REMARK       I    between atoms: C16_22  and  N3_24 
REMARK    8  A    between atoms: N3_24  and  C17_25 
REMARK    9  A    between atoms: C17_25  and  C18_26 
REMARK   10  A    between atoms: C17_25  and  C20_30 
REMARK   11  A    between atoms: C18_26  and  C19_27 
REMARK   12  A    between atoms: C19_27  and  O6_29 
ROOT
HETATM    1  C1  UNL     1       0.044  51.296 -27.395  1.00  0.00     0.015 C 
HETATM    2  C2  UNL     1      -0.769  51.490 -26.533  1.00  0.00    -0.078 C 
HETATM    3  C3  UNL     1      -1.766  51.742 -25.479  1.00  0.00     0.128 C 
HETATM    4  C4  UNL     1      -3.091  52.240 -26.064  1.00  0.00     0.052 C 
HETATM    5  C5  UNL     1      -4.049  52.090 -24.890  1.00  0.00     0.010 C 
HETATM    6  C6  UNL     1      -3.704  50.707 -24.329  1.00  0.00     0.002 C 
HETATM    7  C7  UNL     1      -4.194  50.404 -22.892  1.00  0.00    -0.004 C 
HETATM    8  C8  UNL     1      -4.118  51.557 -21.876  1.00  0.00     0.010 C 
HETATM    9  C9  UNL     1      -4.676  51.152 -20.509  1.00  0.00     0.035 C 
HETATM   10  C10 UNL     1      -4.121  49.848 -19.975  1.00  0.00    -0.069 C 
HETATM   11  C11 UNL     1      -3.741  49.760 -18.686  1.00  0.00     0.030 C 
HETATM   12  C12 UNL     1      -3.325  48.461 -18.079  1.00  0.00     0.032 C 
HETATM   13  N1  UNL     1      -2.848  48.292 -16.884  1.00  0.00    -0.271 N 
ATOM     14  H1  UNL     1      -2.577  47.386 -16.501  1.00  0.00     0.194 HD
HETATM   15  C30 UNL     1      -3.531  47.212 -18.912  1.00  0.00     0.060 C 
HETATM   16  C31 UNL     1      -3.237  47.496 -20.377  1.00  0.00     0.020 C 
HETATM   17  C32 UNL     1      -4.076  48.675 -20.952  1.00  0.00    -0.016 C 
HETATM   18  C33 UNL     1      -5.525  48.158 -21.157  1.00  0.00     0.020 C 
HETATM   19  C34 UNL     1      -3.482  49.143 -22.338  1.00  0.00     0.002 C 
HETATM   20  C35 UNL     1      -1.940  49.343 -22.319  1.00  0.00     0.007 C 
HETATM   21  C36 UNL     1      -1.379  50.359 -23.318  1.00  0.00     0.014 C 
HETATM   22  C37 UNL     1      -2.181  50.483 -24.625  1.00  0.00     0.003 C 
HETATM   23  C38 UNL     1      -2.029  49.166 -25.435  1.00  0.00     0.020 C 
ENDROOT
BRANCH   3  24
HETATM   24  O1  UNL     1      -1.265  52.785 -24.637  1.00  0.00    -0.377 OA
HETATM   25  H2  UNL     1      -0.927  53.486 -25.218  1.00  0.00     0.211 HD
ENDBRANCH   3  24
BRANCH  13  26
HETATM   26  O2  UNL     1      -2.749  49.504 -16.180  1.00  0.00    -0.271 OA
BRANCH  26  27
HETATM   27  C13 UNL     1      -2.434  49.214 -14.827  1.00  0.00     0.303 C 
BRANCH  27  28
HETATM   28  C14 UNL     1      -2.046  50.494 -14.082  1.00  0.00     0.244 C 
HETATM   29  O3  UNL     1      -1.118  51.208 -14.448  1.00  0.00    -0.271 OA
HETATM   30  N2  UNL     1      -2.831  50.753 -12.968  1.00  0.00    -0.346 N 
HETATM   31  H16 UNL     1      -3.679  50.205 -12.897  1.00  0.00     0.163 HD
BRANCH  30  32
HETATM   32  C15 UNL     1      -2.895  52.057 -12.290  1.00  0.00     0.180 C 
BRANCH  32  33
HETATM   33  C16 UNL     1      -1.524  52.267 -11.586  1.00  0.00     0.241 C 
HETATM   34  O4  UNL     1      -1.032  51.458 -10.803  1.00  0.00    -0.271 OA
HETATM   35  N3  UNL     1      -0.856  53.414 -11.964  1.00  0.00    -0.354 N 
HETATM   36  H18 UNL     1      -1.286  54.031 -12.651  1.00  0.00     0.162 HD
BRANCH  35  37
HETATM   37  C17 UNL     1       0.492  53.730 -11.519  1.00  0.00     0.098 C 
BRANCH  37  38
HETATM   38  C18 UNL     1       1.332  52.488 -11.177  1.00  0.00     0.135 C 
BRANCH  38  39
HETATM   39  C19 UNL     1       2.097  51.862 -12.309  1.00  0.00     0.141 C 
HETATM   40  O5  UNL     1       3.030  51.081 -12.255  1.00  0.00    -0.650 OA
BRANCH  39  41
HETATM   41  O6  UNL     1       1.621  52.261 -13.509  1.00  0.00    -0.776 OA
HETATM   42  H22 UNL     1       2.153  51.759 -14.158  1.00  0.00     0.167 HD
ENDBRANCH  39  41
ENDBRANCH  38  39
ENDBRANCH  37  38
BRANCH  37  43
HETATM   43  C20 UNL     1       0.560  54.887 -10.470  1.00  0.00     0.014 C 
HETATM   44  C21 UNL     1       1.840  55.020  -9.643  1.00  0.00     0.033 C 
HETATM   45  C22 UNL     1       1.999  53.935  -8.583  1.00  0.00     0.169 C 
HETATM   46  O7  UNL     1       0.790  53.208  -8.348  1.00  0.00    -0.381 OA
HETATM   47  C23 UNL     1      -0.388  54.020  -8.210  1.00  0.00     0.054 C 
HETATM   48  C24 UNL     1      -0.279  54.921  -6.970  1.00  0.00     0.045 C 
HETATM   49  C25 UNL     1      -1.552  53.045  -7.983  1.00  0.00     0.045 C 
HETATM   50  C26 UNL     1      -0.642  54.845  -9.497  1.00  0.00     0.044 C 
ENDBRANCH  37  43
ENDBRANCH  35  37
ENDBRANCH  32  33
BRANCH  32  51
HETATM   51  C27 UNL     1      -4.121  52.307 -11.378  1.00  0.00     0.009 C 
HETATM   52  C28 UNL     1      -4.333  51.171 -10.372  1.00  0.00     0.012 C 
HETATM   53  C29 UNL     1      -3.976  53.623 -10.601  1.00  0.00     0.012 C 
ENDBRANCH  32  51
ENDBRANCH  30  32
ENDBRANCH  27  28
ENDBRANCH  26  27
ENDBRANCH  13  26
TORSDOF 12
ENDMDL
MODEL 9
REMARK minimizedAffinity -8.5632019
REMARK CNNscore 0.188425258
REMARK CNNaffinity 6.11554575
REMARK  12 active torsions:
REMARK  status: ('A' for Active; 'I' for Inactive)
REMARK    1  A    between atoms: C3_3  and  O1_4 
REMARK    2  A    between atoms: N1_14  and  O2_16 
REMARK    3  A    between atoms: O2_16  and  C13_17 
REMARK    4  A    between atoms: C13_17  and  C14_18 
REMARK       I    between atoms: C14_18  and  N2_20 
REMARK    5  A    between atoms: N2_20  and  C15_21 
REMARK    6  A    between atoms: C15_21  and  C16_22 
REMARK    7  A    between atoms: C15_21  and  C27_38 
REMARK       I    between atoms: C16_22  and  N3_24 
REMARK    8  A    between atoms: N3_24  and  C17_25 
REMARK    9  A    between atoms: C17_25  and  C18_26 
REMARK   10  A    between atoms: C17_25  and  C20_30 
REMARK   11  A    between atoms: C18_26  and  C19_27 
REMARK   12  A    between atoms: C19_27  and  O6_29 
ROOT
HETATM    1  C1  UNL     1       0.680  52.990 -21.551  1.00  0.00     0.015 C 
HETATM    2  C2  UNL     1      -0.236  52.374 -22.025  1.00  0.00    -0.078 C 
HETATM    3  C3  UNL     1      -1.359  51.629 -22.618  1.00  0.00     0.128 C 
HETATM    4  C4  UNL     1      -0.967  50.984 -23.950  1.00  0.00     0.052 C 
HETATM    5  C5  UNL     1      -2.108  50.004 -24.192  1.00  0.00     0.010 C 
HETATM    6  C6  UNL     1      -2.302  49.345 -22.823  1.00  0.00     0.002 C 
HETATM    7  C7  UNL     1      -3.641  48.601 -22.600  1.00  0.00    -0.004 C 
HETATM    8  C8  UNL     1      -4.903  49.252 -23.195  1.00  0.00     0.010 C 
HETATM    9  C9  UNL     1      -6.153  48.400 -22.954  1.00  0.00     0.035 C 
HETATM   10  C10 UNL     1      -6.331  47.956 -21.517  1.00  0.00    -0.069 C 
HETATM   11  C11 UNL     1      -7.543  48.038 -20.936  1.00  0.00     0.030 C 
HETATM   12  C12 UNL     1      -7.800  47.479 -19.575  1.00  0.00     0.032 C 
HETATM   13  N1  UNL     1      -8.898  47.598 -18.894  1.00  0.00    -0.271 N 
ATOM     14  H1  UNL     1      -9.038  47.199 -17.966  1.00  0.00     0.194 HD
HETATM   15  C30 UNL     1      -6.698  46.647 -18.952  1.00  0.00     0.060 C 
HETATM   16  C31 UNL     1      -5.335  47.231 -19.290  1.00  0.00     0.020 C 
HETATM   17  C32 UNL     1      -5.097  47.382 -20.822  1.00  0.00    -0.016 C 
HETATM   18  C33 UNL     1      -4.833  45.965 -21.394  1.00  0.00     0.020 C 
HETATM   19  C34 UNL     1      -3.843  48.303 -21.092  1.00  0.00     0.002 C 
HETATM   20  C35 UNL     1      -3.848  49.619 -20.264  1.00  0.00     0.007 C 
HETATM   21  C36 UNL     1      -3.102  50.806 -20.881  1.00  0.00     0.014 C 
HETATM   22  C37 UNL     1      -1.898  50.422 -21.758  1.00  0.00     0.003 C 
HETATM   23  C38 UNL     1      -0.788  49.822 -20.852  1.00  0.00     0.020 C 
ENDROOT
BRANCH   3  24
HETATM   24  O1  UNL     1      -2.407  52.561 -22.899  1.00  0.00    -0.377 OA
HETATM   25  H2  UNL     1      -2.001  53.330 -23.333  1.00  0.00     0.211 HD
ENDBRANCH   3  24
BRANCH  13  26
HETATM   26  O2  UNL     1      -9.870  48.340 -19.585  1.00  0.00    -0.271 OA
BRANCH  26  27
HETATM   27  C13 UNL     1     -10.741  47.436 -20.246  1.00  0.00     0.303 C 
BRANCH  27  28
HETATM   28  C14 UNL     1     -12.183  47.644 -19.778  1.00  0.00     0.244 C 
HETATM   29  O3  UNL     1     -12.641  48.758 -19.544  1.00  0.00    -0.271 OA
HETATM   30  N2  UNL     1     -12.902  46.465 -19.640  1.00  0.00    -0.346 N 
HETATM   31  H16 UNL     1     -12.478  45.647 -20.056  1.00  0.00     0.163 HD
BRANCH  30  32
HETATM   32  C15 UNL     1     -14.369  46.402 -19.540  1.00  0.00     0.180 C 
BRANCH  32  33
HETATM   33  C16 UNL     1     -14.936  46.932 -20.888  1.00  0.00     0.241 C 
HETATM   34  O4  UNL     1     -14.802  48.092 -21.271  1.00  0.00    -0.271 OA
HETATM   35  N3  UNL     1     -15.548  45.973 -21.668  1.00  0.00    -0.354 N 
HETATM   36  H18 UNL     1     -15.594  45.014 -21.325  1.00  0.00     0.162 HD
BRANCH  35  37
HETATM   37  C17 UNL     1     -16.030  46.234 -23.015  1.00  0.00     0.098 C 
BRANCH  37  38
HETATM   38  C18 UNL     1     -15.009  46.969 -23.900  1.00  0.00     0.135 C 
BRANCH  38  39
HETATM   39  C19 UNL     1     -14.205  46.121 -24.844  1.00  0.00     0.141 C 
HETATM   40  O5  UNL     1     -13.079  46.314 -25.267  1.00  0.00    -0.650 OA
BRANCH  39  41
HETATM   41  O6  UNL     1     -14.886  45.016 -25.219  1.00  0.00    -0.776 OA
HETATM   42  H22 UNL     1     -14.255  44.524 -25.782  1.00  0.00     0.167 HD
ENDBRANCH  39  41
ENDBRANCH  38  39
ENDBRANCH  37  38
BRANCH  37  43
HETATM   43  C20 UNL     1     -17.486  46.801 -23.070  1.00  0.00     0.014 C 
HETATM   44  C21 UNL     1     -18.544  46.129 -22.193  1.00  0.00     0.033 C 
HETATM   45  C22 UNL     1     -18.969  44.753 -22.695  1.00  0.00     0.169 C 
HETATM   46  O7  UNL     1     -18.551  44.499 -24.039  1.00  0.00    -0.381 OA
HETATM   47  C23 UNL     1     -18.786  45.577 -24.960  1.00  0.00     0.054 C 
HETATM   48  C24 UNL     1     -20.293  45.840 -25.109  1.00  0.00     0.045 C 
HETATM   49  C25 UNL     1     -18.254  45.098 -26.318  1.00  0.00     0.045 C 
HETATM   50  C26 UNL     1     -18.022  46.852 -24.520  1.00  0.00     0.044 C 
ENDBRANCH  37  43
ENDBRANCH  35  37
ENDBRANCH  32  33
BRANCH  32  51
HETATM   51  C27 UNL     1     -15.008  47.048 -18.286  1.00  0.00     0.009 C 
HETATM   52  C28 UNL     1     -14.106  46.935 -17.053  1.00  0.00     0.012 C 
HETATM   53  C29 UNL     1     -15.320  48.533 -18.524  1.00  0.00     0.012 C 
ENDBRANCH  32  51
ENDBRANCH  30  32
ENDBRANCH  27  28
ENDBRANCH  26  27
ENDBRANCH  13  26
TORSDOF 12
ENDMDL
