MODEL 1
REMARK minimizedAffinity -9.55994892
REMARK CNNscore 0.264893681
REMARK CNNaffinity 6.49682426
REMARK  14 active torsions:
REMARK  status: ('A' for Active; 'I' for Inactive)
REMARK    1  A    between atoms: C2_2  and  C3_3 
REMARK    2  A    between atoms: C2_2  and  C35_44 
REMARK    3  A    between atoms: C3_3  and  C4_4 
REMARK    4  A    between atoms: C4_4  and  C5_5 
REMARK    5  A    between atoms: C5_5  and  C6_6 
REMARK    6  A    between atoms: C5_5  and  C7_9 
REMARK    7  A    between atoms: C6_6  and  O2_8 
REMARK    8  A    between atoms: C28_31  and  O4_32 
REMARK    9  A    between atoms: O4_32  and  C29_33 
REMARK   10  A    between atoms: C30_35  and  C31_36 
REMARK   11  A    between atoms: C31_36  and  O6_37 
REMARK   12  A    between atoms: C32_38  and  O7_39 
REMARK   13  A    between atoms: C33_40  and  O8_41 
REMARK   14  A    between atoms: C34_42  and  O9_43 
ROOT
HETATM    1  C7  UNL     1      -5.895   7.268  14.942  1.00  0.00     0.009 C 
HETATM    2  C8  UNL     1      -5.639   8.744  15.329  1.00  0.00     0.007 C 
HETATM    3  C9  UNL     1      -4.215   9.089  14.831  1.00  0.00     0.015 C 
HETATM    4  C10 UNL     1      -3.803   7.927  13.905  1.00  0.00    -0.010 C 
HETATM    5  C11 UNL     1      -4.415   8.239  12.500  1.00  0.00     0.021 C 
HETATM    6  C12 UNL     1      -2.328   7.625  13.612  1.00  0.00    -0.039 C 
HETATM    7  C13 UNL     1      -1.971   6.355  13.267  1.00  0.00    -0.066 C 
HETATM    8  C14 UNL     1      -2.963   5.184  13.327  1.00  0.00     0.036 C 
HETATM    9  C15 UNL     1      -4.404   5.488  13.775  1.00  0.00     0.015 C 
HETATM   10  C16 UNL     1      -4.464   6.723  14.673  1.00  0.00    -0.028 C 
HETATM   11  C17 UNL     1      -3.751   6.388  16.014  1.00  0.00     0.016 C 
HETATM   12  C18 UNL     1      -0.526   6.016  12.810  1.00  0.00    -0.015 C 
HETATM   13  C19 UNL     1       0.221   5.582  14.089  1.00  0.00     0.020 C 
HETATM   14  C20 UNL     1      -0.501   4.853  11.780  1.00  0.00     0.021 C 
HETATM   15  C21 UNL     1       0.874   4.592  11.189  1.00  0.00     0.080 C 
HETATM   16  C22 UNL     1       1.386   5.831  10.503  1.00  0.00     0.135 C 
HETATM   17  O3  UNL     1       1.809   5.768   9.347  1.00  0.00    -0.297 OA
HETATM   18  C23 UNL     1       1.428   7.124  11.329  1.00  0.00     0.018 C 
HETATM   19  C24 UNL     1       2.686   7.087  12.208  1.00  0.00     0.023 C 
HETATM   20  C25 UNL     1       1.604   8.308  10.344  1.00  0.00     0.023 C 
HETATM   21  C26 UNL     1       0.066   7.286  12.097  1.00  0.00     0.016 C 
HETATM   22  C27 UNL     1       0.050   8.468  13.068  1.00  0.00     0.043 C 
HETATM   23  C28 UNL     1      -1.361   8.805  13.576  1.00  0.00     0.155 C 
ENDROOT
BRANCH  23  24
HETATM   24  O4  UNL     1      -1.211   9.328  14.900  1.00  0.00    -0.349 OA
BRANCH  24  25
HETATM   25  C29 UNL     1      -0.116  10.253  15.025  1.00  0.00     0.292 C 
HETATM   26  O5  UNL     1       0.679   9.983  16.171  1.00  0.00    -0.348 OA
HETATM   27  C30 UNL     1       1.858  10.799  16.259  1.00  0.00     0.179 C 
HETATM   28  C32 UNL     1       1.769  12.142  15.491  1.00  0.00     0.180 C 
HETATM   29  C33 UNL     1       0.345  12.722  15.505  1.00  0.00     0.183 C 
HETATM   30  C34 UNL     1      -0.726  11.662  15.175  1.00  0.00     0.204 C 
BRANCH  27  31
HETATM   31  C31 UNL     1       2.159  11.003  17.750  1.00  0.00     0.198 C 
BRANCH  31  32
HETATM   32  O6  UNL     1       2.505   9.779  18.389  1.00  0.00    -0.398 OA
HETATM   33  H45 UNL     1       1.696   9.233  18.421  1.00  0.00     0.209 HD
ENDBRANCH  31  32
ENDBRANCH  27  31
BRANCH  28  34
HETATM   34  O7  UNL     1       2.177  11.911  14.130  1.00  0.00    -0.390 OA
HETATM   35  H47 UNL     1       2.076  12.747  13.637  1.00  0.00     0.210 HD
ENDBRANCH  28  34
BRANCH  29  36
HETATM   36  O8  UNL     1       0.067  13.308  16.785  1.00  0.00    -0.390 OA
HETATM   37  H49 UNL     1       0.652  14.076  16.895  1.00  0.00     0.210 HD
ENDBRANCH  29  36
BRANCH  30  38
HETATM   38  O9  UNL     1      -1.430  12.032  13.974  1.00  0.00    -0.388 OA
HETATM   39  H51 UNL     1      -2.142  11.367  13.886  1.00  0.00     0.210 HD
ENDBRANCH  30  38
ENDBRANCH  24  25
ENDBRANCH  23  24
BRANCH   1  40
HETATM   40  C5  UNL     1      -6.850   6.447  15.852  1.00  0.00     0.089 C 
BRANCH  40  41
HETATM   41  C4  UNL     1      -7.863   7.232  16.712  1.00  0.00     0.020 C 
BRANCH  41  42
HETATM   42  C3  UNL     1      -9.298   7.266  16.143  1.00  0.00     0.034 C 
BRANCH  42  43
HETATM   43  C2  UNL     1      -9.737   8.495  15.366  1.00  0.00    -0.086 C 
HETATM   44  C1  UNL     1      -9.031   9.640  15.342  1.00  0.00     0.014 C 
BRANCH  43  45
HETATM   45  C35 UNL     1     -11.020   8.387  14.546  1.00  0.00     0.005 C 
HETATM   46  C36 UNL     1     -11.432   9.729  13.934  1.00  0.00     0.014 C 
HETATM   47  C37 UNL     1     -10.916   7.306  13.468  1.00  0.00     0.014 C 
ENDBRANCH  43  45
ENDBRANCH  42  43
ENDBRANCH  41  42
ENDBRANCH  40  41
BRANCH  40  48
HETATM   48  C6  UNL     1      -7.573   5.444  14.968  1.00  0.00     0.144 C 
HETATM   49  O1  UNL     1      -7.897   5.619  13.806  1.00  0.00    -0.650 OA
BRANCH  48  50
HETATM   50  O2  UNL     1      -7.902   4.303  15.598  1.00  0.00    -0.776 OA
HETATM   51  H8  UNL     1      -8.378   3.785  14.915  1.00  0.00     0.167 HD
ENDBRANCH  48  50
ENDBRANCH  40  48
ENDBRANCH   1  40
TORSDOF 14
ENDMDL
MODEL 2
REMARK minimizedAffinity -8.66518974
REMARK CNNscore 0.250999033
REMARK CNNaffinity 6.61967707
REMARK  14 active torsions:
REMARK  status: ('A' for Active; 'I' for Inactive)
REMARK    1  A    between atoms: C2_2  and  C3_3 
REMARK    2  A    between atoms: C2_2  and  C35_44 
REMARK    3  A    between atoms: C3_3  and  C4_4 
REMARK    4  A    between atoms: C4_4  and  C5_5 
REMARK    5  A    between atoms: C5_5  and  C6_6 
REMARK    6  A    between atoms: C5_5  and  C7_9 
REMARK    7  A    between atoms: C6_6  and  O2_8 
REMARK    8  A    between atoms: C28_31  and  O4_32 
REMARK    9  A    between atoms: O4_32  and  C29_33 
REMARK   10  A    between atoms: C30_35  and  C31_36 
REMARK   11  A    between atoms: C31_36  and  O6_37 
REMARK   12  A    between atoms: C32_38  and  O7_39 
REMARK   13  A    between atoms: C33_40  and  O8_41 
REMARK   14  A    between atoms: C34_42  and  O9_43 
ROOT
HETATM    1  C7  UNL     1       1.123  10.972  17.273  1.00  0.00     0.009 C 
HETATM    2  C8  UNL     1       2.614  10.830  17.661  1.00  0.00     0.007 C 
HETATM    3  C9  UNL     1       3.318  10.153  16.460  1.00  0.00     0.015 C 
HETATM    4  C10 UNL     1       2.305  10.203  15.299  1.00  0.00    -0.010 C 
HETATM    5  C11 UNL     1       2.450  11.616  14.643  1.00  0.00     0.021 C 
HETATM    6  C12 UNL     1       2.398   9.231  14.117  1.00  0.00    -0.039 C 
HETATM    7  C13 UNL     1       1.266   8.931  13.419  1.00  0.00    -0.066 C 
HETATM    8  C14 UNL     1      -0.123   9.399  13.879  1.00  0.00     0.036 C 
HETATM    9  C15 UNL     1      -0.206  10.248  15.160  1.00  0.00     0.015 C 
HETATM   10  C16 UNL     1       0.969   9.967  16.096  1.00  0.00    -0.028 C 
HETATM   11  C17 UNL     1       0.828   8.516  16.637  1.00  0.00     0.016 C 
HETATM   12  C18 UNL     1       1.315   8.076  12.123  1.00  0.00    -0.015 C 
HETATM   13  C19 UNL     1       1.087   6.619  12.579  1.00  0.00     0.020 C 
HETATM   14  C20 UNL     1       0.201   8.481  11.119  1.00  0.00     0.021 C 
HETATM   15  C21 UNL     1       0.308   7.780   9.776  1.00  0.00     0.080 C 
HETATM   16  C22 UNL     1       1.639   8.082   9.139  1.00  0.00     0.135 C 
HETATM   17  O3  UNL     1       1.691   8.489   7.977  1.00  0.00    -0.297 OA
HETATM   18  C23 UNL     1       2.896   7.783   9.966  1.00  0.00     0.018 C 
HETATM   19  C24 UNL     1       3.186   6.279   9.866  1.00  0.00     0.023 C 
HETATM   20  C25 UNL     1       4.087   8.515   9.296  1.00  0.00     0.023 C 
HETATM   21  C26 UNL     1       2.696   8.341  11.422  1.00  0.00     0.016 C 
HETATM   22  C27 UNL     1       3.832   7.972  12.378  1.00  0.00     0.043 C 
HETATM   23  C28 UNL     1       3.789   8.767  13.693  1.00  0.00     0.155 C 
ENDROOT
BRANCH  23  24
HETATM   24  O4  UNL     1       4.330   7.917  14.710  1.00  0.00    -0.349 OA
BRANCH  24  25
HETATM   25  C29 UNL     1       5.687   8.243  15.059  1.00  0.00     0.292 C 
HETATM   26  O5  UNL     1       5.972   9.621  14.859  1.00  0.00    -0.348 OA
HETATM   27  C30 UNL     1       7.273  10.013  15.322  1.00  0.00     0.179 C 
HETATM   28  C32 UNL     1       8.303   8.858  15.398  1.00  0.00     0.180 C 
HETATM   29  C33 UNL     1       8.087   7.818  14.287  1.00  0.00     0.183 C 
HETATM   30  C34 UNL     1       6.606   7.416  14.136  1.00  0.00     0.204 C 
BRANCH  27  31
HETATM   31  C31 UNL     1       7.751  11.158  14.417  1.00  0.00     0.198 C 
BRANCH  31  32
HETATM   32  O6  UNL     1       7.257  11.018  13.090  1.00  0.00    -0.398 OA
HETATM   33  H45 UNL     1       7.709  10.249  12.694  1.00  0.00     0.209 HD
ENDBRANCH  31  32
ENDBRANCH  27  31
BRANCH  28  34
HETATM   34  O7  UNL     1       8.172   8.221  16.682  1.00  0.00    -0.390 OA
HETATM   35  H47 UNL     1       8.789   7.465  16.710  1.00  0.00     0.210 HD
ENDBRANCH  28  34
BRANCH  29  36
HETATM   36  O8  UNL     1       8.581   8.324  13.038  1.00  0.00    -0.390 OA
HETATM   37  H49 UNL     1       9.545   8.414  13.113  1.00  0.00     0.210 HD
ENDBRANCH  29  36
BRANCH  30  38
HETATM   38  O9  UNL     1       6.449   6.009  14.404  1.00  0.00    -0.388 OA
HETATM   39  H51 UNL     1       5.510   5.819  14.200  1.00  0.00     0.210 HD
ENDBRANCH  30  38
ENDBRANCH  24  25
ENDBRANCH  23  24
BRANCH   1  40
HETATM   40  C5  UNL     1       0.080  10.941  18.424  1.00  0.00     0.089 C 
BRANCH  40  41
HETATM   41  C4  UNL     1       0.613  11.015  19.870  1.00  0.00     0.020 C 
BRANCH  41  42
HETATM   42  C3  UNL     1       2.053  10.488  20.051  1.00  0.00     0.034 C 
BRANCH  42  43
HETATM   43  C2  UNL     1       2.498  10.066  21.440  1.00  0.00    -0.086 C 
HETATM   44  C1  UNL     1       2.023   8.971  22.062  1.00  0.00     0.014 C 
BRANCH  43  45
HETATM   45  C35 UNL     1       3.568  10.914  22.124  1.00  0.00     0.005 C 
HETATM   46  C36 UNL     1       2.984  12.171  22.775  1.00  0.00     0.014 C 
HETATM   47  C37 UNL     1       4.374  10.099  23.138  1.00  0.00     0.014 C 
ENDBRANCH  43  45
ENDBRANCH  42  43
ENDBRANCH  41  42
ENDBRANCH  40  41
BRANCH  40  48
HETATM   48  C6  UNL     1      -0.913  12.063  18.170  1.00  0.00     0.144 C 
HETATM   49  O1  UNL     1      -0.772  12.976  17.374  1.00  0.00    -0.650 OA
BRANCH  48  50
HETATM   50  O2  UNL     1      -1.999  12.018  18.962  1.00  0.00    -0.776 OA
HETATM   51  H8  UNL     1      -2.516  12.809  18.700  1.00  0.00     0.167 HD
ENDBRANCH  48  50
ENDBRANCH  40  48
ENDBRANCH   1  40
TORSDOF 14
ENDMDL
MODEL 3
REMARK minimizedAffinity -7.77471161
REMARK CNNscore 0.247230992
REMARK CNNaffinity 6.94178343
REMARK  14 active torsions:
REMARK  status: ('A' for Active; 'I' for Inactive)
REMARK    1  A    between atoms: C2_2  and  C3_3 
REMARK    2  A    between atoms: C2_2  and  C35_44 
REMARK    3  A    between atoms: C3_3  and  C4_4 
REMARK    4  A    between atoms: C4_4  and  C5_5 
REMARK    5  A    between atoms: C5_5  and  C6_6 
REMARK    6  A    between atoms: C5_5  and  C7_9 
REMARK    7  A    between atoms: C6_6  and  O2_8 
REMARK    8  A    between atoms: C28_31  and  O4_32 
REMARK    9  A    between atoms: O4_32  and  C29_33 
REMARK   10  A    between atoms: C30_35  and  C31_36 
REMARK   11  A    between atoms: C31_36  and  O6_37 
REMARK   12  A    between atoms: C32_38  and  O7_39 
REMARK   13  A    between atoms: C33_40  and  O8_41 
REMARK   14  A    between atoms: C34_42  and  O9_43 
ROOT
HETATM    1  C7  UNL     1      -1.460   8.598  14.270  1.00  0.00     0.009 C 
HETATM    2  C8  UNL     1      -1.247   7.392  13.325  1.00  0.00     0.007 C 
HETATM    3  C9  UNL     1      -2.644   6.771  13.081  1.00  0.00     0.015 C 
HETATM    4  C10 UNL     1      -3.658   7.798  13.624  1.00  0.00    -0.010 C 
HETATM    5  C11 UNL     1      -3.879   8.849  12.486  1.00  0.00     0.021 C 
HETATM    6  C12 UNL     1      -5.077   7.381  14.028  1.00  0.00    -0.039 C 
HETATM    7  C13 UNL     1      -5.743   8.123  14.958  1.00  0.00    -0.066 C 
HETATM    8  C14 UNL     1      -5.061   9.259  15.735  1.00  0.00     0.036 C 
HETATM    9  C15 UNL     1      -3.584   9.558  15.420  1.00  0.00     0.015 C 
HETATM   10  C16 UNL     1      -2.865   8.323  14.878  1.00  0.00    -0.028 C 
HETATM   11  C17 UNL     1      -2.765   7.274  16.021  1.00  0.00     0.016 C 
HETATM   12  C18 UNL     1      -7.232   7.847  15.300  1.00  0.00    -0.015 C 
HETATM   13  C19 UNL     1      -7.209   6.875  16.499  1.00  0.00     0.020 C 
HETATM   14  C20 UNL     1      -7.984   9.145  15.705  1.00  0.00     0.021 C 
HETATM   15  C21 UNL     1      -9.479   8.948  15.895  1.00  0.00     0.080 C 
HETATM   16  C22 UNL     1     -10.099   8.429  14.625  1.00  0.00     0.135 C 
HETATM   17  O3  UNL     1     -11.090   8.985  14.148  1.00  0.00    -0.297 OA
HETATM   18  C23 UNL     1      -9.495   7.155  14.019  1.00  0.00     0.018 C 
HETATM   19  C24 UNL     1     -10.055   5.950  14.788  1.00  0.00     0.023 C 
HETATM   20  C25 UNL     1     -10.010   7.036  12.562  1.00  0.00     0.023 C 
HETATM   21  C26 UNL     1      -7.929   7.286  14.007  1.00  0.00     0.016 C 
HETATM   22  C27 UNL     1      -7.213   6.011  13.556  1.00  0.00     0.043 C 
HETATM   23  C28 UNL     1      -5.724   6.237  13.251  1.00  0.00     0.155 C 
ENDROOT
BRANCH  23  24
HETATM   24  O4  UNL     1      -5.046   5.016  13.565  1.00  0.00    -0.349 OA
BRANCH  24  25
HETATM   25  C29 UNL     1      -4.795   4.193  12.411  1.00  0.00     0.292 C 
HETATM   26  O5  UNL     1      -5.883   3.322  12.134  1.00  0.00    -0.348 OA
HETATM   27  C30 UNL     1      -5.730   2.580  10.913  1.00  0.00     0.179 C 
HETATM   28  C32 UNL     1      -4.263   2.404  10.448  1.00  0.00     0.180 C 
HETATM   29  C33 UNL     1      -3.292   2.276  11.635  1.00  0.00     0.183 C 
HETATM   30  C34 UNL     1      -3.551   3.337  12.724  1.00  0.00     0.204 C 
BRANCH  27  31
HETATM   31  C31 UNL     1      -6.442   1.234  11.108  1.00  0.00     0.198 C 
BRANCH  31  32
HETATM   32  O6  UNL     1      -7.274   1.242  12.263  1.00  0.00    -0.398 OA
HETATM   33  H45 UNL     1      -6.686   1.272  13.041  1.00  0.00     0.209 HD
ENDBRANCH  31  32
ENDBRANCH  27  31
BRANCH  28  34
HETATM   34  O7  UNL     1      -3.900   3.550   9.656  1.00  0.00    -0.390 OA
HETATM   35  H47 UNL     1      -2.962   3.459   9.403  1.00  0.00     0.210 HD
ENDBRANCH  28  34
BRANCH  29  36
HETATM   36  O8  UNL     1      -3.385   0.963  12.206  1.00  0.00    -0.390 OA
HETATM   37  H49 UNL     1      -3.061   0.328  11.546  1.00  0.00     0.210 HD
ENDBRANCH  29  36
BRANCH  30  38
HETATM   38  O9  UNL     1      -2.392   4.178  12.877  1.00  0.00    -0.388 OA
HETATM   39  H51 UNL     1      -2.600   4.756  13.639  1.00  0.00     0.210 HD
ENDBRANCH  30  38
ENDBRANCH  24  25
ENDBRANCH  23  24
BRANCH   1  40
HETATM   40  C5  UNL     1      -0.293   8.973  15.224  1.00  0.00     0.089 C 
BRANCH  40  41
HETATM   41  C4  UNL     1      -0.662   9.491  16.630  1.00  0.00     0.020 C 
BRANCH  41  42
HETATM   42  C3  UNL     1       0.004  10.829  17.017  1.00  0.00     0.034 C 
BRANCH  42  43
HETATM   43  C2  UNL     1      -0.874  12.061  17.145  1.00  0.00    -0.086 C 
HETATM   44  C1  UNL     1      -1.581  12.569  16.118  1.00  0.00     0.014 C 
BRANCH  43  45
HETATM   45  C35 UNL     1      -0.979  12.711  18.523  1.00  0.00     0.005 C 
HETATM   46  C36 UNL     1      -2.430  12.986  18.926  1.00  0.00     0.014 C 
HETATM   47  C37 UNL     1      -0.262  11.887  19.594  1.00  0.00     0.014 C 
ENDBRANCH  43  45
ENDBRANCH  42  43
ENDBRANCH  41  42
ENDBRANCH  40  41
BRANCH  40  48
HETATM   48  C6  UNL     1       0.617   7.761  15.331  1.00  0.00     0.144 C 
HETATM   49  O1  UNL     1       1.522   7.476  14.564  1.00  0.00    -0.650 OA
BRANCH  48  50
HETATM   50  O2  UNL     1       0.313   6.940  16.352  1.00  0.00    -0.776 OA
HETATM   51  H8  UNL     1       0.959   6.208  16.267  1.00  0.00     0.167 HD
ENDBRANCH  48  50
ENDBRANCH  40  48
ENDBRANCH   1  40
TORSDOF 14
ENDMDL
MODEL 4
REMARK minimizedAffinity -9.66971302
REMARK CNNscore 0.232627645
REMARK CNNaffinity 6.77369833
REMARK  14 active torsions:
REMARK  status: ('A' for Active; 'I' for Inactive)
REMARK    1  A    between atoms: C2_2  and  C3_3 
REMARK    2  A    between atoms: C2_2  and  C35_44 
REMARK    3  A    between atoms: C3_3  and  C4_4 
REMARK    4  A    between atoms: C4_4  and  C5_5 
REMARK    5  A    between atoms: C5_5  and  C6_6 
REMARK    6  A    between atoms: C5_5  and  C7_9 
REMARK    7  A    between atoms: C6_6  and  O2_8 
REMARK    8  A    between atoms: C28_31  and  O4_32 
REMARK    9  A    between atoms: O4_32  and  C29_33 
REMARK   10  A    between atoms: C30_35  and  C31_36 
REMARK   11  A    between atoms: C31_36  and  O6_37 
REMARK   12  A    between atoms: C32_38  and  O7_39 
REMARK   13  A    between atoms: C33_40  and  O8_41 
REMARK   14  A    between atoms: C34_42  and  O9_43 
ROOT
HETATM    1  C7  UNL     1      -5.737   5.147  14.015  1.00  0.00     0.009 C 
HETATM    2  C8  UNL     1      -4.614   4.648  13.076  1.00  0.00     0.007 C 
HETATM    3  C9  UNL     1      -3.402   5.584  13.303  1.00  0.00     0.015 C 
HETATM    4  C10 UNL     1      -3.733   6.395  14.572  1.00  0.00    -0.010 C 
HETATM    5  C11 UNL     1      -3.325   5.502  15.790  1.00  0.00     0.021 C 
HETATM    6  C12 UNL     1      -3.058   7.742  14.856  1.00  0.00    -0.039 C 
HETATM    7  C13 UNL     1      -3.708   8.654  15.635  1.00  0.00    -0.066 C 
HETATM    8  C14 UNL     1      -5.158   8.445  16.097  1.00  0.00     0.036 C 
HETATM    9  C15 UNL     1      -5.868   7.149  15.667  1.00  0.00     0.015 C 
HETATM   10  C16 UNL     1      -5.281   6.591  14.372  1.00  0.00    -0.028 C 
HETATM   11  C17 UNL     1      -5.628   7.570  13.215  1.00  0.00     0.016 C 
HETATM   12  C18 UNL     1      -3.020   9.972  16.084  1.00  0.00    -0.015 C 
HETATM   13  C19 UNL     1      -3.403  11.022  15.020  1.00  0.00     0.020 C 
HETATM   14  C20 UNL     1      -3.524  10.443  17.476  1.00  0.00     0.021 C 
HETATM   15  C21 UNL     1      -2.766  11.640  18.025  1.00  0.00     0.080 C 
HETATM   16  C22 UNL     1      -1.301  11.314  18.147  1.00  0.00     0.135 C 
HETATM   17  O3  UNL     1      -0.707  11.523  19.206  1.00  0.00    -0.297 OA
HETATM   18  C23 UNL     1      -0.589  10.799  16.888  1.00  0.00     0.018 C 
HETATM   19  C24 UNL     1      -0.250  12.008  16.005  1.00  0.00     0.023 C 
HETATM   20  C25 UNL     1       0.758  10.174  17.331  1.00  0.00     0.023 C 
HETATM   21  C26 UNL     1      -1.479   9.693  16.214  1.00  0.00     0.016 C 
HETATM   22  C27 UNL     1      -0.934   9.209  14.868  1.00  0.00     0.043 C 
HETATM   23  C28 UNL     1      -1.624   7.929  14.369  1.00  0.00     0.155 C 
ENDROOT
BRANCH  23  24
HETATM   24  O4  UNL     1      -1.618   7.986  12.939  1.00  0.00    -0.349 OA
BRANCH  24  25
HETATM   25  C29 UNL     1      -0.303   7.851  12.371  1.00  0.00     0.292 C 
HETATM   26  O5  UNL     1      -0.225   8.419  11.070  1.00  0.00    -0.348 OA
HETATM   27  C30 UNL     1       1.103   8.426  10.523  1.00  0.00     0.179 C 
HETATM   28  C32 UNL     1       2.049   7.356  11.122  1.00  0.00     0.180 C 
HETATM   29  C33 UNL     1       1.301   6.064  11.492  1.00  0.00     0.183 C 
HETATM   30  C34 UNL     1      -0.006   6.341  12.261  1.00  0.00     0.204 C 
BRANCH  27  31
HETATM   31  C31 UNL     1       0.966   8.292   9.000  1.00  0.00     0.198 C 
BRANCH  31  32
HETATM   32  O6  UNL     1      -0.138   9.041   8.504  1.00  0.00    -0.398 OA
HETATM   33  H45 UNL     1      -0.950   8.598   8.817  1.00  0.00     0.209 HD
ENDBRANCH  31  32
ENDBRANCH  27  31
BRANCH  28  34
HETATM   34  O7  UNL     1       2.664   7.906  12.302  1.00  0.00    -0.390 OA
HETATM   35  H47 UNL     1       3.224   7.215  12.703  1.00  0.00     0.210 HD
ENDBRANCH  28  34
BRANCH  29  36
HETATM   36  O8  UNL     1       1.014   5.307  10.307  1.00  0.00    -0.390 OA
HETATM   37  H49 UNL     1       1.859   5.009   9.931  1.00  0.00     0.210 HD
ENDBRANCH  29  36
BRANCH  30  38
HETATM   38  O9  UNL     1       0.060   5.748  13.572  1.00  0.00    -0.388 OA
HETATM   39  H51 UNL     1      -0.830   5.888  13.956  1.00  0.00     0.210 HD
ENDBRANCH  30  38
ENDBRANCH  24  25
ENDBRANCH  23  24
BRANCH   1  40
HETATM   40  C5  UNL     1      -7.205   4.918  13.558  1.00  0.00     0.089 C 
BRANCH  40  41
HETATM   41  C4  UNL     1      -7.870   6.029  12.718  1.00  0.00     0.020 C 
BRANCH  41  42
HETATM   42  C3  UNL     1      -9.403   6.119  12.871  1.00  0.00     0.034 C 
BRANCH  42  43
HETATM   43  C2  UNL     1      -9.967   6.862  14.070  1.00  0.00    -0.086 C 
HETATM   44  C1  UNL     1      -9.290   7.015  15.223  1.00  0.00     0.014 C 
BRANCH  43  45
HETATM   45  C35 UNL     1     -11.349   7.494  13.921  1.00  0.00     0.005 C 
HETATM   46  C36 UNL     1     -11.594   8.024  12.506  1.00  0.00     0.014 C 
HETATM   47  C37 UNL     1     -12.461   6.532  14.344  1.00  0.00     0.014 C 
ENDBRANCH  43  45
ENDBRANCH  42  43
ENDBRANCH  41  42
ENDBRANCH  40  41
BRANCH  40  48
HETATM   48  C6  UNL     1      -7.249   3.595  12.812  1.00  0.00     0.144 C 
HETATM   49  O1  UNL     1      -7.669   2.539  13.254  1.00  0.00    -0.650 OA
BRANCH  48  50
HETATM   50  O2  UNL     1      -6.716   3.648  11.579  1.00  0.00    -0.776 OA
HETATM   51  H8  UNL     1      -6.793   2.728  11.249  1.00  0.00     0.167 HD
ENDBRANCH  48  50
ENDBRANCH  40  48
ENDBRANCH   1  40
TORSDOF 14
ENDMDL
MODEL 5
REMARK minimizedAffinity -7.81034517
REMARK CNNscore 0.230077952
REMARK CNNaffinity 6.3567729
REMARK  14 active torsions:
REMARK  status: ('A' for Active; 'I' for Inactive)
REMARK    1  A    between atoms: C2_2  and  C3_3 
REMARK    2  A    between atoms: C2_2  and  C35_44 
REMARK    3  A    between atoms: C3_3  and  C4_4 
REMARK    4  A    between atoms: C4_4  and  C5_5 
REMARK    5  A    between atoms: C5_5  and  C6_6 
REMARK    6  A    between atoms: C5_5  and  C7_9 
REMARK    7  A    between atoms: C6_6  and  O2_8 
REMARK    8  A    between atoms: C28_31  and  O4_32 
REMARK    9  A    between atoms: O4_32  and  C29_33 
REMARK   10  A    between atoms: C30_35  and  C31_36 
REMARK   11  A    between atoms: C31_36  and  O6_37 
REMARK   12  A    between atoms: C32_38  and  O7_39 
REMARK   13  A    between atoms: C33_40  and  O8_41 
REMARK   14  A    between atoms: C34_42  and  O9_43 
ROOT
HETATM    1  C7  UNL     1      -0.709   9.813  16.521  1.00  0.00     0.009 C 
HETATM    2  C8  UNL     1       0.622   9.983  17.290  1.00  0.00     0.007 C 
HETATM    3  C9  UNL     1       1.753   9.629  16.295  1.00  0.00     0.015 C 
HETATM    4  C10 UNL     1       1.085   9.568  14.906  1.00  0.00    -0.010 C 
HETATM    5  C11 UNL     1       1.022  11.039  14.378  1.00  0.00     0.021 C 
HETATM    6  C12 UNL     1       1.717   8.783  13.751  1.00  0.00    -0.039 C 
HETATM    7  C13 UNL     1       0.911   8.304  12.761  1.00  0.00    -0.066 C 
HETATM    8  C14 UNL     1      -0.621   8.378  12.849  1.00  0.00     0.036 C 
HETATM    9  C15 UNL     1      -1.236   9.035  14.097  1.00  0.00     0.015 C 
HETATM   10  C16 UNL     1      -0.301   8.937  15.302  1.00  0.00    -0.028 C 
HETATM   11  C17 UNL     1      -0.196   7.443  15.719  1.00  0.00     0.016 C 
HETATM   12  C18 UNL     1       1.500   7.634  11.490  1.00  0.00    -0.015 C 
HETATM   13  C19 UNL     1       1.547   6.123  11.801  1.00  0.00     0.020 C 
HETATM   14  C20 UNL     1       0.607   7.874  10.241  1.00  0.00     0.021 C 
HETATM   15  C21 UNL     1       1.223   7.372   8.946  1.00  0.00     0.080 C 
HETATM   16  C22 UNL     1       2.548   8.047   8.707  1.00  0.00     0.135 C 
HETATM   17  O3  UNL     1       2.782   8.582   7.621  1.00  0.00    -0.297 OA
HETATM   18  C23 UNL     1       3.591   7.963   9.828  1.00  0.00     0.018 C 
HETATM   19  C24 UNL     1       4.273   6.590   9.743  1.00  0.00     0.023 C 
HETATM   20  C25 UNL     1       4.683   9.025   9.538  1.00  0.00     0.023 C 
HETATM   21  C26 UNL     1       2.897   8.293  11.200  1.00  0.00     0.016 C 
HETATM   22  C27 UNL     1       3.813   8.098  12.409  1.00  0.00     0.043 C 
HETATM   23  C28 UNL     1       3.241   8.710  13.698  1.00  0.00     0.155 C 
ENDROOT
BRANCH  23  24
HETATM   24  O4  UNL     1       3.709   7.904  14.784  1.00  0.00    -0.349 OA
BRANCH  24  25
HETATM   25  C29 UNL     1       4.996   8.313  15.281  1.00  0.00     0.292 C 
HETATM   26  O5  UNL     1       5.121   9.728  15.330  1.00  0.00    -0.348 OA
HETATM   27  C30 UNL     1       6.338  10.177  15.946  1.00  0.00     0.179 C 
HETATM   28  C32 UNL     1       7.495   9.147  15.908  1.00  0.00     0.180 C 
HETATM   29  C33 UNL     1       7.468   8.295  14.628  1.00  0.00     0.183 C 
HETATM   30  C34 UNL     1       6.057   7.763  14.306  1.00  0.00     0.204 C 
BRANCH  27  31
HETATM   31  C31 UNL     1       6.721  11.505  15.278  1.00  0.00     0.198 C 
BRANCH  31  32
HETATM   32  O6  UNL     1       6.336  11.534  13.908  1.00  0.00    -0.398 OA
HETATM   33  H45 UNL     1       6.908  10.900  13.435  1.00  0.00     0.209 HD
ENDBRANCH  31  32
ENDBRANCH  27  31
BRANCH  28  34
HETATM   34  O7  UNL     1       7.374   8.289  17.057  1.00  0.00    -0.390 OA
HETATM   35  H47 UNL     1       8.076   7.613  17.006  1.00  0.00     0.210 HD
ENDBRANCH  28  34
BRANCH  29  36
HETATM   36  O8  UNL     1       7.963   9.058  13.519  1.00  0.00    -0.390 OA
HETATM   37  H49 UNL     1       8.904   9.241  13.678  1.00  0.00     0.210 HD
ENDBRANCH  29  36
BRANCH  30  38
HETATM   38  O9  UNL     1       6.057   6.323  14.328  1.00  0.00    -0.388 OA
HETATM   39  H51 UNL     1       5.162   6.067  14.027  1.00  0.00     0.210 HD
ENDBRANCH  30  38
ENDBRANCH  24  25
ENDBRANCH  23  24
BRANCH   1  40
HETATM   40  C5  UNL     1      -1.964   9.409  17.345  1.00  0.00     0.089 C 
BRANCH  40  41
HETATM   41  C4  UNL     1      -2.304  10.262  18.585  1.00  0.00     0.020 C 
BRANCH  41  42
HETATM   42  C3  UNL     1      -1.493  11.569  18.708  1.00  0.00     0.034 C 
BRANCH  42  43
HETATM   43  C2  UNL     1      -2.010  12.809  18.000  1.00  0.00    -0.086 C 
HETATM   44  C1  UNL     1      -1.552  13.215  16.802  1.00  0.00     0.014 C 
BRANCH  43  45
HETATM   45  C35 UNL     1      -3.135  13.589  18.678  1.00  0.00     0.005 C 
HETATM   46  C36 UNL     1      -4.205  12.668  19.269  1.00  0.00     0.014 C 
HETATM   47  C37 UNL     1      -2.597  14.552  19.739  1.00  0.00     0.014 C 
ENDBRANCH  43  45
ENDBRANCH  42  43
ENDBRANCH  41  42
ENDBRANCH  40  41
BRANCH  40  48
HETATM   48  C6  UNL     1      -3.145   9.373  16.390  1.00  0.00     0.144 C 
HETATM   49  O1  UNL     1      -3.675   8.369  15.945  1.00  0.00    -0.650 OA
BRANCH  48  50
HETATM   50  O2  UNL     1      -3.563  10.589  15.996  1.00  0.00    -0.776 OA
HETATM   51  H8  UNL     1      -4.295  10.397  15.373  1.00  0.00     0.167 HD
ENDBRANCH  48  50
ENDBRANCH  40  48
ENDBRANCH   1  40
TORSDOF 14
ENDMDL
MODEL 6
REMARK minimizedAffinity -9.39922142
REMARK CNNscore 0.21535033
REMARK CNNaffinity 6.87467623
REMARK  14 active torsions:
REMARK  status: ('A' for Active; 'I' for Inactive)
REMARK    1  A    between atoms: C2_2  and  C3_3 
REMARK    2  A    between atoms: C2_2  and  C35_44 
REMARK    3  A    between atoms: C3_3  and  C4_4 
REMARK    4  A    between atoms: C4_4  and  C5_5 
REMARK    5  A    between atoms: C5_5  and  C6_6 
REMARK    6  A    between atoms: C5_5  and  C7_9 
REMARK    7  A    between atoms: C6_6  and  O2_8 
REMARK    8  A    between atoms: C28_31  and  O4_32 
REMARK    9  A    between atoms: O4_32  and  C29_33 
REMARK   10  A    between atoms: C30_35  and  C31_36 
REMARK   11  A    between atoms: C31_36  and  O6_37 
REMARK   12  A    between atoms: C32_38  and  O7_39 
REMARK   13  A    between atoms: C33_40  and  O8_41 
REMARK   14  A    between atoms: C34_42  and  O9_43 
ROOT
HETATM    1  C7  UNL     1      -5.805   7.216  14.817  1.00  0.00     0.009 C 
HETATM    2  C8  UNL     1      -5.409   8.535  15.522  1.00  0.00     0.007 C 
HETATM    3  C9  UNL     1      -3.942   8.825  15.120  1.00  0.00     0.015 C 
HETATM    4  C10 UNL     1      -3.627   7.857  13.962  1.00  0.00    -0.010 C 
HETATM    5  C11 UNL     1      -4.163   8.534  12.658  1.00  0.00     0.021 C 
HETATM    6  C12 UNL     1      -2.184   7.470  13.616  1.00  0.00    -0.039 C 
HETATM    7  C13 UNL     1      -1.951   6.276  13.000  1.00  0.00    -0.066 C 
HETATM    8  C14 UNL     1      -3.061   5.235  12.794  1.00  0.00     0.036 C 
HETATM    9  C15 UNL     1      -4.475   5.586  13.292  1.00  0.00     0.015 C 
HETATM   10  C16 UNL     1      -4.431   6.592  14.441  1.00  0.00    -0.028 C 
HETATM   11  C17 UNL     1      -3.796   5.896  15.677  1.00  0.00     0.016 C 
HETATM   12  C18 UNL     1      -0.537   5.891  12.487  1.00  0.00    -0.015 C 
HETATM   13  C19 UNL     1       0.124   5.109  13.642  1.00  0.00     0.020 C 
HETATM   14  C20 UNL     1      -0.604   4.988  11.225  1.00  0.00     0.021 C 
HETATM   15  C21 UNL     1       0.753   4.717  10.598  1.00  0.00     0.080 C 
HETATM   16  C22 UNL     1       1.411   6.013  10.206  1.00  0.00     0.135 C 
HETATM   17  O3  UNL     1       1.858   6.161   9.067  1.00  0.00    -0.297 OA
HETATM   18  C23 UNL     1       1.564   7.081  11.298  1.00  0.00     0.018 C 
HETATM   19  C24 UNL     1       2.785   6.716  12.153  1.00  0.00     0.023 C 
HETATM   20  C25 UNL     1       1.890   8.426  10.600  1.00  0.00     0.023 C 
HETATM   21  C26 UNL     1       0.205   7.215  12.076  1.00  0.00     0.016 C 
HETATM   22  C27 UNL     1       0.284   8.151  13.284  1.00  0.00     0.043 C 
HETATM   23  C28 UNL     1      -1.098   8.518  13.848  1.00  0.00     0.155 C 
ENDROOT
BRANCH  23  24
HETATM   24  O4  UNL     1      -0.933   8.717  15.256  1.00  0.00    -0.349 OA
BRANCH  24  25
HETATM   25  C29 UNL     1       0.407   9.092  15.623  1.00  0.00     0.292 C 
HETATM   26  O5  UNL     1       0.990   9.975  14.674  1.00  0.00    -0.348 OA
HETATM   27  C30 UNL     1       2.275  10.479  15.071  1.00  0.00     0.179 C 
HETATM   28  C32 UNL     1       3.029   9.586  16.087  1.00  0.00     0.180 C 
HETATM   29  C33 UNL     1       2.748   8.091  15.863  1.00  0.00     0.183 C 
HETATM   30  C34 UNL     1       1.246   7.798  15.665  1.00  0.00     0.204 C 
BRANCH  27  31
HETATM   31  C31 UNL     1       3.086  10.711  13.789  1.00  0.00     0.198 C 
BRANCH  31  32
HETATM   32  O6  UNL     1       4.458  10.374  13.966  1.00  0.00    -0.398 OA
HETATM   33  H45 UNL     1       4.841  11.039  14.569  1.00  0.00     0.209 HD
ENDBRANCH  31  32
ENDBRANCH  27  31
BRANCH  28  34
HETATM   34  O7  UNL     1       2.610   9.958  17.413  1.00  0.00    -0.390 OA
HETATM   35  H47 UNL     1       3.051   9.363  18.049  1.00  0.00     0.210 HD
ENDBRANCH  28  34
BRANCH  29  36
HETATM   36  O8  UNL     1       3.487   7.617  14.729  1.00  0.00    -0.390 OA
HETATM   37  H49 UNL     1       4.433   7.664  14.949  1.00  0.00     0.210 HD
ENDBRANCH  29  36
BRANCH  30  38
HETATM   38  O9  UNL     1       0.772   6.928  16.710  1.00  0.00    -0.388 OA
HETATM   39  H51 UNL     1      -0.152   6.720  16.463  1.00  0.00     0.210 HD
ENDBRANCH  30  38
ENDBRANCH  24  25
ENDBRANCH  23  24
BRANCH   1  40
HETATM   40  C5  UNL     1      -6.866   6.323  15.517  1.00  0.00     0.089 C 
BRANCH  40  41
HETATM   41  C4  UNL     1      -7.873   7.019  16.457  1.00  0.00     0.020 C 
BRANCH  41  42
HETATM   42  C3  UNL     1      -9.309   7.118  15.900  1.00  0.00     0.034 C 
BRANCH  42  43
HETATM   43  C2  UNL     1      -9.729   8.406  15.214  1.00  0.00    -0.086 C 
HETATM   44  C1  UNL     1      -9.191   9.604  15.507  1.00  0.00     0.014 C 
BRANCH  43  45
HETATM   45  C35 UNL     1     -10.779   8.305  14.110  1.00  0.00     0.005 C 
HETATM   46  C36 UNL     1     -11.954   7.408  14.508  1.00  0.00     0.014 C 
HETATM   47  C37 UNL     1     -11.272   9.685  13.667  1.00  0.00     0.014 C 
ENDBRANCH  43  45
ENDBRANCH  42  43
ENDBRANCH  41  42
ENDBRANCH  40  41
BRANCH  40  48
HETATM   48  C6  UNL     1      -7.602   5.553  14.433  1.00  0.00     0.144 C 
HETATM   49  O1  UNL     1      -7.943   5.994  13.349  1.00  0.00    -0.650 OA
BRANCH  48  50
HETATM   50  O2  UNL     1      -7.923   4.295  14.783  1.00  0.00    -0.776 OA
HETATM   51  H8  UNL     1      -8.409   3.950  14.005  1.00  0.00     0.167 HD
ENDBRANCH  48  50
ENDBRANCH  40  48
ENDBRANCH   1  40
TORSDOF 14
ENDMDL
MODEL 7
REMARK minimizedAffinity -7.8732543
REMARK CNNscore 0.205794513
REMARK CNNaffinity 6.42322206
REMARK  14 active torsions:
REMARK  status: ('A' for Active; 'I' for Inactive)
REMARK    1  A    between atoms: C2_2  and  C3_3 
REMARK    2  A    between atoms: C2_2  and  C35_44 
REMARK    3  A    between atoms: C3_3  and  C4_4 
REMARK    4  A    between atoms: C4_4  and  C5_5 
REMARK    5  A    between atoms: C5_5  and  C6_6 
REMARK    6  A    between atoms: C5_5  and  C7_9 
REMARK    7  A    between atoms: C6_6  and  O2_8 
REMARK    8  A    between atoms: C28_31  and  O4_32 
REMARK    9  A    between atoms: O4_32  and  C29_33 
REMARK   10  A    between atoms: C30_35  and  C31_36 
REMARK   11  A    between atoms: C31_36  and  O6_37 
REMARK   12  A    between atoms: C32_38  and  O7_39 
REMARK   13  A    between atoms: C33_40  and  O8_41 
REMARK   14  A    between atoms: C34_42  and  O9_43 
ROOT
HETATM    1  C7  UNL     1       1.704  11.668  17.175  1.00  0.00     0.009 C 
HETATM    2  C8  UNL     1       3.191  11.411  17.515  1.00  0.00     0.007 C 
HETATM    3  C9  UNL     1       3.762  10.547  16.364  1.00  0.00     0.015 C 
HETATM    4  C10 UNL     1       2.700  10.586  15.246  1.00  0.00    -0.010 C 
HETATM    5  C11 UNL     1       2.951  11.902  14.439  1.00  0.00     0.021 C 
HETATM    6  C12 UNL     1       2.635   9.495  14.170  1.00  0.00    -0.039 C 
HETATM    7  C13 UNL     1       1.444   9.246  13.555  1.00  0.00    -0.066 C 
HETATM    8  C14 UNL     1       0.134   9.900  14.020  1.00  0.00     0.036 C 
HETATM    9  C15 UNL     1       0.202  10.878  15.207  1.00  0.00     0.015 C 
HETATM   10  C16 UNL     1       1.390  10.572  16.117  1.00  0.00    -0.028 C 
HETATM   11  C17 UNL     1       1.134   9.205  16.814  1.00  0.00     0.016 C 
HETATM   12  C18 UNL     1       1.341   8.265  12.355  1.00  0.00    -0.015 C 
HETATM   13  C19 UNL     1       0.993   6.893  12.971  1.00  0.00     0.020 C 
HETATM   14  C20 UNL     1       0.222   8.681  11.361  1.00  0.00     0.021 C 
HETATM   15  C21 UNL     1       0.190   7.842  10.095  1.00  0.00     0.080 C 
HETATM   16  C22 UNL     1       1.510   7.937   9.376  1.00  0.00     0.135 C 
HETATM   17  O3  UNL     1       1.542   8.219   8.176  1.00  0.00    -0.297 OA
HETATM   18  C23 UNL     1       2.772   7.594  10.178  1.00  0.00     0.018 C 
HETATM   19  C24 UNL     1       2.905   6.065  10.225  1.00  0.00     0.023 C 
HETATM   20  C25 UNL     1       3.994   8.127   9.386  1.00  0.00     0.023 C 
HETATM   21  C26 UNL     1       2.704   8.313  11.574  1.00  0.00     0.016 C 
HETATM   22  C27 UNL     1       3.845   7.926  12.516  1.00  0.00     0.043 C 
HETATM   23  C28 UNL     1       3.950   8.849  13.740  1.00  0.00     0.155 C 
ENDROOT
BRANCH  23  24
HETATM   24  O4  UNL     1       4.455   8.054  14.818  1.00  0.00    -0.349 OA
BRANCH  24  25
HETATM   25  C29 UNL     1       5.844   8.298  15.101  1.00  0.00     0.292 C 
HETATM   26  O5  UNL     1       6.200   9.656  14.881  1.00  0.00    -0.348 OA
HETATM   27  C30 UNL     1       7.544   9.971  15.280  1.00  0.00     0.179 C 
HETATM   28  C32 UNL     1       8.506   8.756  15.311  1.00  0.00     0.180 C 
HETATM   29  C33 UNL     1       8.175   7.729  14.216  1.00  0.00     0.183 C 
HETATM   30  C34 UNL     1       6.667   7.416  14.139  1.00  0.00     0.204 C 
BRANCH  27  31
HETATM   31  C31 UNL     1       8.045  11.083  14.348  1.00  0.00     0.198 C 
BRANCH  31  32
HETATM   32  O6  UNL     1       9.428  10.934  14.048  1.00  0.00    -0.398 OA
HETATM   33  H45 UNL     1       9.922  11.123  14.868  1.00  0.00     0.209 HD
ENDBRANCH  31  32
ENDBRANCH  27  31
BRANCH  28  34
HETATM   34  O7  UNL     1       8.399   8.130  16.602  1.00  0.00    -0.390 OA
HETATM   35  H47 UNL     1       8.970   7.339  16.604  1.00  0.00     0.210 HD
ENDBRANCH  28  34
BRANCH  29  36
HETATM   36  O8  UNL     1       8.637   8.203  12.943  1.00  0.00    -0.390 OA
HETATM   37  H49 UNL     1       9.608   8.236  12.971  1.00  0.00     0.210 HD
ENDBRANCH  29  36
BRANCH  30  38
HETATM   38  O9  UNL     1       6.439   6.022  14.420  1.00  0.00    -0.388 OA
HETATM   39  H51 UNL     1       5.482   5.888  14.262  1.00  0.00     0.210 HD
ENDBRANCH  30  38
ENDBRANCH  24  25
ENDBRANCH  23  24
BRANCH   1  40
HETATM   40  C5  UNL     1       0.723  11.862  18.365  1.00  0.00     0.089 C 
BRANCH  40  41
HETATM   41  C4  UNL     1      -0.584  11.043  18.350  1.00  0.00     0.020 C 
BRANCH  41  42
HETATM   42  C3  UNL     1      -1.804  11.791  17.773  1.00  0.00     0.034 C 
BRANCH  42  43
HETATM   43  C2  UNL     1      -3.106  11.761  18.555  1.00  0.00    -0.086 C 
HETATM   44  C1  UNL     1      -3.677  10.621  18.987  1.00  0.00     0.014 C 
BRANCH  43  45
HETATM   45  C35 UNL     1      -3.755  13.101  18.894  1.00  0.00     0.005 C 
HETATM   46  C36 UNL     1      -4.904  12.953  19.894  1.00  0.00     0.014 C 
HETATM   47  C37 UNL     1      -2.726  14.119  19.391  1.00  0.00     0.014 C 
ENDBRANCH  43  45
ENDBRANCH  42  43
ENDBRANCH  41  42
ENDBRANCH  40  41
BRANCH  40  48
HETATM   48  C6  UNL     1       1.499  11.595  19.644  1.00  0.00     0.144 C 
HETATM   49  O1  UNL     1       2.142  12.416  20.275  1.00  0.00    -0.650 OA
BRANCH  48  50
HETATM   50  O2  UNL     1       1.478  10.308  20.034  1.00  0.00    -0.776 OA
HETATM   51  H8  UNL     1       2.036  10.296  20.839  1.00  0.00     0.167 HD
ENDBRANCH  48  50
ENDBRANCH  40  48
ENDBRANCH   1  40
TORSDOF 14
ENDMDL
MODEL 8
REMARK minimizedAffinity -7.61996174
REMARK CNNscore 0.173749596
REMARK CNNaffinity 6.48582125
REMARK  14 active torsions:
REMARK  status: ('A' for Active; 'I' for Inactive)
REMARK    1  A    between atoms: C2_2  and  C3_3 
REMARK    2  A    between atoms: C2_2  and  C35_44 
REMARK    3  A    between atoms: C3_3  and  C4_4 
REMARK    4  A    between atoms: C4_4  and  C5_5 
REMARK    5  A    between atoms: C5_5  and  C6_6 
REMARK    6  A    between atoms: C5_5  and  C7_9 
REMARK    7  A    between atoms: C6_6  and  O2_8 
REMARK    8  A    between atoms: C28_31  and  O4_32 
REMARK    9  A    between atoms: O4_32  and  C29_33 
REMARK   10  A    between atoms: C30_35  and  C31_36 
REMARK   11  A    between atoms: C31_36  and  O6_37 
REMARK   12  A    between atoms: C32_38  and  O7_39 
REMARK   13  A    between atoms: C33_40  and  O8_41 
REMARK   14  A    between atoms: C34_42  and  O9_43 
ROOT
HETATM    1  C7  UNL     1      -0.709   6.587  13.180  1.00  0.00     0.009 C 
HETATM    2  C8  UNL     1       0.612   6.498  13.980  1.00  0.00     0.007 C 
HETATM    3  C9  UNL     1       0.598   7.676  14.984  1.00  0.00     0.015 C 
HETATM    4  C10 UNL     1      -0.842   8.226  14.963  1.00  0.00    -0.010 C 
HETATM    5  C11 UNL     1      -1.674   7.330  15.939  1.00  0.00     0.021 C 
HETATM    6  C12 UNL     1      -1.156   9.658  15.413  1.00  0.00    -0.039 C 
HETATM    7  C13 UNL     1      -2.260  10.281  14.909  1.00  0.00    -0.066 C 
HETATM    8  C14 UNL     1      -3.102   9.662  13.784  1.00  0.00     0.036 C 
HETATM    9  C15 UNL     1      -2.674   8.286  13.241  1.00  0.00     0.015 C 
HETATM   10  C16 UNL     1      -1.178   8.047  13.437  1.00  0.00    -0.028 C 
HETATM   11  C17 UNL     1      -0.400   9.034  12.520  1.00  0.00     0.016 C 
HETATM   12  C18 UNL     1      -2.718  11.668  15.435  1.00  0.00    -0.015 C 
HETATM   13  C19 UNL     1      -2.051  12.704  14.505  1.00  0.00     0.020 C 
HETATM   14  C20 UNL     1      -4.261  11.833  15.367  1.00  0.00     0.021 C 
HETATM   15  C21 UNL     1      -4.766  13.111  16.015  1.00  0.00     0.080 C 
HETATM   16  C22 UNL     1      -4.358  13.153  17.464  1.00  0.00     0.135 C 
HETATM   17  O3  UNL     1      -5.198  13.381  18.337  1.00  0.00    -0.297 OA
HETATM   18  C23 UNL     1      -2.866  12.983  17.778  1.00  0.00     0.018 C 
HETATM   19  C24 UNL     1      -2.172  14.332  17.541  1.00  0.00     0.023 C 
HETATM   20  C25 UNL     1      -2.735  12.670  19.291  1.00  0.00     0.023 C 
HETATM   21  C26 UNL     1      -2.302  11.773  16.947  1.00  0.00     0.016 C 
HETATM   22  C27 UNL     1      -0.787  11.601  17.072  1.00  0.00     0.043 C 
HETATM   23  C28 UNL     1      -0.291  10.255  16.520  1.00  0.00     0.155 C 
ENDROOT
BRANCH  23  24
HETATM   24  O4  UNL     1       1.030  10.476  16.015  1.00  0.00    -0.349 OA
BRANCH  24  25
HETATM   25  C29 UNL     1       1.998  10.734  17.048  1.00  0.00     0.292 C 
HETATM   26  O5  UNL     1       1.563  10.256  18.314  1.00  0.00    -0.348 OA
HETATM   27  C30 UNL     1       2.555  10.373  19.345  1.00  0.00     0.179 C 
HETATM   28  C32 UNL     1       3.625  11.464  19.086  1.00  0.00     0.180 C 
HETATM   29  C33 UNL     1       3.045  12.676  18.339  1.00  0.00     0.183 C 
HETATM   30  C34 UNL     1       2.172  12.264  17.137  1.00  0.00     0.204 C 
BRANCH  27  31
HETATM   31  C31 UNL     1       1.810  10.595  20.669  1.00  0.00     0.198 C 
BRANCH  31  32
HETATM   32  O6  UNL     1       0.564  11.253  20.467  1.00  0.00    -0.398 OA
HETATM   33  H45 UNL     1       0.764  12.169  20.194  1.00  0.00     0.209 HD
ENDBRANCH  31  32
ENDBRANCH  27  31
BRANCH  28  34
HETATM   34  O7  UNL     1       4.683  10.881  18.304  1.00  0.00    -0.390 OA
HETATM   35  H47 UNL     1       5.333  11.580  18.103  1.00  0.00     0.210 HD
ENDBRANCH  28  34
BRANCH  29  36
HETATM   36  O8  UNL     1       2.277  13.487  19.241  1.00  0.00    -0.390 OA
HETATM   37  H49 UNL     1       2.887  13.864  19.896  1.00  0.00     0.210 HD
ENDBRANCH  29  36
BRANCH  30  38
HETATM   38  O9  UNL     1       2.742  12.774  15.917  1.00  0.00    -0.388 OA
HETATM   39  H51 UNL     1       2.089  12.552  15.223  1.00  0.00     0.210 HD
ENDBRANCH  30  38
ENDBRANCH  24  25
ENDBRANCH  23  24
BRANCH   1  40
HETATM   40  C5  UNL     1      -0.698   6.050  11.722  1.00  0.00     0.089 C 
BRANCH  40  41
HETATM   41  C4  UNL     1       0.676   5.794  11.068  1.00  0.00     0.020 C 
BRANCH  41  42
HETATM   42  C3  UNL     1       1.396   7.064  10.570  1.00  0.00     0.034 C 
BRANCH  42  43
HETATM   43  C2  UNL     1       1.040   7.604   9.196  1.00  0.00    -0.086 C 
HETATM   44  C1  UNL     1      -0.041   8.372   8.967  1.00  0.00     0.014 C 
BRANCH  43  45
HETATM   45  C35 UNL     1       1.991   7.283   8.045  1.00  0.00     0.005 C 
HETATM   46  C36 UNL     1       2.845   8.489   7.645  1.00  0.00     0.014 C 
HETATM   47  C37 UNL     1       2.871   6.071   8.357  1.00  0.00     0.014 C 
ENDBRANCH  43  45
ENDBRANCH  42  43
ENDBRANCH  41  42
ENDBRANCH  40  41
BRANCH  40  48
HETATM   48  C6  UNL     1      -1.539   4.785  11.695  1.00  0.00     0.144 C 
HETATM   49  O1  UNL     1      -1.491   3.911  10.846  1.00  0.00    -0.650 OA
BRANCH  48  50
HETATM   50  O2  UNL     1      -2.434   4.706  12.696  1.00  0.00    -0.776 OA
HETATM   51  H8  UNL     1      -2.908   3.865  12.524  1.00  0.00     0.167 HD
ENDBRANCH  48  50
ENDBRANCH  40  48
ENDBRANCH   1  40
TORSDOF 14
ENDMDL
MODEL 9
REMARK minimizedAffinity -7.09650707
REMARK CNNscore 0.15950647
REMARK CNNaffinity 5.33089685
REMARK  14 active torsions:
REMARK  status: ('A' for Active; 'I' for Inactive)
REMARK    1  A    between atoms: C2_2  and  C3_3 
REMARK    2  A    between atoms: C2_2  and  C35_44 
REMARK    3  A    between atoms: C3_3  and  C4_4 
REMARK    4  A    between atoms: C4_4  and  C5_5 
REMARK    5  A    between atoms: C5_5  and  C6_6 
REMARK    6  A    between atoms: C5_5  and  C7_9 
REMARK    7  A    between atoms: C6_6  and  O2_8 
REMARK    8  A    between atoms: C28_31  and  O4_32 
REMARK    9  A    between atoms: O4_32  and  C29_33 
REMARK   10  A    between atoms: C30_35  and  C31_36 
REMARK   11  A    between atoms: C31_36  and  O6_37 
REMARK   12  A    between atoms: C32_38  and  O7_39 
REMARK   13  A    between atoms: C33_40  and  O8_41 
REMARK   14  A    between atoms: C34_42  and  O9_43 
ROOT
HETATM    1  C7  UNL     1       1.333  12.985  19.268  1.00  0.00     0.009 C 
HETATM    2  C8  UNL     1       2.563  13.356  18.406  1.00  0.00     0.007 C 
HETATM    3  C9  UNL     1       2.432  12.557  17.087  1.00  0.00     0.015 C 
HETATM    4  C10 UNL     1       0.997  11.993  17.080  1.00  0.00    -0.010 C 
HETATM    5  C11 UNL     1       0.074  13.130  16.532  1.00  0.00     0.021 C 
HETATM    6  C12 UNL     1       0.624  10.769  16.234  1.00  0.00    -0.039 C 
HETATM    7  C13 UNL     1      -0.426   9.992  16.625  1.00  0.00    -0.066 C 
HETATM    8  C14 UNL     1      -1.138  10.201  17.970  1.00  0.00     0.036 C 
HETATM    9  C15 UNL     1      -0.642  11.343  18.875  1.00  0.00     0.015 C 
HETATM   10  C16 UNL     1       0.827  11.670  18.611  1.00  0.00    -0.028 C 
HETATM   11  C17 UNL     1       1.688  10.463  19.080  1.00  0.00     0.016 C 
HETATM   12  C18 UNL     1      -0.950   8.831  15.736  1.00  0.00    -0.015 C 
HETATM   13  C19 UNL     1      -0.197   7.571  16.214  1.00  0.00     0.020 C 
HETATM   14  C20 UNL     1      -2.478   8.614  15.909  1.00  0.00     0.021 C 
HETATM   15  C21 UNL     1      -3.061   7.595  14.944  1.00  0.00     0.080 C 
HETATM   16  C22 UNL     1      -2.810   8.025  13.522  1.00  0.00     0.135 C 
HETATM   17  O3  UNL     1      -3.740   8.065  12.715  1.00  0.00    -0.297 OA
HETATM   18  C23 UNL     1      -1.358   8.324  13.126  1.00  0.00     0.018 C 
HETATM   19  C24 UNL     1      -0.655   6.988  12.848  1.00  0.00     0.023 C 
HETATM   20  C25 UNL     1      -1.386   9.103  11.786  1.00  0.00     0.023 C 
HETATM   21  C26 UNL     1      -0.698   9.222  14.235  1.00  0.00     0.016 C 
HETATM   22  C27 UNL     1       0.796   9.463  14.014  1.00  0.00     0.043 C 
HETATM   23  C28 UNL     1       1.361  10.576  14.911  1.00  0.00     0.155 C 
ENDROOT
BRANCH  23  24
HETATM   24  O4  UNL     1       2.726  10.241  15.180  1.00  0.00    -0.349 OA
BRANCH  24  25
HETATM   25  C29 UNL     1       3.413   9.698  14.038  1.00  0.00     0.292 C 
HETATM   26  O5  UNL     1       4.322   8.669  14.405  1.00  0.00    -0.348 OA
HETATM   27  C30 UNL     1       4.928   8.010  13.281  1.00  0.00     0.179 C 
HETATM   28  C32 UNL     1       4.962   8.854  11.983  1.00  0.00     0.180 C 
HETATM   29  C33 UNL     1       5.142  10.354  12.272  1.00  0.00     0.183 C 
HETATM   30  C34 UNL     1       4.213  10.852  13.398  1.00  0.00     0.204 C 
BRANCH  27  31
HETATM   31  C31 UNL     1       6.330   7.565  13.720  1.00  0.00     0.198 C 
BRANCH  31  32
HETATM   32  O6  UNL     1       6.319   6.247  14.258  1.00  0.00    -0.398 OA
HETATM   33  H45 UNL     1       5.846   6.289  15.111  1.00  0.00     0.209 HD
ENDBRANCH  31  32
ENDBRANCH  27  31
BRANCH  28  34
HETATM   34  O7  UNL     1       3.723   8.649  11.279  1.00  0.00    -0.390 OA
HETATM   35  H47 UNL     1       3.727   9.217  10.486  1.00  0.00     0.210 HD
ENDBRANCH  28  34
BRANCH  29  36
HETATM   36  O8  UNL     1       6.509  10.626  12.617  1.00  0.00    -0.390 OA
HETATM   37  H49 UNL     1       7.054  10.455  11.831  1.00  0.00     0.210 HD
ENDBRANCH  29  36
BRANCH  30  38
HETATM   38  O9  UNL     1       3.318  11.858  12.888  1.00  0.00    -0.388 OA
HETATM   39  H51 UNL     1       2.832  12.183  13.673  1.00  0.00     0.210 HD
ENDBRANCH  30  38
ENDBRANCH  24  25
ENDBRANCH  23  24
BRANCH   1  40
HETATM   40  C5  UNL     1       1.504  13.032  20.812  1.00  0.00     0.089 C 
BRANCH  40  41
HETATM   41  C4  UNL     1       2.450  11.996  21.455  1.00  0.00     0.020 C 
BRANCH  41  42
HETATM   42  C3  UNL     1       3.952  12.298  21.274  1.00  0.00     0.034 C 
BRANCH  42  43
HETATM   43  C2  UNL     1       4.928  11.744  22.297  1.00  0.00    -0.086 C 
HETATM   44  C1  UNL     1       4.663  10.667  23.058  1.00  0.00     0.014 C 
BRANCH  43  45
HETATM   45  C35 UNL     1       6.286  12.433  22.419  1.00  0.00     0.005 C 
HETATM   46  C36 UNL     1       7.046  12.456  21.090  1.00  0.00     0.014 C 
HETATM   47  C37 UNL     1       6.157  13.843  22.998  1.00  0.00     0.014 C 
ENDBRANCH  43  45
ENDBRANCH  42  43
ENDBRANCH  41  42
ENDBRANCH  40  41
BRANCH  40  48
HETATM   48  C6  UNL     1       1.936  14.441  21.181  1.00  0.00     0.144 C 
HETATM   49  O1  UNL     1       2.921  14.739  21.836  1.00  0.00    -0.650 OA
BRANCH  48  50
HETATM   50  O2  UNL     1       1.088  15.397  20.762  1.00  0.00    -0.776 OA
HETATM   51  H8  UNL     1       1.485  16.228  21.098  1.00  0.00     0.167 HD
ENDBRANCH  48  50
ENDBRANCH  40  48
ENDBRANCH   1  40
TORSDOF 14
ENDMDL
