MODEL 1
REMARK minimizedAffinity -9.5903101
REMARK CNNscore 0.51924485
REMARK CNNaffinity 7.02983236
REMARK  15 active torsions:
REMARK  status: ('A' for Active; 'I' for Inactive)
REMARK    1  A    between atoms: C14_14  and  C15_15 
REMARK    2  A    between atoms: C15_15  and  C16_16 
REMARK    3  A    between atoms: C16_16  and  O1_17 
REMARK    4  A    between atoms: C16_16  and  C23_29 
REMARK    5  A    between atoms: O1_17  and  C17_18 
REMARK    6  A    between atoms: C18_20  and  C19_21 
REMARK    7  A    between atoms: C19_21  and  O3_22 
REMARK    8  A    between atoms: C20_23  and  O4_24 
REMARK    9  A    between atoms: C21_25  and  O5_26 
REMARK   10  A    between atoms: C22_27  and  O6_28 
REMARK   11  A    between atoms: C25_31  and  C26_32 
REMARK   12  A    between atoms: C26_32  and  O7_33 
REMARK   13  A    between atoms: O7_33  and  C27_34 
REMARK   14  A    between atoms: C27_34  and  C28_36 
REMARK   15  A    between atoms: C28_36  and  C29_37 
ROOT
HETATM    1  C16 UNL     1      -1.194   5.366  13.130  1.00  0.00     0.153 C 
ENDROOT
BRANCH   1   2
HETATM    2  C15 UNL     1      -2.202   6.346  12.487  1.00  0.00     0.046 C 
BRANCH   2   3
HETATM    3  C14 UNL     1      -3.699   5.930  12.653  1.00  0.00     0.025 C 
HETATM    4  C2  UNL     1      -3.978   4.420  12.583  1.00  0.00    -0.084 C 
HETATM    5  C1  UNL     1      -3.078   3.425  12.618  1.00  0.00     0.014 C 
HETATM    6  C3  UNL     1      -5.448   4.084  12.499  1.00  0.00     0.034 C 
HETATM    7  C4  UNL     1      -6.219   4.679  13.678  1.00  0.00     0.010 C 
HETATM    8  C5  UNL     1      -5.967   6.197  13.811  1.00  0.00     0.002 C 
HETATM    9  C6  UNL     1      -6.934   6.919  14.813  1.00  0.00    -0.043 C 
HETATM   10  C12 UNL     1      -4.420   6.527  13.949  1.00  0.00    -0.032 C 
HETATM   11  C7  UNL     1      -6.903   6.355  16.246  1.00  0.00     0.015 C 
HETATM   12  C8  UNL     1      -8.403   6.781  14.325  1.00  0.00     0.015 C 
HETATM   13  C9  UNL     1      -6.620   8.436  14.825  1.00  0.00     0.009 C 
HETATM   14  C10 UNL     1      -5.150   8.759  15.038  1.00  0.00     0.002 C 
HETATM   15  C11 UNL     1      -4.265   8.075  14.001  1.00  0.00     0.010 C 
HETATM   16  C13 UNL     1      -3.749   5.919  15.206  1.00  0.00     0.016 C 
ENDBRANCH   2   3
ENDBRANCH   1   2
BRANCH   1  17
HETATM   17  O1  UNL     1      -0.596   6.040  14.251  1.00  0.00    -0.349 OA
BRANCH  17  18
HETATM   18  C17 UNL     1      -0.610   7.463  14.150  1.00  0.00     0.292 C 
HETATM   19  O2  UNL     1       0.658   7.808  13.555  1.00  0.00    -0.348 OA
HETATM   20  C18 UNL     1       1.083   9.124  13.885  1.00  0.00     0.179 C 
HETATM   21  C20 UNL     1       1.442   9.225  15.384  1.00  0.00     0.180 C 
HETATM   22  C21 UNL     1       0.553   8.300  16.240  1.00  0.00     0.183 C 
HETATM   23  C22 UNL     1      -0.815   8.102  15.558  1.00  0.00     0.204 C 
BRANCH  20  24
HETATM   24  C19 UNL     1       2.284   9.511  13.017  1.00  0.00     0.198 C 
BRANCH  24  25
HETATM   25  O3  UNL     1       2.646  10.875  13.231  1.00  0.00    -0.398 OA
HETATM   26  H31 UNL     1       1.998  11.422  12.741  1.00  0.00     0.209 HD
ENDBRANCH  24  25
ENDBRANCH  20  24
BRANCH  21  27
HETATM   27  O4  UNL     1       1.247  10.584  15.803  1.00  0.00    -0.390 OA
HETATM   28  H33 UNL     1       1.964  11.090  15.363  1.00  0.00     0.210 HD
ENDBRANCH  21  27
BRANCH  22  29
HETATM   29  O5  UNL     1       1.211   7.052  16.482  1.00  0.00    -0.390 OA
HETATM   30  H35 UNL     1       1.214   6.545  15.642  1.00  0.00     0.210 HD
ENDBRANCH  22  29
BRANCH  23  31
HETATM   31  O6  UNL     1      -1.517   9.354  15.429  1.00  0.00    -0.388 OA
HETATM   32  H37 UNL     1      -0.994  10.043  15.893  1.00  0.00     0.210 HD
ENDBRANCH  23  31
ENDBRANCH  17  18
ENDBRANCH   1  17
BRANCH   1  33
HETATM   33  C23 UNL     1      -0.114   4.840  12.188  1.00  0.00    -0.057 C 
HETATM   34  C24 UNL     1      -0.242   3.374  11.858  1.00  0.00     0.046 C 
HETATM   35  C25 UNL     1       0.915   5.612  11.774  1.00  0.00     0.005 C 
BRANCH  35  36
HETATM   36  C26 UNL     1       2.083   5.239  10.919  1.00  0.00     0.206 C 
BRANCH  36  37
HETATM   37  O7  UNL     1       1.738   5.557   9.567  1.00  0.00    -0.318 OA
BRANCH  37  38
HETATM   38  C27 UNL     1       2.776   5.816   8.724  1.00  0.00     0.259 C 
HETATM   39  O8  UNL     1       3.406   4.980   8.093  1.00  0.00    -0.265 OA
BRANCH  38  40
HETATM   40  C28 UNL     1       3.006   7.312   8.668  1.00  0.00     0.115 C 
BRANCH  40  41
HETATM   41  C29 UNL     1       2.029   8.041   7.734  1.00  0.00    -0.013 C 
HETATM   42  C30 UNL     1       1.771   7.195   6.487  1.00  0.00     0.010 C 
HETATM   43  C31 UNL     1       0.705   8.350   8.434  1.00  0.00     0.010 C 
ENDBRANCH  40  41
ENDBRANCH  38  40
ENDBRANCH  37  38
ENDBRANCH  36  37
ENDBRANCH  35  36
ENDBRANCH   1  33
TORSDOF 15
ENDMDL
MODEL 2
REMARK minimizedAffinity -9.00957012
REMARK CNNscore 0.49305886
REMARK CNNaffinity 6.70183325
REMARK  15 active torsions:
REMARK  status: ('A' for Active; 'I' for Inactive)
REMARK    1  A    between atoms: C14_14  and  C15_15 
REMARK    2  A    between atoms: C15_15  and  C16_16 
REMARK    3  A    between atoms: C16_16  and  O1_17 
REMARK    4  A    between atoms: C16_16  and  C23_29 
REMARK    5  A    between atoms: O1_17  and  C17_18 
REMARK    6  A    between atoms: C18_20  and  C19_21 
REMARK    7  A    between atoms: C19_21  and  O3_22 
REMARK    8  A    between atoms: C20_23  and  O4_24 
REMARK    9  A    between atoms: C21_25  and  O5_26 
REMARK   10  A    between atoms: C22_27  and  O6_28 
REMARK   11  A    between atoms: C25_31  and  C26_32 
REMARK   12  A    between atoms: C26_32  and  O7_33 
REMARK   13  A    between atoms: O7_33  and  C27_34 
REMARK   14  A    between atoms: C27_34  and  C28_36 
REMARK   15  A    between atoms: C28_36  and  C29_37 
ROOT
HETATM    1  C16 UNL     1      -1.022   7.517  13.447  1.00  0.00     0.153 C 
ENDROOT
BRANCH   1   2
HETATM    2  C15 UNL     1      -2.433   8.038  13.091  1.00  0.00     0.046 C 
BRANCH   2   3
HETATM    3  C14 UNL     1      -3.498   6.916  12.874  1.00  0.00     0.025 C 
HETATM    4  C2  UNL     1      -2.937   5.493  12.722  1.00  0.00    -0.084 C 
HETATM    5  C1  UNL     1      -1.684   5.082  12.971  1.00  0.00     0.014 C 
HETATM    6  C3  UNL     1      -3.968   4.486  12.270  1.00  0.00     0.034 C 
HETATM    7  C4  UNL     1      -5.163   4.452  13.223  1.00  0.00     0.010 C 
HETATM    8  C5  UNL     1      -5.763   5.860  13.430  1.00  0.00     0.002 C 
HETATM    9  C6  UNL     1      -7.149   5.862  14.165  1.00  0.00    -0.043 C 
HETATM   10  C12 UNL     1      -4.676   6.892  13.953  1.00  0.00    -0.032 C 
HETATM   11  C7  UNL     1      -7.133   5.198  15.555  1.00  0.00     0.015 C 
HETATM   12  C8  UNL     1      -8.197   5.081  13.324  1.00  0.00     0.015 C 
HETATM   13  C9  UNL     1      -7.672   7.316  14.269  1.00  0.00     0.009 C 
HETATM   14  C10 UNL     1      -6.661   8.294  14.847  1.00  0.00     0.002 C 
HETATM   15  C11 UNL     1      -5.355   8.289  14.057  1.00  0.00     0.010 C 
HETATM   16  C13 UNL     1      -4.069   6.533  15.333  1.00  0.00     0.016 C 
ENDBRANCH   2   3
ENDBRANCH   1   2
BRANCH   1  17
HETATM   17  O1  UNL     1      -0.652   8.107  14.706  1.00  0.00    -0.349 OA
BRANCH  17  18
HETATM   18  C17 UNL     1      -1.529   9.142  15.144  1.00  0.00     0.292 C 
HETATM   19  O2  UNL     1      -0.903  10.370  14.719  1.00  0.00    -0.348 OA
HETATM   20  C18 UNL     1      -1.277  11.486  15.516  1.00  0.00     0.179 C 
HETATM   21  C20 UNL     1      -0.700  11.359  16.943  1.00  0.00     0.180 C 
HETATM   22  C21 UNL     1      -0.629   9.886  17.393  1.00  0.00     0.183 C 
HETATM   23  C22 UNL     1      -1.727   9.065  16.689  1.00  0.00     0.204 C 
BRANCH  20  24
HETATM   24  C19 UNL     1      -0.791  12.779  14.853  1.00  0.00     0.198 C 
BRANCH  24  25
HETATM   25  O3  UNL     1      -1.512  13.032  13.646  1.00  0.00    -0.398 OA
HETATM   26  H31 UNL     1      -1.145  12.433  12.964  1.00  0.00     0.209 HD
ENDBRANCH  24  25
ENDBRANCH  20  24
BRANCH  21  27
HETATM   27  O4  UNL     1      -1.555  12.084  17.840  1.00  0.00    -0.390 OA
HETATM   28  H33 UNL     1      -1.409  13.029  17.620  1.00  0.00     0.210 HD
ENDBRANCH  21  27
BRANCH  22  29
HETATM   29  O5  UNL     1       0.675   9.347  17.149  1.00  0.00    -0.390 OA
HETATM   30  H35 UNL     1       0.775   9.227  16.181  1.00  0.00     0.210 HD
ENDBRANCH  22  29
BRANCH  23  31
HETATM   31  O6  UNL     1      -3.040   9.545  17.039  1.00  0.00    -0.388 OA
HETATM   32  H37 UNL     1      -2.935  10.239  17.726  1.00  0.00     0.210 HD
ENDBRANCH  23  31
ENDBRANCH  17  18
ENDBRANCH   1  17
BRANCH   1  33
HETATM   33  C23 UNL     1       0.051   7.788  12.396  1.00  0.00    -0.057 C 
HETATM   34  C24 UNL     1      -0.479   8.358  11.104  1.00  0.00     0.046 C 
HETATM   35  C25 UNL     1       1.345   7.451  12.589  1.00  0.00     0.005 C 
BRANCH  35  36
HETATM   36  C26 UNL     1       2.499   7.580  11.646  1.00  0.00     0.206 C 
BRANCH  36  37
HETATM   37  O7  UNL     1       2.520   6.398  10.838  1.00  0.00    -0.318 OA
BRANCH  37  38
HETATM   38  C27 UNL     1       3.473   6.348   9.867  1.00  0.00     0.259 C 
HETATM   39  O8  UNL     1       4.674   6.483  10.041  1.00  0.00    -0.265 OA
BRANCH  38  40
HETATM   40  C28 UNL     1       2.807   6.068   8.536  1.00  0.00     0.115 C 
BRANCH  40  41
HETATM   41  C29 UNL     1       2.104   7.296   7.938  1.00  0.00    -0.013 C 
HETATM   42  C30 UNL     1       3.007   8.523   8.060  1.00  0.00     0.010 C 
HETATM   43  C31 UNL     1       1.729   7.071   6.473  1.00  0.00     0.010 C 
ENDBRANCH  40  41
ENDBRANCH  38  40
ENDBRANCH  37  38
ENDBRANCH  36  37
ENDBRANCH  35  36
ENDBRANCH   1  33
TORSDOF 15
ENDMDL
MODEL 3
REMARK minimizedAffinity -8.34009933
REMARK CNNscore 0.430519432
REMARK CNNaffinity 6.6075573
REMARK  15 active torsions:
REMARK  status: ('A' for Active; 'I' for Inactive)
REMARK    1  A    between atoms: C14_14  and  C15_15 
REMARK    2  A    between atoms: C15_15  and  C16_16 
REMARK    3  A    between atoms: C16_16  and  O1_17 
REMARK    4  A    between atoms: C16_16  and  C23_29 
REMARK    5  A    between atoms: O1_17  and  C17_18 
REMARK    6  A    between atoms: C18_20  and  C19_21 
REMARK    7  A    between atoms: C19_21  and  O3_22 
REMARK    8  A    between atoms: C20_23  and  O4_24 
REMARK    9  A    between atoms: C21_25  and  O5_26 
REMARK   10  A    between atoms: C22_27  and  O6_28 
REMARK   11  A    between atoms: C25_31  and  C26_32 
REMARK   12  A    between atoms: C26_32  and  O7_33 
REMARK   13  A    between atoms: O7_33  and  C27_34 
REMARK   14  A    between atoms: C27_34  and  C28_36 
REMARK   15  A    between atoms: C28_36  and  C29_37 
ROOT
HETATM    1  C16 UNL     1      -0.218   7.524  13.947  1.00  0.00     0.153 C 
ENDROOT
BRANCH   1   2
HETATM    2  C15 UNL     1       0.164   6.499  12.856  1.00  0.00     0.046 C 
BRANCH   2   3
HETATM    3  C14 UNL     1       0.010   7.028  11.394  1.00  0.00     0.025 C 
HETATM    4  C2  UNL     1      -0.744   8.360  11.248  1.00  0.00    -0.084 C 
HETATM    5  C1  UNL     1      -1.083   9.213  12.227  1.00  0.00     0.014 C 
HETATM    6  C3  UNL     1      -1.084   8.705   9.817  1.00  0.00     0.034 C 
HETATM    7  C4  UNL     1       0.171   8.745   8.945  1.00  0.00     0.010 C 
HETATM    8  C5  UNL     1       0.983   7.435   9.061  1.00  0.00     0.002 C 
HETATM    9  C6  UNL     1       2.122   7.294   7.990  1.00  0.00    -0.043 C 
HETATM   10  C12 UNL     1       1.374   7.116  10.566  1.00  0.00    -0.032 C 
HETATM   11  C7  UNL     1       3.154   8.437   8.005  1.00  0.00     0.015 C 
HETATM   12  C8  UNL     1       1.509   7.280   6.563  1.00  0.00     0.015 C 
HETATM   13  C9  UNL     1       2.829   5.928   8.173  1.00  0.00     0.009 C 
HETATM   14  C10 UNL     1       3.278   5.653   9.599  1.00  0.00     0.002 C 
HETATM   15  C11 UNL     1       2.119   5.749  10.586  1.00  0.00     0.010 C 
HETATM   16  C13 UNL     1       2.281   8.184  11.229  1.00  0.00     0.016 C 
ENDBRANCH   2   3
ENDBRANCH   1   2
BRANCH   1  17
HETATM   17  O1  UNL     1       0.922   7.676  14.811  1.00  0.00    -0.349 OA
BRANCH  17  18
HETATM   18  C17 UNL     1       1.904   8.589  14.324  1.00  0.00     0.292 C 
HETATM   19  O2  UNL     1       3.170   8.036  14.741  1.00  0.00    -0.348 OA
HETATM   20  C18 UNL     1       4.186   9.021  14.872  1.00  0.00     0.179 C 
HETATM   21  C20 UNL     1       3.888   9.963  16.061  1.00  0.00     0.180 C 
HETATM   22  C21 UNL     1       2.371  10.170  16.248  1.00  0.00     0.183 C 
HETATM   23  C22 UNL     1       1.646  10.016  14.896  1.00  0.00     0.204 C 
BRANCH  20  24
HETATM   24  C19 UNL     1       5.545   8.338  15.056  1.00  0.00     0.198 C 
BRANCH  24  25
HETATM   25  O3  UNL     1       5.386   7.038  15.625  1.00  0.00    -0.398 OA
HETATM   26  H31 UNL     1       5.215   7.165  16.581  1.00  0.00     0.209 HD
ENDBRANCH  24  25
ENDBRANCH  20  24
BRANCH  21  27
HETATM   27  O4  UNL     1       4.507  11.230  15.796  1.00  0.00    -0.390 OA
HETATM   28  H33 UNL     1       5.471  11.063  15.876  1.00  0.00     0.210 HD
ENDBRANCH  21  27
BRANCH  22  29
HETATM   29  O5  UNL     1       1.856   9.267  17.232  1.00  0.00    -0.390 OA
HETATM   30  H35 UNL     1       1.851   8.367  16.842  1.00  0.00     0.210 HD
ENDBRANCH  22  29
BRANCH  23  31
HETATM   31  O6  UNL     1       2.090  11.009  13.952  1.00  0.00    -0.388 OA
HETATM   32  H37 UNL     1       2.697  11.623  14.420  1.00  0.00     0.210 HD
ENDBRANCH  23  31
ENDBRANCH  17  18
ENDBRANCH   1  17
BRANCH   1  33
HETATM   33  C23 UNL     1      -1.459   7.168  14.762  1.00  0.00    -0.057 C 
HETATM   34  C24 UNL     1      -1.545   7.870  16.095  1.00  0.00     0.046 C 
HETATM   35  C25 UNL     1      -2.342   6.231  14.354  1.00  0.00     0.005 C 
BRANCH  35  36
HETATM   36  C26 UNL     1      -3.557   5.716  15.056  1.00  0.00     0.206 C 
BRANCH  36  37
HETATM   37  O7  UNL     1      -4.569   6.721  14.946  1.00  0.00    -0.318 OA
BRANCH  37  38
HETATM   38  C27 UNL     1      -5.264   6.754  13.776  1.00  0.00     0.259 C 
HETATM   39  O8  UNL     1      -5.465   7.748  13.095  1.00  0.00    -0.265 OA
BRANCH  38  40
HETATM   40  C28 UNL     1      -5.724   5.352  13.435  1.00  0.00     0.115 C 
BRANCH  40  41
HETATM   41  C29 UNL     1      -7.205   5.104  13.759  1.00  0.00    -0.013 C 
HETATM   42  C30 UNL     1      -7.602   5.884  15.013  1.00  0.00     0.010 C 
HETATM   43  C31 UNL     1      -8.110   5.502  12.593  1.00  0.00     0.010 C 
ENDBRANCH  40  41
ENDBRANCH  38  40
ENDBRANCH  37  38
ENDBRANCH  36  37
ENDBRANCH  35  36
ENDBRANCH   1  33
TORSDOF 15
ENDMDL
MODEL 4
REMARK minimizedAffinity -8.43792439
REMARK CNNscore 0.418536782
REMARK CNNaffinity 6.83141518
REMARK  15 active torsions:
REMARK  status: ('A' for Active; 'I' for Inactive)
REMARK    1  A    between atoms: C14_14  and  C15_15 
REMARK    2  A    between atoms: C15_15  and  C16_16 
REMARK    3  A    between atoms: C16_16  and  O1_17 
REMARK    4  A    between atoms: C16_16  and  C23_29 
REMARK    5  A    between atoms: O1_17  and  C17_18 
REMARK    6  A    between atoms: C18_20  and  C19_21 
REMARK    7  A    between atoms: C19_21  and  O3_22 
REMARK    8  A    between atoms: C20_23  and  O4_24 
REMARK    9  A    between atoms: C21_25  and  O5_26 
REMARK   10  A    between atoms: C22_27  and  O6_28 
REMARK   11  A    between atoms: C25_31  and  C26_32 
REMARK   12  A    between atoms: C26_32  and  O7_33 
REMARK   13  A    between atoms: O7_33  and  C27_34 
REMARK   14  A    between atoms: C27_34  and  C28_36 
REMARK   15  A    between atoms: C28_36  and  C29_37 
ROOT
HETATM    1  C16 UNL     1      -1.228   6.254  11.692  1.00  0.00     0.153 C 
ENDROOT
BRANCH   1   2
HETATM    2  C15 UNL     1      -1.799   4.982  12.359  1.00  0.00     0.046 C 
BRANCH   2   3
HETATM    3  C14 UNL     1      -3.305   4.711  12.043  1.00  0.00     0.025 C 
HETATM    4  C2  UNL     1      -3.641   3.277  11.605  1.00  0.00    -0.084 C 
HETATM    5  C1  UNL     1      -2.846   2.198  11.675  1.00  0.00     0.014 C 
HETATM    6  C3  UNL     1      -5.048   3.124  11.077  1.00  0.00     0.034 C 
HETATM    7  C4  UNL     1      -6.078   3.585  12.107  1.00  0.00     0.010 C 
HETATM    8  C5  UNL     1      -5.785   5.020  12.600  1.00  0.00     0.002 C 
HETATM    9  C6  UNL     1      -6.948   5.657  13.438  1.00  0.00    -0.043 C 
HETATM   10  C12 UNL     1      -4.320   5.148  13.198  1.00  0.00    -0.032 C 
HETATM   11  C7  UNL     1      -7.347   4.851  14.688  1.00  0.00     0.015 C 
HETATM   12  C8  UNL     1      -8.230   5.769  12.567  1.00  0.00     0.015 C 
HETATM   13  C9  UNL     1      -6.561   7.105  13.831  1.00  0.00     0.009 C 
HETATM   14  C10 UNL     1      -5.192   7.221  14.479  1.00  0.00     0.002 C 
HETATM   15  C11 UNL     1      -4.095   6.636  13.594  1.00  0.00     0.010 C 
HETATM   16  C13 UNL     1      -4.059   4.260  14.441  1.00  0.00     0.016 C 
ENDBRANCH   2   3
ENDBRANCH   1   2
BRANCH   1  17
HETATM   17  O1  UNL     1       0.019   5.890  11.072  1.00  0.00    -0.349 OA
BRANCH  17  18
HETATM   18  C17 UNL     1       0.959   6.958  10.984  1.00  0.00     0.292 C 
HETATM   19  O2  UNL     1       1.137   7.186   9.571  1.00  0.00    -0.348 OA
HETATM   20  C18 UNL     1       2.397   7.768   9.260  1.00  0.00     0.179 C 
HETATM   21  C20 UNL     1       3.544   6.767   9.527  1.00  0.00     0.180 C 
HETATM   22  C21 UNL     1       3.222   5.846  10.721  1.00  0.00     0.183 C 
HETATM   23  C22 UNL     1       2.285   6.570  11.709  1.00  0.00     0.204 C 
BRANCH  20  24
HETATM   24  C19 UNL     1       2.408   8.221   7.797  1.00  0.00     0.198 C 
BRANCH  24  25
HETATM   25  O3  UNL     1       3.386   9.240   7.589  1.00  0.00    -0.398 OA
HETATM   26  H31 UNL     1       3.009  10.072   7.942  1.00  0.00     0.209 HD
ENDBRANCH  24  25
ENDBRANCH  20  24
BRANCH  21  27
HETATM   27  O4  UNL     1       4.734   7.515   9.817  1.00  0.00    -0.390 OA
HETATM   28  H33 UNL     1       4.988   7.929   8.964  1.00  0.00     0.210 HD
ENDBRANCH  21  27
BRANCH  22  29
HETATM   29  O5  UNL     1       2.660   4.610  10.267  1.00  0.00    -0.390 OA
HETATM   30  H35 UNL     1       1.750   4.790   9.950  1.00  0.00     0.210 HD
ENDBRANCH  22  29
BRANCH  23  31
HETATM   31  O6  UNL     1       2.911   7.750  12.248  1.00  0.00    -0.388 OA
HETATM   32  H37 UNL     1       3.838   7.775  11.927  1.00  0.00     0.210 HD
ENDBRANCH  23  31
ENDBRANCH  17  18
ENDBRANCH   1  17
BRANCH   1  33
HETATM   33  C23 UNL     1      -1.028   7.441  12.630  1.00  0.00    -0.057 C 
HETATM   34  C24 UNL     1      -1.381   8.776  12.021  1.00  0.00     0.046 C 
HETATM   35  C25 UNL     1      -0.489   7.301  13.861  1.00  0.00     0.005 C 
BRANCH  35  36
HETATM   36  C26 UNL     1      -0.161   8.356  14.868  1.00  0.00     0.206 C 
BRANCH  36  37
HETATM   37  O7  UNL     1      -1.255   8.419  15.788  1.00  0.00    -0.318 OA
BRANCH  37  38
HETATM   38  C27 UNL     1      -1.846   9.637  15.942  1.00  0.00     0.259 C 
HETATM   39  O8  UNL     1      -1.839  10.539  15.119  1.00  0.00    -0.265 OA
BRANCH  38  40
HETATM   40  C28 UNL     1      -2.539   9.683  17.288  1.00  0.00     0.115 C 
BRANCH  40  41
HETATM   41  C29 UNL     1      -2.371  11.026  18.011  1.00  0.00    -0.013 C 
HETATM   42  C30 UNL     1      -3.627  11.342  18.824  1.00  0.00     0.010 C 
HETATM   43  C31 UNL     1      -1.148  11.021  18.930  1.00  0.00     0.010 C 
ENDBRANCH  40  41
ENDBRANCH  38  40
ENDBRANCH  37  38
ENDBRANCH  36  37
ENDBRANCH  35  36
ENDBRANCH   1  33
TORSDOF 15
ENDMDL
MODEL 5
REMARK minimizedAffinity -7.80773449
REMARK CNNscore 0.410658598
REMARK CNNaffinity 6.50613403
REMARK  15 active torsions:
REMARK  status: ('A' for Active; 'I' for Inactive)
REMARK    1  A    between atoms: C14_14  and  C15_15 
REMARK    2  A    between atoms: C15_15  and  C16_16 
REMARK    3  A    between atoms: C16_16  and  O1_17 
REMARK    4  A    between atoms: C16_16  and  C23_29 
REMARK    5  A    between atoms: O1_17  and  C17_18 
REMARK    6  A    between atoms: C18_20  and  C19_21 
REMARK    7  A    between atoms: C19_21  and  O3_22 
REMARK    8  A    between atoms: C20_23  and  O4_24 
REMARK    9  A    between atoms: C21_25  and  O5_26 
REMARK   10  A    between atoms: C22_27  and  O6_28 
REMARK   11  A    between atoms: C25_31  and  C26_32 
REMARK   12  A    between atoms: C26_32  and  O7_33 
REMARK   13  A    between atoms: O7_33  and  C27_34 
REMARK   14  A    between atoms: C27_34  and  C28_36 
REMARK   15  A    between atoms: C28_36  and  C29_37 
ROOT
HETATM    1  C16 UNL     1      -2.337   8.825  12.862  1.00  0.00     0.153 C 
ENDROOT
BRANCH   1   2
HETATM    2  C15 UNL     1      -1.600   7.596  12.285  1.00  0.00     0.046 C 
BRANCH   2   3
HETATM    3  C14 UNL     1      -0.047   7.749  12.222  1.00  0.00     0.025 C 
HETATM    4  C2  UNL     1       0.732   7.068  13.359  1.00  0.00    -0.084 C 
HETATM    5  C1  UNL     1       0.259   6.190  14.256  1.00  0.00     0.014 C 
HETATM    6  C3  UNL     1       2.194   7.446  13.396  1.00  0.00     0.034 C 
HETATM    7  C4  UNL     1       2.880   7.134  12.066  1.00  0.00     0.010 C 
HETATM    8  C5  UNL     1       2.133   7.780  10.878  1.00  0.00     0.002 C 
HETATM    9  C6  UNL     1       2.928   7.739   9.526  1.00  0.00    -0.043 C 
HETATM   10  C12 UNL     1       0.611   7.331  10.826  1.00  0.00    -0.032 C 
HETATM   11  C7  UNL     1       3.322   6.324   9.062  1.00  0.00     0.015 C 
HETATM   12  C8  UNL     1       4.255   8.535   9.666  1.00  0.00     0.015 C 
HETATM   13  C9  UNL     1       2.105   8.457   8.427  1.00  0.00     0.009 C 
HETATM   14  C10 UNL     1       0.668   7.972   8.318  1.00  0.00     0.002 C 
HETATM   15  C11 UNL     1      -0.070   8.089   9.649  1.00  0.00     0.010 C 
HETATM   16  C13 UNL     1       0.403   5.809  10.622  1.00  0.00     0.016 C 
ENDBRANCH   2   3
ENDBRANCH   1   2
BRANCH   1  17
HETATM   17  O1  UNL     1      -1.336   9.786  13.242  1.00  0.00    -0.349 OA
BRANCH  17  18
HETATM   18  C17 UNL     1      -1.684  10.570  14.382  1.00  0.00     0.292 C 
HETATM   19  O2  UNL     1      -1.715  11.931  13.905  1.00  0.00    -0.348 OA
HETATM   20  C18 UNL     1      -1.473  12.882  14.934  1.00  0.00     0.179 C 
HETATM   21  C20 UNL     1      -0.012  12.793  15.430  1.00  0.00     0.180 C 
HETATM   22  C21 UNL     1       0.517  11.346  15.367  1.00  0.00     0.183 C 
HETATM   23  C22 UNL     1      -0.648  10.350  15.526  1.00  0.00     0.204 C 
BRANCH  20  24
HETATM   24  C19 UNL     1      -1.780  14.291  14.416  1.00  0.00     0.198 C 
BRANCH  24  25
HETATM   25  O3  UNL     1      -2.072  14.264  13.019  1.00  0.00    -0.398 OA
HETATM   26  H31 UNL     1      -1.216  14.178  12.551  1.00  0.00     0.209 HD
ENDBRANCH  24  25
ENDBRANCH  20  24
BRANCH  21  27
HETATM   27  O4  UNL     1       0.029  13.250  16.790  1.00  0.00    -0.390 OA
HETATM   28  H33 UNL     1      -0.135  14.217  16.738  1.00  0.00     0.210 HD
ENDBRANCH  21  27
BRANCH  22  29
HETATM   29  O5  UNL     1       1.241  11.127  14.151  1.00  0.00    -0.390 OA
HETATM   30  H35 UNL     1       0.592  11.096  13.416  1.00  0.00     0.210 HD
ENDBRANCH  22  29
BRANCH  23  31
HETATM   31  O6  UNL     1      -1.292  10.503  16.805  1.00  0.00    -0.388 OA
HETATM   32  H37 UNL     1      -0.777  11.156  17.327  1.00  0.00     0.210 HD
ENDBRANCH  23  31
ENDBRANCH  17  18
ENDBRANCH   1  17
BRANCH   1  33
HETATM   33  C23 UNL     1      -3.265   8.530  14.038  1.00  0.00    -0.057 C 
HETATM   34  C24 UNL     1      -2.848   7.343  14.871  1.00  0.00     0.046 C 
HETATM   35  C25 UNL     1      -4.407   9.222  14.243  1.00  0.00     0.005 C 
BRANCH  35  36
HETATM   36  C26 UNL     1      -5.452   9.018  15.292  1.00  0.00     0.206 C 
BRANCH  36  37
HETATM   37  O7  UNL     1      -6.560   8.363  14.665  1.00  0.00    -0.318 OA
BRANCH  37  38
HETATM   38  C27 UNL     1      -6.818   7.089  15.073  1.00  0.00     0.259 C 
HETATM   39  O8  UNL     1      -7.180   6.761  16.192  1.00  0.00    -0.265 OA
BRANCH  38  40
HETATM   40  C28 UNL     1      -6.613   6.146  13.906  1.00  0.00     0.115 C 
BRANCH  40  41
HETATM   41  C29 UNL     1      -7.795   5.191  13.683  1.00  0.00    -0.013 C 
HETATM   42  C30 UNL     1      -8.449   5.478  12.330  1.00  0.00     0.010 C 
HETATM   43  C31 UNL     1      -7.356   3.728  13.745  1.00  0.00     0.010 C 
ENDBRANCH  40  41
ENDBRANCH  38  40
ENDBRANCH  37  38
ENDBRANCH  36  37
ENDBRANCH  35  36
ENDBRANCH   1  33
TORSDOF 15
ENDMDL
MODEL 6
REMARK minimizedAffinity -7.76528645
REMARK CNNscore 0.394596756
REMARK CNNaffinity 6.37304831
REMARK  15 active torsions:
REMARK  status: ('A' for Active; 'I' for Inactive)
REMARK    1  A    between atoms: C14_14  and  C15_15 
REMARK    2  A    between atoms: C15_15  and  C16_16 
REMARK    3  A    between atoms: C16_16  and  O1_17 
REMARK    4  A    between atoms: C16_16  and  C23_29 
REMARK    5  A    between atoms: O1_17  and  C17_18 
REMARK    6  A    between atoms: C18_20  and  C19_21 
REMARK    7  A    between atoms: C19_21  and  O3_22 
REMARK    8  A    between atoms: C20_23  and  O4_24 
REMARK    9  A    between atoms: C21_25  and  O5_26 
REMARK   10  A    between atoms: C22_27  and  O6_28 
REMARK   11  A    between atoms: C25_31  and  C26_32 
REMARK   12  A    between atoms: C26_32  and  O7_33 
REMARK   13  A    between atoms: O7_33  and  C27_34 
REMARK   14  A    between atoms: C27_34  and  C28_36 
REMARK   15  A    between atoms: C28_36  and  C29_37 
ROOT
HETATM    1  C16 UNL     1       2.987   8.764  14.639  1.00  0.00     0.153 C 
ENDROOT
BRANCH   1   2
HETATM    2  C15 UNL     1       1.987   7.613  14.391  1.00  0.00     0.046 C 
BRANCH   2   3
HETATM    3  C14 UNL     1       1.412   7.562  12.939  1.00  0.00     0.025 C 
HETATM    4  C2  UNL     1       0.210   8.481  12.670  1.00  0.00    -0.084 C 
HETATM    5  C1  UNL     1      -0.253   9.465  13.457  1.00  0.00     0.014 C 
HETATM    6  C3  UNL     1      -0.461   8.219  11.343  1.00  0.00     0.034 C 
HETATM    7  C4  UNL     1       0.531   8.345  10.187  1.00  0.00     0.010 C 
HETATM    8  C5  UNL     1       1.773   7.454  10.406  1.00  0.00     0.002 C 
HETATM    9  C6  UNL     1       2.693   7.317   9.142  1.00  0.00    -0.043 C 
HETATM   10  C12 UNL     1       2.494   7.778  11.783  1.00  0.00    -0.032 C 
HETATM   11  C7  UNL     1       3.222   8.656   8.593  1.00  0.00     0.015 C 
HETATM   12  C8  UNL     1       1.903   6.654   7.981  1.00  0.00     0.015 C 
HETATM   13  C9  UNL     1       3.871   6.365   9.467  1.00  0.00     0.009 C 
HETATM   14  C10 UNL     1       4.617   6.721  10.743  1.00  0.00     0.002 C 
HETATM   15  C11 UNL     1       3.680   6.783  11.946  1.00  0.00     0.010 C 
HETATM   16  C13 UNL     1       3.042   9.224  11.889  1.00  0.00     0.016 C 
ENDBRANCH   2   3
ENDBRANCH   1   2
BRANCH   1  17
HETATM   17  O1  UNL     1       4.245   8.168  15.002  1.00  0.00    -0.349 OA
BRANCH  17  18
HETATM   18  C17 UNL     1       5.370   9.026  14.824  1.00  0.00     0.292 C 
HETATM   19  O2  UNL     1       5.471   9.221  13.398  1.00  0.00    -0.348 OA
HETATM   20  C18 UNL     1       6.790   9.540  12.976  1.00  0.00     0.179 C 
HETATM   21  C20 UNL     1       7.733   8.329  13.159  1.00  0.00     0.180 C 
HETATM   22  C21 UNL     1       7.335   7.486  14.388  1.00  0.00     0.183 C 
HETATM   23  C22 UNL     1       6.647   8.378  15.440  1.00  0.00     0.204 C 
BRANCH  20  24
HETATM   24  C19 UNL     1       6.769   9.988  11.511  1.00  0.00     0.198 C 
BRANCH  24  25
HETATM   25  O3  UNL     1       7.312   8.975  10.664  1.00  0.00    -0.398 OA
HETATM   26  H31 UNL     1       8.286   9.015  10.760  1.00  0.00     0.209 HD
ENDBRANCH  24  25
ENDBRANCH  20  24
BRANCH  21  27
HETATM   27  O4  UNL     1       9.068   8.822  13.340  1.00  0.00    -0.390 OA
HETATM   28  H33 UNL     1       9.327   9.180  12.464  1.00  0.00     0.210 HD
ENDBRANCH  21  27
BRANCH  22  29
HETATM   29  O5  UNL     1       6.502   6.389  13.997  1.00  0.00    -0.390 OA
HETATM   30  H35 UNL     1       5.622   6.749  13.754  1.00  0.00     0.210 HD
ENDBRANCH  22  29
BRANCH  23  31
HETATM   31  O6  UNL     1       7.539   9.407  15.911  1.00  0.00    -0.388 OA
HETATM   32  H37 UNL     1       8.422   9.247  15.514  1.00  0.00     0.210 HD
ENDBRANCH  23  31
ENDBRANCH  17  18
ENDBRANCH   1  17
BRANCH   1  33
HETATM   33  C23 UNL     1       2.556   9.779  15.695  1.00  0.00    -0.057 C 
HETATM   34  C24 UNL     1       2.501  11.203  15.197  1.00  0.00     0.046 C 
HETATM   35  C25 UNL     1       2.341   9.429  16.982  1.00  0.00     0.005 C 
BRANCH  35  36
HETATM   36  C26 UNL     1       1.988  10.299  18.145  1.00  0.00     0.206 C 
BRANCH  36  37
HETATM   37  O7  UNL     1       2.468   9.646  19.324  1.00  0.00    -0.318 OA
BRANCH  37  38
HETATM   38  C27 UNL     1       2.403  10.362  20.481  1.00  0.00     0.259 C 
HETATM   39  O8  UNL     1       1.481  11.091  20.815  1.00  0.00    -0.265 OA
BRANCH  38  40
HETATM   40  C28 UNL     1       3.645  10.088  21.302  1.00  0.00     0.115 C 
BRANCH  40  41
HETATM   41  C29 UNL     1       3.359   9.304  22.591  1.00  0.00    -0.013 C 
HETATM   42  C30 UNL     1       3.080  10.273  23.740  1.00  0.00     0.010 C 
HETATM   43  C31 UNL     1       2.177   8.350  22.418  1.00  0.00     0.010 C 
ENDBRANCH  40  41
ENDBRANCH  38  40
ENDBRANCH  37  38
ENDBRANCH  36  37
ENDBRANCH  35  36
ENDBRANCH   1  33
TORSDOF 15
ENDMDL
MODEL 7
REMARK minimizedAffinity -9.24279308
REMARK CNNscore 0.355704218
REMARK CNNaffinity 6.63367033
REMARK  15 active torsions:
REMARK  status: ('A' for Active; 'I' for Inactive)
REMARK    1  A    between atoms: C14_14  and  C15_15 
REMARK    2  A    between atoms: C15_15  and  C16_16 
REMARK    3  A    between atoms: C16_16  and  O1_17 
REMARK    4  A    between atoms: C16_16  and  C23_29 
REMARK    5  A    between atoms: O1_17  and  C17_18 
REMARK    6  A    between atoms: C18_20  and  C19_21 
REMARK    7  A    between atoms: C19_21  and  O3_22 
REMARK    8  A    between atoms: C20_23  and  O4_24 
REMARK    9  A    between atoms: C21_25  and  O5_26 
REMARK   10  A    between atoms: C22_27  and  O6_28 
REMARK   11  A    between atoms: C25_31  and  C26_32 
REMARK   12  A    between atoms: C26_32  and  O7_33 
REMARK   13  A    between atoms: O7_33  and  C27_34 
REMARK   14  A    between atoms: C27_34  and  C28_36 
REMARK   15  A    between atoms: C28_36  and  C29_37 
ROOT
HETATM    1  C16 UNL     1      -1.118   7.110  13.442  1.00  0.00     0.153 C 
ENDROOT
BRANCH   1   2
HETATM    2  C15 UNL     1      -2.460   7.745  13.011  1.00  0.00     0.046 C 
BRANCH   2   3
HETATM    3  C14 UNL     1      -3.625   6.721  12.825  1.00  0.00     0.025 C 
HETATM    4  C2  UNL     1      -3.195   5.259  12.623  1.00  0.00    -0.084 C 
HETATM    5  C1  UNL     1      -1.972   4.739  12.806  1.00  0.00     0.014 C 
HETATM    6  C3  UNL     1      -4.328   4.352  12.204  1.00  0.00     0.034 C 
HETATM    7  C4  UNL     1      -5.476   4.399  13.212  1.00  0.00     0.010 C 
HETATM    8  C5  UNL     1      -5.944   5.849  13.471  1.00  0.00     0.002 C 
HETATM    9  C6  UNL     1      -7.290   5.952  14.271  1.00  0.00    -0.043 C 
HETATM   10  C12 UNL     1      -4.750   6.774  13.959  1.00  0.00    -0.032 C 
HETATM   11  C7  UNL     1      -7.267   5.260  15.647  1.00  0.00     0.015 C 
HETATM   12  C8  UNL     1      -8.437   5.280  13.467  1.00  0.00     0.015 C 
HETATM   13  C9  UNL     1      -7.681   7.443  14.423  1.00  0.00     0.009 C 
HETATM   14  C10 UNL     1      -6.566   8.319  14.969  1.00  0.00     0.002 C 
HETATM   15  C11 UNL     1      -5.302   8.221  14.118  1.00  0.00     0.010 C 
HETATM   16  C13 UNL     1      -4.113   6.337  15.302  1.00  0.00     0.016 C 
ENDBRANCH   2   3
ENDBRANCH   1   2
BRANCH   1  17
HETATM   17  O1  UNL     1      -0.859   7.531  14.793  1.00  0.00    -0.349 OA
BRANCH  17  18
HETATM   18  C17 UNL     1      -0.509   8.908  14.918  1.00  0.00     0.292 C 
HETATM   19  O2  UNL     1       0.374   8.968  16.057  1.00  0.00    -0.348 OA
HETATM   20  C18 UNL     1       0.375  10.242  16.688  1.00  0.00     0.179 C 
HETATM   21  C20 UNL     1      -0.983  10.516  17.373  1.00  0.00     0.180 C 
HETATM   22  C21 UNL     1      -2.148   9.873  16.592  1.00  0.00     0.183 C 
HETATM   23  C22 UNL     1      -1.792   9.777  15.096  1.00  0.00     0.204 C 
BRANCH  20  24
HETATM   24  C19 UNL     1       1.515  10.311  17.709  1.00  0.00     0.198 C 
BRANCH  24  25
HETATM   25  O3  UNL     1       2.418   9.220  17.533  1.00  0.00    -0.398 OA
HETATM   26  H31 UNL     1       1.991   8.430  17.924  1.00  0.00     0.209 HD
ENDBRANCH  24  25
ENDBRANCH  20  24
BRANCH  21  27
HETATM   27  O4  UNL     1      -1.181  11.937  17.426  1.00  0.00    -0.390 OA
HETATM   28  H33 UNL     1      -0.527  12.259  18.083  1.00  0.00     0.210 HD
ENDBRANCH  21  27
BRANCH  22  29
HETATM   29  O5  UNL     1      -2.477   8.593  17.142  1.00  0.00    -0.390 OA
HETATM   30  H35 UNL     1      -1.757   7.969  16.906  1.00  0.00     0.210 HD
ENDBRANCH  22  29
BRANCH  23  31
HETATM   31  O6  UNL     1      -1.579  11.084  14.527  1.00  0.00    -0.388 OA
HETATM   32  H37 UNL     1      -1.801  11.751  15.211  1.00  0.00     0.210 HD
ENDBRANCH  23  31
ENDBRANCH  17  18
ENDBRANCH   1  17
BRANCH   1  33
HETATM   33  C23 UNL     1       0.072   7.443  12.544  1.00  0.00    -0.057 C 
HETATM   34  C24 UNL     1      -0.245   8.413  11.432  1.00  0.00     0.046 C 
HETATM   35  C25 UNL     1       1.271   6.840  12.689  1.00  0.00     0.005 C 
BRANCH  35  36
HETATM   36  C26 UNL     1       2.506   6.994  11.861  1.00  0.00     0.206 C 
BRANCH  36  37
HETATM   37  O7  UNL     1       2.456   5.999  10.834  1.00  0.00    -0.318 OA
BRANCH  37  38
HETATM   38  C27 UNL     1       3.477   6.008   9.933  1.00  0.00     0.259 C 
HETATM   39  O8  UNL     1       4.667   6.061  10.208  1.00  0.00    -0.265 OA
BRANCH  38  40
HETATM   40  C28 UNL     1       2.904   5.911   8.535  1.00  0.00     0.115 C 
BRANCH  40  41
HETATM   41  C29 UNL     1       2.198   7.196   8.078  1.00  0.00    -0.013 C 
HETATM   42  C30 UNL     1       3.111   8.401   8.303  1.00  0.00     0.010 C 
HETATM   43  C31 UNL     1       1.792   7.121   6.606  1.00  0.00     0.010 C 
ENDBRANCH  40  41
ENDBRANCH  38  40
ENDBRANCH  37  38
ENDBRANCH  36  37
ENDBRANCH  35  36
ENDBRANCH   1  33
TORSDOF 15
ENDMDL
MODEL 8
REMARK minimizedAffinity -8.93759537
REMARK CNNscore 0.353969693
REMARK CNNaffinity 6.60747337
REMARK  15 active torsions:
REMARK  status: ('A' for Active; 'I' for Inactive)
REMARK    1  A    between atoms: C14_14  and  C15_15 
REMARK    2  A    between atoms: C15_15  and  C16_16 
REMARK    3  A    between atoms: C16_16  and  O1_17 
REMARK    4  A    between atoms: C16_16  and  C23_29 
REMARK    5  A    between atoms: O1_17  and  C17_18 
REMARK    6  A    between atoms: C18_20  and  C19_21 
REMARK    7  A    between atoms: C19_21  and  O3_22 
REMARK    8  A    between atoms: C20_23  and  O4_24 
REMARK    9  A    between atoms: C21_25  and  O5_26 
REMARK   10  A    between atoms: C22_27  and  O6_28 
REMARK   11  A    between atoms: C25_31  and  C26_32 
REMARK   12  A    between atoms: C26_32  and  O7_33 
REMARK   13  A    between atoms: O7_33  and  C27_34 
REMARK   14  A    between atoms: C27_34  and  C28_36 
REMARK   15  A    between atoms: C28_36  and  C29_37 
ROOT
HETATM    1  C16 UNL     1      -1.372   6.893  13.607  1.00  0.00     0.153 C 
ENDROOT
BRANCH   1   2
HETATM    2  C15 UNL     1      -0.075   6.599  12.820  1.00  0.00     0.046 C 
BRANCH   2   3
HETATM    3  C14 UNL     1      -0.105   7.070  11.331  1.00  0.00     0.025 C 
HETATM    4  C2  UNL     1      -0.848   8.390  11.069  1.00  0.00    -0.084 C 
HETATM    5  C1  UNL     1      -1.273   9.278  11.982  1.00  0.00     0.014 C 
HETATM    6  C3  UNL     1      -1.064   8.678   9.602  1.00  0.00     0.034 C 
HETATM    7  C4  UNL     1       0.261   8.693   8.841  1.00  0.00     0.010 C 
HETATM    8  C5  UNL     1       1.065   7.394   9.076  1.00  0.00     0.002 C 
HETATM    9  C6  UNL     1       2.291   7.219   8.114  1.00  0.00    -0.043 C 
HETATM   10  C12 UNL     1       1.325   7.136  10.621  1.00  0.00    -0.032 C 
HETATM   11  C7  UNL     1       3.315   8.369   8.172  1.00  0.00     0.015 C 
HETATM   12  C8  UNL     1       1.804   7.147   6.641  1.00  0.00     0.015 C 
HETATM   13  C9  UNL     1       2.985   5.866   8.410  1.00  0.00     0.009 C 
HETATM   14  C10 UNL     1       3.311   5.650   9.878  1.00  0.00     0.002 C 
HETATM   15  C11 UNL     1       2.070   5.776  10.758  1.00  0.00     0.010 C 
HETATM   16  C13 UNL     1       2.168   8.235  11.317  1.00  0.00     0.016 C 
ENDBRANCH   2   3
ENDBRANCH   1   2
BRANCH   1  17
HETATM   17  O1  UNL     1      -0.987   7.292  14.935  1.00  0.00    -0.349 OA
BRANCH  17  18
HETATM   18  C17 UNL     1      -0.845   8.701  15.101  1.00  0.00     0.292 C 
HETATM   19  O2  UNL     1       0.132   8.858  16.151  1.00  0.00    -0.348 OA
HETATM   20  C18 UNL     1       0.000  10.089  16.849  1.00  0.00     0.179 C 
HETATM   21  C20 UNL     1      -1.304  10.114  17.677  1.00  0.00     0.180 C 
HETATM   22  C21 UNL     1      -2.430   9.323  16.979  1.00  0.00     0.183 C 
HETATM   23  C22 UNL     1      -2.222   9.344  15.452  1.00  0.00     0.204 C 
BRANCH  20  24
HETATM   24  C19 UNL     1       1.217  10.300  17.756  1.00  0.00     0.198 C 
BRANCH  24  25
HETATM   25  O3  UNL     1       2.185   9.271  17.553  1.00  0.00    -0.398 OA
HETATM   26  H31 UNL     1       1.857   8.475  18.020  1.00  0.00     0.209 HD
ENDBRANCH  24  25
ENDBRANCH  20  24
BRANCH  21  27
HETATM   27  O4  UNL     1      -1.715  11.481  17.829  1.00  0.00    -0.390 OA
HETATM   28  H33 UNL     1      -1.053  11.878  18.436  1.00  0.00     0.210 HD
ENDBRANCH  21  27
BRANCH  22  29
HETATM   29  O5  UNL     1      -2.494   7.985  17.486  1.00  0.00    -0.390 OA
HETATM   30  H35 UNL     1      -1.716   7.496  17.146  1.00  0.00     0.210 HD
ENDBRANCH  22  29
BRANCH  23  31
HETATM   31  O6  UNL     1      -2.277  10.690  14.939  1.00  0.00    -0.388 OA
HETATM   32  H37 UNL     1      -2.527  11.286  15.679  1.00  0.00     0.210 HD
ENDBRANCH  23  31
ENDBRANCH  17  18
ENDBRANCH   1  17
BRANCH   1  33
HETATM   33  C23 UNL     1      -2.368   5.738  13.666  1.00  0.00    -0.057 C 
HETATM   34  C24 UNL     1      -2.933   5.480  15.041  1.00  0.00     0.046 C 
HETATM   35  C25 UNL     1      -2.635   4.964  12.592  1.00  0.00     0.005 C 
BRANCH  35  36
HETATM   36  C26 UNL     1      -3.519   3.762  12.497  1.00  0.00     0.206 C 
BRANCH  36  37
HETATM   37  O7  UNL     1      -4.870   4.217  12.624  1.00  0.00    -0.318 OA
BRANCH  37  38
HETATM   38  C27 UNL     1      -5.816   3.494  11.963  1.00  0.00     0.259 C 
HETATM   39  O8  UNL     1      -5.808   3.235  10.770  1.00  0.00    -0.265 OA
BRANCH  38  40
HETATM   40  C28 UNL     1      -6.867   3.036  12.953  1.00  0.00     0.115 C 
BRANCH  40  41
HETATM   41  C29 UNL     1      -7.834   4.153  13.372  1.00  0.00    -0.013 C 
HETATM   42  C30 UNL     1      -7.266   4.911  14.572  1.00  0.00     0.010 C 
HETATM   43  C31 UNL     1      -8.099   5.127  12.223  1.00  0.00     0.010 C 
ENDBRANCH  40  41
ENDBRANCH  38  40
ENDBRANCH  37  38
ENDBRANCH  36  37
ENDBRANCH  35  36
ENDBRANCH   1  33
TORSDOF 15
ENDMDL
MODEL 9
REMARK minimizedAffinity -7.89050055
REMARK CNNscore 0.347994298
REMARK CNNaffinity 6.60656214
REMARK  15 active torsions:
REMARK  status: ('A' for Active; 'I' for Inactive)
REMARK    1  A    between atoms: C14_14  and  C15_15 
REMARK    2  A    between atoms: C15_15  and  C16_16 
REMARK    3  A    between atoms: C16_16  and  O1_17 
REMARK    4  A    between atoms: C16_16  and  C23_29 
REMARK    5  A    between atoms: O1_17  and  C17_18 
REMARK    6  A    between atoms: C18_20  and  C19_21 
REMARK    7  A    between atoms: C19_21  and  O3_22 
REMARK    8  A    between atoms: C20_23  and  O4_24 
REMARK    9  A    between atoms: C21_25  and  O5_26 
REMARK   10  A    between atoms: C22_27  and  O6_28 
REMARK   11  A    between atoms: C25_31  and  C26_32 
REMARK   12  A    between atoms: C26_32  and  O7_33 
REMARK   13  A    between atoms: O7_33  and  C27_34 
REMARK   14  A    between atoms: C27_34  and  C28_36 
REMARK   15  A    between atoms: C28_36  and  C29_37 
ROOT
HETATM    1  C16 UNL     1      -0.473   7.315  13.484  1.00  0.00     0.153 C 
ENDROOT
BRANCH   1   2
HETATM    2  C15 UNL     1      -1.823   7.946  13.076  1.00  0.00     0.046 C 
BRANCH   2   3
HETATM    3  C14 UNL     1      -2.893   7.970  14.214  1.00  0.00     0.025 C 
HETATM    4  C2  UNL     1      -3.110   9.333  14.889  1.00  0.00    -0.084 C 
HETATM    5  C1  UNL     1      -2.659  10.527  14.474  1.00  0.00     0.014 C 
HETATM    6  C3  UNL     1      -3.961   9.258  16.135  1.00  0.00     0.034 C 
HETATM    7  C4  UNL     1      -5.321   8.627  15.838  1.00  0.00     0.010 C 
HETATM    8  C5  UNL     1      -5.170   7.256  15.143  1.00  0.00     0.002 C 
HETATM    9  C6  UNL     1      -6.501   6.430  15.063  1.00  0.00    -0.043 C 
HETATM   10  C12 UNL     1      -4.315   7.364  13.809  1.00  0.00    -0.032 C 
HETATM   11  C7  UNL     1      -7.654   7.150  14.338  1.00  0.00     0.015 C 
HETATM   12  C8  UNL     1      -7.018   6.117  16.494  1.00  0.00     0.015 C 
HETATM   13  C9  UNL     1      -6.216   5.062  14.395  1.00  0.00     0.009 C 
HETATM   14  C10 UNL     1      -5.469   5.165  13.075  1.00  0.00     0.002 C 
HETATM   15  C11 UNL     1      -4.156   5.929  13.227  1.00  0.00     0.010 C 
HETATM   16  C13 UNL     1      -4.944   8.273  12.722  1.00  0.00     0.016 C 
ENDBRANCH   2   3
ENDBRANCH   1   2
BRANCH   1  17
HETATM   17  O1  UNL     1       0.347   8.369  14.022  1.00  0.00    -0.349 OA
BRANCH  17  18
HETATM   18  C17 UNL     1       0.561   8.279  15.429  1.00  0.00     0.292 C 
HETATM   19  O2  UNL     1       0.097   9.537  15.960  1.00  0.00    -0.348 OA
HETATM   20  C18 UNL     1       0.721   9.882  17.190  1.00  0.00     0.179 C 
HETATM   21  C20 UNL     1       2.217  10.205  16.974  1.00  0.00     0.180 C 
HETATM   22  C21 UNL     1       2.820   9.352  15.839  1.00  0.00     0.183 C 
HETATM   23  C22 UNL     1       2.068   8.011  15.729  1.00  0.00     0.204 C 
BRANCH  20  24
HETATM   24  C19 UNL     1      -0.002  11.077  17.818  1.00  0.00     0.198 C 
BRANCH  24  25
HETATM   25  O3  UNL     1      -0.389  10.786  19.161  1.00  0.00    -0.398 OA
HETATM   26  H31 UNL     1      -1.182  10.213  19.111  1.00  0.00     0.209 HD
ENDBRANCH  24  25
ENDBRANCH  20  24
BRANCH  21  27
HETATM   27  O4  UNL     1       2.918   9.927  18.195  1.00  0.00    -0.390 OA
HETATM   28  H33 UNL     1       2.624  10.623  18.820  1.00  0.00     0.210 HD
ENDBRANCH  21  27
BRANCH  22  29
HETATM   29  O5  UNL     1       2.800  10.073  14.602  1.00  0.00    -0.390 OA
HETATM   30  H35 UNL     1       1.870  10.120  14.295  1.00  0.00     0.210 HD
ENDBRANCH  22  29
BRANCH  23  31
HETATM   31  O6  UNL     1       2.196   7.244  16.942  1.00  0.00    -0.388 OA
HETATM   32  H37 UNL     1       2.816   7.718  17.537  1.00  0.00     0.210 HD
ENDBRANCH  23  31
ENDBRANCH  17  18
ENDBRANCH   1  17
BRANCH   1  33
HETATM   33  C23 UNL     1       0.265   6.587  12.364  1.00  0.00    -0.057 C 
HETATM   34  C24 UNL     1      -0.641   5.896  11.374  1.00  0.00     0.046 C 
HETATM   35  C25 UNL     1       1.613   6.497  12.332  1.00  0.00     0.005 C 
BRANCH  35  36
HETATM   36  C26 UNL     1       2.482   5.768  11.359  1.00  0.00     0.206 C 
BRANCH  36  37
HETATM   37  O7  UNL     1       3.078   6.751  10.505  1.00  0.00    -0.318 OA
BRANCH  37  38
HETATM   38  C27 UNL     1       3.036   6.494   9.168  1.00  0.00     0.259 C 
HETATM   39  O8  UNL     1       2.916   5.391   8.659  1.00  0.00    -0.265 OA
BRANCH  38  40
HETATM   40  C28 UNL     1       3.132   7.803   8.411  1.00  0.00     0.115 C 
BRANCH  40  41
HETATM   41  C29 UNL     1       1.843   8.164   7.659  1.00  0.00    -0.013 C 
HETATM   42  C30 UNL     1       1.679   7.257   6.439  1.00  0.00     0.010 C 
HETATM   43  C31 UNL     1       0.613   8.047   8.560  1.00  0.00     0.010 C 
ENDBRANCH  40  41
ENDBRANCH  38  40
ENDBRANCH  37  38
ENDBRANCH  36  37
ENDBRANCH  35  36
ENDBRANCH   1  33
TORSDOF 15
ENDMDL
