MODEL 1
REMARK minimizedAffinity -7.56023932
REMARK CNNscore 0.592366695
REMARK CNNaffinity 6.80871439
REMARK  5 active torsions:
REMARK  status: ('A' for Active; 'I' for Inactive)
REMARK    1  A    between atoms: C2_2  and  C4_4 
REMARK    2  A    between atoms: C7_7  and  C8_8 
REMARK    3  A    between atoms: C8_8  and  O2_10 
REMARK    4  A    between atoms: C11_13  and  C12_14 
REMARK    5  A    between atoms: C12_14  and  O4_16 
ROOT
HETATM    1  C4  UNL     1       1.130   8.171  10.664  1.00  0.00     0.019 C 
HETATM    2  C5  UNL     1       2.116   7.015  10.485  1.00  0.00     0.011 C 
HETATM    3  C6  UNL     1       2.931   7.073  11.771  1.00  0.00     0.021 C 
HETATM    4  C7  UNL     1       1.890   7.316  12.889  1.00  0.00     0.050 C 
HETATM    5  C9  UNL     1       1.421   5.963  13.452  1.00  0.00     0.022 C 
HETATM    6  C10 UNL     1       0.110   6.032  14.232  1.00  0.00     0.023 C 
HETATM    7  C11 UNL     1      -1.075   6.665  13.457  1.00  0.00     0.057 C 
HETATM    8  C13 UNL     1      -0.648   8.030  12.818  1.00  0.00     0.011 C 
HETATM    9  C14 UNL     1      -1.799   8.661  12.024  1.00  0.00     0.007 C 
HETATM   10  C15 UNL     1      -3.081   8.841  12.849  1.00  0.00     0.006 C 
HETATM   11  C16 UNL     1      -3.528   7.550  13.578  1.00  0.00     0.003 C 
HETATM   12  C17 UNL     1      -4.957   7.627  14.277  1.00  0.00    -0.035 C 
HETATM   13  C18 UNL     1      -5.023   8.752  15.337  1.00  0.00     0.016 C 
HETATM   14  C19 UNL     1      -6.028   7.937  13.186  1.00  0.00     0.017 C 
HETATM   15  C20 UNL     1      -7.470   7.792  13.652  1.00  0.00     0.080 C 
HETATM   16  C21 UNL     1      -7.726   6.442  14.274  1.00  0.00     0.135 C 
HETATM   17  O5  UNL     1      -8.753   5.824  13.985  1.00  0.00    -0.297 OA
HETATM   18  C22 UNL     1      -6.740   5.947  15.346  1.00  0.00     0.017 C 
HETATM   19  C23 UNL     1      -7.093   6.627  16.677  1.00  0.00     0.023 C 
HETATM   20  C24 UNL     1      -6.983   4.427  15.533  1.00  0.00     0.023 C 
HETATM   21  C25 UNL     1      -5.274   6.192  14.844  1.00  0.00     0.009 C 
HETATM   22  C26 UNL     1      -4.189   5.734  15.838  1.00  0.00     0.007 C 
HETATM   23  C27 UNL     1      -2.807   5.655  15.185  1.00  0.00     0.011 C 
HETATM   24  C28 UNL     1      -2.351   6.951  14.450  1.00  0.00    -0.022 C 
HETATM   25  C29 UNL     1      -1.955   7.944  15.594  1.00  0.00     0.017 C 
HETATM   26  C30 UNL     1       0.775   8.175  12.191  1.00  0.00     0.018 C 
ENDROOT
BRANCH   4  27
HETATM   27  C8  UNL     1       2.517   8.099  14.042  1.00  0.00     0.149 C 
HETATM   28  O1  UNL     1       2.278   9.256  14.348  1.00  0.00    -0.649 OA
BRANCH  27  29
HETATM   29  O2  UNL     1       3.353   7.367  14.804  1.00  0.00    -0.776 OA
HETATM   30  H11 UNL     1       3.636   7.987  15.508  1.00  0.00     0.167 HD
ENDBRANCH  27  29
ENDBRANCH   4  27
BRANCH   1  31
HETATM   31  C2  UNL     1       0.123   8.397   9.553  1.00  0.00    -0.088 C 
HETATM   32  C1  UNL     1      -0.995   9.111   9.791  1.00  0.00     0.014 C 
HETATM   33  C3  UNL     1       0.413   7.935   8.152  1.00  0.00     0.043 C 
ENDBRANCH   1  31
BRANCH   7  34
HETATM   34  C12 UNL     1      -1.474   5.644  12.360  1.00  0.00     0.149 C 
HETATM   35  O3  UNL     1      -1.064   5.558  11.214  1.00  0.00    -0.649 OA
BRANCH  34  36
HETATM   36  O4  UNL     1      -2.431   4.783  12.734  1.00  0.00    -0.776 OA
HETATM   37  H16 UNL     1      -2.580   4.249  11.924  1.00  0.00     0.167 HD
ENDBRANCH  34  36
ENDBRANCH   7  34
TORSDOF 5
ENDMDL
MODEL 2
REMARK minimizedAffinity -6.44696426
REMARK CNNscore 0.442743689
REMARK CNNaffinity 5.73948097
REMARK  5 active torsions:
REMARK  status: ('A' for Active; 'I' for Inactive)
REMARK    1  A    between atoms: C2_2  and  C4_4 
REMARK    2  A    between atoms: C7_7  and  C8_8 
REMARK    3  A    between atoms: C8_8  and  O2_10 
REMARK    4  A    between atoms: C11_13  and  C12_14 
REMARK    5  A    between atoms: C12_14  and  O4_16 
ROOT
HETATM    1  C4  UNL     1     -14.911   8.725  14.290  1.00  0.00     0.019 C 
HETATM    2  C5  UNL     1     -15.877   9.842  14.689  1.00  0.00     0.011 C 
HETATM    3  C6  UNL     1     -16.792   9.937  13.474  1.00  0.00     0.021 C 
HETATM    4  C7  UNL     1     -17.088   8.470  13.086  1.00  0.00     0.050 C 
HETATM    5  C9  UNL     1     -18.369   8.002  13.797  1.00  0.00     0.022 C 
HETATM    6  C10 UNL     1     -18.535   6.485  13.853  1.00  0.00     0.023 C 
HETATM    7  C11 UNL     1     -17.337   5.723  14.475  1.00  0.00     0.057 C 
HETATM    8  C13 UNL     1     -15.989   6.188  13.824  1.00  0.00     0.011 C 
HETATM    9  C14 UNL     1     -14.788   5.464  14.444  1.00  0.00     0.007 C 
HETATM   10  C15 UNL     1     -14.902   3.935  14.388  1.00  0.00     0.006 C 
HETATM   11  C16 UNL     1     -16.243   3.399  14.946  1.00  0.00     0.003 C 
HETATM   12  C17 UNL     1     -16.328   1.816  15.102  1.00  0.00    -0.035 C 
HETATM   13  C18 UNL     1     -16.116   1.090  13.752  1.00  0.00     0.016 C 
HETATM   14  C19 UNL     1     -15.203   1.351  16.077  1.00  0.00     0.017 C 
HETATM   15  C20 UNL     1     -15.311  -0.100  16.524  1.00  0.00     0.080 C 
HETATM   16  C21 UNL     1     -16.669  -0.410  17.101  1.00  0.00     0.135 C 
HETATM   17  O5  UNL     1     -16.753  -1.074  18.136  1.00  0.00    -0.297 OA
HETATM   18  C22 UNL     1     -17.906   0.017  16.293  1.00  0.00     0.017 C 
HETATM   19  C23 UNL     1     -18.141  -1.018  15.184  1.00  0.00     0.023 C 
HETATM   20  C24 UNL     1     -19.129  -0.051  17.245  1.00  0.00     0.023 C 
HETATM   21  C25 UNL     1     -17.706   1.491  15.794  1.00  0.00     0.009 C 
HETATM   22  C26 UNL     1     -18.887   2.036  14.968  1.00  0.00     0.007 C 
HETATM   23  C27 UNL     1     -18.822   3.558  14.805  1.00  0.00     0.011 C 
HETATM   24  C28 UNL     1     -17.475   4.103  14.244  1.00  0.00    -0.022 C 
HETATM   25  C29 UNL     1     -17.506   3.760  12.717  1.00  0.00     0.017 C 
HETATM   26  C30 UNL     1     -15.779   7.698  13.485  1.00  0.00     0.018 C 
ENDROOT
BRANCH   4  27
HETATM   27  C8  UNL     1     -17.332   8.354  11.581  1.00  0.00     0.149 C 
HETATM   28  O1  UNL     1     -18.414   8.245  11.027  1.00  0.00    -0.649 OA
BRANCH  27  29
HETATM   29  O2  UNL     1     -16.212   8.464  10.841  1.00  0.00    -0.776 OA
HETATM   30  H11 UNL     1     -16.533   8.411   9.916  1.00  0.00     0.167 HD
ENDBRANCH  27  29
ENDBRANCH   4  27
BRANCH   1  31
HETATM   31  C2  UNL     1     -13.849   8.337  15.302  1.00  0.00    -0.088 C 
HETATM   32  C1  UNL     1     -12.613   7.997  14.886  1.00  0.00     0.014 C 
HETATM   33  C3  UNL     1     -14.123   8.443  16.776  1.00  0.00     0.043 C 
ENDBRANCH   1  31
BRANCH   7  34
HETATM   34  C12 UNL     1     -17.354   6.047  15.992  1.00  0.00     0.149 C 
HETATM   35  O3  UNL     1     -16.413   6.124  16.766  1.00  0.00    -0.649 OA
BRANCH  34  36
HETATM   36  O4  UNL     1     -18.582   6.213  16.504  1.00  0.00    -0.776 OA
HETATM   37  H16 UNL     1     -18.408   6.369  17.456  1.00  0.00     0.167 HD
ENDBRANCH  34  36
ENDBRANCH   7  34
TORSDOF 5
ENDMDL
MODEL 3
REMARK minimizedAffinity -7.20509577
REMARK CNNscore 0.314567655
REMARK CNNaffinity 6.0166297
REMARK  5 active torsions:
REMARK  status: ('A' for Active; 'I' for Inactive)
REMARK    1  A    between atoms: C2_2  and  C4_4 
REMARK    2  A    between atoms: C7_7  and  C8_8 
REMARK    3  A    between atoms: C8_8  and  O2_10 
REMARK    4  A    between atoms: C11_13  and  C12_14 
REMARK    5  A    between atoms: C12_14  and  O4_16 
ROOT
HETATM    1  C4  UNL     1       1.945   7.557  10.651  1.00  0.00     0.019 C 
HETATM    2  C5  UNL     1       0.702   8.449  10.647  1.00  0.00     0.011 C 
HETATM    3  C6  UNL     1      -0.039   7.988  11.894  1.00  0.00     0.021 C 
HETATM    4  C7  UNL     1       1.058   7.833  12.973  1.00  0.00     0.050 C 
HETATM    5  C9  UNL     1       1.197   9.152  13.753  1.00  0.00     0.022 C 
HETATM    6  C10 UNL     1       2.504   9.283  14.530  1.00  0.00     0.023 C 
HETATM    7  C11 UNL     1       3.787   9.093  13.681  1.00  0.00     0.057 C 
HETATM    8  C13 UNL     1       3.691   7.785  12.824  1.00  0.00     0.011 C 
HETATM    9  C14 UNL     1       4.941   7.591  11.955  1.00  0.00     0.007 C 
HETATM   10  C15 UNL     1       6.248   7.602  12.758  1.00  0.00     0.006 C 
HETATM   11  C16 UNL     1       6.385   8.829  13.692  1.00  0.00     0.003 C 
HETATM   12  C17 UNL     1       7.807   8.995  14.389  1.00  0.00    -0.035 C 
HETATM   13  C18 UNL     1       8.174   7.767  15.255  1.00  0.00     0.016 C 
HETATM   14  C19 UNL     1       8.892   9.137  13.278  1.00  0.00     0.017 C 
HETATM   15  C20 UNL     1      10.266   9.555  13.782  1.00  0.00     0.080 C 
HETATM   16  C21 UNL     1      10.201  10.809  14.616  1.00  0.00     0.135 C 
HETATM   17  O5  UNL     1      11.038  11.698  14.445  1.00  0.00    -0.297 OA
HETATM   18  C22 UNL     1       9.153  10.869  15.740  1.00  0.00     0.017 C 
HETATM   19  C23 UNL     1       9.696  10.093  16.949  1.00  0.00     0.023 C 
HETATM   20  C24 UNL     1       9.020  12.352  16.173  1.00  0.00     0.023 C 
HETATM   21  C25 UNL     1       7.778  10.355  15.185  1.00  0.00     0.009 C 
HETATM   22  C26 UNL     1       6.641  10.368  16.224  1.00  0.00     0.007 C 
HETATM   23  C27 UNL     1       5.264  10.208  15.573  1.00  0.00     0.011 C 
HETATM   24  C28 UNL     1       5.121   8.974  14.633  1.00  0.00    -0.022 C 
HETATM   25  C29 UNL     1       5.009   7.745  15.595  1.00  0.00     0.017 C 
HETATM   26  C30 UNL     1       2.330   7.397  12.162  1.00  0.00     0.018 C 
ENDROOT
BRANCH   4  27
HETATM   27  C8  UNL     1       0.672   6.746  13.976  1.00  0.00     0.149 C 
HETATM   28  O1  UNL     1      -0.141   6.849  14.881  1.00  0.00    -0.649 OA
BRANCH  27  29
HETATM   29  O2  UNL     1       1.263   5.559  13.743  1.00  0.00    -0.776 OA
HETATM   30  H11 UNL     1       0.891   4.969  14.432  1.00  0.00     0.167 HD
ENDBRANCH  27  29
ENDBRANCH   4  27
BRANCH   1  31
HETATM   31  C2  UNL     1       2.948   7.766   9.532  1.00  0.00    -0.088 C 
HETATM   32  C1  UNL     1       4.201   8.173   9.816  1.00  0.00     0.014 C 
HETATM   33  C3  UNL     1       2.597   7.408   8.114  1.00  0.00     0.043 C 
ENDBRANCH   1  31
BRANCH   7  34
HETATM   34  C12 UNL     1       3.896  10.342  12.768  1.00  0.00     0.149 C 
HETATM   35  O3  UNL     1       4.662  10.544  11.841  1.00  0.00    -0.649 OA
BRANCH  34  36
HETATM   36  O4  UNL     1       3.054  11.335  13.093  1.00  0.00    -0.776 OA
HETATM   37  H16 UNL     1       3.282  12.040  12.451  1.00  0.00     0.167 HD
ENDBRANCH  34  36
ENDBRANCH   7  34
TORSDOF 5
ENDMDL
MODEL 4
REMARK minimizedAffinity -6.06614208
REMARK CNNscore 0.300365478
REMARK CNNaffinity 5.79348135
REMARK  5 active torsions:
REMARK  status: ('A' for Active; 'I' for Inactive)
REMARK    1  A    between atoms: C2_2  and  C4_4 
REMARK    2  A    between atoms: C7_7  and  C8_8 
REMARK    3  A    between atoms: C8_8  and  O2_10 
REMARK    4  A    between atoms: C11_13  and  C12_14 
REMARK    5  A    between atoms: C12_14  and  O4_16 
ROOT
HETATM    1  C4  UNL     1       5.146  14.606  -1.051  1.00  0.00     0.019 C 
HETATM    2  C5  UNL     1       5.294  15.588  -2.215  1.00  0.00     0.011 C 
HETATM    3  C6  UNL     1       4.213  15.121  -3.181  1.00  0.00     0.021 C 
HETATM    4  C7  UNL     1       2.983  14.829  -2.289  1.00  0.00     0.050 C 
HETATM    5  C9  UNL     1       2.110  16.092  -2.193  1.00  0.00     0.022 C 
HETATM    6  C10 UNL     1       1.126  16.085  -1.026  1.00  0.00     0.023 C 
HETATM    7  C11 UNL     1       1.769  15.842   0.364  1.00  0.00     0.057 C 
HETATM    8  C13 UNL     1       2.711  14.591   0.324  1.00  0.00     0.011 C 
HETATM    9  C14 UNL     1       3.378  14.347   1.684  1.00  0.00     0.007 C 
HETATM   10  C15 UNL     1       2.376  14.219   2.840  1.00  0.00     0.006 C 
HETATM   11  C16 UNL     1       1.358  15.383   2.901  1.00  0.00     0.003 C 
HETATM   12  C17 UNL     1       0.432  15.406   4.197  1.00  0.00    -0.035 C 
HETATM   13  C18 UNL     1      -0.403  14.111   4.335  1.00  0.00     0.016 C 
HETATM   14  C19 UNL     1       1.344  15.522   5.458  1.00  0.00     0.017 C 
HETATM   15  C20 UNL     1       0.600  15.809   6.754  1.00  0.00     0.080 C 
HETATM   16  C21 UNL     1      -0.290  17.020   6.635  1.00  0.00     0.135 C 
HETATM   17  O5  UNL     1      -0.311  17.851   7.546  1.00  0.00    -0.297 OA
HETATM   18  C22 UNL     1      -1.232  17.102   5.422  1.00  0.00     0.017 C 
HETATM   19  C23 UNL     1      -2.462  16.226   5.707  1.00  0.00     0.023 C 
HETATM   20  C24 UNL     1      -1.730  18.567   5.319  1.00  0.00     0.023 C 
HETATM   21  C25 UNL     1      -0.432  16.722   4.127  1.00  0.00     0.009 C 
HETATM   22  C26 UNL     1      -1.274  16.767   2.838  1.00  0.00     0.007 C 
HETATM   23  C27 UNL     1      -0.402  16.745   1.579  1.00  0.00     0.011 C 
HETATM   24  C28 UNL     1       0.625  15.575   1.512  1.00  0.00    -0.022 C 
HETATM   25  C29 UNL     1      -0.228  14.310   1.162  1.00  0.00     0.017 C 
HETATM   26  C30 UNL     1       3.605  14.340  -0.932  1.00  0.00     0.018 C 
ENDROOT
BRANCH   4  27
HETATM   27  C8  UNL     1       2.126  13.724  -2.906  1.00  0.00     0.149 C 
HETATM   28  O1  UNL     1       2.464  12.949  -3.786  1.00  0.00    -0.649 OA
BRANCH  27  29
HETATM   29  O2  UNL     1       0.915  13.594  -2.331  1.00  0.00    -0.776 OA
HETATM   30  H11 UNL     1       0.509  12.835  -2.802  1.00  0.00     0.167 HD
ENDBRANCH  27  29
ENDBRANCH   4  27
BRANCH   1  31
HETATM   31  C2  UNL     1       6.074  14.795   0.134  1.00  0.00    -0.088 C 
HETATM   32  C1  UNL     1       6.474  13.729   0.854  1.00  0.00     0.014 C 
HETATM   33  C3  UNL     1       6.651  16.148   0.445  1.00  0.00     0.043 C 
ENDBRANCH   1  31
BRANCH   7  34
HETATM   34  C12 UNL     1       2.573  17.125   0.703  1.00  0.00     0.149 C 
HETATM   35  O3  UNL     1       3.732  17.391   0.433  1.00  0.00    -0.649 OA
BRANCH  34  36
HETATM   36  O4  UNL     1       1.892  18.022   1.431  1.00  0.00    -0.776 OA
HETATM   37  H16 UNL     1       2.550  18.734   1.580  1.00  0.00     0.167 HD
ENDBRANCH  34  36
ENDBRANCH   7  34
TORSDOF 5
ENDMDL
MODEL 5
REMARK minimizedAffinity -7.31171608
REMARK CNNscore 0.299243867
REMARK CNNaffinity 5.73622513
REMARK  5 active torsions:
REMARK  status: ('A' for Active; 'I' for Inactive)
REMARK    1  A    between atoms: C2_2  and  C4_4 
REMARK    2  A    between atoms: C7_7  and  C8_8 
REMARK    3  A    between atoms: C8_8  and  O2_10 
REMARK    4  A    between atoms: C11_13  and  C12_14 
REMARK    5  A    between atoms: C12_14  and  O4_16 
ROOT
HETATM    1  C4  UNL     1       4.207   7.296  11.228  1.00  0.00     0.019 C 
HETATM    2  C5  UNL     1       5.479   6.448  11.178  1.00  0.00     0.011 C 
HETATM    3  C6  UNL     1       6.536   7.460  10.755  1.00  0.00     0.021 C 
HETATM    4  C7  UNL     1       6.228   8.726  11.589  1.00  0.00     0.050 C 
HETATM    5  C9  UNL     1       7.038   8.686  12.896  1.00  0.00     0.022 C 
HETATM    6  C10 UNL     1       6.518   9.623  13.983  1.00  0.00     0.023 C 
HETATM    7  C11 UNL     1       5.022   9.434  14.342  1.00  0.00     0.057 C 
HETATM    8  C13 UNL     1       4.141   9.420  13.046  1.00  0.00     0.011 C 
HETATM    9  C14 UNL     1       2.659   9.207  13.378  1.00  0.00     0.007 C 
HETATM   10  C15 UNL     1       2.107  10.229  14.381  1.00  0.00     0.006 C 
HETATM   11  C16 UNL     1       2.967  10.358  15.662  1.00  0.00     0.003 C 
HETATM   12  C17 UNL     1       2.330  11.248  16.819  1.00  0.00    -0.035 C 
HETATM   13  C18 UNL     1       2.056  12.697  16.351  1.00  0.00     0.016 C 
HETATM   14  C19 UNL     1       0.968  10.616  17.239  1.00  0.00     0.017 C 
HETATM   15  C20 UNL     1       0.358  11.205  18.504  1.00  0.00     0.080 C 
HETATM   16  C21 UNL     1       1.328  11.181  19.658  1.00  0.00     0.135 C 
HETATM   17  O5  UNL     1       0.940  10.823  20.772  1.00  0.00    -0.297 OA
HETATM   18  C22 UNL     1       2.746  11.727  19.416  1.00  0.00     0.017 C 
HETATM   19  C23 UNL     1       2.692  13.260  19.493  1.00  0.00     0.023 C 
HETATM   20  C24 UNL     1       3.637  11.243  20.589  1.00  0.00     0.023 C 
HETATM   21  C25 UNL     1       3.291  11.148  18.064  1.00  0.00     0.009 C 
HETATM   22  C26 UNL     1       4.713  11.626  17.709  1.00  0.00     0.007 C 
HETATM   23  C27 UNL     1       5.343  10.784  16.596  1.00  0.00     0.011 C 
HETATM   24  C28 UNL     1       4.481  10.650  15.305  1.00  0.00    -0.022 C 
HETATM   25  C29 UNL     1       4.619  12.033  14.584  1.00  0.00     0.017 C 
HETATM   26  C30 UNL     1       4.667   8.695  11.767  1.00  0.00     0.018 C 
ENDROOT
BRANCH   4  27
HETATM   27  C8  UNL     1       6.648   9.983  10.827  1.00  0.00     0.149 C 
HETATM   28  O1  UNL     1       7.608  10.092  10.081  1.00  0.00    -0.649 OA
BRANCH  27  29
HETATM   29  O2  UNL     1       5.797  11.016  10.975  1.00  0.00    -0.776 OA
HETATM   30  H11 UNL     1       6.176  11.719  10.406  1.00  0.00     0.167 HD
ENDBRANCH  27  29
ENDBRANCH   4  27
BRANCH   1  31
HETATM   31  C2  UNL     1       2.928   6.598  11.649  1.00  0.00    -0.088 C 
HETATM   32  C1  UNL     1       2.342   6.912  12.821  1.00  0.00     0.014 C 
HETATM   33  C3  UNL     1       2.237   5.641  10.718  1.00  0.00     0.043 C 
ENDBRANCH   1  31
BRANCH   7  34
HETATM   34  C12 UNL     1       4.921   8.079  15.091  1.00  0.00     0.149 C 
HETATM   35  O3  UNL     1       3.948   7.577  15.630  1.00  0.00    -0.649 OA
BRANCH  34  36
HETATM   36  O4  UNL     1       6.082   7.414  15.181  1.00  0.00    -0.776 OA
HETATM   37  H16 UNL     1       5.844   6.619  15.704  1.00  0.00     0.167 HD
ENDBRANCH  34  36
ENDBRANCH   7  34
TORSDOF 5
ENDMDL
MODEL 6
REMARK minimizedAffinity -6.29927731
REMARK CNNscore 0.284134775
REMARK CNNaffinity 5.64197016
REMARK  5 active torsions:
REMARK  status: ('A' for Active; 'I' for Inactive)
REMARK    1  A    between atoms: C2_2  and  C4_4 
REMARK    2  A    between atoms: C7_7  and  C8_8 
REMARK    3  A    between atoms: C8_8  and  O2_10 
REMARK    4  A    between atoms: C11_13  and  C12_14 
REMARK    5  A    between atoms: C12_14  and  O4_16 
ROOT
HETATM    1  C4  UNL     1      -0.420  15.547   2.965  1.00  0.00     0.019 C 
HETATM    2  C5  UNL     1      -1.928  15.730   2.788  1.00  0.00     0.011 C 
HETATM    3  C6  UNL     1      -2.040  17.197   2.394  1.00  0.00     0.021 C 
HETATM    4  C7  UNL     1      -0.894  17.423   1.379  1.00  0.00     0.050 C 
HETATM    5  C9  UNL     1      -1.419  17.178  -0.046  1.00  0.00     0.022 C 
HETATM    6  C10 UNL     1      -0.324  16.942  -1.083  1.00  0.00     0.023 C 
HETATM    7  C11 UNL     1       0.664  15.799  -0.735  1.00  0.00     0.057 C 
HETATM    8  C13 UNL     1       1.204  15.963   0.727  1.00  0.00     0.011 C 
HETATM    9  C14 UNL     1       2.164  14.827   1.101  1.00  0.00     0.007 C 
HETATM   10  C15 UNL     1       3.335  14.670   0.120  1.00  0.00     0.006 C 
HETATM   11  C16 UNL     1       2.887  14.578  -1.359  1.00  0.00     0.003 C 
HETATM   12  C17 UNL     1       4.040  14.209  -2.394  1.00  0.00    -0.035 C 
HETATM   13  C18 UNL     1       5.192  15.241  -2.369  1.00  0.00     0.016 C 
HETATM   14  C19 UNL     1       4.633  12.821  -2.003  1.00  0.00     0.017 C 
HETATM   15  C20 UNL     1       5.569  12.216  -3.040  1.00  0.00     0.080 C 
HETATM   16  C21 UNL     1       4.928  12.149  -4.404  1.00  0.00     0.135 C 
HETATM   17  O5  UNL     1       5.048  11.128  -5.083  1.00  0.00    -0.297 OA
HETATM   18  C22 UNL     1       4.249  13.421  -4.940  1.00  0.00     0.017 C 
HETATM   19  C23 UNL     1       5.337  14.351  -5.496  1.00  0.00     0.023 C 
HETATM   20  C24 UNL     1       3.354  13.001  -6.135  1.00  0.00     0.023 C 
HETATM   21  C25 UNL     1       3.360  14.042  -3.806  1.00  0.00     0.009 C 
HETATM   22  C26 UNL     1       2.623  15.329  -4.225  1.00  0.00     0.007 C 
HETATM   23  C27 UNL     1       1.511  15.702  -3.241  1.00  0.00     0.011 C 
HETATM   24  C28 UNL     1       1.955  15.796  -1.751  1.00  0.00    -0.022 C 
HETATM   25  C29 UNL     1       2.744  17.145  -1.650  1.00  0.00     0.017 C 
HETATM   26  C30 UNL     1       0.235  16.440   1.856  1.00  0.00     0.018 C 
ENDROOT
BRANCH   4  27
HETATM   27  C8  UNL     1      -0.400  18.868   1.445  1.00  0.00     0.149 C 
HETATM   28  O1  UNL     1      -0.884  19.827   0.866  1.00  0.00    -0.649 OA
BRANCH  27  29
HETATM   29  O2  UNL     1       0.627  19.051   2.297  1.00  0.00    -0.776 OA
HETATM   30  H11 UNL     1       0.799  20.016   2.256  1.00  0.00     0.167 HD
ENDBRANCH  27  29
ENDBRANCH   4  27
BRANCH   1  31
HETATM   31  C2  UNL     1       0.068  14.162   3.345  1.00  0.00    -0.088 C 
HETATM   32  C1  UNL     1       1.063  14.019   4.242  1.00  0.00     0.014 C 
HETATM   33  C3  UNL     1      -0.627  12.936   2.821  1.00  0.00     0.043 C 
ENDBRANCH   1  31
BRANCH   7  34
HETATM   34  C12 UNL     1      -0.130  14.475  -0.883  1.00  0.00     0.149 C 
HETATM   35  O3  UNL     1      -0.952  13.991  -0.122  1.00  0.00    -0.649 OA
BRANCH  34  36
HETATM   36  O4  UNL     1       0.182  13.766  -1.978  1.00  0.00    -0.776 OA
HETATM   37  H16 UNL     1      -0.374  12.964  -1.891  1.00  0.00     0.167 HD
ENDBRANCH  34  36
ENDBRANCH   7  34
TORSDOF 5
ENDMDL
MODEL 7
REMARK minimizedAffinity -6.57560682
REMARK CNNscore 0.279900253
REMARK CNNaffinity 5.78183746
REMARK  5 active torsions:
REMARK  status: ('A' for Active; 'I' for Inactive)
REMARK    1  A    between atoms: C2_2  and  C4_4 
REMARK    2  A    between atoms: C7_7  and  C8_8 
REMARK    3  A    between atoms: C8_8  and  O2_10 
REMARK    4  A    between atoms: C11_13  and  C12_14 
REMARK    5  A    between atoms: C12_14  and  O4_16 
ROOT
HETATM    1  C4  UNL     1       3.512   8.031  11.479  1.00  0.00     0.019 C 
HETATM    2  C5  UNL     1       4.484   6.863  11.301  1.00  0.00     0.011 C 
HETATM    3  C6  UNL     1       5.748   7.557  10.810  1.00  0.00     0.021 C 
HETATM    4  C7  UNL     1       5.876   8.819  11.694  1.00  0.00     0.050 C 
HETATM    5  C9  UNL     1       6.741   8.495  12.925  1.00  0.00     0.022 C 
HETATM    6  C10 UNL     1       6.592   9.490  14.072  1.00  0.00     0.023 C 
HETATM    7  C11 UNL     1       5.136   9.712  14.556  1.00  0.00     0.057 C 
HETATM    8  C13 UNL     1       4.191  10.004  13.341  1.00  0.00     0.011 C 
HETATM    9  C14 UNL     1       2.739  10.201  13.796  1.00  0.00     0.007 C 
HETATM   10  C15 UNL     1       2.578  11.291  14.864  1.00  0.00     0.006 C 
HETATM   11  C16 UNL     1       3.536  11.116  16.068  1.00  0.00     0.003 C 
HETATM   12  C17 UNL     1       3.268  12.096  17.295  1.00  0.00    -0.035 C 
HETATM   13  C18 UNL     1       3.380  13.583  16.883  1.00  0.00     0.016 C 
HETATM   14  C19 UNL     1       1.819  11.853  17.818  1.00  0.00     0.017 C 
HETATM   15  C20 UNL     1       1.501  12.531  19.143  1.00  0.00     0.080 C 
HETATM   16  C21 UNL     1       2.510  12.185  20.208  1.00  0.00     0.135 C 
HETATM   17  O5  UNL     1       2.123  11.900  21.344  1.00  0.00    -0.297 OA
HETATM   18  C22 UNL     1       4.001  12.322  19.856  1.00  0.00     0.017 C 
HETATM   19  C23 UNL     1       4.390  13.803  19.969  1.00  0.00     0.023 C 
HETATM   20  C24 UNL     1       4.806  11.555  20.937  1.00  0.00     0.023 C 
HETATM   21  C25 UNL     1       4.254  11.675  18.449  1.00  0.00     0.009 C 
HETATM   22  C26 UNL     1       5.722  11.750  17.983  1.00  0.00     0.007 C 
HETATM   23  C27 UNL     1       5.999  10.815  16.802  1.00  0.00     0.011 C 
HETATM   24  C28 UNL     1       5.038  10.987  15.588  1.00  0.00    -0.022 C 
HETATM   25  C29 UNL     1       5.506  12.306  14.887  1.00  0.00     0.017 C 
HETATM   26  C30 UNL     1       4.390   9.219  12.006  1.00  0.00     0.018 C 
ENDROOT
BRANCH   4  27
HETATM   27  C8  UNL     1       6.576   9.941  10.926  1.00  0.00     0.149 C 
HETATM   28  O1  UNL     1       7.561   9.828  10.214  1.00  0.00    -0.649 OA
BRANCH  27  29
HETATM   29  O2  UNL     1       5.956  11.132  11.023  1.00  0.00    -0.776 OA
HETATM   30  H11 UNL     1       6.492  11.726  10.456  1.00  0.00     0.167 HD
ENDBRANCH  27  29
ENDBRANCH   4  27
BRANCH   1  31
HETATM   31  C2  UNL     1       2.124   7.701  11.995  1.00  0.00    -0.088 C 
HETATM   32  C1  UNL     1       1.969   6.811  12.994  1.00  0.00     0.014 C 
HETATM   33  C3  UNL     1       0.922   8.447  11.484  1.00  0.00     0.043 C 
ENDBRANCH   1  31
BRANCH   7  34
HETATM   34  C12 UNL     1       4.714   8.408  15.282  1.00  0.00     0.149 C 
HETATM   35  O3  UNL     1       3.597   8.054  15.623  1.00  0.00    -0.649 OA
BRANCH  34  36
HETATM   36  O4  UNL     1       5.736   7.604  15.605  1.00  0.00    -0.776 OA
HETATM   37  H16 UNL     1       5.299   6.865  16.078  1.00  0.00     0.167 HD
ENDBRANCH  34  36
ENDBRANCH   7  34
TORSDOF 5
ENDMDL
MODEL 8
REMARK minimizedAffinity -5.93261719
REMARK CNNscore 0.276513129
REMARK CNNaffinity 5.62153816
REMARK  5 active torsions:
REMARK  status: ('A' for Active; 'I' for Inactive)
REMARK    1  A    between atoms: C2_2  and  C4_4 
REMARK    2  A    between atoms: C7_7  and  C8_8 
REMARK    3  A    between atoms: C8_8  and  O2_10 
REMARK    4  A    between atoms: C11_13  and  C12_14 
REMARK    5  A    between atoms: C12_14  and  O4_16 
ROOT
HETATM    1  C4  UNL     1     -17.273   0.786  15.575  1.00  0.00     0.019 C 
HETATM    2  C5  UNL     1     -18.310   1.180  16.628  1.00  0.00     0.011 C 
HETATM    3  C6  UNL     1     -19.608   0.656  16.027  1.00  0.00     0.021 C 
HETATM    4  C7  UNL     1     -19.251  -0.743  15.471  1.00  0.00     0.050 C 
HETATM    5  C9  UNL     1     -19.523  -1.805  16.549  1.00  0.00     0.022 C 
HETATM    6  C10 UNL     1     -18.823  -3.140  16.302  1.00  0.00     0.023 C 
HETATM    7  C11 UNL     1     -17.289  -3.042  16.105  1.00  0.00     0.057 C 
HETATM    8  C13 UNL     1     -16.938  -1.940  15.047  1.00  0.00     0.011 C 
HETATM    9  C14 UNL     1     -15.422  -1.808  14.856  1.00  0.00     0.007 C 
HETATM   10  C15 UNL     1     -14.738  -3.132  14.486  1.00  0.00     0.006 C 
HETATM   11  C16 UNL     1     -15.095  -4.295  15.444  1.00  0.00     0.003 C 
HETATM   12  C17 UNL     1     -14.255  -5.631  15.230  1.00  0.00    -0.035 C 
HETATM   13  C18 UNL     1     -14.423  -6.198  13.800  1.00  0.00     0.016 C 
HETATM   14  C19 UNL     1     -12.744  -5.307  15.440  1.00  0.00     0.017 C 
HETATM   15  C20 UNL     1     -11.838  -6.528  15.518  1.00  0.00     0.080 C 
HETATM   16  C21 UNL     1     -12.314  -7.515  16.554  1.00  0.00     0.135 C 
HETATM   17  O5  UNL     1     -11.498  -8.036  17.317  1.00  0.00    -0.297 OA
HETATM   18  C22 UNL     1     -13.797  -7.922  16.530  1.00  0.00     0.017 C 
HETATM   19  C23 UNL     1     -13.989  -8.980  15.433  1.00  0.00     0.023 C 
HETATM   20  C24 UNL     1     -14.113  -8.607  17.884  1.00  0.00     0.023 C 
HETATM   21  C25 UNL     1     -14.677  -6.633  16.370  1.00  0.00     0.009 C 
HETATM   22  C26 UNL     1     -16.193  -6.913  16.333  1.00  0.00     0.007 C 
HETATM   23  C27 UNL     1     -17.019  -5.639  16.535  1.00  0.00     0.011 C 
HETATM   24  C28 UNL     1     -16.663  -4.465  15.575  1.00  0.00    -0.022 C 
HETATM   25  C29 UNL     1     -17.289  -4.868  14.197  1.00  0.00     0.017 C 
HETATM   26  C30 UNL     1     -17.749  -0.605  15.030  1.00  0.00     0.018 C 
ENDROOT
BRANCH   4  27
HETATM   27  C8  UNL     1     -20.128  -1.078  14.265  1.00  0.00     0.149 C 
HETATM   28  O1  UNL     1     -19.741  -1.361  13.142  1.00  0.00    -0.649 OA
BRANCH  27  29
HETATM   29  O2  UNL     1     -21.444  -1.122  14.547  1.00  0.00    -0.776 OA
HETATM   30  H11 UNL     1     -21.860  -1.383  13.699  1.00  0.00     0.167 HD
ENDBRANCH  27  29
ENDBRANCH   4  27
BRANCH   1  31
HETATM   31  C2  UNL     1     -15.827   1.140  15.864  1.00  0.00    -0.088 C 
HETATM   32  C1  UNL     1     -15.306   0.906  17.084  1.00  0.00     0.014 C 
HETATM   33  C3  UNL     1     -14.928   1.640  14.767  1.00  0.00     0.043 C 
ENDBRANCH   1  31
BRANCH   7  34
HETATM   34  C12 UNL     1     -16.692  -2.683  17.491  1.00  0.00     0.149 C 
HETATM   35  O3  UNL     1     -16.552  -1.582  17.998  1.00  0.00    -0.649 OA
BRANCH  34  36
HETATM   36  O4  UNL     1     -16.237  -3.738  18.182  1.00  0.00    -0.776 OA
HETATM   37  H16 UNL     1     -15.870  -3.331  18.995  1.00  0.00     0.167 HD
ENDBRANCH  34  36
ENDBRANCH   7  34
TORSDOF 5
ENDMDL
MODEL 9
REMARK minimizedAffinity -6.92416763
REMARK CNNscore 0.260308981
REMARK CNNaffinity 5.88010359
REMARK  5 active torsions:
REMARK  status: ('A' for Active; 'I' for Inactive)
REMARK    1  A    between atoms: C2_2  and  C4_4 
REMARK    2  A    between atoms: C7_7  and  C8_8 
REMARK    3  A    between atoms: C8_8  and  O2_10 
REMARK    4  A    between atoms: C11_13  and  C12_14 
REMARK    5  A    between atoms: C12_14  and  O4_16 
ROOT
HETATM    1  C4  UNL     1     -18.436  -1.350  15.294  1.00  0.00     0.019 C 
HETATM    2  C5  UNL     1     -18.750   0.138  15.127  1.00  0.00     0.011 C 
HETATM    3  C6  UNL     1     -17.422   0.797  15.475  1.00  0.00     0.021 C 
HETATM    4  C7  UNL     1     -16.353  -0.070  14.769  1.00  0.00     0.050 C 
HETATM    5  C9  UNL     1     -16.073   0.503  13.370  1.00  0.00     0.022 C 
HETATM    6  C10 UNL     1     -15.385  -0.475  12.420  1.00  0.00     0.023 C 
HETATM    7  C11 UNL     1     -16.114  -1.831  12.244  1.00  0.00     0.057 C 
HETATM    8  C13 UNL     1     -16.470  -2.451  13.639  1.00  0.00     0.011 C 
HETATM    9  C14 UNL     1     -17.216  -3.782  13.487  1.00  0.00     0.007 C 
HETATM   10  C15 UNL     1     -16.461  -4.809  12.630  1.00  0.00     0.006 C 
HETATM   11  C16 UNL     1     -16.006  -4.248  11.261  1.00  0.00     0.003 C 
HETATM   12  C17 UNL     1     -15.405  -5.326  10.254  1.00  0.00    -0.035 C 
HETATM   13  C18 UNL     1     -14.168  -6.043  10.845  1.00  0.00     0.016 C 
HETATM   14  C19 UNL     1     -16.494  -6.406   9.972  1.00  0.00     0.017 C 
HETATM   15  C20 UNL     1     -16.161  -7.362   8.836  1.00  0.00     0.080 C 
HETATM   16  C21 UNL     1     -15.808  -6.627   7.568  1.00  0.00     0.135 C 
HETATM   17  O5  UNL     1     -16.273  -7.012   6.493  1.00  0.00    -0.297 OA
HETATM   18  C22 UNL     1     -14.776  -5.490   7.661  1.00  0.00     0.017 C 
HETATM   19  C23 UNL     1     -13.373  -6.114   7.689  1.00  0.00     0.023 C 
HETATM   20  C24 UNL     1     -14.880  -4.661   6.354  1.00  0.00     0.023 C 
HETATM   21  C25 UNL     1     -15.125  -4.583   8.892  1.00  0.00     0.009 C 
HETATM   22  C26 UNL     1     -14.156  -3.401   9.091  1.00  0.00     0.007 C 
HETATM   23  C27 UNL     1     -14.716  -2.354  10.058  1.00  0.00     0.011 C 
HETATM   24  C28 UNL     1     -15.176  -2.913  11.438  1.00  0.00    -0.022 C 
HETATM   25  C29 UNL     1     -13.850  -3.191  12.222  1.00  0.00     0.017 C 
HETATM   26  C30 UNL     1     -16.961  -1.518  14.792  1.00  0.00     0.018 C 
ENDROOT
BRANCH   4  27
HETATM   27  C8  UNL     1     -15.038  -0.037  15.549  1.00  0.00     0.149 C 
HETATM   28  O1  UNL     1     -14.545   0.935  16.098  1.00  0.00    -0.649 OA
BRANCH  27  29
HETATM   29  O2  UNL     1     -14.450  -1.242  15.672  1.00  0.00    -0.776 OA
HETATM   30  H11 UNL     1     -13.656  -1.064  16.219  1.00  0.00     0.167 HD
ENDBRANCH  27  29
ENDBRANCH   4  27
BRANCH   1  31
HETATM   31  C2  UNL     1     -19.556  -2.330  14.997  1.00  0.00    -0.088 C 
HETATM   32  C1  UNL     1     -20.368  -2.126  13.941  1.00  0.00     0.014 C 
HETATM   33  C3  UNL     1     -19.699  -3.593  15.799  1.00  0.00     0.043 C 
ENDBRANCH   1  31
BRANCH   7  34
HETATM   34  C12 UNL     1     -17.400  -1.534  11.430  1.00  0.00     0.149 C 
HETATM   35  O3  UNL     1     -18.402  -2.219  11.311  1.00  0.00    -0.649 OA
BRANCH  34  36
HETATM   36  O4  UNL     1     -17.359  -0.385  10.739  1.00  0.00    -0.776 OA
HETATM   37  H16 UNL     1     -18.218  -0.378  10.266  1.00  0.00     0.167 HD
ENDBRANCH  34  36
ENDBRANCH   7  34
TORSDOF 5
ENDMDL
