MODEL 1
REMARK minimizedAffinity -8.90382385
REMARK CNNscore 0.630572617
REMARK CNNaffinity 7.16323328
REMARK  11 active torsions:
REMARK  status: ('A' for Active; 'I' for Inactive)
REMARK    1  A    between atoms: C19_20  and  O2_21 
REMARK    2  A    between atoms: C19_20  and  C20_22 
REMARK    3  A    between atoms: C20_22  and  C21_24 
REMARK    4  A    between atoms: C21_24  and  O4_25 
REMARK    5  A    between atoms: O4_25  and  C22_26 
REMARK    6  A    between atoms: C22_26  and  C23_28 
REMARK    7  A    between atoms: C23_28  and  C24_29 
REMARK    8  A    between atoms: C24_29  and  C25_30 
REMARK       I    between atoms: C25_30  and  N1_32 
REMARK    9  A    between atoms: N1_32  and  C26_33 
REMARK   10  A    between atoms: C26_33  and  C27_34 
REMARK   11  A    between atoms: C27_34  and  C28_35 
ROOT
HETATM    1  C1  UNL     1      -0.154  49.430 -20.612  1.00  0.00     0.020 C 
HETATM    2  C2  UNL     1      -0.561  50.849 -21.085  1.00  0.00    -0.016 C 
HETATM    3  C3  UNL     1       0.605  51.331 -21.999  1.00  0.00     0.022 C 
HETATM    4  C4  UNL     1       0.648  52.837 -22.193  1.00  0.00     0.084 C 
HETATM    5  C5  UNL     1       0.768  53.499 -20.846  1.00  0.00     0.149 C 
HETATM    6  O1  UNL     1       1.473  54.486 -20.648  1.00  0.00    -0.293 OA
HETATM    7  C6  UNL     1      -0.073  52.964 -19.750  1.00  0.00     0.053 C 
HETATM    8  C7  UNL     1      -0.714  51.790 -19.880  1.00  0.00    -0.068 C 
HETATM    9  C8  UNL     1      -1.768  51.396 -18.876  1.00  0.00     0.035 C 
HETATM   10  C9  UNL     1      -3.129  51.352 -19.574  1.00  0.00     0.010 C 
HETATM   11  C10 UNL     1      -3.118  50.453 -20.826  1.00  0.00    -0.004 C 
HETATM   12  C11 UNL     1      -1.957  50.844 -21.807  1.00  0.00     0.002 C 
HETATM   13  C12 UNL     1      -2.008  49.994 -23.102  1.00  0.00     0.007 C 
HETATM   14  C13 UNL     1      -3.396  49.978 -23.770  1.00  0.00     0.013 C 
HETATM   15  C14 UNL     1      -4.511  49.552 -22.795  1.00  0.00    -0.002 C 
HETATM   16  C15 UNL     1      -4.314  48.063 -22.397  1.00  0.00     0.019 C 
HETATM   17  C16 UNL     1      -4.448  50.522 -21.587  1.00  0.00     0.002 C 
HETATM   18  C17 UNL     1      -5.732  50.231 -20.825  1.00  0.00     0.009 C 
HETATM   19  C18 UNL     1      -6.767  49.921 -21.921  1.00  0.00     0.047 C 
HETATM   20  C19 UNL     1      -5.982  49.794 -23.259  1.00  0.00     0.128 C 
ENDROOT
BRANCH  20  21
HETATM   21  O2  UNL     1      -6.076  51.050 -23.938  1.00  0.00    -0.381 OA
HETATM   22  H27 UNL     1      -7.022  51.234 -24.097  1.00  0.00     0.211 HD
ENDBRANCH  20  21
BRANCH  20  23
HETATM   23  C20 UNL     1      -6.553  48.693 -24.179  1.00  0.00     0.185 C 
HETATM   24  O3  UNL     1      -5.965  48.323 -25.200  1.00  0.00    -0.292 OA
BRANCH  23  25
HETATM   25  C21 UNL     1      -7.904  48.092 -23.786  1.00  0.00     0.260 C 
BRANCH  25  26
HETATM   26  O4  UNL     1      -8.488  47.345 -24.853  1.00  0.00    -0.314 OA
BRANCH  26  27
HETATM   27  C22 UNL     1      -9.789  47.665 -25.104  1.00  0.00     0.259 C 
HETATM   28  O5  UNL     1     -10.744  47.264 -24.453  1.00  0.00    -0.265 OA
BRANCH  27  29
HETATM   29  C23 UNL     1      -9.882  48.625 -26.256  1.00  0.00     0.120 C 
BRANCH  29  30
HETATM   30  C24 UNL     1     -10.606  47.977 -27.425  1.00  0.00     0.112 C 
BRANCH  30  31
HETATM   31  C25 UNL     1      -9.652  47.603 -28.538  1.00  0.00     0.218 C 
HETATM   32  O6  UNL     1      -9.555  46.472 -28.997  1.00  0.00    -0.274 OA
HETATM   33  N1  UNL     1      -8.907  48.670 -28.987  1.00  0.00    -0.361 N 
HETATM   34  H34 UNL     1      -9.206  49.607 -28.746  1.00  0.00     0.162 HD
BRANCH  33  35
HETATM   35  C26 UNL     1      -7.982  48.535 -30.099  1.00  0.00     0.127 C 
BRANCH  35  36
HETATM   36  C27 UNL     1      -6.635  47.930 -29.687  1.00  0.00     0.058 C 
BRANCH  36  37
HETATM   37  C28 UNL     1      -5.829  47.445 -30.870  1.00  0.00    -0.057 A 
HETATM   38  C29 UNL     1      -5.276  48.362 -31.775  1.00  0.00     0.007 A 
HETATM   39  C30 UNL     1      -4.518  47.916 -32.859  1.00  0.00     0.001 A 
HETATM   40  C31 UNL     1      -4.305  46.551 -33.047  1.00  0.00     0.000 A 
HETATM   41  C32 UNL     1      -4.849  45.632 -32.152  1.00  0.00     0.001 A 
HETATM   42  C33 UNL     1      -5.607  46.076 -31.068  1.00  0.00     0.007 A 
ENDBRANCH  36  37
ENDBRANCH  35  36
ENDBRANCH  33  35
ENDBRANCH  30  31
ENDBRANCH  29  30
ENDBRANCH  27  29
ENDBRANCH  26  27
ENDBRANCH  25  26
ENDBRANCH  23  25
ENDBRANCH  20  23
TORSDOF 11
ENDMDL
MODEL 2
REMARK minimizedAffinity -9.939991
REMARK CNNscore 0.612175047
REMARK CNNaffinity 7.59987307
REMARK  11 active torsions:
REMARK  status: ('A' for Active; 'I' for Inactive)
REMARK    1  A    between atoms: C19_20  and  O2_21 
REMARK    2  A    between atoms: C19_20  and  C20_22 
REMARK    3  A    between atoms: C20_22  and  C21_24 
REMARK    4  A    between atoms: C21_24  and  O4_25 
REMARK    5  A    between atoms: O4_25  and  C22_26 
REMARK    6  A    between atoms: C22_26  and  C23_28 
REMARK    7  A    between atoms: C23_28  and  C24_29 
REMARK    8  A    between atoms: C24_29  and  C25_30 
REMARK       I    between atoms: C25_30  and  N1_32 
REMARK    9  A    between atoms: N1_32  and  C26_33 
REMARK   10  A    between atoms: C26_33  and  C27_34 
REMARK   11  A    between atoms: C27_34  and  C28_35 
ROOT
HETATM    1  C1  UNL     1      -0.195  49.466 -20.530  1.00  0.00     0.020 C 
HETATM    2  C2  UNL     1      -0.662  50.909 -20.845  1.00  0.00    -0.016 C 
HETATM    3  C3  UNL     1       0.359  51.457 -21.886  1.00  0.00     0.022 C 
HETATM    4  C4  UNL     1       0.379  52.973 -21.987  1.00  0.00     0.084 C 
HETATM    5  C5  UNL     1       0.697  53.547 -20.632  1.00  0.00     0.149 C 
HETATM    6  O1  UNL     1       1.428  54.522 -20.475  1.00  0.00    -0.293 OA
HETATM    7  C6  UNL     1       0.025  52.936 -19.461  1.00  0.00     0.053 C 
HETATM    8  C7  UNL     1      -0.633  51.769 -19.572  1.00  0.00    -0.068 C 
HETATM    9  C8  UNL     1      -1.530  51.305 -18.452  1.00  0.00     0.035 C 
HETATM   10  C9  UNL     1      -2.978  51.298 -18.944  1.00  0.00     0.010 C 
HETATM   11  C10 UNL     1      -3.155  50.483 -20.241  1.00  0.00    -0.004 C 
HETATM   12  C11 UNL     1      -2.149  50.943 -21.353  1.00  0.00     0.002 C 
HETATM   13  C12 UNL     1      -2.392  50.178 -22.679  1.00  0.00     0.007 C 
HETATM   14  C13 UNL     1      -3.863  50.197 -23.136  1.00  0.00     0.013 C 
HETATM   15  C14 UNL     1      -4.824  49.702 -22.039  1.00  0.00    -0.002 C 
HETATM   16  C15 UNL     1      -4.577  48.192 -21.772  1.00  0.00     0.019 C 
HETATM   17  C16 UNL     1      -4.581  50.592 -20.793  1.00  0.00     0.002 C 
HETATM   18  C17 UNL     1      -5.741  50.246 -19.871  1.00  0.00     0.009 C 
HETATM   19  C18 UNL     1      -6.926  50.001 -20.822  1.00  0.00     0.047 C 
HETATM   20  C19 UNL     1      -6.346  49.965 -22.266  1.00  0.00     0.128 C 
ENDROOT
BRANCH  20  21
HETATM   21  O2  UNL     1      -6.534  51.263 -22.841  1.00  0.00    -0.381 OA
HETATM   22  H27 UNL     1      -7.492  51.451 -22.847  1.00  0.00     0.211 HD
ENDBRANCH  20  21
BRANCH  20  23
HETATM   23  C20 UNL     1      -7.050  48.923 -23.162  1.00  0.00     0.185 C 
HETATM   24  O3  UNL     1      -8.274  48.926 -23.331  1.00  0.00    -0.292 OA
BRANCH  23  25
HETATM   25  C21 UNL     1      -6.166  47.860 -23.816  1.00  0.00     0.260 C 
BRANCH  25  26
HETATM   26  O4  UNL     1      -6.173  47.961 -25.240  1.00  0.00    -0.314 OA
BRANCH  26  27
HETATM   27  C22 UNL     1      -4.935  48.122 -25.788  1.00  0.00     0.259 C 
HETATM   28  O5  UNL     1      -3.884  48.071 -25.166  1.00  0.00    -0.265 OA
BRANCH  27  29
HETATM   29  C23 UNL     1      -5.041  48.314 -27.275  1.00  0.00     0.120 C 
BRANCH  29  30
HETATM   30  C24 UNL     1      -3.664  48.551 -27.875  1.00  0.00     0.112 C 
BRANCH  30  31
HETATM   31  C25 UNL     1      -3.319  50.022 -27.925  1.00  0.00     0.218 C 
HETATM   32  O6  UNL     1      -3.359  50.694 -28.948  1.00  0.00    -0.274 OA
HETATM   33  N1  UNL     1      -2.963  50.532 -26.696  1.00  0.00    -0.361 N 
HETATM   34  H34 UNL     1      -3.188  49.998 -25.865  1.00  0.00     0.162 HD
BRANCH  33  35
HETATM   35  C26 UNL     1      -2.663  51.942 -26.518  1.00  0.00     0.127 C 
BRANCH  35  36
HETATM   36  C27 UNL     1      -1.455  52.187 -25.607  1.00  0.00     0.058 C 
BRANCH  36  37
HETATM   37  C28 UNL     1      -0.138  52.001 -26.323  1.00  0.00    -0.057 A 
HETATM   38  C29 UNL     1       1.030  51.720 -25.600  1.00  0.00     0.007 A 
HETATM   39  C30 UNL     1       2.244  51.533 -26.263  1.00  0.00     0.001 A 
HETATM   40  C31 UNL     1       2.302  51.624 -27.652  1.00  0.00     0.000 A 
HETATM   41  C32 UNL     1       1.147  51.903 -28.381  1.00  0.00     0.001 A 
HETATM   42  C33 UNL     1      -0.068  52.090 -27.720  1.00  0.00     0.007 A 
ENDBRANCH  36  37
ENDBRANCH  35  36
ENDBRANCH  33  35
ENDBRANCH  30  31
ENDBRANCH  29  30
ENDBRANCH  27  29
ENDBRANCH  26  27
ENDBRANCH  25  26
ENDBRANCH  23  25
ENDBRANCH  20  23
TORSDOF 11
ENDMDL
MODEL 3
REMARK minimizedAffinity -9.98874855
REMARK CNNscore 0.605192423
REMARK CNNaffinity 7.98330545
REMARK  11 active torsions:
REMARK  status: ('A' for Active; 'I' for Inactive)
REMARK    1  A    between atoms: C19_20  and  O2_21 
REMARK    2  A    between atoms: C19_20  and  C20_22 
REMARK    3  A    between atoms: C20_22  and  C21_24 
REMARK    4  A    between atoms: C21_24  and  O4_25 
REMARK    5  A    between atoms: O4_25  and  C22_26 
REMARK    6  A    between atoms: C22_26  and  C23_28 
REMARK    7  A    between atoms: C23_28  and  C24_29 
REMARK    8  A    between atoms: C24_29  and  C25_30 
REMARK       I    between atoms: C25_30  and  N1_32 
REMARK    9  A    between atoms: N1_32  and  C26_33 
REMARK   10  A    between atoms: C26_33  and  C27_34 
REMARK   11  A    between atoms: C27_34  and  C28_35 
ROOT
HETATM    1  C1  UNL     1      -4.928  51.214 -24.229  1.00  0.00     0.020 C 
HETATM    2  C2  UNL     1      -4.114  49.934 -24.547  1.00  0.00    -0.016 C 
HETATM    3  C3  UNL     1      -3.085  50.359 -25.637  1.00  0.00     0.022 C 
HETATM    4  C4  UNL     1      -2.509  49.193 -26.423  1.00  0.00     0.084 C 
HETATM    5  C5  UNL     1      -3.637  48.439 -27.074  1.00  0.00     0.149 C 
HETATM    6  O1  UNL     1      -3.562  47.974 -28.209  1.00  0.00    -0.293 OA
HETATM    7  C6  UNL     1      -4.850  48.196 -26.258  1.00  0.00     0.053 C 
HETATM    8  C7  UNL     1      -5.039  48.835 -25.091  1.00  0.00    -0.068 C 
HETATM    9  C8  UNL     1      -6.130  48.379 -24.155  1.00  0.00     0.035 C 
HETATM   10  C9  UNL     1      -5.493  47.826 -22.879  1.00  0.00     0.010 C 
HETATM   11  C10 UNL     1      -4.514  48.823 -22.230  1.00  0.00    -0.004 C 
HETATM   12  C11 UNL     1      -3.444  49.334 -23.258  1.00  0.00     0.002 C 
HETATM   13  C12 UNL     1      -2.413  50.268 -22.576  1.00  0.00     0.007 C 
HETATM   14  C13 UNL     1      -1.798  49.670 -21.296  1.00  0.00     0.013 C 
HETATM   15  C14 UNL     1      -2.870  49.215 -20.287  1.00  0.00    -0.002 C 
HETATM   16  C15 UNL     1      -3.634  50.454 -19.744  1.00  0.00     0.019 C 
HETATM   17  C16 UNL     1      -3.786  48.208 -21.029  1.00  0.00     0.002 C 
HETATM   18  C17 UNL     1      -4.621  47.593 -19.915  1.00  0.00     0.009 C 
HETATM   19  C18 UNL     1      -3.661  47.515 -18.715  1.00  0.00     0.047 C 
HETATM   20  C19 UNL     1      -2.387  48.320 -19.103  1.00  0.00     0.128 C 
ENDROOT
BRANCH  20  21
HETATM   21  O2  UNL     1      -1.409  47.384 -19.570  1.00  0.00    -0.381 OA
HETATM   22  H27 UNL     1      -1.226  46.756 -18.844  1.00  0.00     0.211 HD
ENDBRANCH  20  21
BRANCH  20  23
HETATM   23  C20 UNL     1      -1.792  49.100 -17.911  1.00  0.00     0.185 C 
HETATM   24  O3  UNL     1      -2.330  49.106 -16.799  1.00  0.00    -0.292 OA
BRANCH  23  25
HETATM   25  C21 UNL     1      -0.512  49.894 -18.171  1.00  0.00     0.260 C 
BRANCH  25  26
HETATM   26  O4  UNL     1      -0.784  51.187 -18.711  1.00  0.00    -0.314 OA
BRANCH  26  27
HETATM   27  C22 UNL     1       0.038  52.168 -18.240  1.00  0.00     0.259 C 
HETATM   28  O5  UNL     1       0.646  52.119 -17.179  1.00  0.00    -0.265 OA
BRANCH  27  29
HETATM   29  C23 UNL     1       0.138  53.292 -19.232  1.00  0.00     0.120 C 
BRANCH  29  30
HETATM   30  C24 UNL     1       1.517  53.309 -19.872  1.00  0.00     0.112 C 
BRANCH  30  31
HETATM   31  C25 UNL     1       1.472  53.834 -21.289  1.00  0.00     0.218 C 
HETATM   32  O6  UNL     1       2.029  54.864 -21.649  1.00  0.00    -0.274 OA
HETATM   33  N1  UNL     1       0.742  53.031 -22.136  1.00  0.00    -0.361 N 
HETATM   34  H34 UNL     1       0.523  52.087 -21.841  1.00  0.00     0.162 HD
BRANCH  33  35
HETATM   35  C26 UNL     1       0.635  53.324 -23.555  1.00  0.00     0.127 C 
BRANCH  35  36
HETATM   36  C27 UNL     1      -0.017  52.190 -24.353  1.00  0.00     0.058 C 
BRANCH  36  37
HETATM   37  C28 UNL     1       0.600  52.012 -25.721  1.00  0.00    -0.057 A 
HETATM   38  C29 UNL     1       1.972  51.756 -25.853  1.00  0.00     0.007 A 
HETATM   39  C30 UNL     1       2.539  51.576 -27.115  1.00  0.00     0.001 A 
HETATM   40  C31 UNL     1       1.742  51.649 -28.256  1.00  0.00     0.000 A 
HETATM   41  C32 UNL     1       0.377  51.902 -28.136  1.00  0.00     0.001 A 
HETATM   42  C33 UNL     1      -0.193  52.082 -26.875  1.00  0.00     0.007 A 
ENDBRANCH  36  37
ENDBRANCH  35  36
ENDBRANCH  33  35
ENDBRANCH  30  31
ENDBRANCH  29  30
ENDBRANCH  27  29
ENDBRANCH  26  27
ENDBRANCH  25  26
ENDBRANCH  23  25
ENDBRANCH  20  23
TORSDOF 11
ENDMDL
MODEL 4
REMARK minimizedAffinity -8.99077988
REMARK CNNscore 0.428956151
REMARK CNNaffinity 6.96652746
REMARK  11 active torsions:
REMARK  status: ('A' for Active; 'I' for Inactive)
REMARK    1  A    between atoms: C19_20  and  O2_21 
REMARK    2  A    between atoms: C19_20  and  C20_22 
REMARK    3  A    between atoms: C20_22  and  C21_24 
REMARK    4  A    between atoms: C21_24  and  O4_25 
REMARK    5  A    between atoms: O4_25  and  C22_26 
REMARK    6  A    between atoms: C22_26  and  C23_28 
REMARK    7  A    between atoms: C23_28  and  C24_29 
REMARK    8  A    between atoms: C24_29  and  C25_30 
REMARK       I    between atoms: C25_30  and  N1_32 
REMARK    9  A    between atoms: N1_32  and  C26_33 
REMARK   10  A    between atoms: C26_33  and  C27_34 
REMARK   11  A    between atoms: C27_34  and  C28_35 
ROOT
HETATM    1  C1  UNL     1      -1.996  53.062 -24.748  1.00  0.00     0.020 C 
HETATM    2  C2  UNL     1      -0.912  51.979 -24.978  1.00  0.00    -0.016 C 
HETATM    3  C3  UNL     1       0.435  52.755 -25.076  1.00  0.00     0.022 C 
HETATM    4  C4  UNL     1       1.547  51.971 -25.752  1.00  0.00     0.084 C 
HETATM    5  C5  UNL     1       1.098  51.582 -27.136  1.00  0.00     0.149 C 
HETATM    6  O1  UNL     1       1.846  51.599 -28.110  1.00  0.00    -0.293 OA
HETATM    7  C6  UNL     1      -0.291  51.088 -27.284  1.00  0.00     0.053 C 
HETATM    8  C7  UNL     1      -1.183  51.222 -26.288  1.00  0.00    -0.068 C 
HETATM    9  C8  UNL     1      -2.495  50.480 -26.351  1.00  0.00     0.035 C 
HETATM   10  C9  UNL     1      -2.535  49.443 -25.227  1.00  0.00     0.010 C 
HETATM   11  C10 UNL     1      -2.255  50.062 -23.844  1.00  0.00    -0.004 C 
HETATM   12  C11 UNL     1      -0.923  50.892 -23.843  1.00  0.00     0.002 C 
HETATM   13  C12 UNL     1      -0.604  51.438 -22.428  1.00  0.00     0.007 C 
HETATM   14  C13 UNL     1      -0.656  50.359 -21.329  1.00  0.00     0.013 C 
HETATM   15  C14 UNL     1      -1.990  49.588 -21.327  1.00  0.00    -0.002 C 
HETATM   16  C15 UNL     1      -3.144  50.543 -20.913  1.00  0.00     0.019 C 
HETATM   17  C16 UNL     1      -2.168  48.993 -22.749  1.00  0.00     0.002 C 
HETATM   18  C17 UNL     1      -3.331  48.025 -22.591  1.00  0.00     0.009 C 
HETATM   19  C18 UNL     1      -3.154  47.440 -21.178  1.00  0.00     0.047 C 
HETATM   20  C19 UNL     1      -2.045  48.279 -20.478  1.00  0.00     0.128 C 
ENDROOT
BRANCH  20  21
HETATM   21  O2  UNL     1      -0.812  47.563 -20.610  1.00  0.00    -0.381 OA
HETATM   22  H27 UNL     1      -0.925  46.693 -20.180  1.00  0.00     0.211 HD
ENDBRANCH  20  21
BRANCH  20  23
HETATM   23  C20 UNL     1      -2.328  48.500 -18.977  1.00  0.00     0.185 C 
HETATM   24  O3  UNL     1      -3.454  48.343 -18.493  1.00  0.00    -0.292 OA
BRANCH  23  25
HETATM   25  C21 UNL     1      -1.154  48.953 -18.109  1.00  0.00     0.260 C 
BRANCH  25  26
HETATM   26  O4  UNL     1      -1.207  50.351 -17.822  1.00  0.00    -0.314 OA
BRANCH  26  27
HETATM   27  C22 UNL     1      -1.982  50.666 -16.746  1.00  0.00     0.259 C 
HETATM   28  O5  UNL     1      -3.027  51.300 -16.800  1.00  0.00    -0.265 OA
BRANCH  27  29
HETATM   29  C23 UNL     1      -1.404  50.075 -15.491  1.00  0.00     0.120 C 
BRANCH  29  30
HETATM   30  C24 UNL     1      -1.236  51.152 -14.431  1.00  0.00     0.112 C 
BRANCH  30  31
HETATM   31  C25 UNL     1      -2.478  51.302 -13.582  1.00  0.00     0.218 C 
HETATM   32  O6  UNL     1      -3.293  50.404 -13.407  1.00  0.00    -0.274 OA
HETATM   33  N1  UNL     1      -2.596  52.553 -13.020  1.00  0.00    -0.361 N 
HETATM   34  H34 UNL     1      -1.782  53.155 -12.999  1.00  0.00     0.162 HD
BRANCH  33  35
HETATM   35  C26 UNL     1      -3.685  52.878 -12.115  1.00  0.00     0.127 C 
BRANCH  35  36
HETATM   36  C27 UNL     1      -3.400  52.468 -10.665  1.00  0.00     0.058 C 
BRANCH  36  37
HETATM   37  C28 UNL     1      -2.406  53.381  -9.986  1.00  0.00    -0.057 A 
HETATM   38  C29 UNL     1      -2.132  54.651 -10.515  1.00  0.00     0.007 A 
HETATM   39  C30 UNL     1      -1.225  55.500  -9.880  1.00  0.00     0.001 A 
HETATM   40  C31 UNL     1      -0.586  55.091  -8.711  1.00  0.00     0.000 A 
HETATM   41  C32 UNL     1      -0.853  53.831  -8.176  1.00  0.00     0.001 A 
HETATM   42  C33 UNL     1      -1.759  52.980  -8.810  1.00  0.00     0.007 A 
ENDBRANCH  36  37
ENDBRANCH  35  36
ENDBRANCH  33  35
ENDBRANCH  30  31
ENDBRANCH  29  30
ENDBRANCH  27  29
ENDBRANCH  26  27
ENDBRANCH  25  26
ENDBRANCH  23  25
ENDBRANCH  20  23
TORSDOF 11
ENDMDL
MODEL 5
REMARK minimizedAffinity -8.07143021
REMARK CNNscore 0.41891107
REMARK CNNaffinity 6.53056955
REMARK  11 active torsions:
REMARK  status: ('A' for Active; 'I' for Inactive)
REMARK    1  A    between atoms: C19_20  and  O2_21 
REMARK    2  A    between atoms: C19_20  and  C20_22 
REMARK    3  A    between atoms: C20_22  and  C21_24 
REMARK    4  A    between atoms: C21_24  and  O4_25 
REMARK    5  A    between atoms: O4_25  and  C22_26 
REMARK    6  A    between atoms: C22_26  and  C23_28 
REMARK    7  A    between atoms: C23_28  and  C24_29 
REMARK    8  A    between atoms: C24_29  and  C25_30 
REMARK       I    between atoms: C25_30  and  N1_32 
REMARK    9  A    between atoms: N1_32  and  C26_33 
REMARK   10  A    between atoms: C26_33  and  C27_34 
REMARK   11  A    between atoms: C27_34  and  C28_35 
ROOT
HETATM    1  C1  UNL     1       3.186  69.873 -38.031  1.00  0.00     0.020 C 
HETATM    2  C2  UNL     1       2.715  68.594 -38.769  1.00  0.00    -0.016 C 
HETATM    3  C3  UNL     1       2.889  68.903 -40.286  1.00  0.00     0.022 C 
HETATM    4  C4  UNL     1       2.073  67.998 -41.193  1.00  0.00     0.084 C 
HETATM    5  C5  UNL     1       0.619  68.123 -40.825  1.00  0.00     0.149 C 
HETATM    6  O1  UNL     1      -0.282  68.140 -41.661  1.00  0.00    -0.293 OA
HETATM    7  C6  UNL     1       0.283  68.146 -39.382  1.00  0.00     0.053 C 
HETATM    8  C7  UNL     1       1.240  68.307 -38.452  1.00  0.00    -0.068 C 
HETATM    9  C8  UNL     1       0.922  68.057 -36.999  1.00  0.00     0.035 C 
HETATM   10  C9  UNL     1       1.718  66.844 -36.516  1.00  0.00     0.010 C 
HETATM   11  C10 UNL     1       3.229  66.984 -36.791  1.00  0.00    -0.004 C 
HETATM   12  C11 UNL     1       3.511  67.323 -38.297  1.00  0.00     0.002 C 
HETATM   13  C12 UNL     1       5.034  67.376 -38.583  1.00  0.00     0.007 C 
HETATM   14  C13 UNL     1       5.795  66.134 -38.080  1.00  0.00     0.013 C 
HETATM   15  C14 UNL     1       5.531  65.849 -36.589  1.00  0.00    -0.002 C 
HETATM   16  C15 UNL     1       6.140  66.988 -35.725  1.00  0.00     0.019 C 
HETATM   17  C16 UNL     1       3.995  65.709 -36.422  1.00  0.00     0.002 C 
HETATM   18  C17 UNL     1       3.835  65.151 -35.016  1.00  0.00     0.009 C 
HETATM   19  C18 UNL     1       5.042  64.213 -34.836  1.00  0.00     0.047 C 
HETATM   20  C19 UNL     1       5.990  64.459 -36.046  1.00  0.00     0.128 C 
ENDROOT
BRANCH  20  21
HETATM   21  O2  UNL     1       5.721  63.445 -37.021  1.00  0.00    -0.381 OA
HETATM   22  H27 UNL     1       5.892  62.578 -36.605  1.00  0.00     0.211 HD
ENDBRANCH  20  21
BRANCH  20  23
HETATM   23  C20 UNL     1       7.481  64.384 -35.656  1.00  0.00     0.185 C 
HETATM   24  O3  UNL     1       8.383  64.607 -36.470  1.00  0.00    -0.292 OA
BRANCH  23  25
HETATM   25  C21 UNL     1       7.802  63.991 -34.213  1.00  0.00     0.260 C 
BRANCH  25  26
HETATM   26  O4  UNL     1       8.929  63.118 -34.133  1.00  0.00    -0.314 OA
BRANCH  26  27
HETATM   27  C22 UNL     1       9.917  63.565 -33.307  1.00  0.00     0.259 C 
HETATM   28  O5  UNL     1       9.740  64.280 -32.330  1.00  0.00    -0.265 OA
BRANCH  27  29
HETATM   29  C23 UNL     1      11.248  63.010 -33.731  1.00  0.00     0.120 C 
BRANCH  29  30
HETATM   30  C24 UNL     1      11.326  62.928 -35.247  1.00  0.00     0.112 C 
BRANCH  30  31
HETATM   31  C25 UNL     1      12.680  63.360 -35.763  1.00  0.00     0.218 C 
HETATM   32  O6  UNL     1      13.726  63.186 -35.150  1.00  0.00    -0.274 OA
HETATM   33  N1  UNL     1      12.616  63.963 -36.999  1.00  0.00    -0.361 N 
HETATM   34  H34 UNL     1      11.775  63.852 -37.551  1.00  0.00     0.162 HD
BRANCH  33  35
HETATM   35  C26 UNL     1      13.817  64.388 -37.698  1.00  0.00     0.127 C 
BRANCH  35  36
HETATM   36  C27 UNL     1      14.614  63.217 -38.285  1.00  0.00     0.058 C 
BRANCH  36  37
HETATM   37  C28 UNL     1      13.841  62.457 -39.339  1.00  0.00    -0.057 A 
HETATM   38  C29 UNL     1      13.651  61.073 -39.220  1.00  0.00     0.007 A 
HETATM   39  C30 UNL     1      12.925  60.375 -40.185  1.00  0.00     0.001 A 
HETATM   40  C31 UNL     1      12.381  61.051 -41.275  1.00  0.00     0.000 A 
HETATM   41  C32 UNL     1      12.563  62.427 -41.402  1.00  0.00     0.001 A 
HETATM   42  C33 UNL     1      13.289  63.128 -40.438  1.00  0.00     0.007 A 
ENDBRANCH  36  37
ENDBRANCH  35  36
ENDBRANCH  33  35
ENDBRANCH  30  31
ENDBRANCH  29  30
ENDBRANCH  27  29
ENDBRANCH  26  27
ENDBRANCH  25  26
ENDBRANCH  23  25
ENDBRANCH  20  23
TORSDOF 11
ENDMDL
MODEL 6
REMARK minimizedAffinity -9.23817921
REMARK CNNscore 0.336745322
REMARK CNNaffinity 6.07527781
REMARK  11 active torsions:
REMARK  status: ('A' for Active; 'I' for Inactive)
REMARK    1  A    between atoms: C19_20  and  O2_21 
REMARK    2  A    between atoms: C19_20  and  C20_22 
REMARK    3  A    between atoms: C20_22  and  C21_24 
REMARK    4  A    between atoms: C21_24  and  O4_25 
REMARK    5  A    between atoms: O4_25  and  C22_26 
REMARK    6  A    between atoms: C22_26  and  C23_28 
REMARK    7  A    between atoms: C23_28  and  C24_29 
REMARK    8  A    between atoms: C24_29  and  C25_30 
REMARK       I    between atoms: C25_30  and  N1_32 
REMARK    9  A    between atoms: N1_32  and  C26_33 
REMARK   10  A    between atoms: C26_33  and  C27_34 
REMARK   11  A    between atoms: C27_34  and  C28_35 
ROOT
HETATM    1  C1  UNL     1      -0.273  49.435 -20.574  1.00  0.00     0.020 C 
HETATM    2  C2  UNL     1      -0.662  50.863 -21.033  1.00  0.00    -0.016 C 
HETATM    3  C3  UNL     1       0.534  51.359 -21.900  1.00  0.00     0.022 C 
HETATM    4  C4  UNL     1       0.587  52.868 -22.065  1.00  0.00     0.084 C 
HETATM    5  C5  UNL     1       0.664  53.505 -20.703  1.00  0.00     0.149 C 
HETATM    6  O1  UNL     1       1.365  54.485 -20.463  1.00  0.00    -0.293 OA
HETATM    7  C6  UNL     1      -0.213  52.951 -19.644  1.00  0.00     0.053 C 
HETATM    8  C7  UNL     1      -0.852  51.782 -19.817  1.00  0.00    -0.068 C 
HETATM    9  C8  UNL     1      -1.939  51.373 -18.855  1.00  0.00     0.035 C 
HETATM   10  C9  UNL     1      -3.276  51.345 -19.598  1.00  0.00     0.010 C 
HETATM   11  C10 UNL     1      -3.227  50.470 -20.866  1.00  0.00    -0.004 C 
HETATM   12  C11 UNL     1      -2.034  50.875 -21.801  1.00  0.00     0.002 C 
HETATM   13  C12 UNL     1      -2.044  50.049 -23.112  1.00  0.00     0.007 C 
HETATM   14  C13 UNL     1      -3.410  50.049 -23.825  1.00  0.00     0.013 C 
HETATM   15  C14 UNL     1      -4.557  49.608 -22.896  1.00  0.00    -0.002 C 
HETATM   16  C15 UNL     1      -4.376  48.112 -22.519  1.00  0.00     0.019 C 
HETATM   17  C16 UNL     1      -4.530  50.556 -21.668  1.00  0.00     0.002 C 
HETATM   18  C17 UNL     1      -5.840  50.255 -20.954  1.00  0.00     0.009 C 
HETATM   19  C18 UNL     1      -6.839  49.968 -22.089  1.00  0.00     0.047 C 
HETATM   20  C19 UNL     1      -6.011  49.863 -23.403  1.00  0.00     0.128 C 
ENDROOT
BRANCH  20  21
HETATM   21  O2  UNL     1      -6.080  51.133 -24.061  1.00  0.00    -0.381 OA
HETATM   22  H27 UNL     1      -7.020  51.322 -24.247  1.00  0.00     0.211 HD
ENDBRANCH  20  21
BRANCH  20  23
HETATM   23  C20 UNL     1      -6.554  48.781 -24.361  1.00  0.00     0.185 C 
HETATM   24  O3  UNL     1      -5.842  48.249 -25.219  1.00  0.00    -0.292 OA
BRANCH  23  25
HETATM   25  C21 UNL     1      -8.032  48.411 -24.223  1.00  0.00     0.260 C 
BRANCH  25  26
HETATM   26  O4  UNL     1      -8.571  47.899 -25.441  1.00  0.00    -0.314 OA
BRANCH  26  27
HETATM   27  C22 UNL     1      -9.541  48.685 -25.990  1.00  0.00     0.259 C 
HETATM   28  O5  UNL     1      -9.731  49.859 -25.705  1.00  0.00    -0.265 OA
BRANCH  27  29
HETATM   29  C23 UNL     1     -10.306  47.923 -27.035  1.00  0.00     0.120 C 
BRANCH  29  30
HETATM   30  C24 UNL     1     -10.863  46.636 -26.447  1.00  0.00     0.112 C 
BRANCH  30  31
HETATM   31  C25 UNL     1     -12.105  46.888 -25.622  1.00  0.00     0.218 C 
HETATM   32  O6  UNL     1     -12.079  47.239 -24.448  1.00  0.00    -0.274 OA
HETATM   33  N1  UNL     1     -13.269  46.689 -26.329  1.00  0.00    -0.361 N 
HETATM   34  H34 UNL     1     -13.222  46.646 -27.339  1.00  0.00     0.162 HD
BRANCH  33  35
HETATM   35  C26 UNL     1     -14.570  46.945 -25.736  1.00  0.00     0.127 C 
BRANCH  35  36
HETATM   36  C27 UNL     1     -15.308  45.664 -25.335  1.00  0.00     0.058 C 
BRANCH  36  37
HETATM   37  C28 UNL     1     -16.805  45.858 -25.243  1.00  0.00    -0.057 A 
HETATM   38  C29 UNL     1     -17.663  45.187 -26.125  1.00  0.00     0.007 A 
HETATM   39  C30 UNL     1     -19.045  45.355 -26.030  1.00  0.00     0.001 A 
HETATM   40  C31 UNL     1     -19.582  46.192 -25.054  1.00  0.00     0.000 A 
HETATM   41  C32 UNL     1     -18.737  46.863 -24.172  1.00  0.00     0.001 A 
HETATM   42  C33 UNL     1     -17.355  46.697 -24.265  1.00  0.00     0.007 A 
ENDBRANCH  36  37
ENDBRANCH  35  36
ENDBRANCH  33  35
ENDBRANCH  30  31
ENDBRANCH  29  30
ENDBRANCH  27  29
ENDBRANCH  26  27
ENDBRANCH  25  26
ENDBRANCH  23  25
ENDBRANCH  20  23
TORSDOF 11
ENDMDL
MODEL 7
REMARK minimizedAffinity -7.76190329
REMARK CNNscore 0.331612587
REMARK CNNaffinity 5.79262114
REMARK  11 active torsions:
REMARK  status: ('A' for Active; 'I' for Inactive)
REMARK    1  A    between atoms: C19_20  and  O2_21 
REMARK    2  A    between atoms: C19_20  and  C20_22 
REMARK    3  A    between atoms: C20_22  and  C21_24 
REMARK    4  A    between atoms: C21_24  and  O4_25 
REMARK    5  A    between atoms: O4_25  and  C22_26 
REMARK    6  A    between atoms: C22_26  and  C23_28 
REMARK    7  A    between atoms: C23_28  and  C24_29 
REMARK    8  A    between atoms: C24_29  and  C25_30 
REMARK       I    between atoms: C25_30  and  N1_32 
REMARK    9  A    between atoms: N1_32  and  C26_33 
REMARK   10  A    between atoms: C26_33  and  C27_34 
REMARK   11  A    between atoms: C27_34  and  C28_35 
ROOT
HETATM    1  C1  UNL     1      -8.540  45.950 -33.156  1.00  0.00     0.020 C 
HETATM    2  C2  UNL     1      -7.490  46.407 -32.111  1.00  0.00    -0.016 C 
HETATM    3  C3  UNL     1      -6.827  47.678 -32.720  1.00  0.00     0.022 C 
HETATM    4  C4  UNL     1      -5.479  48.020 -32.107  1.00  0.00     0.084 C 
HETATM    5  C5  UNL     1      -4.553  46.845 -32.281  1.00  0.00     0.149 C 
HETATM    6  O1  UNL     1      -3.362  46.970 -32.557  1.00  0.00    -0.293 OA
HETATM    7  C6  UNL     1      -5.111  45.497 -32.026  1.00  0.00     0.053 C 
HETATM    8  C7  UNL     1      -6.436  45.310 -31.898  1.00  0.00    -0.068 C 
HETATM    9  C8  UNL     1      -6.960  43.996 -31.374  1.00  0.00     0.035 C 
HETATM   10  C9  UNL     1      -7.629  44.231 -30.019  1.00  0.00     0.010 C 
HETATM   11  C10 UNL     1      -8.705  45.334 -30.077  1.00  0.00    -0.004 C 
HETATM   12  C11 UNL     1      -8.141  46.658 -30.702  1.00  0.00     0.002 C 
HETATM   13  C12 UNL     1      -9.203  47.786 -30.677  1.00  0.00     0.007 C 
HETATM   14  C13 UNL     1      -9.850  47.987 -29.294  1.00  0.00     0.013 C 
HETATM   15  C14 UNL     1     -10.431  46.680 -28.722  1.00  0.00    -0.002 C 
HETATM   16  C15 UNL     1     -11.635  46.222 -29.590  1.00  0.00     0.019 C 
HETATM   17  C16 UNL     1      -9.273  45.649 -28.689  1.00  0.00     0.002 C 
HETATM   18  C17 UNL     1      -9.835  44.503 -27.861  1.00  0.00     0.009 C 
HETATM   19  C18 UNL     1     -10.714  45.191 -26.800  1.00  0.00     0.047 C 
HETATM   20  C19 UNL     1     -10.830  46.688 -27.212  1.00  0.00     0.128 C 
ENDROOT
BRANCH  20  21
HETATM   21  O2  UNL     1      -9.859  47.421 -26.458  1.00  0.00    -0.381 OA
HETATM   22  H27 UNL     1     -10.060  47.296 -25.511  1.00  0.00     0.211 HD
ENDBRANCH  20  21
BRANCH  20  23
HETATM   23  C20 UNL     1     -12.227  47.276 -26.921  1.00  0.00     0.185 C 
HETATM   24  O3  UNL     1     -12.475  48.477 -27.069  1.00  0.00    -0.292 OA
BRANCH  23  25
HETATM   25  C21 UNL     1     -13.295  46.307 -26.411  1.00  0.00     0.260 C 
BRANCH  25  26
HETATM   26  O4  UNL     1     -14.579  46.584 -26.971  1.00  0.00    -0.314 OA
BRANCH  26  27
HETATM   27  C22 UNL     1     -15.148  45.518 -27.602  1.00  0.00     0.259 C 
HETATM   28  O5  UNL     1     -14.915  45.184 -28.756  1.00  0.00    -0.265 OA
BRANCH  27  29
HETATM   29  C23 UNL     1     -16.059  44.777 -26.665  1.00  0.00     0.120 C 
BRANCH  29  30
HETATM   30  C24 UNL     1     -17.501  44.889 -27.133  1.00  0.00     0.112 C 
BRANCH  30  31
HETATM   31  C25 UNL     1     -18.449  45.118 -25.978  1.00  0.00     0.218 C 
HETATM   32  O6  UNL     1     -19.592  45.538 -26.111  1.00  0.00    -0.274 OA
HETATM   33  N1  UNL     1     -17.896  44.799 -24.758  1.00  0.00    -0.361 N 
HETATM   34  H34 UNL     1     -17.057  44.233 -24.739  1.00  0.00     0.162 HD
BRANCH  33  35
HETATM   35  C26 UNL     1     -18.668  44.884 -23.530  1.00  0.00     0.127 C 
BRANCH  35  36
HETATM   36  C27 UNL     1     -18.797  46.317 -23.001  1.00  0.00     0.058 C 
BRANCH  36  37
HETATM   37  C28 UNL     1     -17.988  46.549 -21.746  1.00  0.00    -0.057 A 
HETATM   38  C29 UNL     1     -18.626  46.871 -20.540  1.00  0.00     0.007 A 
HETATM   39  C30 UNL     1     -17.880  47.071 -19.377  1.00  0.00     0.001 A 
HETATM   40  C31 UNL     1     -16.492  46.949 -19.409  1.00  0.00     0.000 A 
HETATM   41  C32 UNL     1     -15.848  46.627 -20.602  1.00  0.00     0.001 A 
HETATM   42  C33 UNL     1     -16.592  46.428 -21.766  1.00  0.00     0.007 A 
ENDBRANCH  36  37
ENDBRANCH  35  36
ENDBRANCH  33  35
ENDBRANCH  30  31
ENDBRANCH  29  30
ENDBRANCH  27  29
ENDBRANCH  26  27
ENDBRANCH  25  26
ENDBRANCH  23  25
ENDBRANCH  20  23
TORSDOF 11
ENDMDL
MODEL 8
REMARK minimizedAffinity -7.61662722
REMARK CNNscore 0.322888374
REMARK CNNaffinity 5.94898462
REMARK  11 active torsions:
REMARK  status: ('A' for Active; 'I' for Inactive)
REMARK    1  A    between atoms: C19_20  and  O2_21 
REMARK    2  A    between atoms: C19_20  and  C20_22 
REMARK    3  A    between atoms: C20_22  and  C21_24 
REMARK    4  A    between atoms: C21_24  and  O4_25 
REMARK    5  A    between atoms: O4_25  and  C22_26 
REMARK    6  A    between atoms: C22_26  and  C23_28 
REMARK    7  A    between atoms: C23_28  and  C24_29 
REMARK    8  A    between atoms: C24_29  and  C25_30 
REMARK       I    between atoms: C25_30  and  N1_32 
REMARK    9  A    between atoms: N1_32  and  C26_33 
REMARK   10  A    between atoms: C26_33  and  C27_34 
REMARK   11  A    between atoms: C27_34  and  C28_35 
ROOT
HETATM    1  C1  UNL     1      -6.830  41.053 -31.890  1.00  0.00     0.020 C 
HETATM    2  C2  UNL     1      -6.786  41.831 -33.229  1.00  0.00    -0.016 C 
HETATM    3  C3  UNL     1      -7.940  41.237 -34.091  1.00  0.00     0.022 C 
HETATM    4  C4  UNL     1      -7.796  41.509 -35.579  1.00  0.00     0.084 C 
HETATM    5  C5  UNL     1      -6.482  40.946 -36.052  1.00  0.00     0.149 C 
HETATM    6  O1  UNL     1      -6.350  40.382 -37.136  1.00  0.00    -0.293 OA
HETATM    7  C6  UNL     1      -5.299  41.165 -35.188  1.00  0.00     0.053 C 
HETATM    8  C7  UNL     1      -5.436  41.614 -33.929  1.00  0.00    -0.068 C 
HETATM    9  C8  UNL     1      -4.224  42.086 -33.165  1.00  0.00     0.035 C 
HETATM   10  C9  UNL     1      -4.349  43.588 -32.908  1.00  0.00     0.010 C 
HETATM   11  C10 UNL     1      -5.679  43.959 -32.224  1.00  0.00    -0.004 C 
HETATM   12  C11 UNL     1      -6.911  43.382 -33.006  1.00  0.00     0.002 C 
HETATM   13  C12 UNL     1      -8.246  43.833 -32.360  1.00  0.00     0.007 C 
HETATM   14  C13 UNL     1      -8.328  45.353 -32.120  1.00  0.00     0.013 C 
HETATM   15  C14 UNL     1      -7.127  45.885 -31.316  1.00  0.00    -0.002 C 
HETATM   16  C15 UNL     1      -7.175  45.316 -29.871  1.00  0.00     0.019 C 
HETATM   17  C16 UNL     1      -5.848  45.477 -32.092  1.00  0.00     0.002 C 
HETATM   18  C17 UNL     1      -4.744  46.271 -31.410  1.00  0.00     0.009 C 
HETATM   19  C18 UNL     1      -5.410  47.605 -31.029  1.00  0.00     0.047 C 
HETATM   20  C19 UNL     1      -6.937  47.434 -31.277  1.00  0.00     0.128 C 
ENDROOT
BRANCH  20  21
HETATM   21  O2  UNL     1      -7.233  47.992 -32.562  1.00  0.00    -0.381 OA
HETATM   22  H27 UNL     1      -6.978  48.934 -32.544  1.00  0.00     0.211 HD
ENDBRANCH  20  21
BRANCH  20  23
HETATM   23  C20 UNL     1      -7.794  48.159 -30.217  1.00  0.00     0.185 C 
HETATM   24  O3  UNL     1      -7.363  48.411 -29.087  1.00  0.00    -0.292 OA
BRANCH  23  25
HETATM   25  C21 UNL     1      -9.223  48.531 -30.616  1.00  0.00     0.260 C 
BRANCH  25  26
HETATM   26  O4  UNL     1     -10.182  48.071 -29.664  1.00  0.00    -0.314 OA
BRANCH  26  27
HETATM   27  C22 UNL     1     -11.199  47.346 -30.210  1.00  0.00     0.259 C 
HETATM   28  O5  UNL     1     -11.290  47.052 -31.394  1.00  0.00    -0.265 OA
BRANCH  27  29
HETATM   29  C23 UNL     1     -12.165  46.910 -29.144  1.00  0.00     0.120 C 
BRANCH  29  30
HETATM   30  C24 UNL     1     -12.471  48.067 -28.205  1.00  0.00     0.112 C 
BRANCH  30  31
HETATM   31  C25 UNL     1     -12.915  47.581 -26.844  1.00  0.00     0.218 C 
HETATM   32  O6  UNL     1     -12.238  47.693 -25.830  1.00  0.00    -0.274 OA
HETATM   33  N1  UNL     1     -14.166  47.006 -26.861  1.00  0.00    -0.361 N 
HETATM   34  H34 UNL     1     -14.764  47.167 -27.662  1.00  0.00     0.162 HD
BRANCH  33  35
HETATM   35  C26 UNL     1     -14.802  46.538 -25.642  1.00  0.00     0.127 C 
BRANCH  35  36
HETATM   36  C27 UNL     1     -15.728  45.338 -25.872  1.00  0.00     0.058 C 
BRANCH  36  37
HETATM   37  C28 UNL     1     -17.173  45.648 -25.553  1.00  0.00    -0.057 A 
HETATM   38  C29 UNL     1     -18.205  44.909 -26.148  1.00  0.00     0.007 A 
HETATM   39  C30 UNL     1     -19.538  45.184 -25.842  1.00  0.00     0.001 A 
HETATM   40  C31 UNL     1     -19.852  46.199 -24.940  1.00  0.00     0.000 A 
HETATM   41  C32 UNL     1     -18.834  46.939 -24.342  1.00  0.00     0.001 A 
HETATM   42  C33 UNL     1     -17.500  46.665 -24.647  1.00  0.00     0.007 A 
ENDBRANCH  36  37
ENDBRANCH  35  36
ENDBRANCH  33  35
ENDBRANCH  30  31
ENDBRANCH  29  30
ENDBRANCH  27  29
ENDBRANCH  26  27
ENDBRANCH  25  26
ENDBRANCH  23  25
ENDBRANCH  20  23
TORSDOF 11
ENDMDL
MODEL 9
REMARK minimizedAffinity -8.33852673
REMARK CNNscore 0.321157038
REMARK CNNaffinity 5.96404791
REMARK  11 active torsions:
REMARK  status: ('A' for Active; 'I' for Inactive)
REMARK    1  A    between atoms: C19_20  and  O2_21 
REMARK    2  A    between atoms: C19_20  and  C20_22 
REMARK    3  A    between atoms: C20_22  and  C21_24 
REMARK    4  A    between atoms: C21_24  and  O4_25 
REMARK    5  A    between atoms: O4_25  and  C22_26 
REMARK    6  A    between atoms: C22_26  and  C23_28 
REMARK    7  A    between atoms: C23_28  and  C24_29 
REMARK    8  A    between atoms: C24_29  and  C25_30 
REMARK       I    between atoms: C25_30  and  N1_32 
REMARK    9  A    between atoms: N1_32  and  C26_33 
REMARK   10  A    between atoms: C26_33  and  C27_34 
REMARK   11  A    between atoms: C27_34  and  C28_35 
ROOT
HETATM    1  C1  UNL     1       6.517  67.091 -34.355  1.00  0.00     0.020 C 
HETATM    2  C2  UNL     1       6.110  65.792 -35.097  1.00  0.00    -0.016 C 
HETATM    3  C3  UNL     1       5.504  64.864 -34.003  1.00  0.00     0.022 C 
HETATM    4  C4  UNL     1       5.468  63.397 -34.395  1.00  0.00     0.084 C 
HETATM    5  C5  UNL     1       6.868  62.942 -34.710  1.00  0.00     0.149 C 
HETATM    6  O1  UNL     1       7.300  61.838 -34.386  1.00  0.00    -0.293 OA
HETATM    7  C6  UNL     1       7.714  63.856 -35.513  1.00  0.00     0.053 C 
HETATM    8  C7  UNL     1       7.344  65.130 -35.729  1.00  0.00    -0.068 C 
HETATM    9  C8  UNL     1       8.069  65.956 -36.762  1.00  0.00     0.035 C 
HETATM   10  C9  UNL     1       7.108  66.279 -37.907  1.00  0.00     0.010 C 
HETATM   11  C10 UNL     1       5.803  66.935 -37.413  1.00  0.00    -0.004 C 
HETATM   12  C11 UNL     1       5.122  66.084 -36.284  1.00  0.00     0.002 C 
HETATM   13  C12 UNL     1       3.768  66.705 -35.854  1.00  0.00     0.007 C 
HETATM   14  C13 UNL     1       2.833  67.013 -37.039  1.00  0.00     0.013 C 
HETATM   15  C14 UNL     1       3.514  67.883 -38.113  1.00  0.00    -0.002 C 
HETATM   16  C15 UNL     1       3.798  69.297 -37.535  1.00  0.00     0.019 C 
HETATM   17  C16 UNL     1       4.797  67.132 -38.553  1.00  0.00     0.002 C 
HETATM   18  C17 UNL     1       5.250  67.889 -39.793  1.00  0.00     0.009 C 
HETATM   19  C18 UNL     1       3.941  68.310 -40.484  1.00  0.00     0.047 C 
HETATM   20  C19 UNL     1       2.785  68.002 -39.489  1.00  0.00     0.128 C 
ENDROOT
BRANCH  20  21
HETATM   21  O2  UNL     1       2.226  66.736 -39.852  1.00  0.00    -0.381 OA
HETATM   22  H27 UNL     1       1.896  66.807 -40.769  1.00  0.00     0.211 HD
ENDBRANCH  20  21
BRANCH  20  23
HETATM   23  C20 UNL     1       1.667  69.066 -39.532  1.00  0.00     0.185 C 
HETATM   24  O3  UNL     1       1.530  69.908 -38.639  1.00  0.00    -0.292 OA
BRANCH  23  25
HETATM   25  C21 UNL     1       0.709  69.017 -40.723  1.00  0.00     0.260 C 
BRANCH  25  26
HETATM   26  O4  UNL     1      -0.362  69.951 -40.587  1.00  0.00    -0.314 OA
BRANCH  26  27
HETATM   27  C22 UNL     1      -1.568  69.473 -41.005  1.00  0.00     0.259 C 
HETATM   28  O5  UNL     1      -2.523  69.250 -40.273  1.00  0.00    -0.265 OA
BRANCH  27  29
HETATM   29  C23 UNL     1      -1.581  69.312 -42.499  1.00  0.00     0.120 C 
BRANCH  29  30
HETATM   30  C24 UNL     1      -1.510  67.839 -42.871  1.00  0.00     0.112 C 
BRANCH  30  31
HETATM   31  C25 UNL     1      -2.880  67.267 -43.158  1.00  0.00     0.218 C 
HETATM   32  O6  UNL     1      -3.920  67.901 -43.031  1.00  0.00    -0.274 OA
HETATM   33  N1  UNL     1      -2.836  65.958 -43.584  1.00  0.00    -0.361 N 
HETATM   34  H34 UNL     1      -1.952  65.580 -43.902  1.00  0.00     0.162 HD
BRANCH  33  35
HETATM   35  C26 UNL     1      -4.041  65.249 -43.977  1.00  0.00     0.127 C 
BRANCH  35  36
HETATM   36  C27 UNL     1      -4.056  63.790 -43.508  1.00  0.00     0.058 C 
BRANCH  36  37
HETATM   37  C28 UNL     1      -5.264  63.030 -44.008  1.00  0.00    -0.057 A 
HETATM   38  C29 UNL     1      -5.171  61.663 -44.303  1.00  0.00     0.007 A 
HETATM   39  C30 UNL     1      -6.289  60.958 -44.749  1.00  0.00     0.001 A 
HETATM   40  C31 UNL     1      -7.511  61.612 -44.903  1.00  0.00     0.000 A 
HETATM   41  C32 UNL     1      -7.615  62.971 -44.611  1.00  0.00     0.001 A 
HETATM   42  C33 UNL     1      -6.497  63.677 -44.165  1.00  0.00     0.007 A 
ENDBRANCH  36  37
ENDBRANCH  35  36
ENDBRANCH  33  35
ENDBRANCH  30  31
ENDBRANCH  29  30
ENDBRANCH  27  29
ENDBRANCH  26  27
ENDBRANCH  25  26
ENDBRANCH  23  25
ENDBRANCH  20  23
TORSDOF 11
ENDMDL
