MODEL 1
REMARK minimizedAffinity -7.43214703
REMARK CNNscore 0.846496165
REMARK CNNaffinity 6.70414591
REMARK  7 active torsions:
REMARK  status: ('A' for Active; 'I' for Inactive)
REMARK    1  A    between atoms: C2_2  and  C3_3 
REMARK    2  A    between atoms: C4_5  and  C5_6 
REMARK    3  A    between atoms: C5_6  and  C6_7 
REMARK    4  A    between atoms: C6_7  and  C7_8 
REMARK    5  A    between atoms: C7_8  and  C9_10 
REMARK    6  A    between atoms: C11_12  and  O2_13 
REMARK    7  A    between atoms: C30_33  and  O4_34 
ROOT
HETATM    1  C9  UNL     1     -13.388  46.228 -27.532  1.00  0.00     0.001 C 
HETATM    2  C10 UNL     1     -12.950  47.318 -26.506  1.00  0.00     0.038 C 
HETATM    3  C11 UNL     1     -11.521  47.748 -26.881  1.00  0.00     0.132 C 
HETATM    4  C12 UNL     1     -11.350  47.279 -28.344  1.00  0.00     0.016 C 
HETATM    5  C13 UNL     1     -12.067  48.301 -29.292  1.00  0.00     0.023 C 
HETATM    6  C14 UNL     1      -9.937  47.121 -28.906  1.00  0.00    -0.037 C 
HETATM    7  C15 UNL     1      -9.728  46.264 -29.941  1.00  0.00    -0.065 C 
HETATM    8  C16 UNL     1     -10.850  45.349 -30.458  1.00  0.00     0.036 C 
HETATM    9  C17 UNL     1     -12.195  45.344 -29.696  1.00  0.00     0.015 C 
HETATM   10  C18 UNL     1     -12.052  45.871 -28.263  1.00  0.00    -0.026 C 
HETATM   11  C19 UNL     1     -11.250  44.829 -27.423  1.00  0.00     0.016 C 
HETATM   12  C20 UNL     1      -8.350  46.147 -30.649  1.00  0.00    -0.015 C 
HETATM   13  C21 UNL     1      -7.736  44.792 -30.220  1.00  0.00     0.020 C 
HETATM   14  C22 UNL     1      -8.537  46.152 -32.196  1.00  0.00     0.021 C 
HETATM   15  C23 UNL     1      -7.359  46.689 -33.005  1.00  0.00     0.080 C 
HETATM   16  C24 UNL     1      -6.056  46.593 -32.254  1.00  0.00     0.135 C 
HETATM   17  O3  UNL     1      -5.092  46.004 -32.743  1.00  0.00    -0.297 OA
HETATM   18  C25 UNL     1      -5.989  47.319 -30.905  1.00  0.00     0.018 C 
HETATM   19  C26 UNL     1      -5.497  48.751 -31.197  1.00  0.00     0.023 C 
HETATM   20  C27 UNL     1      -4.933  46.651 -30.003  1.00  0.00     0.023 C 
HETATM   21  C28 UNL     1      -7.428  47.369 -30.283  1.00  0.00     0.016 C 
HETATM   22  C29 UNL     1      -7.435  47.625 -28.770  1.00  0.00     0.043 C 
HETATM   23  C30 UNL     1      -8.842  47.951 -28.275  1.00  0.00     0.148 C 
ENDROOT
BRANCH   1  24
HETATM   24  C7  UNL     1     -14.229  45.101 -26.870  1.00  0.00    -0.013 C 
HETATM   25  C8  UNL     1     -15.123  44.355 -27.866  1.00  0.00     0.010 C 
BRANCH  24  26
HETATM   26  C6  UNL     1     -15.090  45.613 -25.682  1.00  0.00     0.008 C 
BRANCH  26  27
HETATM   27  C5  UNL     1     -16.436  44.905 -25.504  1.00  0.00     0.028 C 
BRANCH  27  28
HETATM   28  C4  UNL     1     -16.980  45.100 -24.112  1.00  0.00    -0.017 C 
HETATM   29  C2  UNL     1     -18.057  45.816 -23.739  1.00  0.00    -0.028 C 
HETATM   30  C1  UNL     1     -18.466  45.966 -22.304  1.00  0.00     0.051 C 
BRANCH  29  31
HETATM   31  C3  UNL     1     -18.962  46.494 -24.714  1.00  0.00     0.265 C 
HETATM   32  O1  UNL     1     -19.037  47.707 -24.858  1.00  0.00    -0.302 OA
ENDBRANCH  29  31
ENDBRANCH  27  28
ENDBRANCH  26  27
ENDBRANCH  24  26
ENDBRANCH   1  24
BRANCH   3  33
HETATM   33  O2  UNL     1     -11.326  49.148 -26.720  1.00  0.00    -0.394 OA
HETATM   34  H18 UNL     1     -11.629  49.380 -25.824  1.00  0.00     0.210 HD
ENDBRANCH   3  33
BRANCH  23  35
HETATM   35  O4  UNL     1      -9.100  49.326 -28.533  1.00  0.00    -0.391 OA
HETATM   36  H46 UNL     1      -9.841  49.574 -27.939  1.00  0.00     0.210 HD
ENDBRANCH  23  35
TORSDOF 7
ENDMDL
MODEL 2
REMARK minimizedAffinity -7.42235088
REMARK CNNscore 0.721450388
REMARK CNNaffinity 6.91736078
REMARK  7 active torsions:
REMARK  status: ('A' for Active; 'I' for Inactive)
REMARK    1  A    between atoms: C2_2  and  C3_3 
REMARK    2  A    between atoms: C4_5  and  C5_6 
REMARK    3  A    between atoms: C5_6  and  C6_7 
REMARK    4  A    between atoms: C6_7  and  C7_8 
REMARK    5  A    between atoms: C7_8  and  C9_10 
REMARK    6  A    between atoms: C11_12  and  O2_13 
REMARK    7  A    between atoms: C30_33  and  O4_34 
ROOT
HETATM    1  C9  UNL     1       4.946  56.938  -6.967  1.00  0.00     0.001 C 
HETATM    2  C10 UNL     1       5.966  56.095  -7.792  1.00  0.00     0.038 C 
HETATM    3  C11 UNL     1       5.152  55.122  -8.664  1.00  0.00     0.132 C 
HETATM    4  C12 UNL     1       3.731  55.729  -8.693  1.00  0.00     0.016 C 
HETATM    5  C13 UNL     1       3.703  56.910  -9.723  1.00  0.00     0.023 C 
HETATM    6  C14 UNL     1       2.554  54.829  -9.070  1.00  0.00    -0.037 C 
HETATM    7  C15 UNL     1       1.308  55.147  -8.629  1.00  0.00    -0.065 C 
HETATM    8  C16 UNL     1       1.083  56.306  -7.642  1.00  0.00     0.036 C 
HETATM    9  C17 UNL     1       2.325  57.030  -7.076  1.00  0.00     0.015 C 
HETATM   10  C18 UNL     1       3.597  56.180  -7.189  1.00  0.00    -0.026 C 
HETATM   11  C19 UNL     1       3.489  54.983  -6.194  1.00  0.00     0.016 C 
HETATM   12  C20 UNL     1       0.047  54.357  -9.077  1.00  0.00    -0.015 C 
HETATM   13  C21 UNL     1      -0.415  53.518  -7.861  1.00  0.00     0.020 C 
HETATM   14  C22 UNL     1      -1.092  55.344  -9.475  1.00  0.00     0.021 C 
HETATM   15  C23 UNL     1      -2.091  54.822 -10.504  1.00  0.00     0.080 C 
HETATM   16  C24 UNL     1      -2.148  53.315 -10.536  1.00  0.00     0.135 C 
HETATM   17  O3  UNL     1      -3.217  52.725 -10.380  1.00  0.00    -0.297 OA
HETATM   18  C25 UNL     1      -0.833  52.587 -10.838  1.00  0.00     0.018 C 
HETATM   19  C26 UNL     1      -0.758  52.429 -12.370  1.00  0.00     0.023 C 
HETATM   20  C27 UNL     1      -0.869  51.170 -10.235  1.00  0.00     0.023 C 
HETATM   21  C28 UNL     1       0.363  53.470 -10.337  1.00  0.00     0.016 C 
HETATM   22  C29 UNL     1       1.666  52.684 -10.140  1.00  0.00     0.043 C 
HETATM   23  C30 UNL     1       2.850  53.627  -9.938  1.00  0.00     0.148 C 
ENDROOT
BRANCH   1  24
HETATM   24  C7  UNL     1       5.446  57.214  -5.521  1.00  0.00    -0.013 C 
HETATM   25  C8  UNL     1       4.719  58.384  -4.848  1.00  0.00     0.010 C 
BRANCH  24  26
HETATM   26  C6  UNL     1       6.981  57.445  -5.450  1.00  0.00     0.008 C 
BRANCH  26  27
HETATM   27  C5  UNL     1       7.445  58.378  -4.327  1.00  0.00     0.028 C 
BRANCH  27  28
HETATM   28  C4  UNL     1       8.085  59.625  -4.879  1.00  0.00    -0.017 C 
HETATM   29  C2  UNL     1       9.392  59.848  -5.111  1.00  0.00    -0.028 C 
HETATM   30  C1  UNL     1       9.906  61.161  -5.625  1.00  0.00     0.051 C 
BRANCH  29  31
HETATM   31  C3  UNL     1      10.444  58.807  -4.915  1.00  0.00     0.265 C 
HETATM   32  O1  UNL     1      11.581  59.038  -4.526  1.00  0.00    -0.302 OA
ENDBRANCH  29  31
ENDBRANCH  27  28
ENDBRANCH  26  27
ENDBRANCH  24  26
ENDBRANCH   1  24
BRANCH   3  33
HETATM   33  O2  UNL     1       5.718  54.968  -9.961  1.00  0.00    -0.394 OA
HETATM   34  H18 UNL     1       6.661  54.760  -9.841  1.00  0.00     0.210 HD
ENDBRANCH   3  33
BRANCH  23  35
HETATM   35  O4  UNL     1       3.287  54.076 -11.215  1.00  0.00    -0.391 OA
HETATM   36  H46 UNL     1       4.204  54.399 -11.084  1.00  0.00     0.210 HD
ENDBRANCH  23  35
TORSDOF 7
ENDMDL
MODEL 3
REMARK minimizedAffinity -7.61817884
REMARK CNNscore 0.684913158
REMARK CNNaffinity 6.45725012
REMARK  7 active torsions:
REMARK  status: ('A' for Active; 'I' for Inactive)
REMARK    1  A    between atoms: C2_2  and  C3_3 
REMARK    2  A    between atoms: C4_5  and  C5_6 
REMARK    3  A    between atoms: C5_6  and  C6_7 
REMARK    4  A    between atoms: C6_7  and  C7_8 
REMARK    5  A    between atoms: C7_8  and  C9_10 
REMARK    6  A    between atoms: C11_12  and  O2_13 
REMARK    7  A    between atoms: C30_33  and  O4_34 
ROOT
HETATM    1  C9  UNL     1     -13.022  45.642 -27.314  1.00  0.00     0.001 C 
HETATM    2  C10 UNL     1     -13.241  44.426 -28.265  1.00  0.00     0.038 C 
HETATM    3  C11 UNL     1     -12.064  44.406 -29.257  1.00  0.00     0.132 C 
HETATM    4  C12 UNL     1     -10.978  45.276 -28.581  1.00  0.00     0.016 C 
HETATM    5  C13 UNL     1     -10.259  44.425 -27.479  1.00  0.00     0.023 C 
HETATM    6  C14 UNL     1      -9.859  45.857 -29.445  1.00  0.00    -0.037 C 
HETATM    7  C15 UNL     1      -9.221  46.985 -29.032  1.00  0.00    -0.065 C 
HETATM    8  C16 UNL     1      -9.698  47.763 -27.794  1.00  0.00     0.036 C 
HETATM    9  C17 UNL     1     -10.994  47.294 -27.095  1.00  0.00     0.015 C 
HETATM   10  C18 UNL     1     -11.875  46.441 -28.016  1.00  0.00    -0.026 C 
HETATM   11  C19 UNL     1     -12.471  47.357 -29.130  1.00  0.00     0.016 C 
HETATM   12  C20 UNL     1      -7.991  47.559 -29.787  1.00  0.00    -0.015 C 
HETATM   13  C21 UNL     1      -8.464  48.843 -30.510  1.00  0.00     0.020 C 
HETATM   14  C22 UNL     1      -6.865  47.934 -28.775  1.00  0.00     0.021 C 
HETATM   15  C23 UNL     1      -5.440  47.880 -29.319  1.00  0.00     0.080 C 
HETATM   16  C24 UNL     1      -5.392  48.028 -30.819  1.00  0.00     0.135 C 
HETATM   17  O3  UNL     1      -4.706  48.906 -31.341  1.00  0.00    -0.297 OA
HETATM   18  C25 UNL     1      -6.179  46.994 -31.633  1.00  0.00     0.018 C 
HETATM   19  C26 UNL     1      -5.216  45.821 -31.907  1.00  0.00     0.023 C 
HETATM   20  C27 UNL     1      -6.569  47.591 -32.999  1.00  0.00     0.023 C 
HETATM   21  C28 UNL     1      -7.395  46.493 -30.779  1.00  0.00     0.016 C 
HETATM   22  C29 UNL     1      -8.506  45.843 -31.614  1.00  0.00     0.043 C 
HETATM   23  C30 UNL     1      -9.514  45.123 -30.721  1.00  0.00     0.148 C 
ENDROOT
BRANCH   1  24
HETATM   24  C7  UNL     1     -14.355  46.358 -26.959  1.00  0.00    -0.013 C 
HETATM   25  C8  UNL     1     -14.384  46.894 -25.523  1.00  0.00     0.010 C 
BRANCH  24  26
HETATM   26  C6  UNL     1     -15.601  45.464 -27.205  1.00  0.00     0.008 C 
BRANCH  26  27
HETATM   27  C5  UNL     1     -16.180  44.798 -25.953  1.00  0.00     0.028 C 
BRANCH  27  28
HETATM   28  C4  UNL     1     -17.679  44.673 -26.041  1.00  0.00    -0.017 C 
HETATM   29  C2  UNL     1     -18.608  45.471 -25.483  1.00  0.00    -0.028 C 
HETATM   30  C1  UNL     1     -20.079  45.207 -25.612  1.00  0.00     0.051 C 
BRANCH  29  31
HETATM   31  C3  UNL     1     -18.268  46.707 -24.718  1.00  0.00     0.265 C 
HETATM   32  O1  UNL     1     -18.885  47.761 -24.797  1.00  0.00    -0.302 OA
ENDBRANCH  29  31
ENDBRANCH  27  28
ENDBRANCH  26  27
ENDBRANCH  24  26
ENDBRANCH   1  24
BRANCH   3  33
HETATM   33  O2  UNL     1     -11.623  43.082 -29.534  1.00  0.00    -0.394 OA
HETATM   34  H18 UNL     1     -12.408  42.562 -29.781  1.00  0.00     0.210 HD
ENDBRANCH   3  33
BRANCH  23  35
HETATM   35  O4  UNL     1      -8.984  43.845 -30.389  1.00  0.00    -0.391 OA
HETATM   36  H46 UNL     1      -9.752  43.304 -30.105  1.00  0.00     0.210 HD
ENDBRANCH  23  35
TORSDOF 7
ENDMDL
MODEL 4
REMARK minimizedAffinity -6.84139824
REMARK CNNscore 0.614749491
REMARK CNNaffinity 6.12967062
REMARK  7 active torsions:
REMARK  status: ('A' for Active; 'I' for Inactive)
REMARK    1  A    between atoms: C2_2  and  C3_3 
REMARK    2  A    between atoms: C4_5  and  C5_6 
REMARK    3  A    between atoms: C5_6  and  C6_7 
REMARK    4  A    between atoms: C6_7  and  C7_8 
REMARK    5  A    between atoms: C7_8  and  C9_10 
REMARK    6  A    between atoms: C11_12  and  O2_13 
REMARK    7  A    between atoms: C30_33  and  O4_34 
ROOT
HETATM    1  C9  UNL     1      -8.992  47.554 -24.322  1.00  0.00     0.001 C 
HETATM    2  C10 UNL     1      -8.899  46.069 -23.858  1.00  0.00     0.038 C 
HETATM    3  C11 UNL     1      -7.636  45.944 -22.986  1.00  0.00     0.132 C 
HETATM    4  C12 UNL     1      -7.308  47.397 -22.574  1.00  0.00     0.016 C 
HETATM    5  C13 UNL     1      -8.259  47.819 -21.401  1.00  0.00     0.023 C 
HETATM    6  C14 UNL     1      -5.894  47.725 -22.094  1.00  0.00    -0.037 C 
HETATM    7  C15 UNL     1      -5.431  48.997 -22.215  1.00  0.00    -0.065 C 
HETATM    8  C16 UNL     1      -6.243  50.074 -22.955  1.00  0.00     0.036 C 
HETATM    9  C17 UNL     1      -7.551  49.645 -23.657  1.00  0.00     0.015 C 
HETATM   10  C18 UNL     1      -7.594  48.137 -23.935  1.00  0.00    -0.026 C 
HETATM   11  C19 UNL     1      -6.553  47.803 -25.049  1.00  0.00     0.016 C 
HETATM   12  C20 UNL     1      -4.059  49.434 -21.633  1.00  0.00    -0.015 C 
HETATM   13  C21 UNL     1      -3.104  49.636 -22.833  1.00  0.00     0.020 C 
HETATM   14  C22 UNL     1      -4.205  50.785 -20.867  1.00  0.00     0.021 C 
HETATM   15  C23 UNL     1      -3.204  51.019 -19.739  1.00  0.00     0.080 C 
HETATM   16  C24 UNL     1      -1.943  50.211 -19.914  1.00  0.00     0.135 C 
HETATM   17  O3  UNL     1      -0.842  50.761 -19.928  1.00  0.00    -0.297 OA
HETATM   18  C25 UNL     1      -2.111  48.689 -20.001  1.00  0.00     0.018 C 
HETATM   19  C26 UNL     1      -2.030  48.153 -18.558  1.00  0.00     0.023 C 
HETATM   20  C27 UNL     1      -0.933  48.076 -20.781  1.00  0.00     0.023 C 
HETATM   21  C28 UNL     1      -3.522  48.369 -20.608  1.00  0.00     0.016 C 
HETATM   22  C29 UNL     1      -3.634  46.950 -21.183  1.00  0.00     0.043 C 
HETATM   23  C30 UNL     1      -5.088  46.597 -21.490  1.00  0.00     0.148 C 
ENDROOT
BRANCH   1  24
HETATM   24  C7  UNL     1      -9.503  47.682 -25.785  1.00  0.00    -0.013 C 
HETATM   25  C8  UNL     1      -9.789  49.130 -26.197  1.00  0.00     0.010 C 
BRANCH  24  26
HETATM   26  C6  UNL     1     -10.755  46.805 -26.063  1.00  0.00     0.008 C 
BRANCH  26  27
HETATM   27  C5  UNL     1     -11.942  47.548 -26.684  1.00  0.00     0.028 C 
BRANCH  27  28
HETATM   28  C4  UNL     1     -13.253  47.029 -26.153  1.00  0.00    -0.017 C 
HETATM   29  C2  UNL     1     -14.176  46.299 -26.804  1.00  0.00    -0.028 C 
HETATM   30  C1  UNL     1     -15.469  45.881 -26.168  1.00  0.00     0.051 C 
BRANCH  29  31
HETATM   31  C3  UNL     1     -13.990  45.808 -28.202  1.00  0.00     0.265 C 
HETATM   32  O1  UNL     1     -14.905  45.538 -28.968  1.00  0.00    -0.302 OA
ENDBRANCH  29  31
ENDBRANCH  27  28
ENDBRANCH  26  27
ENDBRANCH  24  26
ENDBRANCH   1  24
BRANCH   3  33
HETATM   33  O2  UNL     1      -7.842  45.083 -21.871  1.00  0.00    -0.394 OA
HETATM   34  H18 UNL     1      -8.218  44.253 -22.214  1.00  0.00     0.210 HD
ENDBRANCH   3  33
BRANCH  23  35
HETATM   35  O4  UNL     1      -5.712  46.181 -20.280  1.00  0.00    -0.391 OA
HETATM   36  H46 UNL     1      -6.506  45.672 -20.551  1.00  0.00     0.210 HD
ENDBRANCH  23  35
TORSDOF 7
ENDMDL
MODEL 5
REMARK minimizedAffinity -9.28809357
REMARK CNNscore 0.581589818
REMARK CNNaffinity 7.0636487
REMARK  7 active torsions:
REMARK  status: ('A' for Active; 'I' for Inactive)
REMARK    1  A    between atoms: C2_2  and  C3_3 
REMARK    2  A    between atoms: C4_5  and  C5_6 
REMARK    3  A    between atoms: C5_6  and  C6_7 
REMARK    4  A    between atoms: C6_7  and  C7_8 
REMARK    5  A    between atoms: C7_8  and  C9_10 
REMARK    6  A    between atoms: C11_12  and  O2_13 
REMARK    7  A    between atoms: C30_33  and  O4_34 
ROOT
HETATM    1  C9  UNL     1      -0.226  51.196 -20.153  1.00  0.00     0.001 C 
HETATM    2  C10 UNL     1      -0.951  52.054 -19.072  1.00  0.00     0.038 C 
HETATM    3  C11 UNL     1      -2.283  51.352 -18.752  1.00  0.00     0.132 C 
HETATM    4  C12 UNL     1      -2.090  49.908 -19.267  1.00  0.00     0.016 C 
HETATM    5  C13 UNL     1      -1.243  49.105 -18.221  1.00  0.00     0.023 C 
HETATM    6  C14 UNL     1      -3.327  49.051 -19.537  1.00  0.00    -0.037 C 
HETATM    7  C15 UNL     1      -3.244  48.030 -20.431  1.00  0.00    -0.065 C 
HETATM    8  C16 UNL     1      -1.979  47.813 -21.279  1.00  0.00     0.036 C 
HETATM    9  C17 UNL     1      -0.843  48.856 -21.171  1.00  0.00     0.015 C 
HETATM   10  C18 UNL     1      -1.338  50.200 -20.620  1.00  0.00    -0.026 C 
HETATM   11  C19 UNL     1      -2.242  50.879 -21.695  1.00  0.00     0.016 C 
HETATM   12  C20 UNL     1      -4.417  47.038 -20.661  1.00  0.00    -0.015 C 
HETATM   13  C21 UNL     1      -5.026  47.372 -22.044  1.00  0.00     0.020 C 
HETATM   14  C22 UNL     1      -3.886  45.572 -20.681  1.00  0.00     0.021 C 
HETATM   15  C23 UNL     1      -4.883  44.501 -20.247  1.00  0.00     0.080 C 
HETATM   16  C24 UNL     1      -6.314  44.945 -20.415  1.00  0.00     0.135 C 
HETATM   17  O3  UNL     1      -7.104  44.277 -21.081  1.00  0.00    -0.297 OA
HETATM   18  C25 UNL     1      -6.728  46.216 -19.663  1.00  0.00     0.018 C 
HETATM   19  C26 UNL     1      -7.229  45.764 -18.276  1.00  0.00     0.023 C 
HETATM   20  C27 UNL     1      -7.916  46.885 -20.380  1.00  0.00     0.023 C 
HETATM   21  C28 UNL     1      -5.471  47.140 -19.498  1.00  0.00     0.016 C 
HETATM   22  C29 UNL     1      -5.823  48.605 -19.204  1.00  0.00     0.043 C 
HETATM   23  C30 UNL     1      -4.586  49.388 -18.770  1.00  0.00     0.148 C 
ENDROOT
BRANCH   1  24
HETATM   24  C7  UNL     1       0.512  52.073 -21.202  1.00  0.00    -0.013 C 
HETATM   25  C8  UNL     1       0.778  53.500 -20.712  1.00  0.00     0.010 C 
BRANCH  24  26
HETATM   26  C6  UNL     1      -0.224  52.121 -22.570  1.00  0.00     0.008 C 
BRANCH  26  27
HETATM   27  C5  UNL     1       0.407  53.049 -23.613  1.00  0.00     0.028 C 
BRANCH  27  28
HETATM   28  C4  UNL     1       0.918  52.274 -24.800  1.00  0.00    -0.017 C 
HETATM   29  C2  UNL     1       0.722  52.538 -26.105  1.00  0.00    -0.028 C 
HETATM   30  C1  UNL     1       1.253  51.653 -27.194  1.00  0.00     0.051 C 
BRANCH  29  31
HETATM   31  C3  UNL     1      -0.007  53.747 -26.591  1.00  0.00     0.265 C 
HETATM   32  O1  UNL     1       0.281  54.896 -26.287  1.00  0.00    -0.302 OA
ENDBRANCH  29  31
ENDBRANCH  27  28
ENDBRANCH  26  27
ENDBRANCH  24  26
ENDBRANCH   1  24
BRANCH   3  33
HETATM   33  O2  UNL     1      -2.596  51.411 -17.365  1.00  0.00    -0.394 OA
HETATM   34  H18 UNL     1      -2.518  52.342 -17.091  1.00  0.00     0.210 HD
ENDBRANCH   3  33
BRANCH  23  35
HETATM   35  O4  UNL     1      -4.363  49.141 -17.387  1.00  0.00    -0.391 OA
HETATM   36  H46 UNL     1      -3.792  49.875 -17.073  1.00  0.00     0.210 HD
ENDBRANCH  23  35
TORSDOF 7
ENDMDL
MODEL 6
REMARK minimizedAffinity -7.36279297
REMARK CNNscore 0.569526374
REMARK CNNaffinity 6.306458
REMARK  7 active torsions:
REMARK  status: ('A' for Active; 'I' for Inactive)
REMARK    1  A    between atoms: C2_2  and  C3_3 
REMARK    2  A    between atoms: C4_5  and  C5_6 
REMARK    3  A    between atoms: C5_6  and  C6_7 
REMARK    4  A    between atoms: C6_7  and  C7_8 
REMARK    5  A    between atoms: C7_8  and  C9_10 
REMARK    6  A    between atoms: C11_12  and  O2_13 
REMARK    7  A    between atoms: C30_33  and  O4_34 
ROOT
HETATM    1  C9  UNL     1      -7.751  46.774 -31.159  1.00  0.00     0.001 C 
HETATM    2  C10 UNL     1      -7.252  45.332 -31.481  1.00  0.00     0.038 C 
HETATM    3  C11 UNL     1      -8.281  44.353 -30.887  1.00  0.00     0.132 C 
HETATM    4  C12 UNL     1      -9.549  45.210 -30.674  1.00  0.00     0.016 C 
HETATM    5  C13 UNL     1     -10.283  45.382 -32.048  1.00  0.00     0.023 C 
HETATM    6  C14 UNL     1     -10.617  44.714 -29.698  1.00  0.00    -0.037 C 
HETATM    7  C15 UNL     1     -11.447  45.616 -29.109  1.00  0.00    -0.065 C 
HETATM    8  C16 UNL     1     -11.239  47.129 -29.292  1.00  0.00     0.036 C 
HETATM    9  C17 UNL     1      -9.991  47.603 -30.071  1.00  0.00     0.015 C 
HETATM   10  C18 UNL     1      -8.894  46.532 -30.121  1.00  0.00    -0.026 C 
HETATM   11  C19 UNL     1      -8.289  46.369 -28.692  1.00  0.00     0.016 C 
HETATM   12  C20 UNL     1     -12.636  45.178 -28.211  1.00  0.00    -0.015 C 
HETATM   13  C21 UNL     1     -12.249  45.519 -26.752  1.00  0.00     0.020 C 
HETATM   14  C22 UNL     1     -13.921  45.973 -28.594  1.00  0.00     0.021 C 
HETATM   15  C23 UNL     1     -15.245  45.267 -28.318  1.00  0.00     0.080 C 
HETATM   16  C24 UNL     1     -15.121  44.213 -27.246  1.00  0.00     0.135 C 
HETATM   17  O3  UNL     1     -15.846  44.240 -26.253  1.00  0.00    -0.297 OA
HETATM   18  C25 UNL     1     -14.106  43.092 -27.504  1.00  0.00     0.018 C 
HETATM   19  C26 UNL     1     -14.862  41.975 -28.251  1.00  0.00     0.023 C 
HETATM   20  C27 UNL     1     -13.629  42.501 -26.164  1.00  0.00     0.023 C 
HETATM   21  C28 UNL     1     -12.953  43.650 -28.409  1.00  0.00     0.016 C 
HETATM   22  C29 UNL     1     -11.668  42.812 -28.351  1.00  0.00     0.043 C 
HETATM   23  C30 UNL     1     -10.696  43.224 -29.454  1.00  0.00     0.148 C 
ENDROOT
BRANCH   1  24
HETATM   24  C7  UNL     1      -6.581  47.736 -30.807  1.00  0.00    -0.013 C 
HETATM   25  C8  UNL     1      -5.266  47.359 -31.498  1.00  0.00     0.010 C 
BRANCH  24  26
HETATM   26  C6  UNL     1      -6.347  47.861 -29.276  1.00  0.00     0.008 C 
BRANCH  26  27
HETATM   27  C5  UNL     1      -4.937  48.303 -28.870  1.00  0.00     0.028 C 
BRANCH  27  28
HETATM   28  C4  UNL     1      -4.732  48.183 -27.383  1.00  0.00    -0.017 C 
HETATM   29  C2  UNL     1      -3.787  48.775 -26.629  1.00  0.00    -0.028 C 
HETATM   30  C1  UNL     1      -3.665  48.533 -25.153  1.00  0.00     0.051 C 
BRANCH  29  31
HETATM   31  C3  UNL     1      -2.797  49.748 -27.179  1.00  0.00     0.265 C 
HETATM   32  O1  UNL     1      -2.964  50.400 -28.201  1.00  0.00    -0.302 OA
ENDBRANCH  29  31
ENDBRANCH  27  28
ENDBRANCH  26  27
ENDBRANCH  24  26
ENDBRANCH   1  24
BRANCH   3  33
HETATM   33  O2  UNL     1      -8.503  43.233 -31.738  1.00  0.00    -0.394 OA
HETATM   34  H18 UNL     1      -7.630  42.865 -31.963  1.00  0.00     0.210 HD
ENDBRANCH   3  33
BRANCH  23  35
HETATM   35  O4  UNL     1     -11.088  42.580 -30.660  1.00  0.00    -0.391 OA
HETATM   36  H46 UNL     1     -10.298  42.597 -31.242  1.00  0.00     0.210 HD
ENDBRANCH  23  35
TORSDOF 7
ENDMDL
MODEL 7
REMARK minimizedAffinity -6.74509144
REMARK CNNscore 0.546958327
REMARK CNNaffinity 6.71617365
REMARK  7 active torsions:
REMARK  status: ('A' for Active; 'I' for Inactive)
REMARK    1  A    between atoms: C2_2  and  C3_3 
REMARK    2  A    between atoms: C4_5  and  C5_6 
REMARK    3  A    between atoms: C5_6  and  C6_7 
REMARK    4  A    between atoms: C6_7  and  C7_8 
REMARK    5  A    between atoms: C7_8  and  C9_10 
REMARK    6  A    between atoms: C11_12  and  O2_13 
REMARK    7  A    between atoms: C30_33  and  O4_34 
ROOT
HETATM    1  C9  UNL     1       4.961  56.890  -7.266  1.00  0.00     0.001 C 
HETATM    2  C10 UNL     1       5.927  55.945  -8.044  1.00  0.00     0.038 C 
HETATM    3  C11 UNL     1       5.053  54.949  -8.829  1.00  0.00     0.132 C 
HETATM    4  C12 UNL     1       3.660  55.615  -8.878  1.00  0.00     0.016 C 
HETATM    5  C13 UNL     1       3.664  56.719  -9.991  1.00  0.00     0.023 C 
HETATM    6  C14 UNL     1       2.437  54.745  -9.169  1.00  0.00    -0.037 C 
HETATM    7  C15 UNL     1       1.215  55.150  -8.732  1.00  0.00    -0.065 C 
HETATM    8  C16 UNL     1       1.061  56.386  -7.830  1.00  0.00     0.036 C 
HETATM    9  C17 UNL     1       2.345  57.093  -7.338  1.00  0.00     0.015 C 
HETATM   10  C18 UNL     1       3.575  56.180  -7.410  1.00  0.00    -0.026 C 
HETATM   11  C19 UNL     1       3.435  55.064  -6.328  1.00  0.00     0.016 C 
HETATM   12  C20 UNL     1      -0.087  54.388  -9.100  1.00  0.00    -0.015 C 
HETATM   13  C21 UNL     1      -0.561  53.660  -7.819  1.00  0.00     0.020 C 
HETATM   14  C22 UNL     1      -1.190  55.393  -9.551  1.00  0.00     0.021 C 
HETATM   15  C23 UNL     1      -2.231  54.843 -10.522  1.00  0.00     0.080 C 
HETATM   16  C24 UNL     1      -2.355  53.343 -10.443  1.00  0.00     0.135 C 
HETATM   17  O3  UNL     1      -3.445  52.814 -10.226  1.00  0.00    -0.297 OA
HETATM   18  C25 UNL     1      -1.079  52.536 -10.713  1.00  0.00     0.018 C 
HETATM   19  C26 UNL     1      -1.041  52.264 -12.230  1.00  0.00     0.023 C 
HETATM   20  C27 UNL     1      -1.165  51.169 -10.007  1.00  0.00     0.023 C 
HETATM   21  C28 UNL     1       0.164  53.398 -10.297  1.00  0.00     0.016 C 
HETATM   22  C29 UNL     1       1.435  52.570 -10.065  1.00  0.00     0.043 C 
HETATM   23  C30 UNL     1       2.663  53.471  -9.952  1.00  0.00     0.148 C 
ENDROOT
BRANCH   1  24
HETATM   24  C7  UNL     1       5.501  57.247  -5.853  1.00  0.00    -0.013 C 
HETATM   25  C8  UNL     1       6.603  56.297  -5.373  1.00  0.00     0.010 C 
BRANCH  24  26
HETATM   26  C6  UNL     1       4.377  57.323  -4.782  1.00  0.00     0.008 C 
BRANCH  26  27
HETATM   27  C5  UNL     1       3.824  58.728  -4.521  1.00  0.00     0.028 C 
BRANCH  27  28
HETATM   28  C4  UNL     1       4.923  59.689  -4.147  1.00  0.00    -0.017 C 
HETATM   29  C2  UNL     1       4.845  60.754  -3.328  1.00  0.00    -0.028 C 
HETATM   30  C1  UNL     1       6.012  61.662  -3.074  1.00  0.00     0.051 C 
BRANCH  29  31
HETATM   31  C3  UNL     1       3.608  61.111  -2.571  1.00  0.00     0.265 C 
HETATM   32  O1  UNL     1       3.485  62.115  -1.883  1.00  0.00    -0.302 OA
ENDBRANCH  29  31
ENDBRANCH  27  28
ENDBRANCH  26  27
ENDBRANCH  24  26
ENDBRANCH   1  24
BRANCH   3  33
HETATM   33  O2  UNL     1       5.586  54.676 -10.120  1.00  0.00    -0.394 OA
HETATM   34  H18 UNL     1       6.522  54.435 -10.001  1.00  0.00     0.210 HD
ENDBRANCH   3  33
BRANCH  23  35
HETATM   35  O4  UNL     1       3.094  53.806 -11.265  1.00  0.00    -0.391 OA
HETATM   36  H46 UNL     1       4.027  54.096 -11.174  1.00  0.00     0.210 HD
ENDBRANCH  23  35
TORSDOF 7
ENDMDL
MODEL 8
REMARK minimizedAffinity -7.10467529
REMARK CNNscore 0.542998552
REMARK CNNaffinity 6.20583153
REMARK  7 active torsions:
REMARK  status: ('A' for Active; 'I' for Inactive)
REMARK    1  A    between atoms: C2_2  and  C3_3 
REMARK    2  A    between atoms: C4_5  and  C5_6 
REMARK    3  A    between atoms: C5_6  and  C6_7 
REMARK    4  A    between atoms: C6_7  and  C7_8 
REMARK    5  A    between atoms: C7_8  and  C9_10 
REMARK    6  A    between atoms: C11_12  and  O2_13 
REMARK    7  A    between atoms: C30_33  and  O4_34 
ROOT
HETATM    1  C9  UNL     1      -6.851  46.940 -30.589  1.00  0.00     0.001 C 
HETATM    2  C10 UNL     1      -7.516  48.266 -31.067  1.00  0.00     0.038 C 
HETATM    3  C11 UNL     1      -8.983  48.233 -30.602  1.00  0.00     0.132 C 
HETATM    4  C12 UNL     1      -9.008  47.161 -29.488  1.00  0.00     0.016 C 
HETATM    5  C13 UNL     1      -8.447  47.788 -28.166  1.00  0.00     0.023 C 
HETATM    6  C14 UNL     1     -10.347  46.529 -29.105  1.00  0.00    -0.037 C 
HETATM    7  C15 UNL     1     -10.359  45.290 -28.546  1.00  0.00    -0.065 C 
HETATM    8  C16 UNL     1      -9.072  44.457 -28.426  1.00  0.00     0.036 C 
HETATM    9  C17 UNL     1      -7.780  45.018 -29.061  1.00  0.00     0.015 C 
HETATM   10  C18 UNL     1      -8.071  46.073 -30.136  1.00  0.00    -0.026 C 
HETATM   11  C19 UNL     1      -8.709  45.366 -31.372  1.00  0.00     0.016 C 
HETATM   12  C20 UNL     1     -11.664  44.638 -28.013  1.00  0.00    -0.015 C 
HETATM   13  C21 UNL     1     -12.044  43.512 -29.004  1.00  0.00     0.020 C 
HETATM   14  C22 UNL     1     -11.418  44.014 -26.605  1.00  0.00     0.021 C 
HETATM   15  C23 UNL     1     -12.639  43.934 -25.693  1.00  0.00     0.080 C 
HETATM   16  C24 UNL     1     -13.934  43.939 -26.465  1.00  0.00     0.135 C 
HETATM   17  O3  UNL     1     -14.758  43.037 -26.314  1.00  0.00    -0.297 OA
HETATM   18  C25 UNL     1     -14.184  45.148 -27.375  1.00  0.00     0.018 C 
HETATM   19  C26 UNL     1     -14.910  46.204 -26.518  1.00  0.00     0.023 C 
HETATM   20  C27 UNL     1     -15.139  44.754 -28.518  1.00  0.00     0.023 C 
HETATM   21  C28 UNL     1     -12.802  45.714 -27.857  1.00  0.00     0.016 C 
HETATM   22  C29 UNL     1     -12.903  46.590 -29.113  1.00  0.00     0.043 C 
HETATM   23  C30 UNL     1     -11.597  47.340 -29.364  1.00  0.00     0.148 C 
ENDROOT
BRANCH   1  24
HETATM   24  C7  UNL     1      -5.850  46.374 -31.636  1.00  0.00    -0.013 C 
HETATM   25  C8  UNL     1      -6.240  46.706 -33.080  1.00  0.00     0.010 C 
BRANCH  24  26
HETATM   26  C6  UNL     1      -5.636  44.841 -31.495  1.00  0.00     0.008 C 
BRANCH  26  27
HETATM   27  C5  UNL     1      -5.407  44.095 -32.813  1.00  0.00     0.028 C 
BRANCH  27  28
HETATM   28  C4  UNL     1      -4.207  43.188 -32.728  1.00  0.00    -0.017 C 
HETATM   29  C2  UNL     1      -3.877  42.177 -33.552  1.00  0.00    -0.028 C 
HETATM   30  C1  UNL     1      -2.667  41.317 -33.327  1.00  0.00     0.051 C 
BRANCH  29  31
HETATM   31  C3  UNL     1      -4.657  41.836 -34.779  1.00  0.00     0.265 C 
HETATM   32  O1  UNL     1      -4.203  41.859 -35.915  1.00  0.00    -0.302 OA
ENDBRANCH  29  31
ENDBRANCH  27  28
ENDBRANCH  26  27
ENDBRANCH  24  26
ENDBRANCH   1  24
BRANCH   3  33
HETATM   33  O2  UNL     1      -9.430  49.508 -30.156  1.00  0.00    -0.394 OA
HETATM   34  H18 UNL     1      -9.209  50.151 -30.853  1.00  0.00     0.210 HD
ENDBRANCH   3  33
BRANCH  23  35
HETATM   35  O4  UNL     1     -11.577  48.494 -28.532  1.00  0.00    -0.391 OA
HETATM   36  H46 UNL     1     -10.917  49.100 -28.932  1.00  0.00     0.210 HD
ENDBRANCH  23  35
TORSDOF 7
ENDMDL
MODEL 9
REMARK minimizedAffinity -7.14365959
REMARK CNNscore 0.537174821
REMARK CNNaffinity 6.44349337
REMARK  7 active torsions:
REMARK  status: ('A' for Active; 'I' for Inactive)
REMARK    1  A    between atoms: C2_2  and  C3_3 
REMARK    2  A    between atoms: C4_5  and  C5_6 
REMARK    3  A    between atoms: C5_6  and  C6_7 
REMARK    4  A    between atoms: C6_7  and  C7_8 
REMARK    5  A    between atoms: C7_8  and  C9_10 
REMARK    6  A    between atoms: C11_12  and  O2_13 
REMARK    7  A    between atoms: C30_33  and  O4_34 
ROOT
HETATM    1  C9  UNL     1       9.084  64.810 -14.965  1.00  0.00     0.001 C 
HETATM    2  C10 UNL     1       9.075  65.469 -16.379  1.00  0.00     0.038 C 
HETATM    3  C11 UNL     1      10.469  66.081 -16.604  1.00  0.00     0.132 C 
HETATM    4  C12 UNL     1      11.373  65.372 -15.570  1.00  0.00     0.016 C 
HETATM    5  C13 UNL     1      11.746  63.950 -16.113  1.00  0.00     0.023 C 
HETATM    6  C14 UNL     1      12.700  66.024 -15.183  1.00  0.00    -0.037 C 
HETATM    7  C15 UNL     1      13.251  65.738 -13.973  1.00  0.00    -0.065 C 
HETATM    8  C16 UNL     1      12.497  64.892 -12.933  1.00  0.00     0.036 C 
HETATM    9  C17 UNL     1      11.046  64.467 -13.255  1.00  0.00     0.015 C 
HETATM   10  C18 UNL     1      10.404  65.356 -14.328  1.00  0.00    -0.026 C 
HETATM   11  C19 UNL     1      10.155  66.772 -13.721  1.00  0.00     0.016 C 
HETATM   12  C20 UNL     1      14.656  66.258 -13.563  1.00  0.00    -0.015 C 
HETATM   13  C21 UNL     1      14.437  67.364 -12.503  1.00  0.00     0.020 C 
HETATM   14  C22 UNL     1      15.492  65.105 -12.927  1.00  0.00     0.021 C 
HETATM   15  C23 UNL     1      17.006  65.226 -13.072  1.00  0.00     0.080 C 
HETATM   16  C24 UNL     1      17.450  66.652 -13.286  1.00  0.00     0.135 C 
HETATM   17  O3  UNL     1      18.282  67.168 -12.541  1.00  0.00    -0.297 OA
HETATM   18  C25 UNL     1      16.864  67.374 -14.506  1.00  0.00     0.018 C 
HETATM   19  C26 UNL     1      17.820  67.098 -15.684  1.00  0.00     0.023 C 
HETATM   20  C27 UNL     1      16.868  68.895 -14.264  1.00  0.00     0.023 C 
HETATM   21  C28 UNL     1      15.449  66.775 -14.819  1.00  0.00     0.016 C 
HETATM   22  C29 UNL     1      14.571  67.694 -15.680  1.00  0.00     0.043 C 
HETATM   23  C30 UNL     1      13.338  66.952 -16.191  1.00  0.00     0.148 C 
ENDROOT
BRANCH   1  24
HETATM   24  C7  UNL     1       7.733  64.999 -14.220  1.00  0.00    -0.013 C 
HETATM   25  C8  UNL     1       7.342  63.786 -13.369  1.00  0.00     0.010 C 
BRANCH  24  26
HETATM   26  C6  UNL     1       6.564  65.360 -15.178  1.00  0.00     0.008 C 
BRANCH  26  27
HETATM   27  C5  UNL     1       5.933  66.736 -14.941  1.00  0.00     0.028 C 
BRANCH  27  28
HETATM   28  C4  UNL     1       4.795  66.989 -15.895  1.00  0.00    -0.017 C 
HETATM   29  C2  UNL     1       3.612  67.572 -15.632  1.00  0.00    -0.028 C 
HETATM   30  C1  UNL     1       2.539  67.724 -16.671  1.00  0.00     0.051 C 
BRANCH  29  31
HETATM   31  C3  UNL     1       3.267  68.152 -14.300  1.00  0.00     0.265 C 
HETATM   32  O1  UNL     1       2.186  68.010 -13.743  1.00  0.00    -0.302 OA
ENDBRANCH  29  31
ENDBRANCH  27  28
ENDBRANCH  26  27
ENDBRANCH  24  26
ENDBRANCH   1  24
BRANCH   3  33
HETATM   33  O2  UNL     1      10.916  65.909 -17.944  1.00  0.00    -0.394 OA
HETATM   34  H18 UNL     1      10.204  66.223 -18.529  1.00  0.00     0.210 HD
ENDBRANCH   3  33
BRANCH  23  35
HETATM   35  O4  UNL     1      13.713  66.198 -17.338  1.00  0.00    -0.391 OA
HETATM   36  H46 UNL     1      12.878  66.005 -17.816  1.00  0.00     0.210 HD
ENDBRANCH  23  35
TORSDOF 7
ENDMDL
