MODEL 1
REMARK minimizedAffinity -9.98592663
REMARK CNNscore 0.851121068
REMARK CNNaffinity 8.72266769
REMARK  16 active torsions:
REMARK  status: ('A' for Active; 'I' for Inactive)
REMARK    1  A    between atoms: C2_2  and  C3_3 
REMARK    2  A    between atoms: C2_2  and  C29_35 
REMARK    3  A    between atoms: C3_3  and  C4_4 
REMARK    4  A    between atoms: C4_4  and  O1_5 
REMARK    5  A    between atoms: C4_4  and  C5_6 
REMARK    6  A    between atoms: C5_6  and  C7_8 
REMARK    7  A    between atoms: C9_10  and  C10_11 
REMARK    8  A    between atoms: C10_11  and  C11_12 
REMARK    9  A    between atoms: C11_12  and  C12_13 
REMARK   10  A    between atoms: C12_13  and  O2_14 
REMARK   11  A    between atoms: C13_15  and  O3_16 
REMARK   12  A    between atoms: C19_23  and  O5_24 
REMARK   13  A    between atoms: C20_25  and  O6_26 
REMARK   14  A    between atoms: C29_35  and  C32_38 
REMARK   15  A    between atoms: C32_38  and  C33_39 
REMARK   16  A    between atoms: C33_39  and  N1_40 
ROOT
HETATM    1  C7  UNL     1      -1.822   7.071  13.684  1.00  0.00     0.003 C 
HETATM    2  C8  UNL     1      -2.097   5.893  12.718  1.00  0.00     0.014 C 
HETATM    3  C9  UNL     1      -0.788   5.658  11.896  1.00  0.00     0.026 C 
HETATM    4  C13 UNL     1       0.271   6.511  12.646  1.00  0.00     0.093 C 
HETATM    5  C14 UNL     1       1.540   7.039  12.012  1.00  0.00    -0.036 C 
HETATM    6  C15 UNL     1       1.779   7.006  10.692  1.00  0.00     0.057 C 
HETATM    7  C16 UNL     1       2.916   7.733  10.092  1.00  0.00     0.154 C 
HETATM    8  O4  UNL     1       3.122   7.602   8.887  1.00  0.00    -0.293 OA
HETATM    9  C17 UNL     1       3.746   8.658  10.981  1.00  0.00     0.071 C 
HETATM   10  C18 UNL     1       5.120   8.934  10.337  1.00  0.00     0.047 C 
HETATM   11  C19 UNL     1       6.127   7.794  10.513  1.00  0.00     0.147 C 
HETATM   12  C20 UNL     1       5.533   6.523  11.132  1.00  0.00     0.147 C 
HETATM   13  C21 UNL     1       4.748   6.792  12.423  1.00  0.00     0.044 C 
HETATM   14  C22 UNL     1       3.871   8.093  12.419  1.00  0.00    -0.023 C 
HETATM   15  C23 UNL     1       4.579   9.128  13.331  1.00  0.00     0.016 C 
HETATM   16  C24 UNL     1       2.446   7.768  13.007  1.00  0.00     0.027 C 
HETATM   17  C25 UNL     1       1.661   8.974  13.595  1.00  0.00     0.011 C 
HETATM   18  C26 UNL     1       0.249   8.608  14.118  1.00  0.00     0.013 C 
HETATM   19  C27 UNL     1      -0.562   7.770  13.097  1.00  0.00    -0.004 C 
HETATM   20  C28 UNL     1      -0.919   8.710  11.913  1.00  0.00     0.019 C 
ENDROOT
BRANCH   1  21
HETATM   21  C5  UNL     1      -3.042   7.938  14.140  1.00  0.00     0.015 C 
HETATM   22  C6  UNL     1      -2.519   9.374  14.366  1.00  0.00     0.013 C 
BRANCH  21  23
HETATM   23  C4  UNL     1      -3.847   7.490  15.401  1.00  0.00     0.126 C 
BRANCH  23  24
HETATM   24  C3  UNL     1      -4.998   6.488  15.103  1.00  0.00     0.066 C 
BRANCH  24  25
HETATM   25  C2  UNL     1      -6.408   7.029  14.904  1.00  0.00    -0.079 C 
HETATM   26  C1  UNL     1      -6.549   8.363  14.775  1.00  0.00     0.015 C 
BRANCH  25  27
HETATM   27  C29 UNL     1      -7.593   6.043  14.678  1.00  0.00    -0.023 C 
HETATM   28  C30 UNL     1      -8.976   6.723  14.796  1.00  0.00     0.019 C 
HETATM   29  C31 UNL     1      -7.507   4.970  15.786  1.00  0.00     0.019 C 
BRANCH  27  30
HETATM   30  C32 UNL     1      -7.487   5.365  13.271  1.00  0.00     0.033 C 
BRANCH  30  31
HETATM   31  C33 UNL     1      -6.144   4.703  12.942  1.00  0.00     0.130 C 
BRANCH  31  32
HETATM   32  N1  UNL     1      -6.322   3.368  12.400  1.00  0.00    -0.352 N 
HETATM   33  C34 UNL     1      -5.490   2.734  11.522  1.00  0.00     0.108 A 
HETATM   34  C35 UNL     1      -6.063   1.499  11.325  1.00  0.00     0.106 A 
HETATM   35  N2  UNL     1      -7.212   1.371  12.061  1.00  0.00    -0.361 N 
HETATM   36  C36 UNL     1      -7.341   2.512  12.701  1.00  0.00     0.182 A 
ATOM     37  H2  UNL     1      -7.833   0.563  12.104  1.00  0.00     0.166 HD
ENDBRANCH  31  32
ENDBRANCH  30  31
ENDBRANCH  27  30
ENDBRANCH  25  27
ENDBRANCH  24  25
ENDBRANCH  23  24
BRANCH  23  38
HETATM   38  O1  UNL     1      -2.999   6.838  16.345  1.00  0.00    -0.395 OA
HETATM   39  H6  UNL     1      -3.503   6.719  17.169  1.00  0.00     0.210 HD
ENDBRANCH  23  38
ENDBRANCH  21  23
ENDBRANCH   1  21
BRANCH   3  40
HETATM   40  C10 UNL     1      -0.529   4.141  11.774  1.00  0.00     0.010 C 
BRANCH  40  41
HETATM   41  C11 UNL     1      -1.638   3.357  11.080  1.00  0.00     0.027 C 
BRANCH  41  42
HETATM   42  C12 UNL     1      -1.318   1.868  11.024  1.00  0.00     0.164 C 
BRANCH  42  43
HETATM   43  O2  UNL     1       0.089   1.704  10.913  1.00  0.00    -0.401 OA
HETATM   44  H21 UNL     1       0.265   0.748  10.908  1.00  0.00     0.209 HD
ENDBRANCH  42  43
ENDBRANCH  41  42
ENDBRANCH  40  41
ENDBRANCH   3  40
BRANCH   4  45
HETATM   45  O3  UNL     1       0.700   5.682  13.739  1.00  0.00    -0.384 OA
HETATM   46  H22 UNL     1       0.636   6.170  14.573  1.00  0.00     0.211 HD
ENDBRANCH   4  45
BRANCH  12  47
HETATM   47  O6  UNL     1       6.603   5.618  11.437  1.00  0.00    -0.393 OA
HETATM   48  H30 UNL     1       6.871   5.206  10.596  1.00  0.00     0.210 HD
ENDBRANCH  12  47
BRANCH  11  49
HETATM   49  O5  UNL     1       7.203   8.254  11.343  1.00  0.00    -0.393 OA
HETATM   50  H28 UNL     1       7.623   7.443  11.694  1.00  0.00     0.210 HD
ENDBRANCH  11  49
TORSDOF 16
ENDMDL
MODEL 2
REMARK minimizedAffinity -9.04059887
REMARK CNNscore 0.608352005
REMARK CNNaffinity 7.47909927
REMARK  16 active torsions:
REMARK  status: ('A' for Active; 'I' for Inactive)
REMARK    1  A    between atoms: C2_2  and  C3_3 
REMARK    2  A    between atoms: C2_2  and  C29_35 
REMARK    3  A    between atoms: C3_3  and  C4_4 
REMARK    4  A    between atoms: C4_4  and  O1_5 
REMARK    5  A    between atoms: C4_4  and  C5_6 
REMARK    6  A    between atoms: C5_6  and  C7_8 
REMARK    7  A    between atoms: C9_10  and  C10_11 
REMARK    8  A    between atoms: C10_11  and  C11_12 
REMARK    9  A    between atoms: C11_12  and  C12_13 
REMARK   10  A    between atoms: C12_13  and  O2_14 
REMARK   11  A    between atoms: C13_15  and  O3_16 
REMARK   12  A    between atoms: C19_23  and  O5_24 
REMARK   13  A    between atoms: C20_25  and  O6_26 
REMARK   14  A    between atoms: C29_35  and  C32_38 
REMARK   15  A    between atoms: C32_38  and  C33_39 
REMARK   16  A    between atoms: C33_39  and  N1_40 
ROOT
HETATM    1  C7  UNL     1      -5.407   6.519  14.216  1.00  0.00     0.003 C 
HETATM    2  C8  UNL     1      -5.041   5.421  13.187  1.00  0.00     0.014 C 
HETATM    3  C9  UNL     1      -3.490   5.469  12.995  1.00  0.00     0.026 C 
HETATM    4  C13 UNL     1      -3.008   6.385  14.152  1.00  0.00     0.093 C 
HETATM    5  C14 UNL     1      -1.707   7.159  14.137  1.00  0.00    -0.036 C 
HETATM    6  C15 UNL     1      -0.940   7.300  13.045  1.00  0.00     0.057 C 
HETATM    7  C16 UNL     1       0.193   8.246  13.010  1.00  0.00     0.154 C 
HETATM    8  O4  UNL     1       0.900   8.275  12.005  1.00  0.00    -0.293 OA
HETATM    9  C17 UNL     1       0.400   9.185  14.198  1.00  0.00     0.071 C 
HETATM   10  C18 UNL     1       1.844   9.728  14.211  1.00  0.00     0.047 C 
HETATM   11  C19 UNL     1       2.873   8.737  14.762  1.00  0.00     0.147 C 
HETATM   12  C20 UNL     1       2.313   7.334  15.027  1.00  0.00     0.147 C 
HETATM   13  C21 UNL     1       1.030   7.347  15.868  1.00  0.00     0.044 C 
HETATM   14  C22 UNL     1       0.016   8.497  15.533  1.00  0.00    -0.023 C 
HETATM   15  C23 UNL     1       0.086   9.524  16.693  1.00  0.00     0.016 C 
HETATM   16  C24 UNL     1      -1.441   7.905  15.447  1.00  0.00     0.027 C 
HETATM   17  C25 UNL     1      -2.600   8.913  15.682  1.00  0.00     0.011 C 
HETATM   18  C26 UNL     1      -4.012   8.290  15.541  1.00  0.00     0.013 C 
HETATM   19  C27 UNL     1      -4.163   7.453  14.245  1.00  0.00    -0.004 C 
HETATM   20  C28 UNL     1      -4.159   8.450  13.053  1.00  0.00     0.019 C 
ENDROOT
BRANCH   1  21
HETATM   21  C5  UNL     1      -6.838   7.143  14.136  1.00  0.00     0.015 C 
HETATM   22  C6  UNL     1      -6.768   8.528  14.816  1.00  0.00     0.013 C 
BRANCH  21  23
HETATM   23  C4  UNL     1      -8.037   6.345  14.742  1.00  0.00     0.126 C 
BRANCH  23  24
HETATM   24  C3  UNL     1      -9.433   6.806  14.236  1.00  0.00     0.066 C 
BRANCH  24  25
HETATM   25  C2  UNL     1     -10.240   7.774  15.091  1.00  0.00    -0.079 C 
HETATM   26  C1  UNL     1      -9.775   8.046  16.327  1.00  0.00     0.015 C 
BRANCH  25  27
HETATM   27  C29 UNL     1     -11.444   8.542  14.469  1.00  0.00    -0.023 C 
HETATM   28  C30 UNL     1     -11.109  10.009  14.118  1.00  0.00     0.019 C 
HETATM   29  C31 UNL     1     -12.566   8.563  15.532  1.00  0.00     0.019 C 
BRANCH  27  30
HETATM   30  C32 UNL     1     -11.951   7.820  13.175  1.00  0.00     0.033 C 
BRANCH  30  31
HETATM   31  C33 UNL     1     -13.293   7.089  13.294  1.00  0.00     0.130 C 
BRANCH  31  32
HETATM   32  N1  UNL     1     -14.358   7.808  12.618  1.00  0.00    -0.352 N 
HETATM   33  C34 UNL     1     -15.541   7.282  12.185  1.00  0.00     0.108 A 
HETATM   34  C35 UNL     1     -16.218   8.347  11.634  1.00  0.00     0.106 A 
HETATM   35  N2  UNL     1     -15.477   9.496  11.728  1.00  0.00    -0.361 N 
HETATM   36  C36 UNL     1     -14.362   9.142  12.327  1.00  0.00     0.182 A 
ATOM     37  H2  UNL     1     -15.736  10.427  11.402  1.00  0.00     0.166 HD
ENDBRANCH  31  32
ENDBRANCH  30  31
ENDBRANCH  27  30
ENDBRANCH  25  27
ENDBRANCH  24  25
ENDBRANCH  23  24
BRANCH  23  38
HETATM   38  O1  UNL     1      -7.945   4.958  14.417  1.00  0.00    -0.395 OA
HETATM   39  H6  UNL     1      -8.615   4.483  14.938  1.00  0.00     0.210 HD
ENDBRANCH  23  38
ENDBRANCH  21  23
ENDBRANCH   1  21
BRANCH   3  40
HETATM   40  C10 UNL     1      -2.938   4.028  12.945  1.00  0.00     0.010 C 
BRANCH  40  41
HETATM   41  C11 UNL     1      -3.003   3.365  11.573  1.00  0.00     0.027 C 
BRANCH  41  42
HETATM   42  C12 UNL     1      -4.231   2.473  11.441  1.00  0.00     0.164 C 
BRANCH  42  43
HETATM   43  O2  UNL     1      -4.956   2.858  10.281  1.00  0.00    -0.401 OA
HETATM   44  H21 UNL     1      -5.716   2.256  10.207  1.00  0.00     0.209 HD
ENDBRANCH  42  43
ENDBRANCH  41  42
ENDBRANCH  40  41
ENDBRANCH   3  40
BRANCH   4  45
HETATM   45  O3  UNL     1      -2.931   5.519  15.296  1.00  0.00    -0.384 OA
HETATM   46  H22 UNL     1      -3.421   5.902  16.038  1.00  0.00     0.211 HD
ENDBRANCH   4  45
BRANCH  12  47
HETATM   47  O6  UNL     1       3.303   6.570  15.730  1.00  0.00    -0.393 OA
HETATM   48  H30 UNL     1       3.964   6.293  15.070  1.00  0.00     0.210 HD
ENDBRANCH  12  47
BRANCH  11  49
HETATM   49  O5  UNL     1       3.407   9.261  15.986  1.00  0.00    -0.393 OA
HETATM   50  H28 UNL     1       3.781   8.488  16.456  1.00  0.00     0.210 HD
ENDBRANCH  11  49
TORSDOF 16
ENDMDL
MODEL 3
REMARK minimizedAffinity -7.09427023
REMARK CNNscore 0.560572147
REMARK CNNaffinity 7.19800568
REMARK  16 active torsions:
REMARK  status: ('A' for Active; 'I' for Inactive)
REMARK    1  A    between atoms: C2_2  and  C3_3 
REMARK    2  A    between atoms: C2_2  and  C29_35 
REMARK    3  A    between atoms: C3_3  and  C4_4 
REMARK    4  A    between atoms: C4_4  and  O1_5 
REMARK    5  A    between atoms: C4_4  and  C5_6 
REMARK    6  A    between atoms: C5_6  and  C7_8 
REMARK    7  A    between atoms: C9_10  and  C10_11 
REMARK    8  A    between atoms: C10_11  and  C11_12 
REMARK    9  A    between atoms: C11_12  and  C12_13 
REMARK   10  A    between atoms: C12_13  and  O2_14 
REMARK   11  A    between atoms: C13_15  and  O3_16 
REMARK   12  A    between atoms: C19_23  and  O5_24 
REMARK   13  A    between atoms: C20_25  and  O6_26 
REMARK   14  A    between atoms: C29_35  and  C32_38 
REMARK   15  A    between atoms: C32_38  and  C33_39 
REMARK   16  A    between atoms: C33_39  and  N1_40 
ROOT
HETATM    1  C7  UNL     1      -3.422   6.873  14.453  1.00  0.00     0.003 C 
HETATM    2  C8  UNL     1      -3.861   5.644  13.620  1.00  0.00     0.014 C 
HETATM    3  C9  UNL     1      -2.735   5.374  12.569  1.00  0.00     0.026 C 
HETATM    4  C13 UNL     1      -1.564   6.273  13.052  1.00  0.00     0.093 C 
HETATM    5  C14 UNL     1      -0.454   6.776  12.154  1.00  0.00    -0.036 C 
HETATM    6  C15 UNL     1      -0.478   6.675  10.816  1.00  0.00     0.057 C 
HETATM    7  C16 UNL     1       0.506   7.377   9.968  1.00  0.00     0.154 C 
HETATM    8  O4  UNL     1       0.473   7.185   8.754  1.00  0.00    -0.293 OA
HETATM    9  C17 UNL     1       1.479   8.354  10.628  1.00  0.00     0.071 C 
HETATM   10  C18 UNL     1       2.694   8.605   9.713  1.00  0.00     0.047 C 
HETATM   11  C19 UNL     1       3.735   7.483   9.743  1.00  0.00     0.147 C 
HETATM   12  C20 UNL     1       3.297   6.242  10.531  1.00  0.00     0.147 C 
HETATM   13  C21 UNL     1       2.776   6.573  11.936  1.00  0.00     0.044 C 
HETATM   14  C22 UNL     1       1.893   7.866  12.040  1.00  0.00    -0.023 C 
HETATM   15  C23 UNL     1       2.749   8.953  12.741  1.00  0.00     0.016 C 
HETATM   16  C24 UNL     1       0.618   7.562  12.913  1.00  0.00     0.027 C 
HETATM   17  C25 UNL     1      -0.057   8.792  13.583  1.00  0.00     0.011 C 
HETATM   18  C26 UNL     1      -1.332   8.444  14.391  1.00  0.00     0.013 C 
HETATM   19  C27 UNL     1      -2.314   7.548  13.594  1.00  0.00    -0.004 C 
HETATM   20  C28 UNL     1      -2.913   8.423  12.458  1.00  0.00     0.019 C 
ENDROOT
BRANCH   1  21
HETATM   21  C5  UNL     1      -4.543   7.754  15.096  1.00  0.00     0.015 C 
HETATM   22  C6  UNL     1      -5.839   7.496  14.296  1.00  0.00     0.013 C 
BRANCH  21  23
HETATM   23  C4  UNL     1      -4.314   9.295  15.202  1.00  0.00     0.126 C 
BRANCH  23  24
HETATM   24  C3  UNL     1      -3.030   9.700  15.981  1.00  0.00     0.066 C 
BRANCH  24  25
HETATM   25  C2  UNL     1      -2.775  11.175  16.259  1.00  0.00    -0.079 C 
HETATM   26  C1  UNL     1      -3.558  12.071  15.624  1.00  0.00     0.015 C 
BRANCH  25  27
HETATM   27  C29 UNL     1      -1.769  11.594  17.373  1.00  0.00    -0.023 C 
HETATM   28  C30 UNL     1      -0.576  12.413  16.833  1.00  0.00     0.019 C 
HETATM   29  C31 UNL     1      -1.202  10.292  17.983  1.00  0.00     0.019 C 
BRANCH  27  30
HETATM   30  C32 UNL     1      -2.491  12.431  18.482  1.00  0.00     0.033 C 
BRANCH  30  31
HETATM   31  C33 UNL     1      -3.808  11.853  19.011  1.00  0.00     0.130 C 
BRANCH  31  32
HETATM   32  N1  UNL     1      -4.784  12.895  19.275  1.00  0.00    -0.352 N 
HETATM   33  C34 UNL     1      -5.325  13.749  18.357  1.00  0.00     0.108 A 
HETATM   34  C35 UNL     1      -6.203  14.527  19.075  1.00  0.00     0.106 A 
HETATM   35  N2  UNL     1      -6.208  14.163  20.397  1.00  0.00    -0.361 N 
HETATM   36  C36 UNL     1      -5.346  13.175  20.487  1.00  0.00     0.182 A 
ATOM     37  H2  UNL     1      -6.763  14.571  21.149  1.00  0.00     0.166 HD
ENDBRANCH  31  32
ENDBRANCH  30  31
ENDBRANCH  27  30
ENDBRANCH  25  27
ENDBRANCH  24  25
ENDBRANCH  23  24
BRANCH  23  38
HETATM   38  O1  UNL     1      -4.184   9.883  13.909  1.00  0.00    -0.395 OA
HETATM   39  H6  UNL     1      -4.201  10.851  14.017  1.00  0.00     0.210 HD
ENDBRANCH  23  38
ENDBRANCH  21  23
ENDBRANCH   1  21
BRANCH   3  40
HETATM   40  C10 UNL     1      -2.480   3.855  12.474  1.00  0.00     0.010 C 
BRANCH  40  41
HETATM   41  C11 UNL     1      -1.567   3.430  11.329  1.00  0.00     0.027 C 
BRANCH  41  42
HETATM   42  C12 UNL     1      -1.764   1.961  10.973  1.00  0.00     0.164 C 
BRANCH  42  43
HETATM   43  O2  UNL     1      -3.029   1.537  11.461  1.00  0.00    -0.401 OA
HETATM   44  H21 UNL     1      -3.140   0.608  11.196  1.00  0.00     0.209 HD
ENDBRANCH  42  43
ENDBRANCH  41  42
ENDBRANCH  40  41
ENDBRANCH   3  40
BRANCH   4  45
HETATM   45  O3  UNL     1      -0.914   5.506  14.079  1.00  0.00    -0.384 OA
HETATM   46  H22 UNL     1      -0.822   6.037  14.884  1.00  0.00     0.211 HD
ENDBRANCH   4  45
BRANCH  12  47
HETATM   47  O6  UNL     1       4.421   5.362  10.664  1.00  0.00    -0.393 OA
HETATM   48  H30 UNL     1       4.526   4.908   9.808  1.00  0.00     0.210 HD
ENDBRANCH  12  47
BRANCH  11  49
HETATM   49  O5  UNL     1       4.945   7.993  10.321  1.00  0.00    -0.393 OA
HETATM   50  H28 UNL     1       5.440   7.205  10.622  1.00  0.00     0.210 HD
ENDBRANCH  11  49
TORSDOF 16
ENDMDL
MODEL 4
REMARK minimizedAffinity -7.8397193
REMARK CNNscore 0.558760285
REMARK CNNaffinity 6.85011244
REMARK  16 active torsions:
REMARK  status: ('A' for Active; 'I' for Inactive)
REMARK    1  A    between atoms: C2_2  and  C3_3 
REMARK    2  A    between atoms: C2_2  and  C29_35 
REMARK    3  A    between atoms: C3_3  and  C4_4 
REMARK    4  A    between atoms: C4_4  and  O1_5 
REMARK    5  A    between atoms: C4_4  and  C5_6 
REMARK    6  A    between atoms: C5_6  and  C7_8 
REMARK    7  A    between atoms: C9_10  and  C10_11 
REMARK    8  A    between atoms: C10_11  and  C11_12 
REMARK    9  A    between atoms: C11_12  and  C12_13 
REMARK   10  A    between atoms: C12_13  and  O2_14 
REMARK   11  A    between atoms: C13_15  and  O3_16 
REMARK   12  A    between atoms: C19_23  and  O5_24 
REMARK   13  A    between atoms: C20_25  and  O6_26 
REMARK   14  A    between atoms: C29_35  and  C32_38 
REMARK   15  A    between atoms: C32_38  and  C33_39 
REMARK   16  A    between atoms: C33_39  and  N1_40 
ROOT
HETATM    1  C7  UNL     1      -2.399   9.085  15.824  1.00  0.00     0.003 C 
HETATM    2  C8  UNL     1      -3.584   8.438  15.068  1.00  0.00     0.014 C 
HETATM    3  C9  UNL     1      -2.999   7.772  13.779  1.00  0.00     0.026 C 
HETATM    4  C13 UNL     1      -1.465   7.805  14.018  1.00  0.00     0.093 C 
HETATM    5  C14 UNL     1      -0.433   7.761  12.911  1.00  0.00    -0.036 C 
HETATM    6  C15 UNL     1      -0.733   7.902  11.611  1.00  0.00     0.057 C 
HETATM    7  C16 UNL     1       0.318   8.084  10.588  1.00  0.00     0.154 C 
HETATM    8  O4  UNL     1      -0.020   8.134   9.407  1.00  0.00    -0.293 OA
HETATM    9  C17 UNL     1       1.765   8.259  11.047  1.00  0.00     0.071 C 
HETATM   10  C18 UNL     1       2.738   7.954   9.890  1.00  0.00     0.047 C 
HETATM   11  C19 UNL     1       2.955   6.459   9.642  1.00  0.00     0.147 C 
HETATM   12  C20 UNL     1       2.034   5.547  10.461  1.00  0.00     0.147 C 
HETATM   13  C21 UNL     1       2.033   5.880  11.960  1.00  0.00     0.044 C 
HETATM   14  C22 UNL     1       2.062   7.410  12.309  1.00  0.00    -0.023 C 
HETATM   15  C23 UNL     1       3.483   7.734  12.838  1.00  0.00     0.016 C 
HETATM   16  C24 UNL     1       1.004   7.711  13.436  1.00  0.00     0.027 C 
HETATM   17  C25 UNL     1       1.261   8.987  14.287  1.00  0.00     0.011 C 
HETATM   18  C26 UNL     1       0.167   9.262  15.350  1.00  0.00     0.013 C 
HETATM   19  C27 UNL     1      -1.265   9.179  14.763  1.00  0.00    -0.004 C 
HETATM   20  C28 UNL     1      -1.448  10.404  13.825  1.00  0.00     0.019 C 
ENDROOT
BRANCH   1  21
HETATM   21  C5  UNL     1      -2.703  10.318  16.737  1.00  0.00     0.015 C 
HETATM   22  C6  UNL     1      -2.713   9.810  18.196  1.00  0.00     0.013 C 
BRANCH  21  23
HETATM   23  C4  UNL     1      -4.008  11.136  16.479  1.00  0.00     0.126 C 
BRANCH  23  24
HETATM   24  C3  UNL     1      -3.842  12.674  16.638  1.00  0.00     0.066 C 
BRANCH  24  25
HETATM   25  C2  UNL     1      -4.880  13.444  17.444  1.00  0.00    -0.079 C 
HETATM   26  C1  UNL     1      -6.118  13.551  16.921  1.00  0.00     0.015 C 
BRANCH  25  27
HETATM   27  C29 UNL     1      -4.546  13.916  18.891  1.00  0.00    -0.023 C 
HETATM   28  C30 UNL     1      -4.654  15.448  19.066  1.00  0.00     0.019 C 
HETATM   29  C31 UNL     1      -3.080  13.518  19.170  1.00  0.00     0.019 C 
BRANCH  27  30
HETATM   30  C32 UNL     1      -5.493  13.225  19.930  1.00  0.00     0.033 C 
BRANCH  30  31
HETATM   31  C33 UNL     1      -6.802  13.961  20.240  1.00  0.00     0.130 C 
BRANCH  31  32
HETATM   32  N1  UNL     1      -7.450  13.427  21.424  1.00  0.00    -0.352 N 
HETATM   33  C34 UNL     1      -8.752  13.029  21.524  1.00  0.00     0.108 A 
HETATM   34  C35 UNL     1      -8.885  12.584  22.819  1.00  0.00     0.106 A 
HETATM   35  N2  UNL     1      -7.700  12.700  23.498  1.00  0.00    -0.361 N 
HETATM   36  C36 UNL     1      -6.853  13.209  22.632  1.00  0.00     0.182 A 
ATOM     37  H2  UNL     1      -7.516  12.446  24.469  1.00  0.00     0.166 HD
ENDBRANCH  31  32
ENDBRANCH  30  31
ENDBRANCH  27  30
ENDBRANCH  25  27
ENDBRANCH  24  25
ENDBRANCH  23  24
BRANCH  23  38
HETATM   38  O1  UNL     1      -4.484  10.933  15.149  1.00  0.00    -0.395 OA
HETATM   39  H6  UNL     1      -5.370  11.331  15.084  1.00  0.00     0.210 HD
ENDBRANCH  23  38
ENDBRANCH  21  23
ENDBRANCH   1  21
BRANCH   3  40
HETATM   40  C10 UNL     1      -3.662   6.394  13.573  1.00  0.00     0.010 C 
BRANCH  40  41
HETATM   41  C11 UNL     1      -5.158   6.352  13.869  1.00  0.00     0.027 C 
BRANCH  41  42
HETATM   42  C12 UNL     1      -5.785   5.046  13.397  1.00  0.00     0.164 C 
BRANCH  42  43
HETATM   43  O2  UNL     1      -7.038   4.878  14.045  1.00  0.00    -0.401 OA
HETATM   44  H21 UNL     1      -7.427   4.054  13.705  1.00  0.00     0.209 HD
ENDBRANCH  42  43
ENDBRANCH  41  42
ENDBRANCH  40  41
ENDBRANCH   3  40
BRANCH   4  45
HETATM   45  O3  UNL     1      -1.198   6.658  14.841  1.00  0.00    -0.384 OA
HETATM   46  H22 UNL     1      -0.691   6.919  15.624  1.00  0.00     0.211 HD
ENDBRANCH   4  45
BRANCH  12  47
HETATM   47  O6  UNL     1       2.472   4.190  10.304  1.00  0.00    -0.393 OA
HETATM   48  H30 UNL     1       2.158   3.894   9.430  1.00  0.00     0.210 HD
ENDBRANCH  12  47
BRANCH  11  49
HETATM   49  O5  UNL     1       4.319   6.134   9.950  1.00  0.00    -0.393 OA
HETATM   50  H28 UNL     1       4.326   5.168  10.101  1.00  0.00     0.210 HD
ENDBRANCH  11  49
TORSDOF 16
ENDMDL
MODEL 5
REMARK minimizedAffinity -9.39716911
REMARK CNNscore 0.553906322
REMARK CNNaffinity 7.55700111
REMARK  16 active torsions:
REMARK  status: ('A' for Active; 'I' for Inactive)
REMARK    1  A    between atoms: C2_2  and  C3_3 
REMARK    2  A    between atoms: C2_2  and  C29_35 
REMARK    3  A    between atoms: C3_3  and  C4_4 
REMARK    4  A    between atoms: C4_4  and  O1_5 
REMARK    5  A    between atoms: C4_4  and  C5_6 
REMARK    6  A    between atoms: C5_6  and  C7_8 
REMARK    7  A    between atoms: C9_10  and  C10_11 
REMARK    8  A    between atoms: C10_11  and  C11_12 
REMARK    9  A    between atoms: C11_12  and  C12_13 
REMARK   10  A    between atoms: C12_13  and  O2_14 
REMARK   11  A    between atoms: C13_15  and  O3_16 
REMARK   12  A    between atoms: C19_23  and  O5_24 
REMARK   13  A    between atoms: C20_25  and  O6_26 
REMARK   14  A    between atoms: C29_35  and  C32_38 
REMARK   15  A    between atoms: C32_38  and  C33_39 
REMARK   16  A    between atoms: C33_39  and  N1_40 
ROOT
HETATM    1  C7  UNL     1      -3.350   6.695  13.940  1.00  0.00     0.003 C 
HETATM    2  C8  UNL     1      -2.898   5.760  12.792  1.00  0.00     0.014 C 
HETATM    3  C9  UNL     1      -1.351   5.930  12.642  1.00  0.00     0.026 C 
HETATM    4  C13 UNL     1      -0.947   6.725  13.914  1.00  0.00     0.093 C 
HETATM    5  C14 UNL     1       0.300   7.575  14.024  1.00  0.00    -0.036 C 
HETATM    6  C15 UNL     1       1.072   7.900  12.975  1.00  0.00     0.057 C 
HETATM    7  C16 UNL     1       2.140   8.914  13.083  1.00  0.00     0.154 C 
HETATM    8  O4  UNL     1       2.858   9.112  12.105  1.00  0.00    -0.293 OA
HETATM    9  C17 UNL     1       2.268   9.709  14.382  1.00  0.00     0.071 C 
HETATM   10  C18 UNL     1       3.673  10.336  14.494  1.00  0.00     0.047 C 
HETATM   11  C19 UNL     1       4.757   9.352  14.942  1.00  0.00     0.147 C 
HETATM   12  C20 UNL     1       4.287   7.894  15.019  1.00  0.00     0.147 C 
HETATM   13  C21 UNL     1       2.994   7.720  15.826  1.00  0.00     0.044 C 
HETATM   14  C22 UNL     1       1.911   8.836  15.613  1.00  0.00    -0.023 C 
HETATM   15  C23 UNL     1       1.896   9.713  16.892  1.00  0.00     0.016 C 
HETATM   16  C24 UNL     1       0.498   8.168  15.421  1.00  0.00     0.027 C 
HETATM   17  C25 UNL     1      -0.729   9.062  15.754  1.00  0.00     0.011 C 
HETATM   18  C26 UNL     1      -2.094   8.373  15.505  1.00  0.00     0.013 C 
HETATM   19  C27 UNL     1      -2.171   7.697  14.112  1.00  0.00    -0.004 C 
HETATM   20  C28 UNL     1      -2.215   8.832  13.053  1.00  0.00     0.019 C 
ENDROOT
BRANCH   1  21
HETATM   21  C5  UNL     1      -4.818   7.232  13.906  1.00  0.00     0.015 C 
HETATM   22  C6  UNL     1      -4.737   8.771  13.794  1.00  0.00     0.013 C 
BRANCH  21  23
HETATM   23  C4  UNL     1      -5.777   6.862  15.082  1.00  0.00     0.126 C 
BRANCH  23  24
HETATM   24  C3  UNL     1      -6.916   5.877  14.693  1.00  0.00     0.066 C 
BRANCH  24  25
HETATM   25  C2  UNL     1      -8.202   6.439  14.103  1.00  0.00    -0.079 C 
HETATM   26  C1  UNL     1      -8.602   5.952  12.911  1.00  0.00     0.015 C 
BRANCH  25  27
HETATM   27  C29 UNL     1      -9.091   7.398  14.949  1.00  0.00    -0.023 C 
HETATM   28  C30 UNL     1      -8.594   8.861  14.925  1.00  0.00     0.019 C 
HETATM   29  C31 UNL     1      -9.021   6.907  16.413  1.00  0.00     0.019 C 
BRANCH  27  30
HETATM   30  C32 UNL     1     -10.573   7.365  14.446  1.00  0.00     0.033 C 
BRANCH  30  31
HETATM   31  C33 UNL     1     -11.454   8.547  14.871  1.00  0.00     0.130 C 
BRANCH  31  32
HETATM   32  N1  UNL     1     -12.069   9.196  13.727  1.00  0.00    -0.352 N 
HETATM   33  C34 UNL     1     -13.177   9.994  13.748  1.00  0.00     0.108 A 
HETATM   34  C35 UNL     1     -13.355  10.383  12.440  1.00  0.00     0.106 A 
HETATM   35  N2  UNL     1     -12.384   9.845  11.636  1.00  0.00    -0.361 N 
HETATM   36  C36 UNL     1     -11.622   9.136  12.438  1.00  0.00     0.182 A 
ATOM     37  H2  UNL     1     -12.277   9.968  10.629  1.00  0.00     0.166 HD
ENDBRANCH  31  32
ENDBRANCH  30  31
ENDBRANCH  27  30
ENDBRANCH  25  27
ENDBRANCH  24  25
ENDBRANCH  23  24
BRANCH  23  38
HETATM   38  O1  UNL     1      -5.063   6.230  16.144  1.00  0.00    -0.395 OA
HETATM   39  H6  UNL     1      -5.663   6.161  16.908  1.00  0.00     0.210 HD
ENDBRANCH  23  38
ENDBRANCH  21  23
ENDBRANCH   1  21
BRANCH   3  40
HETATM   40  C10 UNL     1      -0.704   4.546  12.427  1.00  0.00     0.010 C 
BRANCH  40  41
HETATM   41  C11 UNL     1      -1.154   3.818  11.164  1.00  0.00     0.027 C 
BRANCH  41  42
HETATM   42  C12 UNL     1      -1.124   2.306  11.350  1.00  0.00     0.164 C 
BRANCH  42  43
HETATM   43  O2  UNL     1       0.105   1.805  10.843  1.00  0.00    -0.401 OA
HETATM   44  H21 UNL     1       0.108   0.846  11.000  1.00  0.00     0.209 HD
ENDBRANCH  42  43
ENDBRANCH  41  42
ENDBRANCH  40  41
ENDBRANCH   3  40
BRANCH   4  45
HETATM   45  O3  UNL     1      -0.829   5.729  14.944  1.00  0.00    -0.384 OA
HETATM   46  H22 UNL     1      -1.354   5.984  15.716  1.00  0.00     0.211 HD
ENDBRANCH   4  45
BRANCH  12  47
HETATM   47  O6  UNL     1       5.315   7.113  15.644  1.00  0.00    -0.393 OA
HETATM   48  H30 UNL     1       6.003   6.963  14.970  1.00  0.00     0.210 HD
ENDBRANCH  12  47
BRANCH  11  49
HETATM   49  O5  UNL     1       5.237   9.752  16.233  1.00  0.00    -0.393 OA
HETATM   50  H28 UNL     1       5.655   8.952  16.612  1.00  0.00     0.210 HD
ENDBRANCH  11  49
TORSDOF 16
ENDMDL
MODEL 6
REMARK minimizedAffinity -8.726017
REMARK CNNscore 0.526451468
REMARK CNNaffinity 7.35715723
REMARK  16 active torsions:
REMARK  status: ('A' for Active; 'I' for Inactive)
REMARK    1  A    between atoms: C2_2  and  C3_3 
REMARK    2  A    between atoms: C2_2  and  C29_35 
REMARK    3  A    between atoms: C3_3  and  C4_4 
REMARK    4  A    between atoms: C4_4  and  O1_5 
REMARK    5  A    between atoms: C4_4  and  C5_6 
REMARK    6  A    between atoms: C5_6  and  C7_8 
REMARK    7  A    between atoms: C9_10  and  C10_11 
REMARK    8  A    between atoms: C10_11  and  C11_12 
REMARK    9  A    between atoms: C11_12  and  C12_13 
REMARK   10  A    between atoms: C12_13  and  O2_14 
REMARK   11  A    between atoms: C13_15  and  O3_16 
REMARK   12  A    between atoms: C19_23  and  O5_24 
REMARK   13  A    between atoms: C20_25  and  O6_26 
REMARK   14  A    between atoms: C29_35  and  C32_38 
REMARK   15  A    between atoms: C32_38  and  C33_39 
REMARK   16  A    between atoms: C33_39  and  N1_40 
ROOT
HETATM    1  C7  UNL     1      -4.770   6.416  13.922  1.00  0.00     0.003 C 
HETATM    2  C8  UNL     1      -4.290   5.393  12.864  1.00  0.00     0.014 C 
HETATM    3  C9  UNL     1      -2.740   5.554  12.738  1.00  0.00     0.026 C 
HETATM    4  C13 UNL     1      -2.367   6.448  13.952  1.00  0.00     0.093 C 
HETATM    5  C14 UNL     1      -1.124   7.307  14.023  1.00  0.00    -0.036 C 
HETATM    6  C15 UNL     1      -0.327   7.550  12.971  1.00  0.00     0.057 C 
HETATM    7  C16 UNL     1       0.738   8.571  13.024  1.00  0.00     0.154 C 
HETATM    8  O4  UNL     1       1.480   8.693  12.050  1.00  0.00    -0.293 OA
HETATM    9  C17 UNL     1       0.835   9.467  14.258  1.00  0.00     0.071 C 
HETATM   10  C18 UNL     1       2.236  10.105  14.354  1.00  0.00     0.047 C 
HETATM   11  C19 UNL     1       3.309   9.162  14.904  1.00  0.00     0.147 C 
HETATM   12  C20 UNL     1       2.838   7.714  15.086  1.00  0.00     0.147 C 
HETATM   13  C21 UNL     1       1.525   7.601  15.873  1.00  0.00     0.044 C 
HETATM   14  C22 UNL     1       0.448   8.695  15.545  1.00  0.00    -0.023 C 
HETATM   15  C23 UNL     1       0.402   9.671  16.749  1.00  0.00     0.016 C 
HETATM   16  C24 UNL     1      -0.960   8.010  15.373  1.00  0.00     0.027 C 
HETATM   17  C25 UNL     1      -2.194   8.926  15.604  1.00  0.00     0.011 C 
HETATM   18  C26 UNL     1      -3.553   8.216  15.378  1.00  0.00     0.013 C 
HETATM   19  C27 UNL     1      -3.596   7.430  14.042  1.00  0.00    -0.004 C 
HETATM   20  C28 UNL     1      -3.615   8.478  12.895  1.00  0.00     0.019 C 
ENDROOT
BRANCH   1  21
HETATM   21  C5  UNL     1      -6.237   6.945  13.810  1.00  0.00     0.015 C 
HETATM   22  C6  UNL     1      -6.312   8.253  14.629  1.00  0.00     0.013 C 
BRANCH  21  23
HETATM   23  C4  UNL     1      -7.406   6.007  14.250  1.00  0.00     0.126 C 
BRANCH  23  24
HETATM   24  C3  UNL     1      -8.796   6.405  13.679  1.00  0.00     0.066 C 
BRANCH  24  25
HETATM   25  C2  UNL     1      -9.843   6.975  14.628  1.00  0.00    -0.079 C 
HETATM   26  C1  UNL     1      -9.457   7.237  15.893  1.00  0.00     0.015 C 
BRANCH  25  27
HETATM   27  C29 UNL     1     -11.239   7.398  14.080  1.00  0.00    -0.023 C 
HETATM   28  C30 UNL     1     -12.335   6.339  14.338  1.00  0.00     0.019 C 
HETATM   29  C31 UNL     1     -11.096   7.558  12.550  1.00  0.00     0.019 C 
BRANCH  27  30
HETATM   30  C32 UNL     1     -11.694   8.754  14.717  1.00  0.00     0.033 C 
BRANCH  30  31
HETATM   31  C33 UNL     1     -11.245  10.025  13.986  1.00  0.00     0.130 C 
BRANCH  31  32
HETATM   32  N1  UNL     1     -10.993  11.116  14.910  1.00  0.00    -0.352 N 
HETATM   33  C34 UNL     1     -11.773  11.472  15.973  1.00  0.00     0.108 A 
HETATM   34  C35 UNL     1     -11.117  12.536  16.549  1.00  0.00     0.106 A 
HETATM   35  N2  UNL     1      -9.965  12.826  15.865  1.00  0.00    -0.361 N 
HETATM   36  C36 UNL     1      -9.915  11.953  14.884  1.00  0.00     0.182 A 
ATOM     37  H2  UNL     1      -9.291  13.562  16.073  1.00  0.00     0.166 HD
ENDBRANCH  31  32
ENDBRANCH  30  31
ENDBRANCH  27  30
ENDBRANCH  25  27
ENDBRANCH  24  25
ENDBRANCH  23  24
BRANCH  23  38
HETATM   38  O1  UNL     1      -7.178   4.667  13.816  1.00  0.00    -0.395 OA
HETATM   39  H6  UNL     1      -7.842   4.097  14.241  1.00  0.00     0.210 HD
ENDBRANCH  23  38
ENDBRANCH  21  23
ENDBRANCH   1  21
BRANCH   3  40
HETATM   40  C10 UNL     1      -2.088   4.158  12.650  1.00  0.00     0.010 C 
BRANCH  40  41
HETATM   41  C11 UNL     1      -1.449   3.834  11.303  1.00  0.00     0.027 C 
BRANCH  41  42
HETATM   42  C12 UNL     1      -1.337   2.330  11.086  1.00  0.00     0.164 C 
BRANCH  42  43
HETATM   43  O2  UNL     1       0.037   1.981  10.992  1.00  0.00    -0.401 OA
HETATM   44  H21 UNL     1       0.080   1.016  10.882  1.00  0.00     0.209 HD
ENDBRANCH  42  43
ENDBRANCH  41  42
ENDBRANCH  40  41
ENDBRANCH   3  40
BRANCH   4  45
HETATM   45  O3  UNL     1      -2.274   5.538  15.060  1.00  0.00    -0.384 OA
HETATM   46  H22 UNL     1      -2.817   5.853  15.797  1.00  0.00     0.211 HD
ENDBRANCH   4  45
BRANCH  12  47
HETATM   47  O6  UNL     1       3.851   6.987  15.796  1.00  0.00    -0.393 OA
HETATM   48  H30 UNL     1       4.555   6.786  15.153  1.00  0.00     0.210 HD
ENDBRANCH  12  47
BRANCH  11  49
HETATM   49  O5  UNL     1       3.758   9.665  16.170  1.00  0.00    -0.393 OA
HETATM   50  H28 UNL     1       4.167   8.899  16.622  1.00  0.00     0.210 HD
ENDBRANCH  11  49
TORSDOF 16
ENDMDL
MODEL 7
REMARK minimizedAffinity -8.15038967
REMARK CNNscore 0.521987319
REMARK CNNaffinity 7.11048317
REMARK  16 active torsions:
REMARK  status: ('A' for Active; 'I' for Inactive)
REMARK    1  A    between atoms: C2_2  and  C3_3 
REMARK    2  A    between atoms: C2_2  and  C29_35 
REMARK    3  A    between atoms: C3_3  and  C4_4 
REMARK    4  A    between atoms: C4_4  and  O1_5 
REMARK    5  A    between atoms: C4_4  and  C5_6 
REMARK    6  A    between atoms: C5_6  and  C7_8 
REMARK    7  A    between atoms: C9_10  and  C10_11 
REMARK    8  A    between atoms: C10_11  and  C11_12 
REMARK    9  A    between atoms: C11_12  and  C12_13 
REMARK   10  A    between atoms: C12_13  and  O2_14 
REMARK   11  A    between atoms: C13_15  and  O3_16 
REMARK   12  A    between atoms: C19_23  and  O5_24 
REMARK   13  A    between atoms: C20_25  and  O6_26 
REMARK   14  A    between atoms: C29_35  and  C32_38 
REMARK   15  A    between atoms: C32_38  and  C33_39 
REMARK   16  A    between atoms: C33_39  and  N1_40 
ROOT
HETATM    1  C7  UNL     1      -3.048   7.762  15.198  1.00  0.00     0.003 C 
HETATM    2  C8  UNL     1      -4.022   7.027  14.246  1.00  0.00     0.014 C 
HETATM    3  C9  UNL     1      -3.200   6.600  12.986  1.00  0.00     0.026 C 
HETATM    4  C13 UNL     1      -1.727   6.842  13.414  1.00  0.00     0.093 C 
HETATM    5  C14 UNL     1      -0.589   7.076  12.444  1.00  0.00    -0.036 C 
HETATM    6  C15 UNL     1      -0.766   7.308  11.134  1.00  0.00     0.057 C 
HETATM    7  C16 UNL     1       0.344   7.758  10.270  1.00  0.00     0.154 C 
HETATM    8  O4  UNL     1       0.132   7.882   9.065  1.00  0.00    -0.293 OA
HETATM    9  C17 UNL     1       1.685   8.103  10.918  1.00  0.00     0.071 C 
HETATM   10  C18 UNL     1       2.814   8.076   9.868  1.00  0.00     0.047 C 
HETATM   11  C19 UNL     1       3.300   6.667   9.516  1.00  0.00     0.147 C 
HETATM   12  C20 UNL     1       2.458   5.542  10.130  1.00  0.00     0.147 C 
HETATM   13  C21 UNL     1       2.241   5.708  11.641  1.00  0.00     0.044 C 
HETATM   14  C22 UNL     1       1.980   7.178  12.126  1.00  0.00    -0.023 C 
HETATM   15  C23 UNL     1       3.263   7.657  12.853  1.00  0.00     0.016 C 
HETATM   16  C24 UNL     1       0.771   7.190  13.136  1.00  0.00     0.027 C 
HETATM   17  C25 UNL     1       0.722   8.391  14.122  1.00  0.00     0.011 C 
HETATM   18  C26 UNL     1      -0.510   8.380  15.062  1.00  0.00     0.013 C 
HETATM   19  C27 UNL     1      -1.837   8.142  14.297  1.00  0.00    -0.004 C 
HETATM   20  C28 UNL     1      -2.117   9.419  13.458  1.00  0.00     0.019 C 
ENDROOT
BRANCH   1  21
HETATM   21  C5  UNL     1      -3.648   8.828  16.173  1.00  0.00     0.015 C 
HETATM   22  C6  UNL     1      -4.533   9.769  15.327  1.00  0.00     0.013 C 
BRANCH  21  23
HETATM   23  C4  UNL     1      -2.669   9.692  17.031  1.00  0.00     0.126 C 
BRANCH  23  24
HETATM   24  C3  UNL     1      -2.677  11.206  16.679  1.00  0.00     0.066 C 
BRANCH  24  25
HETATM   25  C2  UNL     1      -2.582  12.222  17.809  1.00  0.00    -0.079 C 
HETATM   26  C1  UNL     1      -1.369  12.422  18.364  1.00  0.00     0.015 C 
BRANCH  25  27
HETATM   27  C29 UNL     1      -3.812  13.110  18.161  1.00  0.00    -0.023 C 
HETATM   28  C30 UNL     1      -4.896  13.104  17.060  1.00  0.00     0.019 C 
HETATM   29  C31 UNL     1      -3.299  14.561  18.301  1.00  0.00     0.019 C 
BRANCH  27  30
HETATM   30  C32 UNL     1      -4.463  12.644  19.507  1.00  0.00     0.033 C 
BRANCH  30  31
HETATM   31  C33 UNL     1      -4.814  13.755  20.504  1.00  0.00     0.130 C 
BRANCH  31  32
HETATM   32  N1  UNL     1      -6.082  13.502  21.166  1.00  0.00    -0.352 N 
HETATM   33  C34 UNL     1      -7.316  13.517  20.582  1.00  0.00     0.108 A 
HETATM   34  C35 UNL     1      -8.189  13.200  21.598  1.00  0.00     0.106 A 
HETATM   35  N2  UNL     1      -7.514  12.991  22.772  1.00  0.00    -0.361 N 
HETATM   36  C36 UNL     1      -6.246  13.177  22.481  1.00  0.00     0.182 A 
ATOM     37  H2  UNL     1      -7.911  12.744  23.679  1.00  0.00     0.166 HD
ENDBRANCH  31  32
ENDBRANCH  30  31
ENDBRANCH  27  30
ENDBRANCH  25  27
ENDBRANCH  24  25
ENDBRANCH  23  24
BRANCH  23  38
HETATM   38  O1  UNL     1      -2.999   9.614  18.417  1.00  0.00    -0.395 OA
HETATM   39  H6  UNL     1      -2.280  10.034  18.920  1.00  0.00     0.210 HD
ENDBRANCH  23  38
ENDBRANCH  21  23
ENDBRANCH   1  21
BRANCH   3  40
HETATM   40  C10 UNL     1      -3.602   5.167  12.577  1.00  0.00     0.010 C 
BRANCH  40  41
HETATM   41  C11 UNL     1      -5.001   4.745  13.013  1.00  0.00     0.027 C 
BRANCH  41  42
HETATM   42  C12 UNL     1      -5.469   3.504  12.263  1.00  0.00     0.164 C 
BRANCH  42  43
HETATM   43  O2  UNL     1      -4.636   3.311  11.128  1.00  0.00    -0.401 OA
HETATM   44  H21 UNL     1      -4.939   2.500  10.687  1.00  0.00     0.209 HD
ENDBRANCH  42  43
ENDBRANCH  41  42
ENDBRANCH  40  41
ENDBRANCH   3  40
BRANCH   4  45
HETATM   45  O3  UNL     1      -1.366   5.667  14.159  1.00  0.00    -0.384 OA
HETATM   46  H22 UNL     1      -0.996   5.917  15.018  1.00  0.00     0.211 HD
ENDBRANCH   4  45
BRANCH  12  47
HETATM   47  O6  UNL     1       3.127   4.294   9.908  1.00  0.00    -0.393 OA
HETATM   48  H30 UNL     1       2.963   4.048   8.979  1.00  0.00     0.210 HD
ENDBRANCH  12  47
BRANCH  11  49
HETATM   49  O5  UNL     1       4.657   6.524   9.959  1.00  0.00    -0.393 OA
HETATM   50  H28 UNL     1       4.807   5.559  10.024  1.00  0.00     0.210 HD
ENDBRANCH  11  49
TORSDOF 16
ENDMDL
MODEL 8
REMARK minimizedAffinity -7.16863823
REMARK CNNscore 0.483384132
REMARK CNNaffinity 6.51576614
REMARK  16 active torsions:
REMARK  status: ('A' for Active; 'I' for Inactive)
REMARK    1  A    between atoms: C2_2  and  C3_3 
REMARK    2  A    between atoms: C2_2  and  C29_35 
REMARK    3  A    between atoms: C3_3  and  C4_4 
REMARK    4  A    between atoms: C4_4  and  O1_5 
REMARK    5  A    between atoms: C4_4  and  C5_6 
REMARK    6  A    between atoms: C5_6  and  C7_8 
REMARK    7  A    between atoms: C9_10  and  C10_11 
REMARK    8  A    between atoms: C10_11  and  C11_12 
REMARK    9  A    between atoms: C11_12  and  C12_13 
REMARK   10  A    between atoms: C12_13  and  O2_14 
REMARK   11  A    between atoms: C13_15  and  O3_16 
REMARK   12  A    between atoms: C19_23  and  O5_24 
REMARK   13  A    between atoms: C20_25  and  O6_26 
REMARK   14  A    between atoms: C29_35  and  C32_38 
REMARK   15  A    between atoms: C32_38  and  C33_39 
REMARK   16  A    between atoms: C33_39  and  N1_40 
ROOT
HETATM    1  C7  UNL     1      -5.526  -9.954   4.518  1.00  0.00     0.003 C 
HETATM    2  C8  UNL     1      -7.034  -9.949   4.169  1.00  0.00     0.014 C 
HETATM    3  C9  UNL     1      -7.819  -9.915   5.521  1.00  0.00     0.026 C 
HETATM    4  C13 UNL     1      -6.721  -9.593   6.571  1.00  0.00     0.093 C 
HETATM    5  C14 UNL     1      -6.825  -9.937   8.041  1.00  0.00    -0.036 C 
HETATM    6  C15 UNL     1      -7.774 -10.738   8.550  1.00  0.00     0.057 C 
HETATM    7  C16 UNL     1      -7.706 -11.233   9.940  1.00  0.00     0.154 C 
HETATM    8  O4  UNL     1      -8.644 -11.904  10.367  1.00  0.00    -0.293 OA
HETATM    9  C17 UNL     1      -6.452 -10.939  10.763  1.00  0.00     0.071 C 
HETATM   10  C18 UNL     1      -6.748 -11.092  12.269  1.00  0.00     0.047 C 
HETATM   11  C19 UNL     1      -7.480  -9.895  12.882  1.00  0.00     0.147 C 
HETATM   12  C20 UNL     1      -7.944  -8.853  11.857  1.00  0.00     0.147 C 
HETATM   13  C21 UNL     1      -6.828  -8.408  10.902  1.00  0.00     0.044 C 
HETATM   14  C22 UNL     1      -5.865  -9.547  10.415  1.00  0.00    -0.023 C 
HETATM   15  C23 UNL     1      -4.512  -9.350  11.147  1.00  0.00     0.016 C 
HETATM   16  C24 UNL     1      -5.642  -9.418   8.861  1.00  0.00     0.027 C 
HETATM   17  C25 UNL     1      -4.339 -10.059   8.305  1.00  0.00     0.011 C 
HETATM   18  C26 UNL     1      -4.191  -9.945   6.767  1.00  0.00     0.013 C 
HETATM   19  C27 UNL     1      -5.474 -10.379   6.014  1.00  0.00    -0.004 C 
HETATM   20  C28 UNL     1      -5.607 -11.917   6.184  1.00  0.00     0.019 C 
ENDROOT
BRANCH   1  21
HETATM   21  C5  UNL     1      -4.544 -10.614   3.495  1.00  0.00     0.015 C 
HETATM   22  C6  UNL     1      -3.510  -9.537   3.097  1.00  0.00     0.013 C 
BRANCH  21  23
HETATM   23  C4  UNL     1      -5.133 -11.251   2.196  1.00  0.00     0.126 C 
BRANCH  23  24
HETATM   24  C3  UNL     1      -5.429 -10.230   1.061  1.00  0.00     0.066 C 
BRANCH  24  25
HETATM   25  C2  UNL     1      -5.838 -10.756  -0.309  1.00  0.00    -0.079 C 
HETATM   26  C1  UNL     1      -4.923 -10.692  -1.297  1.00  0.00     0.015 C 
BRANCH  25  27
HETATM   27  C29 UNL     1      -7.197 -11.498  -0.482  1.00  0.00    -0.023 C 
HETATM   28  C30 UNL     1      -7.167 -12.947   0.056  1.00  0.00     0.019 C 
HETATM   29  C31 UNL     1      -7.483 -11.571  -1.999  1.00  0.00     0.019 C 
BRANCH  27  30
HETATM   30  C32 UNL     1      -8.348 -10.720   0.240  1.00  0.00     0.033 C 
BRANCH  30  31
HETATM   31  C33 UNL     1      -9.467 -10.184  -0.662  1.00  0.00     0.130 C 
BRANCH  31  32
HETATM   32  N1  UNL     1      -9.378  -8.745  -0.829  1.00  0.00    -0.352 N 
HETATM   33  C34 UNL     1      -8.572  -8.081  -1.708  1.00  0.00     0.108 A 
HETATM   34  C35 UNL     1      -8.858  -6.749  -1.510  1.00  0.00     0.106 A 
HETATM   35  N2  UNL     1      -9.815  -6.596  -0.542  1.00  0.00    -0.361 N 
HETATM   36  C36 UNL     1     -10.112  -7.815  -0.151  1.00  0.00     0.182 A 
ATOM     37  H2  UNL     1     -10.212  -5.721  -0.197  1.00  0.00     0.166 HD
ENDBRANCH  31  32
ENDBRANCH  30  31
ENDBRANCH  27  30
ENDBRANCH  25  27
ENDBRANCH  24  25
ENDBRANCH  23  24
BRANCH  23  38
HETATM   38  O1  UNL     1      -4.229 -12.202   1.637  1.00  0.00    -0.395 OA
HETATM   39  H6  UNL     1      -4.697 -12.680   0.930  1.00  0.00     0.210 HD
ENDBRANCH  23  38
ENDBRANCH  21  23
ENDBRANCH   1  21
BRANCH   3  40
HETATM   40  C10 UNL     1      -9.003  -8.934   5.398  1.00  0.00     0.010 C 
BRANCH  40  41
HETATM   41  C11 UNL     1     -10.276  -9.373   6.115  1.00  0.00     0.027 C 
BRANCH  41  42
HETATM   42  C12 UNL     1     -11.105  -8.177   6.564  1.00  0.00     0.164 C 
BRANCH  42  43
HETATM   43  O2  UNL     1     -10.493  -7.596   7.707  1.00  0.00    -0.401 OA
HETATM   44  H21 UNL     1     -11.026  -6.821   7.954  1.00  0.00     0.209 HD
ENDBRANCH  42  43
ENDBRANCH  41  42
ENDBRANCH  40  41
ENDBRANCH   3  40
BRANCH   4  45
HETATM   45  O3  UNL     1      -6.573  -8.164   6.517  1.00  0.00    -0.384 OA
HETATM   46  H22 UNL     1      -5.641  -7.929   6.398  1.00  0.00     0.211 HD
ENDBRANCH   4  45
BRANCH  12  47
HETATM   47  O6  UNL     1      -8.419  -7.697  12.560  1.00  0.00    -0.393 OA
HETATM   48  H30 UNL     1      -9.309  -7.916  12.892  1.00  0.00     0.210 HD
ENDBRANCH  12  47
BRANCH  11  49
HETATM   49  O5  UNL     1      -6.610  -9.257  13.828  1.00  0.00    -0.393 OA
HETATM   50  H28 UNL     1      -6.964  -8.352  13.935  1.00  0.00     0.210 HD
ENDBRANCH  11  49
TORSDOF 16
ENDMDL
MODEL 9
REMARK minimizedAffinity -9.37024021
REMARK CNNscore 0.438605189
REMARK CNNaffinity 7.48216629
REMARK  16 active torsions:
REMARK  status: ('A' for Active; 'I' for Inactive)
REMARK    1  A    between atoms: C2_2  and  C3_3 
REMARK    2  A    between atoms: C2_2  and  C29_35 
REMARK    3  A    between atoms: C3_3  and  C4_4 
REMARK    4  A    between atoms: C4_4  and  O1_5 
REMARK    5  A    between atoms: C4_4  and  C5_6 
REMARK    6  A    between atoms: C5_6  and  C7_8 
REMARK    7  A    between atoms: C9_10  and  C10_11 
REMARK    8  A    between atoms: C10_11  and  C11_12 
REMARK    9  A    between atoms: C11_12  and  C12_13 
REMARK   10  A    between atoms: C12_13  and  O2_14 
REMARK   11  A    between atoms: C13_15  and  O3_16 
REMARK   12  A    between atoms: C19_23  and  O5_24 
REMARK   13  A    between atoms: C20_25  and  O6_26 
REMARK   14  A    between atoms: C29_35  and  C32_38 
REMARK   15  A    between atoms: C32_38  and  C33_39 
REMARK   16  A    between atoms: C33_39  and  N1_40 
ROOT
HETATM    1  C7  UNL     1      -1.788   6.900  13.597  1.00  0.00     0.003 C 
HETATM    2  C8  UNL     1      -2.012   5.706  12.637  1.00  0.00     0.014 C 
HETATM    3  C9  UNL     1      -0.685   5.507  11.834  1.00  0.00     0.026 C 
HETATM    4  C13 UNL     1       0.336   6.399  12.590  1.00  0.00     0.093 C 
HETATM    5  C14 UNL     1       1.595   6.963  11.968  1.00  0.00    -0.036 C 
HETATM    6  C15 UNL     1       1.852   6.927  10.651  1.00  0.00     0.057 C 
HETATM    7  C16 UNL     1       2.973   7.686  10.059  1.00  0.00     0.154 C 
HETATM    8  O4  UNL     1       3.198   7.553   8.857  1.00  0.00    -0.293 OA
HETATM    9  C17 UNL     1       3.761   8.645  10.951  1.00  0.00     0.071 C 
HETATM   10  C18 UNL     1       5.134   8.960  10.322  1.00  0.00     0.047 C 
HETATM   11  C19 UNL     1       6.175   7.855  10.519  1.00  0.00     0.147 C 
HETATM   12  C20 UNL     1       5.614   6.570  11.142  1.00  0.00     0.147 C 
HETATM   13  C21 UNL     1       4.804   6.823  12.421  1.00  0.00     0.044 C 
HETATM   14  C22 UNL     1       3.885   8.096  12.395  1.00  0.00    -0.023 C 
HETATM   15  C23 UNL     1       4.548   9.161  13.306  1.00  0.00     0.016 C 
HETATM   16  C24 UNL     1       2.465   7.729  12.968  1.00  0.00     0.027 C 
HETATM   17  C25 UNL     1       1.633   8.913  13.536  1.00  0.00     0.011 C 
HETATM   18  C26 UNL     1       0.227   8.506  14.043  1.00  0.00     0.013 C 
HETATM   19  C27 UNL     1      -0.543   7.634  13.019  1.00  0.00    -0.004 C 
HETATM   20  C28 UNL     1      -0.915   8.554  11.823  1.00  0.00     0.019 C 
ENDROOT
BRANCH   1  21
HETATM   21  C5  UNL     1      -3.040   7.730  14.030  1.00  0.00     0.015 C 
HETATM   22  C6  UNL     1      -2.661   9.223  13.907  1.00  0.00     0.013 C 
BRANCH  21  23
HETATM   23  C4  UNL     1      -3.650   7.480  15.446  1.00  0.00     0.126 C 
BRANCH  23  24
HETATM   24  C3  UNL     1      -4.705   6.339  15.496  1.00  0.00     0.066 C 
BRANCH  24  25
HETATM   25  C2  UNL     1      -6.067   6.572  14.857  1.00  0.00    -0.079 C 
HETATM   26  C1  UNL     1      -6.627   7.788  15.013  1.00  0.00     0.015 C 
BRANCH  25  27
HETATM   27  C29 UNL     1      -6.677   5.492  13.914  1.00  0.00    -0.023 C 
HETATM   28  C30 UNL     1      -7.358   4.335  14.680  1.00  0.00     0.019 C 
HETATM   29  C31 UNL     1      -5.510   4.888  13.101  1.00  0.00     0.019 C 
BRANCH  27  30
HETATM   30  C32 UNL     1      -7.725   6.134  12.943  1.00  0.00     0.033 C 
BRANCH  30  31
HETATM   31  C33 UNL     1      -9.170   5.645  13.096  1.00  0.00     0.130 C 
BRANCH  31  32
HETATM   32  N1  UNL     1     -10.082   6.742  13.368  1.00  0.00    -0.352 N 
HETATM   33  C34 UNL     1     -10.957   7.305  12.484  1.00  0.00     0.108 A 
HETATM   34  C35 UNL     1     -11.608   8.279  13.206  1.00  0.00     0.106 A 
HETATM   35  N2  UNL     1     -11.151   8.314  14.498  1.00  0.00    -0.361 N 
HETATM   36  C36 UNL     1     -10.235   7.375  14.567  1.00  0.00     0.182 A 
ATOM     37  H2  UNL     1     -11.458   8.937  15.246  1.00  0.00     0.166 HD
ENDBRANCH  31  32
ENDBRANCH  30  31
ENDBRANCH  27  30
ENDBRANCH  25  27
ENDBRANCH  24  25
ENDBRANCH  23  24
BRANCH  23  38
HETATM   38  O1  UNL     1      -2.637   7.113  16.382  1.00  0.00    -0.395 OA
HETATM   39  H6  UNL     1      -3.033   7.121  17.271  1.00  0.00     0.210 HD
ENDBRANCH  23  38
ENDBRANCH  21  23
ENDBRANCH   1  21
BRANCH   3  40
HETATM   40  C10 UNL     1      -0.376   3.998  11.727  1.00  0.00     0.010 C 
BRANCH  40  41
HETATM   41  C11 UNL     1      -1.604   3.098  11.634  1.00  0.00     0.027 C 
BRANCH  41  42
HETATM   42  C12 UNL     1      -1.265   1.754  11.001  1.00  0.00     0.164 C 
BRANCH  42  43
HETATM   43  O2  UNL     1       0.140   1.681  10.804  1.00  0.00    -0.401 OA
HETATM   44  H21 UNL     1       0.330   0.805  10.427  1.00  0.00     0.209 HD
ENDBRANCH  42  43
ENDBRANCH  41  42
ENDBRANCH  40  41
ENDBRANCH   3  40
BRANCH   4  45
HETATM   45  O3  UNL     1       0.777   5.594  13.695  1.00  0.00    -0.384 OA
HETATM   46  H22 UNL     1       0.686   6.086  14.524  1.00  0.00     0.211 HD
ENDBRANCH   4  45
BRANCH  12  47
HETATM   47  O6  UNL     1       6.708   5.703  11.468  1.00  0.00    -0.393 OA
HETATM   48  H30 UNL     1       7.001   5.293  10.633  1.00  0.00     0.210 HD
ENDBRANCH  12  47
BRANCH  11  49
HETATM   49  O5  UNL     1       7.224   8.356  11.360  1.00  0.00    -0.393 OA
HETATM   50  H28 UNL     1       7.666   7.562  11.722  1.00  0.00     0.210 HD
ENDBRANCH  11  49
TORSDOF 16
ENDMDL
