MODEL 1
REMARK minimizedAffinity -10.1170483
REMARK  9 active torsions:
REMARK  status: ('A' for Active; 'I' for Inactive)
REMARK    1  A    between atoms: C3_3  and  O1_4 
REMARK    2  A    between atoms: N1_14  and  O2_16 
REMARK    3  A    between atoms: O2_16  and  C13_17 
REMARK    4  A    between atoms: C13_17  and  C14_18 
REMARK       I    between atoms: C14_18  and  N2_20 
REMARK    5  A    between atoms: N2_20  and  C15_21 
REMARK    6  A    between atoms: C15_21  and  C16_22 
REMARK    7  A    between atoms: C15_21  and  C17_25 
REMARK    8  A    between atoms: C16_22  and  O5_24 
REMARK    9  A    between atoms: C17_25  and  C19_27 
ROOT
HETATM    1  C1  UNL     1      -2.361  50.868 -27.545  1.00  0.00     0.015 C 
HETATM    2  C2  UNL     1      -1.569  51.179 -26.697  1.00  0.00    -0.078 C 
HETATM    3  C3  UNL     1      -0.589  51.554 -25.667  1.00  0.00     0.128 C 
HETATM    4  C4  UNL     1      -0.005  52.971 -25.896  1.00  0.00     0.052 C 
HETATM    5  C5  UNL     1       0.259  53.564 -24.496  1.00  0.00     0.010 C 
HETATM    6  C6  UNL     1      -0.012  52.411 -23.532  1.00  0.00     0.002 C 
HETATM    7  C7  UNL     1      -0.296  52.733 -22.061  1.00  0.00    -0.004 C 
HETATM    8  C8  UNL     1       0.855  53.529 -21.431  1.00  0.00     0.010 C 
HETATM    9  C9  UNL     1       0.581  53.822 -19.961  1.00  0.00     0.035 C 
HETATM   10  C10 UNL     1       0.298  52.564 -19.173  1.00  0.00    -0.069 C 
HETATM   11  C11 UNL     1       0.956  52.344 -18.021  1.00  0.00     0.030 C 
HETATM   12  C12 UNL     1       0.631  51.199 -17.135  1.00  0.00     0.032 C 
HETATM   13  N1  UNL     1       1.337  51.051 -16.049  1.00  0.00    -0.271 N 
ATOM     14  H1  UNL     1       2.125  51.646 -15.794  1.00  0.00     0.194 HD
HETATM   15  C21 UNL     1      -0.544  50.325 -17.518  1.00  0.00     0.060 C 
HETATM   16  C22 UNL     1      -0.678  50.236 -19.031  1.00  0.00     0.020 C 
HETATM   17  C23 UNL     1      -0.767  51.618 -19.742  1.00  0.00    -0.016 C 
HETATM   18  C24 UNL     1      -2.156  52.236 -19.470  1.00  0.00     0.020 C 
HETATM   19  C25 UNL     1      -0.509  51.397 -21.283  1.00  0.00     0.002 C 
HETATM   20  C26 UNL     1      -1.561  50.489 -21.975  1.00  0.00     0.007 C 
HETATM   21  C27 UNL     1      -1.302  50.288 -23.479  1.00  0.00     0.014 C 
HETATM   22  C28 UNL     1      -1.156  51.627 -24.220  1.00  0.00     0.003 C 
HETATM   23  C29 UNL     1      -2.515  52.384 -24.196  1.00  0.00     0.020 C 
ENDROOT
BRANCH   3  24
HETATM   24  O1  UNL     1       0.493  50.622 -25.724  1.00  0.00    -0.377 OA
HETATM   25  H2  UNL     1       0.776  50.572 -26.653  1.00  0.00     0.211 HD
ENDBRANCH   3  24
BRANCH  13  26
HETATM   26  O2  UNL     1       0.882  49.975 -15.277  1.00  0.00    -0.271 OA
BRANCH  26  27
HETATM   27  C13 UNL     1       0.920  50.347 -13.902  1.00  0.00     0.303 C 
BRANCH  27  28
HETATM   28  C14 UNL     1      -0.069  51.474 -13.628  1.00  0.00     0.244 C 
HETATM   29  O3  UNL     1       0.174  52.646 -13.904  1.00  0.00    -0.271 OA
HETATM   30  N2  UNL     1      -1.268  51.070 -13.089  1.00  0.00    -0.344 N 
HETATM   31  H16 UNL     1      -1.392  50.081 -12.879  1.00  0.00     0.163 HD
BRANCH  30  32
HETATM   32  C15 UNL     1      -2.337  51.999 -12.727  1.00  0.00     0.186 C 
BRANCH  32  33
HETATM   33  C16 UNL     1      -3.260  52.143 -13.938  1.00  0.00     0.163 C 
HETATM   34  O4  UNL     1      -3.381  51.338 -14.852  1.00  0.00    -0.648 OA
BRANCH  33  35
HETATM   35  O5  UNL     1      -3.981  53.281 -13.936  1.00  0.00    -0.775 OA
HETATM   36  H18 UNL     1      -4.505  53.236 -14.763  1.00  0.00     0.167 HD
ENDBRANCH  33  35
ENDBRANCH  32  33
BRANCH  32  37
HETATM   37  C17 UNL     1      -3.074  51.569 -11.435  1.00  0.00     0.014 C 
HETATM   38  C18 UNL     1      -2.068  51.317 -10.302  1.00  0.00     0.012 C 
BRANCH  37  39
HETATM   39  C19 UNL     1      -4.167  52.537 -10.930  1.00  0.00     0.002 C 
HETATM   40  C20 UNL     1      -3.661  53.907 -10.509  1.00  0.00     0.005 C 
ENDBRANCH  37  39
ENDBRANCH  32  37
ENDBRANCH  30  32
ENDBRANCH  27  28
ENDBRANCH  26  27
ENDBRANCH  13  26
TORSDOF 9
ENDMDL
MODEL 2
REMARK minimizedAffinity -9.54356289
REMARK  9 active torsions:
REMARK  status: ('A' for Active; 'I' for Inactive)
REMARK    1  A    between atoms: C3_3  and  O1_4 
REMARK    2  A    between atoms: N1_14  and  O2_16 
REMARK    3  A    between atoms: O2_16  and  C13_17 
REMARK    4  A    between atoms: C13_17  and  C14_18 
REMARK       I    between atoms: C14_18  and  N2_20 
REMARK    5  A    between atoms: N2_20  and  C15_21 
REMARK    6  A    between atoms: C15_21  and  C16_22 
REMARK    7  A    between atoms: C15_21  and  C17_25 
REMARK    8  A    between atoms: C16_22  and  O5_24 
REMARK    9  A    between atoms: C17_25  and  C19_27 
ROOT
HETATM    1  C1  UNL     1      -0.060  53.362 -28.400  1.00  0.00     0.015 C 
HETATM    2  C2  UNL     1      -0.816  52.799 -27.655  1.00  0.00    -0.078 C 
HETATM    3  C3  UNL     1      -1.751  52.117 -26.749  1.00  0.00     0.128 C 
HETATM    4  C4  UNL     1      -2.253  50.768 -27.324  1.00  0.00     0.052 C 
HETATM    5  C5  UNL     1      -2.455  49.829 -26.117  1.00  0.00     0.010 C 
HETATM    6  C6  UNL     1      -2.235  50.718 -24.896  1.00  0.00     0.002 C 
HETATM    7  C7  UNL     1      -1.905  50.057 -23.553  1.00  0.00    -0.004 C 
HETATM    8  C8  UNL     1      -2.993  49.057 -23.140  1.00  0.00     0.010 C 
HETATM    9  C9  UNL     1      -2.675  48.424 -21.791  1.00  0.00     0.035 C 
HETATM   10  C10 UNL     1      -2.453  49.459 -20.714  1.00  0.00    -0.069 C 
HETATM   11  C11 UNL     1      -3.101  49.342 -19.541  1.00  0.00     0.030 C 
HETATM   12  C12 UNL     1      -2.829  50.247 -18.397  1.00  0.00     0.032 C 
HETATM   13  N1  UNL     1      -3.522  50.073 -17.307  1.00  0.00    -0.271 N 
ATOM     14  H1  UNL     1      -4.268  49.385 -17.206  1.00  0.00     0.194 HD
HETATM   15  C21 UNL     1      -1.716  51.262 -18.552  1.00  0.00     0.060 C 
HETATM   16  C22 UNL     1      -1.616  51.734 -19.995  1.00  0.00     0.020 C 
HETATM   17  C23 UNL     1      -1.458  50.583 -21.031  1.00  0.00    -0.016 C 
HETATM   18  C24 UNL     1      -0.029  50.006 -20.926  1.00  0.00     0.020 C 
HETATM   19  C25 UNL     1      -1.758  51.166 -22.465  1.00  0.00     0.002 C 
HETATM   20  C26 UNL     1      -0.776  52.284 -22.911  1.00  0.00     0.007 C 
HETATM   21  C27 UNL     1      -1.074  52.837 -24.315  1.00  0.00     0.014 C 
HETATM   22  C28 UNL     1      -1.154  51.720 -25.369  1.00  0.00     0.003 C 
HETATM   23  C29 UNL     1       0.248  51.068 -25.539  1.00  0.00     0.020 C 
ENDROOT
BRANCH   3  24
HETATM   24  O1  UNL     1      -2.888  52.964 -26.567  1.00  0.00    -0.377 OA
HETATM   25  H2  UNL     1      -3.191  53.227 -27.453  1.00  0.00     0.211 HD
ENDBRANCH   3  24
BRANCH  13  26
HETATM   26  O2  UNL     1      -3.118  50.948 -16.291  1.00  0.00    -0.271 OA
BRANCH  26  27
HETATM   27  C13 UNL     1      -2.600  50.185 -15.206  1.00  0.00     0.303 C 
BRANCH  27  28
HETATM   28  C14 UNL     1      -2.164  51.103 -14.069  1.00  0.00     0.244 C 
HETATM   29  O3  UNL     1      -1.041  51.597 -14.013  1.00  0.00    -0.271 OA
HETATM   30  N2  UNL     1      -3.141  51.369 -13.138  1.00  0.00    -0.344 N 
HETATM   31  H16 UNL     1      -4.046  50.914 -13.247  1.00  0.00     0.163 HD
BRANCH  30  32
HETATM   32  C15 UNL     1      -2.916  52.202 -11.958  1.00  0.00     0.186 C 
BRANCH  32  33
HETATM   33  C16 UNL     1      -3.904  53.367 -12.015  1.00  0.00     0.163 C 
HETATM   34  O4  UNL     1      -4.352  53.981 -11.056  1.00  0.00    -0.648 OA
BRANCH  33  35
HETATM   35  O5  UNL     1      -4.274  53.701 -13.267  1.00  0.00    -0.775 OA
HETATM   36  H18 UNL     1      -4.905  54.441 -13.144  1.00  0.00     0.167 HD
ENDBRANCH  33  35
ENDBRANCH  32  33
BRANCH  32  37
HETATM   37  C17 UNL     1      -2.996  51.388 -10.643  1.00  0.00     0.014 C 
HETATM   38  C18 UNL     1      -2.304  52.145  -9.501  1.00  0.00     0.012 C 
BRANCH  37  39
HETATM   39  C19 UNL     1      -4.415  50.981 -10.188  1.00  0.00     0.002 C 
HETATM   40  C20 UNL     1      -4.919  49.668 -10.766  1.00  0.00     0.005 C 
ENDBRANCH  37  39
ENDBRANCH  32  37
ENDBRANCH  30  32
ENDBRANCH  27  28
ENDBRANCH  26  27
ENDBRANCH  13  26
TORSDOF 9
ENDMDL
MODEL 3
REMARK minimizedAffinity -9.28135109
REMARK  9 active torsions:
REMARK  status: ('A' for Active; 'I' for Inactive)
REMARK    1  A    between atoms: C3_3  and  O1_4 
REMARK    2  A    between atoms: N1_14  and  O2_16 
REMARK    3  A    between atoms: O2_16  and  C13_17 
REMARK    4  A    between atoms: C13_17  and  C14_18 
REMARK       I    between atoms: C14_18  and  N2_20 
REMARK    5  A    between atoms: N2_20  and  C15_21 
REMARK    6  A    between atoms: C15_21  and  C16_22 
REMARK    7  A    between atoms: C15_21  and  C17_25 
REMARK    8  A    between atoms: C16_22  and  O5_24 
REMARK    9  A    between atoms: C17_25  and  C19_27 
ROOT
HETATM    1  C1  UNL     1      -2.182  51.044 -27.637  1.00  0.00     0.015 C 
HETATM    2  C2  UNL     1      -1.406  51.327 -26.765  1.00  0.00    -0.078 C 
HETATM    3  C3  UNL     1      -0.446  51.668 -25.705  1.00  0.00     0.128 C 
HETATM    4  C4  UNL     1       0.157  53.084 -25.887  1.00  0.00     0.052 C 
HETATM    5  C5  UNL     1       0.396  53.640 -24.468  1.00  0.00     0.010 C 
HETATM    6  C6  UNL     1       0.092  52.468 -23.538  1.00  0.00     0.002 C 
HETATM    7  C7  UNL     1      -0.221  52.758 -22.066  1.00  0.00    -0.004 C 
HETATM    8  C8  UNL     1       0.923  53.527 -21.392  1.00  0.00     0.010 C 
HETATM    9  C9  UNL     1       0.620  53.787 -19.922  1.00  0.00     0.035 C 
HETATM   10  C10 UNL     1       0.307  52.515 -19.171  1.00  0.00    -0.069 C 
HETATM   11  C11 UNL     1       0.937  52.260 -18.010  1.00  0.00     0.030 C 
HETATM   12  C12 UNL     1       0.582  51.098 -17.159  1.00  0.00     0.032 C 
HETATM   13  N1  UNL     1       1.262  50.917 -16.063  1.00  0.00    -0.271 N 
ATOM     14  H1  UNL     1       2.050  51.498 -15.776  1.00  0.00     0.194 HD
HETATM   15  C21 UNL     1      -0.593  50.245 -17.589  1.00  0.00     0.060 C 
HETATM   16  C22 UNL     1      -0.695  50.194 -19.106  1.00  0.00     0.020 C 
HETATM   17  C23 UNL     1      -0.754  51.593 -19.786  1.00  0.00    -0.016 C 
HETATM   18  C24 UNL     1      -2.143  52.218 -19.529  1.00  0.00     0.020 C 
HETATM   19  C25 UNL     1      -0.464  51.406 -21.325  1.00  0.00     0.002 C 
HETATM   20  C26 UNL     1      -1.510  50.525 -22.062  1.00  0.00     0.007 C 
HETATM   21  C27 UNL     1      -1.220  50.358 -23.564  1.00  0.00     0.014 C 
HETATM   22  C28 UNL     1      -1.044  51.713 -24.270  1.00  0.00     0.003 C 
HETATM   23  C29 UNL     1      -2.395  52.482 -24.257  1.00  0.00     0.020 C 
ENDROOT
BRANCH   3  24
HETATM   24  O1  UNL     1       0.628  50.726 -25.761  1.00  0.00    -0.377 OA
HETATM   25  H2  UNL     1       0.931  50.695 -26.685  1.00  0.00     0.211 HD
ENDBRANCH   3  24
BRANCH  13  26
HETATM   26  O2  UNL     1       0.780  49.828 -15.326  1.00  0.00    -0.271 OA
BRANCH  26  27
HETATM   27  C13 UNL     1      -0.267  50.278 -14.471  1.00  0.00     0.303 C 
BRANCH  27  28
HETATM   28  C14 UNL     1       0.179  51.506 -13.685  1.00  0.00     0.244 C 
HETATM   29  O3  UNL     1       0.280  52.617 -14.199  1.00  0.00    -0.271 OA
HETATM   30  N2  UNL     1       0.414  51.281 -12.349  1.00  0.00    -0.344 N 
HETATM   31  H16 UNL     1       0.318  50.330 -11.997  1.00  0.00     0.163 HD
BRANCH  30  32
HETATM   32  C15 UNL     1       0.875  52.321 -11.431  1.00  0.00     0.186 C 
BRANCH  32  33
HETATM   33  C16 UNL     1       2.331  52.637 -11.779  1.00  0.00     0.163 C 
HETATM   34  O4  UNL     1       3.081  51.936 -12.444  1.00  0.00    -0.648 OA
BRANCH  33  35
HETATM   35  O5  UNL     1       2.763  53.810 -11.278  1.00  0.00    -0.775 OA
HETATM   36  H18 UNL     1       3.698  53.867 -11.568  1.00  0.00     0.167 HD
ENDBRANCH  33  35
ENDBRANCH  32  33
BRANCH  32  37
HETATM   37  C17 UNL     1      -0.047  53.564 -11.444  1.00  0.00     0.014 C 
HETATM   38  C18 UNL     1      -1.509  53.150 -11.223  1.00  0.00     0.012 C 
BRANCH  37  39
HETATM   39  C19 UNL     1       0.316  54.681 -10.439  1.00  0.00     0.002 C 
HETATM   40  C20 UNL     1      -0.864  55.255  -9.670  1.00  0.00     0.005 C 
ENDBRANCH  37  39
ENDBRANCH  32  37
ENDBRANCH  30  32
ENDBRANCH  27  28
ENDBRANCH  26  27
ENDBRANCH  13  26
TORSDOF 9
ENDMDL
MODEL 4
REMARK minimizedAffinity -9.22031307
REMARK  9 active torsions:
REMARK  status: ('A' for Active; 'I' for Inactive)
REMARK    1  A    between atoms: C3_3  and  O1_4 
REMARK    2  A    between atoms: N1_14  and  O2_16 
REMARK    3  A    between atoms: O2_16  and  C13_17 
REMARK    4  A    between atoms: C13_17  and  C14_18 
REMARK       I    between atoms: C14_18  and  N2_20 
REMARK    5  A    between atoms: N2_20  and  C15_21 
REMARK    6  A    between atoms: C15_21  and  C16_22 
REMARK    7  A    between atoms: C15_21  and  C17_25 
REMARK    8  A    between atoms: C16_22  and  O5_24 
REMARK    9  A    between atoms: C17_25  and  C19_27 
ROOT
HETATM    1  C1  UNL     1       0.061  53.321 -28.489  1.00  0.00     0.015 C 
HETATM    2  C2  UNL     1      -0.672  52.775 -27.708  1.00  0.00    -0.078 C 
HETATM    3  C3  UNL     1      -1.579  52.113 -26.760  1.00  0.00     0.128 C 
HETATM    4  C4  UNL     1      -2.076  50.739 -27.278  1.00  0.00     0.052 C 
HETATM    5  C5  UNL     1      -2.240  49.840 -26.035  1.00  0.00     0.010 C 
HETATM    6  C6  UNL     1      -2.006  50.773 -24.850  1.00  0.00     0.002 C 
HETATM    7  C7  UNL     1      -1.639  50.163 -23.492  1.00  0.00    -0.004 C 
HETATM    8  C8  UNL     1      -2.706  49.165 -23.022  1.00  0.00     0.010 C 
HETATM    9  C9  UNL     1      -2.351  48.583 -21.659  1.00  0.00     0.035 C 
HETATM   10  C10 UNL     1      -2.120  49.658 -20.623  1.00  0.00    -0.069 C 
HETATM   11  C11 UNL     1      -2.742  49.574 -19.434  1.00  0.00     0.030 C 
HETATM   12  C12 UNL     1      -2.458  50.521 -18.327  1.00  0.00     0.032 C 
HETATM   13  N1  UNL     1      -3.126  50.376 -17.218  1.00  0.00    -0.271 N 
ATOM     14  H1  UNL     1      -3.860  49.683 -17.077  1.00  0.00     0.194 HD
HETATM   15  C21 UNL     1      -1.361  51.543 -18.541  1.00  0.00     0.060 C 
HETATM   16  C22 UNL     1      -1.298  51.966 -20.001  1.00  0.00     0.020 C 
HETATM   17  C23 UNL     1      -1.147  50.782 -21.000  1.00  0.00    -0.016 C 
HETATM   18  C24 UNL     1       0.292  50.226 -20.906  1.00  0.00     0.020 C 
HETATM   19  C25 UNL     1      -1.484  51.311 -22.447  1.00  0.00     0.002 C 
HETATM   20  C26 UNL     1      -0.526  52.424 -22.951  1.00  0.00     0.007 C 
HETATM   21  C27 UNL     1      -0.861  52.925 -24.367  1.00  0.00     0.014 C 
HETATM   22  C28 UNL     1      -0.948  51.771 -25.380  1.00  0.00     0.003 C 
HETATM   23  C29 UNL     1       0.458  51.131 -25.558  1.00  0.00     0.020 C 
ENDROOT
BRANCH   3  24
HETATM   24  O1  UNL     1      -2.723  52.952 -26.582  1.00  0.00    -0.377 OA
HETATM   25  H2  UNL     1      -3.048  53.180 -27.470  1.00  0.00     0.211 HD
ENDBRANCH   3  24
BRANCH  13  26
HETATM   26  O2  UNL     1      -2.711  51.291 -16.241  1.00  0.00    -0.271 OA
BRANCH  26  27
HETATM   27  C13 UNL     1      -2.999  50.752 -14.954  1.00  0.00     0.303 C 
BRANCH  27  28
HETATM   28  C14 UNL     1      -3.241  51.872 -13.949  1.00  0.00     0.244 C 
HETATM   29  O3  UNL     1      -3.967  52.832 -14.193  1.00  0.00    -0.271 OA
HETATM   30  N2  UNL     1      -2.619  51.699 -12.734  1.00  0.00    -0.344 N 
HETATM   31  H16 UNL     1      -2.025  50.881 -12.610  1.00  0.00     0.163 HD
BRANCH  30  32
HETATM   32  C15 UNL     1      -2.702  52.673 -11.647  1.00  0.00     0.186 C 
BRANCH  32  33
HETATM   33  C16 UNL     1      -4.000  52.408 -10.882  1.00  0.00     0.163 C 
HETATM   34  O4  UNL     1      -4.415  51.315 -10.523  1.00  0.00    -0.648 OA
BRANCH  33  35
HETATM   35  O5  UNL     1      -4.702  53.524 -10.607  1.00  0.00    -0.775 OA
HETATM   36  H18 UNL     1      -5.497  53.200 -10.135  1.00  0.00     0.167 HD
ENDBRANCH  33  35
ENDBRANCH  32  33
BRANCH  32  37
HETATM   37  C17 UNL     1      -1.441  52.656 -10.749  1.00  0.00     0.014 C 
HETATM   38  C18 UNL     1      -0.954  51.216 -10.535  1.00  0.00     0.012 C 
BRANCH  37  39
HETATM   39  C19 UNL     1      -0.257  53.520 -11.236  1.00  0.00     0.002 C 
HETATM   40  C20 UNL     1      -0.060  54.821 -10.474  1.00  0.00     0.005 C 
ENDBRANCH  37  39
ENDBRANCH  32  37
ENDBRANCH  30  32
ENDBRANCH  27  28
ENDBRANCH  26  27
ENDBRANCH  13  26
TORSDOF 9
ENDMDL
MODEL 5
REMARK minimizedAffinity -9.10417652
REMARK  9 active torsions:
REMARK  status: ('A' for Active; 'I' for Inactive)
REMARK    1  A    between atoms: C3_3  and  O1_4 
REMARK    2  A    between atoms: N1_14  and  O2_16 
REMARK    3  A    between atoms: O2_16  and  C13_17 
REMARK    4  A    between atoms: C13_17  and  C14_18 
REMARK       I    between atoms: C14_18  and  N2_20 
REMARK    5  A    between atoms: N2_20  and  C15_21 
REMARK    6  A    between atoms: C15_21  and  C16_22 
REMARK    7  A    between atoms: C15_21  and  C17_25 
REMARK    8  A    between atoms: C16_22  and  O5_24 
REMARK    9  A    between atoms: C17_25  and  C19_27 
ROOT
HETATM    1  C1  UNL     1       0.148  53.348 -28.488  1.00  0.00     0.015 C 
HETATM    2  C2  UNL     1      -0.620  52.800 -27.744  1.00  0.00    -0.078 C 
HETATM    3  C3  UNL     1      -1.571  52.137 -26.840  1.00  0.00     0.128 C 
HETATM    4  C4  UNL     1      -2.083  50.788 -27.408  1.00  0.00     0.052 C 
HETATM    5  C5  UNL     1      -2.306  49.863 -26.194  1.00  0.00     0.010 C 
HETATM    6  C6  UNL     1      -2.087  50.761 -24.979  1.00  0.00     0.002 C 
HETATM    7  C7  UNL     1      -1.776  50.108 -23.627  1.00  0.00    -0.004 C 
HETATM    8  C8  UNL     1      -2.879  49.125 -23.214  1.00  0.00     0.010 C 
HETATM    9  C9  UNL     1      -2.579  48.501 -21.857  1.00  0.00     0.035 C 
HETATM   10  C10 UNL     1      -2.355  49.544 -20.787  1.00  0.00    -0.069 C 
HETATM   11  C11 UNL     1      -3.015  49.445 -19.619  1.00  0.00     0.030 C 
HETATM   12  C12 UNL     1      -2.743  50.357 -18.481  1.00  0.00     0.032 C 
HETATM   13  N1  UNL     1      -3.448  50.201 -17.396  1.00  0.00    -0.271 N 
ATOM     14  H1  UNL     1      -4.202  49.522 -17.296  1.00  0.00     0.194 HD
HETATM   15  C21 UNL     1      -1.618  51.358 -18.636  1.00  0.00     0.060 C 
HETATM   16  C22 UNL     1      -1.500  51.816 -20.082  1.00  0.00     0.020 C 
HETATM   17  C23 UNL     1      -1.346  50.653 -21.105  1.00  0.00    -0.016 C 
HETATM   18  C24 UNL     1       0.076  50.061 -20.983  1.00  0.00     0.020 C 
HETATM   19  C25 UNL     1      -1.626  51.226 -22.548  1.00  0.00     0.002 C 
HETATM   20  C26 UNL     1      -0.628  52.328 -22.995  1.00  0.00     0.007 C 
HETATM   21  C27 UNL     1      -0.908  52.872 -24.407  1.00  0.00     0.014 C 
HETATM   22  C28 UNL     1      -0.991  51.746 -25.451  1.00  0.00     0.003 C 
HETATM   23  C29 UNL     1       0.406  51.078 -25.603  1.00  0.00     0.020 C 
ENDROOT
BRANCH   3  24
HETATM   24  O1  UNL     1      -2.700  52.998 -26.676  1.00  0.00    -0.377 OA
HETATM   25  H2  UNL     1      -2.993  53.256 -27.567  1.00  0.00     0.211 HD
ENDBRANCH   3  24
BRANCH  13  26
HETATM   26  O2  UNL     1      -3.043  51.081 -16.384  1.00  0.00    -0.271 OA
BRANCH  26  27
HETATM   27  C13 UNL     1      -2.565  50.322 -15.278  1.00  0.00     0.303 C 
BRANCH  27  28
HETATM   28  C14 UNL     1      -1.180  50.802 -14.860  1.00  0.00     0.244 C 
HETATM   29  O3  UNL     1      -1.007  51.587 -13.931  1.00  0.00    -0.271 OA
HETATM   30  N2  UNL     1      -0.141  50.253 -15.573  1.00  0.00    -0.344 N 
HETATM   31  H16 UNL     1      -0.365  49.616 -16.336  1.00  0.00     0.163 HD
BRANCH  30  32
HETATM   32  C15 UNL     1       1.260  50.604 -15.346  1.00  0.00     0.186 C 
BRANCH  32  33
HETATM   33  C16 UNL     1       1.481  52.015 -15.894  1.00  0.00     0.163 C 
HETATM   34  O4  UNL     1       1.926  52.298 -16.997  1.00  0.00    -0.648 OA
BRANCH  33  35
HETATM   35  O5  UNL     1       1.130  52.989 -15.033  1.00  0.00    -0.775 OA
HETATM   36  H18 UNL     1       1.336  53.820 -15.511  1.00  0.00     0.167 HD
ENDBRANCH  33  35
ENDBRANCH  32  33
BRANCH  32  37
HETATM   37  C17 UNL     1       1.670  50.446 -13.862  1.00  0.00     0.014 C 
HETATM   38  C18 UNL     1       1.498  48.988 -13.411  1.00  0.00     0.012 C 
BRANCH  37  39
HETATM   39  C19 UNL     1       3.097  50.917 -13.504  1.00  0.00     0.002 C 
HETATM   40  C20 UNL     1       4.202  49.935 -13.860  1.00  0.00     0.005 C 
ENDBRANCH  37  39
ENDBRANCH  32  37
ENDBRANCH  30  32
ENDBRANCH  27  28
ENDBRANCH  26  27
ENDBRANCH  13  26
TORSDOF 9
ENDMDL
MODEL 6
REMARK minimizedAffinity -8.9861145
REMARK  9 active torsions:
REMARK  status: ('A' for Active; 'I' for Inactive)
REMARK    1  A    between atoms: C3_3  and  O1_4 
REMARK    2  A    between atoms: N1_14  and  O2_16 
REMARK    3  A    between atoms: O2_16  and  C13_17 
REMARK    4  A    between atoms: C13_17  and  C14_18 
REMARK       I    between atoms: C14_18  and  N2_20 
REMARK    5  A    between atoms: N2_20  and  C15_21 
REMARK    6  A    between atoms: C15_21  and  C16_22 
REMARK    7  A    between atoms: C15_21  and  C17_25 
REMARK    8  A    between atoms: C16_22  and  O5_24 
REMARK    9  A    between atoms: C17_25  and  C19_27 
ROOT
HETATM    1  C1  UNL     1       1.511  54.498 -22.670  1.00  0.00     0.015 C 
HETATM    2  C2  UNL     1       0.853  53.902 -23.480  1.00  0.00    -0.078 C 
HETATM    3  C3  UNL     1       0.048  53.185 -24.479  1.00  0.00     0.128 C 
HETATM    4  C4  UNL     1       0.923  52.394 -25.485  1.00  0.00     0.052 C 
HETATM    5  C5  UNL     1       0.122  51.129 -25.856  1.00  0.00     0.010 C 
HETATM    6  C6  UNL     1      -1.240  51.327 -25.196  1.00  0.00     0.002 C 
HETATM    7  C7  UNL     1      -2.129  50.101 -24.959  1.00  0.00    -0.004 C 
HETATM    8  C8  UNL     1      -2.416  49.357 -26.270  1.00  0.00     0.010 C 
HETATM    9  C9  UNL     1      -3.323  48.156 -26.034  1.00  0.00     0.035 C 
HETATM   10  C10 UNL     1      -4.607  48.541 -25.338  1.00  0.00    -0.069 C 
HETATM   11  C11 UNL     1      -5.782  48.123 -25.841  1.00  0.00     0.030 C 
HETATM   12  C12 UNL     1      -7.067  48.352 -25.135  1.00  0.00     0.032 C 
HETATM   13  N1  UNL     1      -8.159  47.933 -25.710  1.00  0.00    -0.271 N 
ATOM     14  H1  UNL     1      -8.190  47.497 -26.631  1.00  0.00     0.194 HD
HETATM   15  C21 UNL     1      -7.012  48.995 -23.765  1.00  0.00     0.060 C 
HETATM   16  C22 UNL     1      -5.858  49.982 -23.680  1.00  0.00     0.020 C 
HETATM   17  C23 UNL     1      -4.475  49.377 -24.059  1.00  0.00    -0.016 C 
HETATM   18  C24 UNL     1      -4.005  48.445 -22.919  1.00  0.00     0.020 C 
HETATM   19  C25 UNL     1      -3.468  50.565 -24.305  1.00  0.00     0.002 C 
HETATM   20  C26 UNL     1      -3.221  51.453 -23.055  1.00  0.00     0.007 C 
HETATM   21  C27 UNL     1      -2.230  52.604 -23.308  1.00  0.00     0.014 C 
HETATM   22  C28 UNL     1      -0.903  52.099 -23.898  1.00  0.00     0.003 C 
HETATM   23  C29 UNL     1      -0.166  51.226 -22.842  1.00  0.00     0.020 C 
ENDROOT
BRANCH   3  24
HETATM   24  O1  UNL     1      -0.703  54.150 -25.218  1.00  0.00    -0.377 OA
HETATM   25  H2  UNL     1      -0.076  54.832 -25.514  1.00  0.00     0.211 HD
ENDBRANCH   3  24
BRANCH  13  26
HETATM   26  O2  UNL     1      -9.286  48.154 -24.908  1.00  0.00    -0.271 OA
BRANCH  26  27
HETATM   27  C13 UNL     1     -10.370  47.382 -25.413  1.00  0.00     0.303 C 
BRANCH  27  28
HETATM   28  C14 UNL     1     -10.821  47.918 -26.767  1.00  0.00     0.244 C 
HETATM   29  O3  UNL     1     -11.838  48.594 -26.904  1.00  0.00    -0.271 OA
HETATM   30  N2  UNL     1      -9.976  47.626 -27.813  1.00  0.00    -0.344 N 
HETATM   31  H16 UNL     1      -9.157  47.052 -27.622  1.00  0.00     0.163 HD
BRANCH  30  32
HETATM   32  C15 UNL     1     -10.244  48.024 -29.193  1.00  0.00     0.186 C 
BRANCH  32  33
HETATM   33  C16 UNL     1      -8.941  48.568 -29.782  1.00  0.00     0.163 C 
HETATM   34  O4  UNL     1      -7.885  47.958 -29.879  1.00  0.00    -0.648 OA
BRANCH  33  35
HETATM   35  O5  UNL     1      -9.034  49.838 -30.219  1.00  0.00    -0.775 OA
HETATM   36  H18 UNL     1      -8.136  50.046 -30.551  1.00  0.00     0.167 HD
ENDBRANCH  33  35
ENDBRANCH  32  33
BRANCH  32  37
HETATM   37  C17 UNL     1     -10.866  46.876 -30.024  1.00  0.00     0.014 C 
HETATM   38  C18 UNL     1     -10.673  47.134 -31.525  1.00  0.00     0.012 C 
BRANCH  37  39
HETATM   39  C19 UNL     1     -10.362  45.454 -29.690  1.00  0.00     0.002 C 
HETATM   40  C20 UNL     1     -11.378  44.346 -29.921  1.00  0.00     0.005 C 
ENDBRANCH  37  39
ENDBRANCH  32  37
ENDBRANCH  30  32
ENDBRANCH  27  28
ENDBRANCH  26  27
ENDBRANCH  13  26
TORSDOF 9
ENDMDL
MODEL 7
REMARK minimizedAffinity -8.74172688
REMARK  9 active torsions:
REMARK  status: ('A' for Active; 'I' for Inactive)
REMARK    1  A    between atoms: C3_3  and  O1_4 
REMARK    2  A    between atoms: N1_14  and  O2_16 
REMARK    3  A    between atoms: O2_16  and  C13_17 
REMARK    4  A    between atoms: C13_17  and  C14_18 
REMARK       I    between atoms: C14_18  and  N2_20 
REMARK    5  A    between atoms: N2_20  and  C15_21 
REMARK    6  A    between atoms: C15_21  and  C16_22 
REMARK    7  A    between atoms: C15_21  and  C17_25 
REMARK    8  A    between atoms: C16_22  and  O5_24 
REMARK    9  A    between atoms: C17_25  and  C19_27 
ROOT
HETATM    1  C1  UNL     1      -1.093  51.346 -27.340  1.00  0.00     0.015 C 
HETATM    2  C2  UNL     1      -1.632  51.631 -26.305  1.00  0.00    -0.078 C 
HETATM    3  C3  UNL     1      -2.292  51.994 -25.042  1.00  0.00     0.128 C 
HETATM    4  C4  UNL     1      -3.837  51.931 -25.144  1.00  0.00     0.052 C 
HETATM    5  C5  UNL     1      -4.346  51.483 -23.758  1.00  0.00     0.010 C 
HETATM    6  C6  UNL     1      -3.101  51.478 -22.873  1.00  0.00     0.002 C 
HETATM    7  C7  UNL     1      -3.124  50.663 -21.575  1.00  0.00    -0.004 C 
HETATM    8  C8  UNL     1      -4.273  51.103 -20.659  1.00  0.00     0.010 C 
HETATM    9  C9  UNL     1      -4.274  50.310 -19.358  1.00  0.00     0.035 C 
HETATM   10  C10 UNL     1      -2.948  50.393 -18.640  1.00  0.00    -0.069 C 
HETATM   11  C11 UNL     1      -2.922  50.709 -17.334  1.00  0.00     0.030 C 
HETATM   12  C12 UNL     1      -1.669  50.678 -16.539  1.00  0.00     0.032 C 
HETATM   13  N1  UNL     1      -1.736  51.024 -15.285  1.00  0.00    -0.271 N 
ATOM     14  H1  UNL     1      -2.585  51.355 -14.826  1.00  0.00     0.194 HD
HETATM   15  C21 UNL     1      -0.415  50.180 -17.225  1.00  0.00     0.060 C 
HETATM   16  C22 UNL     1      -0.425  50.550 -18.701  1.00  0.00     0.020 C 
HETATM   17  C23 UNL     1      -1.695  50.074 -19.466  1.00  0.00    -0.016 C 
HETATM   18  C24 UNL     1      -1.621  48.543 -19.660  1.00  0.00     0.020 C 
HETATM   19  C25 UNL     1      -1.758  50.843 -20.842  1.00  0.00     0.002 C 
HETATM   20  C26 UNL     1      -0.556  50.555 -21.782  1.00  0.00     0.007 C 
HETATM   21  C27 UNL     1      -0.635  51.304 -23.124  1.00  0.00     0.014 C 
HETATM   22  C28 UNL     1      -1.971  51.056 -23.843  1.00  0.00     0.003 C 
HETATM   23  C29 UNL     1      -2.060  49.563 -24.270  1.00  0.00     0.020 C 
ENDROOT
BRANCH   3  24
HETATM   24  O1  UNL     1      -1.929  53.339 -24.724  1.00  0.00    -0.377 OA
HETATM   25  H2  UNL     1      -2.097  53.874 -25.518  1.00  0.00     0.211 HD
ENDBRANCH   3  24
BRANCH  13  26
HETATM   26  O2  UNL     1      -0.500  50.885 -14.642  1.00  0.00    -0.271 OA
BRANCH  26  27
HETATM   27  C13 UNL     1      -0.061  52.168 -14.206  1.00  0.00     0.303 C 
BRANCH  27  28
HETATM   28  C14 UNL     1      -0.597  52.469 -12.811  1.00  0.00     0.244 C 
HETATM   29  O3  UNL     1       0.122  52.877 -11.902  1.00  0.00    -0.271 OA
HETATM   30  N2  UNL     1      -1.952  52.291 -12.664  1.00  0.00    -0.344 N 
HETATM   31  H16 UNL     1      -2.481  51.941 -13.461  1.00  0.00     0.163 HD
BRANCH  30  32
HETATM   32  C15 UNL     1      -2.654  52.499 -11.398  1.00  0.00     0.186 C 
BRANCH  32  33
HETATM   33  C16 UNL     1      -3.815  53.458 -11.662  1.00  0.00     0.163 C 
HETATM   34  O4  UNL     1      -4.468  54.051 -10.813  1.00  0.00    -0.648 OA
BRANCH  33  35
HETATM   35  O5  UNL     1      -4.092  53.626 -12.969  1.00  0.00    -0.775 OA
HETATM   36  H18 UNL     1      -4.851  54.246 -12.978  1.00  0.00     0.167 HD
ENDBRANCH  33  35
ENDBRANCH  32  33
BRANCH  32  37
HETATM   37  C17 UNL     1      -3.091  51.164 -10.746  1.00  0.00     0.014 C 
HETATM   38  C18 UNL     1      -2.702  51.140  -9.261  1.00  0.00     0.012 C 
BRANCH  37  39
HETATM   39  C19 UNL     1      -4.589  50.809 -10.878  1.00  0.00     0.002 C 
HETATM   40  C20 UNL     1      -5.126  49.892  -9.791  1.00  0.00     0.005 C 
ENDBRANCH  37  39
ENDBRANCH  32  37
ENDBRANCH  30  32
ENDBRANCH  27  28
ENDBRANCH  26  27
ENDBRANCH  13  26
TORSDOF 9
ENDMDL
MODEL 8
REMARK minimizedAffinity -8.44694805
REMARK  9 active torsions:
REMARK  status: ('A' for Active; 'I' for Inactive)
REMARK    1  A    between atoms: C3_3  and  O1_4 
REMARK    2  A    between atoms: N1_14  and  O2_16 
REMARK    3  A    between atoms: O2_16  and  C13_17 
REMARK    4  A    between atoms: C13_17  and  C14_18 
REMARK       I    between atoms: C14_18  and  N2_20 
REMARK    5  A    between atoms: N2_20  and  C15_21 
REMARK    6  A    between atoms: C15_21  and  C16_22 
REMARK    7  A    between atoms: C15_21  and  C17_25 
REMARK    8  A    between atoms: C16_22  and  O5_24 
REMARK    9  A    between atoms: C17_25  and  C19_27 
ROOT
HETATM    1  C1  UNL     1      -1.486  51.789 -27.740  1.00  0.00     0.015 C 
HETATM    2  C2  UNL     1      -0.814  52.005 -26.768  1.00  0.00    -0.078 C 
HETATM    3  C3  UNL     1       0.019  52.267 -25.585  1.00  0.00     0.128 C 
HETATM    4  C4  UNL     1       0.492  53.741 -25.510  1.00  0.00     0.052 C 
HETATM    5  C5  UNL     1       0.560  54.099 -24.011  1.00  0.00     0.010 C 
HETATM    6  C6  UNL     1       0.299  52.781 -23.287  1.00  0.00     0.002 C 
HETATM    7  C7  UNL     1      -0.159  52.822 -21.825  1.00  0.00    -0.004 C 
HETATM    8  C8  UNL     1       0.846  53.578 -20.945  1.00  0.00     0.010 C 
HETATM    9  C9  UNL     1       0.400  53.591 -19.488  1.00  0.00     0.035 C 
HETATM   10  C10 UNL     1       0.155  52.199 -18.955  1.00  0.00    -0.069 C 
HETATM   11  C11 UNL     1       0.711  51.831 -17.788  1.00  0.00     0.030 C 
HETATM   12  C12 UNL     1       0.404  50.529 -17.144  1.00  0.00     0.032 C 
HETATM   13  N1  UNL     1       1.009  50.248 -16.025  1.00  0.00    -0.271 N 
ATOM     14  H1  UNL     1       1.710  50.844 -15.587  1.00  0.00     0.194 HD
HETATM   15  C21 UNL     1      -0.642  49.652 -17.798  1.00  0.00     0.060 C 
HETATM   16  C22 UNL     1      -0.615  49.817 -19.310  1.00  0.00     0.020 C 
HETATM   17  C23 UNL     1      -0.757  51.291 -19.790  1.00  0.00    -0.016 C 
HETATM   18  C24 UNL     1      -2.217  51.750 -19.580  1.00  0.00     0.020 C 
HETATM   19  C25 UNL     1      -0.327  51.359 -21.306  1.00  0.00     0.002 C 
HETATM   20  C26 UNL     1      -1.218  50.510 -22.254  1.00  0.00     0.007 C 
HETATM   21  C27 UNL     1      -0.792  50.593 -23.731  1.00  0.00     0.014 C 
HETATM   22  C28 UNL     1      -0.694  52.047 -24.220  1.00  0.00     0.003 C 
HETATM   23  C29 UNL     1      -2.112  52.687 -24.227  1.00  0.00     0.020 C 
ENDROOT
BRANCH   3  24
HETATM   24  O1  UNL     1       1.181  51.439 -25.671  1.00  0.00    -0.377 OA
HETATM   25  H2  UNL     1       1.559  51.572 -26.557  1.00  0.00     0.211 HD
ENDBRANCH   3  24
BRANCH  13  26
HETATM   26  O2  UNL     1       0.578  49.024 -15.497  1.00  0.00    -0.271 OA
BRANCH  26  27
HETATM   27  C13 UNL     1      -0.125  49.269 -14.282  1.00  0.00     0.303 C 
BRANCH  27  28
HETATM   28  C14 UNL     1       0.838  49.266 -13.100  1.00  0.00     0.244 C 
HETATM   29  O3  UNL     1       0.728  48.481 -12.161  1.00  0.00    -0.271 OA
HETATM   30  N2  UNL     1       1.862  50.179 -13.190  1.00  0.00    -0.344 N 
HETATM   31  H16 UNL     1       1.881  50.803 -13.994  1.00  0.00     0.163 HD
BRANCH  30  32
HETATM   32  C15 UNL     1       2.872  50.354 -12.148  1.00  0.00     0.186 C 
BRANCH  32  33
HETATM   33  C16 UNL     1       4.229  49.979 -12.746  1.00  0.00     0.163 C 
HETATM   34  O4  UNL     1       4.537  50.039 -13.928  1.00  0.00    -0.648 OA
BRANCH  33  35
HETATM   35  O5  UNL     1       5.123  49.554 -11.832  1.00  0.00    -0.775 OA
HETATM   36  H18 UNL     1       5.923  49.343 -12.357  1.00  0.00     0.167 HD
ENDBRANCH  33  35
ENDBRANCH  32  33
BRANCH  32  37
HETATM   37  C17 UNL     1       2.839  51.775 -11.533  1.00  0.00     0.014 C 
HETATM   38  C18 UNL     1       1.463  52.421 -11.750  1.00  0.00     0.012 C 
BRANCH  37  39
HETATM   39  C19 UNL     1       3.208  51.869 -10.036  1.00  0.00     0.002 C 
HETATM   40  C20 UNL     1       4.492  52.628  -9.741  1.00  0.00     0.005 C 
ENDBRANCH  37  39
ENDBRANCH  32  37
ENDBRANCH  30  32
ENDBRANCH  27  28
ENDBRANCH  26  27
ENDBRANCH  13  26
TORSDOF 9
ENDMDL
MODEL 9
REMARK minimizedAffinity -8.40459347
REMARK  9 active torsions:
REMARK  status: ('A' for Active; 'I' for Inactive)
REMARK    1  A    between atoms: C3_3  and  O1_4 
REMARK    2  A    between atoms: N1_14  and  O2_16 
REMARK    3  A    between atoms: O2_16  and  C13_17 
REMARK    4  A    between atoms: C13_17  and  C14_18 
REMARK       I    between atoms: C14_18  and  N2_20 
REMARK    5  A    between atoms: N2_20  and  C15_21 
REMARK    6  A    between atoms: C15_21  and  C16_22 
REMARK    7  A    between atoms: C15_21  and  C17_25 
REMARK    8  A    between atoms: C16_22  and  O5_24 
REMARK    9  A    between atoms: C17_25  and  C19_27 
ROOT
HETATM    1  C1  UNL     1       1.487  54.620 -22.462  1.00  0.00     0.015 C 
HETATM    2  C2  UNL     1       0.904  54.024 -23.327  1.00  0.00    -0.078 C 
HETATM    3  C3  UNL     1       0.190  53.306 -24.393  1.00  0.00     0.128 C 
HETATM    4  C4  UNL     1       1.154  52.588 -25.370  1.00  0.00     0.052 C 
HETATM    5  C5  UNL     1       0.434  51.302 -25.826  1.00  0.00     0.010 C 
HETATM    6  C6  UNL     1      -0.970  51.419 -25.239  1.00  0.00     0.002 C 
HETATM    7  C7  UNL     1      -1.815  50.148 -25.092  1.00  0.00    -0.004 C 
HETATM    8  C8  UNL     1      -1.993  49.437 -26.440  1.00  0.00     0.010 C 
HETATM    9  C9  UNL     1      -2.857  48.190 -26.294  1.00  0.00     0.035 C 
HETATM   10  C10 UNL     1      -4.195  48.495 -25.661  1.00  0.00    -0.069 C 
HETATM   11  C11 UNL     1      -5.319  48.044 -26.244  1.00  0.00     0.030 C 
HETATM   12  C12 UNL     1      -6.651  48.193 -25.607  1.00  0.00     0.032 C 
HETATM   13  N1  UNL     1      -7.689  47.746 -26.257  1.00  0.00    -0.271 N 
ATOM     14  H1  UNL     1      -7.648  47.340 -27.191  1.00  0.00     0.194 HD
HETATM   15  C21 UNL     1      -6.703  48.791 -24.217  1.00  0.00     0.060 C 
HETATM   16  C22 UNL     1      -5.601  49.825 -24.035  1.00  0.00     0.020 C 
HETATM   17  C23 UNL     1      -4.173  49.293 -24.352  1.00  0.00    -0.016 C 
HETATM   18  C24 UNL     1      -3.726  48.345 -23.216  1.00  0.00     0.020 C 
HETATM   19  C25 UNL     1      -3.208  50.532 -24.503  1.00  0.00     0.002 C 
HETATM   20  C26 UNL     1      -3.073  51.388 -23.214  1.00  0.00     0.007 C 
HETATM   21  C27 UNL     1      -2.122  52.588 -23.373  1.00  0.00     0.014 C 
HETATM   22  C28 UNL     1      -0.742  52.162 -23.901  1.00  0.00     0.003 C 
HETATM   23  C29 UNL     1      -0.027  51.287 -22.832  1.00  0.00     0.020 C 
ENDROOT
BRANCH   3  24
HETATM   24  O1  UNL     1      -0.562  54.262 -25.144  1.00  0.00    -0.377 OA
HETATM   25  H2  UNL     1       0.050  54.980 -25.382  1.00  0.00     0.211 HD
ENDBRANCH   3  24
BRANCH  13  26
HETATM   26  O2  UNL     1      -8.868  47.892 -25.514  1.00  0.00    -0.271 OA
BRANCH  26  27
HETATM   27  C13 UNL     1      -9.727  48.805 -26.189  1.00  0.00     0.303 C 
BRANCH  27  28
HETATM   28  C14 UNL     1     -11.071  48.151 -26.488  1.00  0.00     0.244 C 
HETATM   29  O3  UNL     1     -12.064  48.800 -26.808  1.00  0.00    -0.271 OA
HETATM   30  N2  UNL     1     -11.072  46.778 -26.416  1.00  0.00    -0.344 N 
HETATM   31  H16 UNL     1     -10.212  46.311 -26.134  1.00  0.00     0.163 HD
BRANCH  30  32
HETATM   32  C15 UNL     1     -12.266  45.965 -26.639  1.00  0.00     0.186 C 
BRANCH  32  33
HETATM   33  C16 UNL     1     -13.349  46.453 -25.675  1.00  0.00     0.163 C 
HETATM   34  O4  UNL     1     -13.178  47.186 -24.710  1.00  0.00    -0.648 OA
BRANCH  33  35
HETATM   35  O5  UNL     1     -14.582  46.000 -25.973  1.00  0.00    -0.775 OA
HETATM   36  H18 UNL     1     -15.154  46.380 -25.274  1.00  0.00     0.167 HD
ENDBRANCH  33  35
ENDBRANCH  32  33
BRANCH  32  37
HETATM   37  C17 UNL     1     -12.710  45.972 -28.122  1.00  0.00     0.014 C 
HETATM   38  C18 UNL     1     -11.554  46.421 -29.026  1.00  0.00     0.012 C 
BRANCH  37  39
HETATM   39  C19 UNL     1     -13.281  44.641 -28.660  1.00  0.00     0.002 C 
HETATM   40  C20 UNL     1     -13.185  43.470 -27.695  1.00  0.00     0.005 C 
ENDBRANCH  37  39
ENDBRANCH  32  37
ENDBRANCH  30  32
ENDBRANCH  27  28
ENDBRANCH  26  27
ENDBRANCH  13  26
TORSDOF 9
ENDMDL
