MODEL 1
REMARK minimizedAffinity -6.53258419
REMARK CNNscore 0.707960486
REMARK CNNaffinity 6.84254026
REMARK  4 active torsions:
REMARK  status: ('A' for Active; 'I' for Inactive)
REMARK    1  A    between atoms: C2_2  and  C3_3 
REMARK    2  A    between atoms: C2_2  and  C9_9 
REMARK    3  A    between atoms: C3_3  and  C4_4 
REMARK    4  A    between atoms: C4_4  and  C5_5 
ROOT
HETATM    1  C9  UNL     1     -13.373 -12.640  28.341  1.00  0.00     0.018 C 
HETATM    2  C10 UNL     1     -14.491 -13.281  29.193  1.00  0.00     0.010 C 
HETATM    3  C11 UNL     1     -14.942 -12.220  30.215  1.00  0.00     0.011 C 
HETATM    4  C12 UNL     1     -14.402 -10.864  29.691  1.00  0.00    -0.032 C 
HETATM    5  C13 UNL     1     -15.398 -10.394  28.591  1.00  0.00     0.016 C 
HETATM    6  C14 UNL     1     -13.049 -11.343  29.118  1.00  0.00     0.002 C 
HETATM    7  C15 UNL     1     -12.311 -10.274  28.337  1.00  0.00     0.006 C 
HETATM    8  C16 UNL     1     -12.610  -8.846  28.792  1.00  0.00     0.006 C 
HETATM    9  C17 UNL     1     -13.108  -8.627  30.254  1.00  0.00     0.003 C 
HETATM   10  C18 UNL     1     -13.585  -7.127  30.505  1.00  0.00    -0.035 C 
HETATM   11  C19 UNL     1     -13.486  -6.800  32.022  1.00  0.00     0.016 C 
HETATM   12  C20 UNL     1     -12.676  -6.109  29.762  1.00  0.00     0.017 C 
HETATM   13  C21 UNL     1     -13.050  -4.656  30.015  1.00  0.00     0.080 C 
HETATM   14  C22 UNL     1     -14.536  -4.449  30.202  1.00  0.00     0.135 C 
HETATM   15  O1  UNL     1     -14.935  -3.412  30.741  1.00  0.00    -0.297 OA
HETATM   16  C23 UNL     1     -15.504  -5.498  29.634  1.00  0.00     0.017 C 
HETATM   17  C24 UNL     1     -15.533  -5.270  28.102  1.00  0.00     0.023 C 
HETATM   18  C25 UNL     1     -16.924  -5.179  30.146  1.00  0.00     0.023 C 
HETATM   19  C26 UNL     1     -15.032  -6.978  29.946  1.00  0.00     0.009 C 
HETATM   20  C27 UNL     1     -16.026  -7.842  30.736  1.00  0.00     0.007 C 
HETATM   21  C28 UNL     1     -15.492  -9.156  31.312  1.00  0.00     0.011 C 
HETATM   22  C29 UNL     1     -14.140  -9.732  30.784  1.00  0.00    -0.032 C 
HETATM   23  C30 UNL     1     -13.470 -10.353  32.063  1.00  0.00     0.016 C 
ENDROOT
BRANCH   1  24
HETATM   24  C2  UNL     1     -12.241 -13.602  28.010  1.00  0.00    -0.084 C 
HETATM   25  C1  UNL     1     -11.780 -14.554  28.842  1.00  0.00     0.014 C 
BRANCH  24  26
HETATM   26  C3  UNL     1     -11.558 -13.401  26.665  1.00  0.00     0.037 C 
BRANCH  26  27
HETATM   27  C4  UNL     1     -10.220 -12.658  26.767  1.00  0.00     0.031 C 
BRANCH  27  28
HETATM   28  C5  UNL     1      -9.354 -12.921  25.563  1.00  0.00    -0.024 C 
HETATM   29  C6  UNL     1      -8.409 -13.873  25.430  1.00  0.00    -0.091 C 
HETATM   30  C7  UNL     1      -8.003 -14.840  26.510  1.00  0.00     0.042 C 
HETATM   31  C8  UNL     1      -7.649 -14.030  24.138  1.00  0.00     0.042 C 
ENDBRANCH  27  28
ENDBRANCH  26  27
ENDBRANCH  24  26
ENDBRANCH   1  24
TORSDOF 4
ENDMDL
MODEL 2
REMARK minimizedAffinity -8.45590115
REMARK CNNscore 0.467579752
REMARK CNNaffinity 6.78109217
REMARK  4 active torsions:
REMARK  status: ('A' for Active; 'I' for Inactive)
REMARK    1  A    between atoms: C2_2  and  C3_3 
REMARK    2  A    between atoms: C2_2  and  C9_9 
REMARK    3  A    between atoms: C3_3  and  C4_4 
REMARK    4  A    between atoms: C4_4  and  C5_5 
ROOT
HETATM    1  C9  UNL     1       0.758   6.722  10.458  1.00  0.00     0.018 C 
HETATM    2  C10 UNL     1       1.306   5.401  11.041  1.00  0.00     0.010 C 
HETATM    3  C11 UNL     1       0.652   5.213  12.423  1.00  0.00     0.011 C 
HETATM    4  C12 UNL     1      -0.564   6.176  12.454  1.00  0.00    -0.032 C 
HETATM    5  C13 UNL     1      -1.710   5.455  11.685  1.00  0.00     0.016 C 
HETATM    6  C14 UNL     1       0.040   7.361  11.668  1.00  0.00     0.002 C 
HETATM    7  C15 UNL     1      -0.968   8.445  11.339  1.00  0.00     0.006 C 
HETATM    8  C16 UNL     1      -2.117   8.556  12.340  1.00  0.00     0.006 C 
HETATM    9  C17 UNL     1      -1.885   8.036  13.793  1.00  0.00     0.003 C 
HETATM   10  C18 UNL     1      -3.233   8.016  14.643  1.00  0.00    -0.035 C 
HETATM   11  C19 UNL     1      -2.888   8.092  16.158  1.00  0.00     0.016 C 
HETATM   12  C20 UNL     1      -4.128   9.243  14.320  1.00  0.00     0.017 C 
HETATM   13  C21 UNL     1      -5.403   9.306  15.149  1.00  0.00     0.080 C 
HETATM   14  C22 UNL     1      -5.964   7.942  15.480  1.00  0.00     0.135 C 
HETATM   15  O1  UNL     1      -6.773   7.833  16.407  1.00  0.00    -0.297 OA
HETATM   16  C23 UNL     1      -5.575   6.750  14.593  1.00  0.00     0.017 C 
HETATM   17  C24 UNL     1      -6.384   6.908  13.282  1.00  0.00     0.023 C 
HETATM   18  C25 UNL     1      -6.085   5.456  15.263  1.00  0.00     0.023 C 
HETATM   19  C26 UNL     1      -4.025   6.728  14.266  1.00  0.00     0.009 C 
HETATM   20  C27 UNL     1      -3.270   5.462  14.698  1.00  0.00     0.007 C 
HETATM   21  C28 UNL     1      -1.741   5.529  14.675  1.00  0.00     0.011 C 
HETATM   22  C29 UNL     1      -1.035   6.682  13.892  1.00  0.00    -0.032 C 
HETATM   23  C30 UNL     1       0.212   7.034  14.781  1.00  0.00     0.016 C 
ENDROOT
BRANCH   1  24
HETATM   24  C2  UNL     1       1.809   7.534   9.714  1.00  0.00    -0.084 C 
HETATM   25  C1  UNL     1       2.862   8.137  10.295  1.00  0.00     0.014 C 
BRANCH  24  26
HETATM   26  C3  UNL     1       1.586   7.715   8.219  1.00  0.00     0.037 C 
BRANCH  26  27
HETATM   27  C4  UNL     1       2.316   6.671   7.364  1.00  0.00     0.031 C 
BRANCH  27  28
HETATM   28  C5  UNL     1       3.014   5.650   8.223  1.00  0.00    -0.024 C 
HETATM   29  C6  UNL     1       3.559   4.484   7.825  1.00  0.00    -0.091 C 
HETATM   30  C7  UNL     1       3.522   3.952   6.418  1.00  0.00     0.042 C 
HETATM   31  C8  UNL     1       4.259   3.584   8.811  1.00  0.00     0.042 C 
ENDBRANCH  27  28
ENDBRANCH  26  27
ENDBRANCH  24  26
ENDBRANCH   1  24
TORSDOF 4
ENDMDL
MODEL 3
REMARK minimizedAffinity -8.50180721
REMARK CNNscore 0.434240997
REMARK CNNaffinity 6.9062295
REMARK  4 active torsions:
REMARK  status: ('A' for Active; 'I' for Inactive)
REMARK    1  A    between atoms: C2_2  and  C3_3 
REMARK    2  A    between atoms: C2_2  and  C9_9 
REMARK    3  A    between atoms: C3_3  and  C4_4 
REMARK    4  A    between atoms: C4_4  and  C5_5 
ROOT
HETATM    1  C9  UNL     1      -6.598   7.229  14.239  1.00  0.00     0.018 C 
HETATM    2  C10 UNL     1      -6.464   8.579  14.975  1.00  0.00     0.010 C 
HETATM    3  C11 UNL     1      -4.959   8.820  15.204  1.00  0.00     0.011 C 
HETATM    4  C12 UNL     1      -4.221   7.847  14.248  1.00  0.00    -0.032 C 
HETATM    5  C13 UNL     1      -4.233   8.521  12.845  1.00  0.00     0.016 C 
HETATM    6  C14 UNL     1      -5.175   6.635  14.346  1.00  0.00     0.002 C 
HETATM    7  C15 UNL     1      -4.847   5.527  13.365  1.00  0.00     0.006 C 
HETATM    8  C16 UNL     1      -3.370   5.448  12.980  1.00  0.00     0.006 C 
HETATM    9  C17 UNL     1      -2.316   6.033  13.971  1.00  0.00     0.003 C 
HETATM   10  C18 UNL     1      -0.856   6.076  13.334  1.00  0.00    -0.035 C 
HETATM   11  C19 UNL     1       0.204   6.070  14.472  1.00  0.00     0.016 C 
HETATM   12  C20 UNL     1      -0.582   4.826  12.454  1.00  0.00     0.017 C 
HETATM   13  C21 UNL     1       0.822   4.785  11.867  1.00  0.00     0.080 C 
HETATM   14  C22 UNL     1       1.371   6.157  11.544  1.00  0.00     0.135 C 
HETATM   15  O1  UNL     1       2.587   6.297  11.392  1.00  0.00    -0.297 OA
HETATM   16  C23 UNL     1       0.383   7.313  11.327  1.00  0.00     0.017 C 
HETATM   17  C24 UNL     1      -0.240   7.088   9.927  1.00  0.00     0.023 C 
HETATM   18  C25 UNL     1       1.184   8.629  11.239  1.00  0.00     0.023 C 
HETATM   19  C26 UNL     1      -0.761   7.337  12.424  1.00  0.00     0.009 C 
HETATM   20  C27 UNL     1      -0.867   8.629  13.249  1.00  0.00     0.007 C 
HETATM   21  C28 UNL     1      -1.743   8.577  14.502  1.00  0.00     0.011 C 
HETATM   22  C29 UNL     1      -2.753   7.399  14.684  1.00  0.00    -0.032 C 
HETATM   23  C30 UNL     1      -2.710   7.100  16.227  1.00  0.00     0.016 C 
ENDROOT
BRANCH   1  24
HETATM   24  C2  UNL     1      -7.780   6.396  14.716  1.00  0.00    -0.084 C 
HETATM   25  C1  UNL     1      -7.683   5.157  15.232  1.00  0.00     0.014 C 
BRANCH  24  26
HETATM   26  C3  UNL     1      -9.159   7.010  14.520  1.00  0.00     0.037 C 
BRANCH  26  27
HETATM   27  C4  UNL     1      -9.881   6.494  13.269  1.00  0.00     0.031 C 
BRANCH  27  28
HETATM   28  C5  UNL     1     -11.045   7.378  12.905  1.00  0.00    -0.024 C 
HETATM   29  C6  UNL     1     -12.310   7.292  13.362  1.00  0.00    -0.091 C 
HETATM   30  C7  UNL     1     -12.813   6.235  14.308  1.00  0.00     0.042 C 
HETATM   31  C8  UNL     1     -13.357   8.283  12.924  1.00  0.00     0.042 C 
ENDBRANCH  27  28
ENDBRANCH  26  27
ENDBRANCH  24  26
ENDBRANCH   1  24
TORSDOF 4
ENDMDL
MODEL 4
REMARK minimizedAffinity -7.4534421
REMARK CNNscore 0.431116551
REMARK CNNaffinity 7.00903177
REMARK  4 active torsions:
REMARK  status: ('A' for Active; 'I' for Inactive)
REMARK    1  A    between atoms: C2_2  and  C3_3 
REMARK    2  A    between atoms: C2_2  and  C9_9 
REMARK    3  A    between atoms: C3_3  and  C4_4 
REMARK    4  A    between atoms: C4_4  and  C5_5 
ROOT
HETATM    1  C9  UNL     1      -0.097   6.505  11.502  1.00  0.00     0.018 C 
HETATM    2  C10 UNL     1       0.263   5.016  11.699  1.00  0.00     0.010 C 
HETATM    3  C11 UNL     1      -0.807   4.413  12.629  1.00  0.00     0.011 C 
HETATM    4  C12 UNL     1      -1.991   5.415  12.623  1.00  0.00    -0.032 C 
HETATM    5  C13 UNL     1      -2.796   5.131  11.321  1.00  0.00     0.016 C 
HETATM    6  C14 UNL     1      -1.194   6.737  12.566  1.00  0.00     0.002 C 
HETATM    7  C15 UNL     1      -2.066   7.960  12.357  1.00  0.00     0.006 C 
HETATM    8  C16 UNL     1      -3.485   7.819  12.906  1.00  0.00     0.006 C 
HETATM    9  C17 UNL     1      -3.733   6.796  14.057  1.00  0.00     0.003 C 
HETATM   10  C18 UNL     1      -5.285   6.605  14.364  1.00  0.00    -0.035 C 
HETATM   11  C19 UNL     1      -5.465   6.102  15.825  1.00  0.00     0.016 C 
HETATM   12  C20 UNL     1      -6.057   7.948  14.249  1.00  0.00     0.017 C 
HETATM   13  C21 UNL     1      -7.536   7.836  14.590  1.00  0.00     0.080 C 
HETATM   14  C22 UNL     1      -8.137   6.505  14.199  1.00  0.00     0.135 C 
HETATM   15  O1  UNL     1      -9.203   6.153  14.710  1.00  0.00    -0.297 OA
HETATM   16  C23 UNL     1      -7.442   5.675  13.108  1.00  0.00     0.017 C 
HETATM   17  C24 UNL     1      -7.775   6.369  11.764  1.00  0.00     0.023 C 
HETATM   18  C25 UNL     1      -8.109   4.285  13.054  1.00  0.00     0.023 C 
HETATM   19  C26 UNL     1      -5.871   5.621  13.308  1.00  0.00     0.009 C 
HETATM   20  C27 UNL     1      -5.267   4.216  13.459  1.00  0.00     0.007 C 
HETATM   21  C28 UNL     1      -3.820   4.138  13.951  1.00  0.00     0.011 C 
HETATM   22  C29 UNL     1      -2.927   5.419  13.915  1.00  0.00    -0.032 C 
HETATM   23  C30 UNL     1      -2.055   5.307  15.219  1.00  0.00     0.016 C 
ENDROOT
BRANCH   1  24
HETATM   24  C2  UNL     1       1.118   7.422  11.485  1.00  0.00    -0.084 C 
HETATM   25  C1  UNL     1       1.103   8.717  11.851  1.00  0.00     0.014 C 
BRANCH  24  26
HETATM   26  C3  UNL     1       2.409   6.820  10.948  1.00  0.00     0.037 C 
BRANCH  26  27
HETATM   27  C4  UNL     1       3.144   7.738   9.963  1.00  0.00     0.031 C 
BRANCH  27  28
HETATM   28  C5  UNL     1       2.911   7.310   8.538  1.00  0.00    -0.024 C 
HETATM   29  C6  UNL     1       1.833   7.569   7.773  1.00  0.00    -0.091 C 
HETATM   30  C7  UNL     1       0.608   8.311   8.235  1.00  0.00     0.042 C 
HETATM   31  C8  UNL     1       1.770   7.097   6.343  1.00  0.00     0.042 C 
ENDBRANCH  27  28
ENDBRANCH  26  27
ENDBRANCH  24  26
ENDBRANCH   1  24
TORSDOF 4
ENDMDL
MODEL 5
REMARK minimizedAffinity -7.58834124
REMARK CNNscore 0.372561574
REMARK CNNaffinity 6.45501757
REMARK  4 active torsions:
REMARK  status: ('A' for Active; 'I' for Inactive)
REMARK    1  A    between atoms: C2_2  and  C3_3 
REMARK    2  A    between atoms: C2_2  and  C9_9 
REMARK    3  A    between atoms: C3_3  and  C4_4 
REMARK    4  A    between atoms: C4_4  and  C5_5 
ROOT
HETATM    1  C9  UNL     1      -0.522  12.011  18.860  1.00  0.00     0.018 C 
HETATM    2  C10 UNL     1      -1.714  12.993  18.870  1.00  0.00     0.010 C 
HETATM    3  C11 UNL     1      -2.582  12.661  17.641  1.00  0.00     0.011 C 
HETATM    4  C12 UNL     1      -2.138  11.250  17.174  1.00  0.00    -0.032 C 
HETATM    5  C13 UNL     1      -2.863  10.235  18.104  1.00  0.00     0.016 C 
HETATM    6  C14 UNL     1      -0.624  11.361  17.461  1.00  0.00     0.002 C 
HETATM    7  C15 UNL     1       0.122  10.052  17.287  1.00  0.00     0.006 C 
HETATM    8  C16 UNL     1      -0.507   9.105  16.265  1.00  0.00     0.006 C 
HETATM    9  C17 UNL     1      -1.407   9.716  15.147  1.00  0.00     0.003 C 
HETATM   10  C18 UNL     1      -2.160   8.592  14.305  1.00  0.00    -0.035 C 
HETATM   11  C19 UNL     1      -2.524   9.155  12.902  1.00  0.00     0.016 C 
HETATM   12  C20 UNL     1      -1.255   7.351  14.074  1.00  0.00     0.017 C 
HETATM   13  C21 UNL     1      -1.904   6.269  13.224  1.00  0.00     0.080 C 
HETATM   14  C22 UNL     1      -3.400   6.171  13.426  1.00  0.00     0.135 C 
HETATM   15  O1  UNL     1      -4.085   5.594  12.577  1.00  0.00    -0.297 OA
HETATM   16  C23 UNL     1      -4.004   6.717  14.728  1.00  0.00     0.017 C 
HETATM   17  C24 UNL     1      -3.656   5.684  15.829  1.00  0.00     0.023 C 
HETATM   18  C25 UNL     1      -5.541   6.706  14.595  1.00  0.00     0.023 C 
HETATM   19  C26 UNL     1      -3.409   8.134  15.117  1.00  0.00     0.009 C 
HETATM   20  C27 UNL     1      -4.432   9.271  15.255  1.00  0.00     0.007 C 
HETATM   21  C28 UNL     1      -3.875  10.695  15.327  1.00  0.00     0.011 C 
HETATM   22  C29 UNL     1      -2.358  10.910  15.631  1.00  0.00    -0.032 C 
HETATM   23  C30 UNL     1      -1.967  12.145  14.739  1.00  0.00     0.016 C 
ENDROOT
BRANCH   1  24
HETATM   24  C2  UNL     1       0.793  12.653  19.278  1.00  0.00    -0.084 C 
HETATM   25  C1  UNL     1       1.491  13.525  18.527  1.00  0.00     0.014 C 
BRANCH  24  26
HETATM   26  C3  UNL     1       1.366  12.206  20.616  1.00  0.00     0.037 C 
BRANCH  26  27
HETATM   27  C4  UNL     1       2.552  11.244  20.479  1.00  0.00     0.031 C 
BRANCH  27  28
HETATM   28  C5  UNL     1       2.268   9.924  21.146  1.00  0.00    -0.024 C 
HETATM   29  C6  UNL     1       2.703   9.508  22.351  1.00  0.00    -0.091 C 
HETATM   30  C7  UNL     1       3.621  10.291  23.252  1.00  0.00     0.042 C 
HETATM   31  C8  UNL     1       2.297   8.163  22.896  1.00  0.00     0.042 C 
ENDBRANCH  27  28
ENDBRANCH  26  27
ENDBRANCH  24  26
ENDBRANCH   1  24
TORSDOF 4
ENDMDL
MODEL 6
REMARK minimizedAffinity -6.55911016
REMARK CNNscore 0.364405334
REMARK CNNaffinity 6.48589373
REMARK  4 active torsions:
REMARK  status: ('A' for Active; 'I' for Inactive)
REMARK    1  A    between atoms: C2_2  and  C3_3 
REMARK    2  A    between atoms: C2_2  and  C9_9 
REMARK    3  A    between atoms: C3_3  and  C4_4 
REMARK    4  A    between atoms: C4_4  and  C5_5 
ROOT
HETATM    1  C9  UNL     1     -14.796   4.719  23.964  1.00  0.00     0.018 C 
HETATM    2  C10 UNL     1     -14.905   3.287  23.398  1.00  0.00     0.010 C 
HETATM    3  C11 UNL     1     -14.541   2.322  24.543  1.00  0.00     0.011 C 
HETATM    4  C12 UNL     1     -14.636   3.153  25.848  1.00  0.00    -0.032 C 
HETATM    5  C13 UNL     1     -16.147   3.208  26.221  1.00  0.00     0.016 C 
HETATM    6  C14 UNL     1     -14.093   4.500  25.323  1.00  0.00     0.002 C 
HETATM    7  C15 UNL     1     -14.220   5.634  26.321  1.00  0.00     0.006 C 
HETATM    8  C16 UNL     1     -14.185   5.189  27.782  1.00  0.00     0.006 C 
HETATM    9  C17 UNL     1     -13.482   3.840  28.127  1.00  0.00     0.003 C 
HETATM   10  C18 UNL     1     -13.723   3.410  29.643  1.00  0.00    -0.035 C 
HETATM   11  C19 UNL     1     -12.577   2.464  30.100  1.00  0.00     0.016 C 
HETATM   12  C20 UNL     1     -13.702   4.638  30.594  1.00  0.00     0.017 C 
HETATM   13  C21 UNL     1     -13.868   4.279  32.063  1.00  0.00     0.080 C 
HETATM   14  C22 UNL     1     -14.765   3.082  32.284  1.00  0.00     0.135 C 
HETATM   15  O1  UNL     1     -14.715   2.485  33.363  1.00  0.00    -0.297 OA
HETATM   16  C23 UNL     1     -15.775   2.705  31.189  1.00  0.00     0.017 C 
HETATM   17  C24 UNL     1     -16.919   3.745  31.283  1.00  0.00     0.023 C 
HETATM   18  C25 UNL     1     -16.398   1.341  31.549  1.00  0.00     0.023 C 
HETATM   19  C26 UNL     1     -15.131   2.748  29.741  1.00  0.00     0.009 C 
HETATM   20  C27 UNL     1     -15.185   1.434  28.948  1.00  0.00     0.007 C 
HETATM   21  C28 UNL     1     -14.318   1.351  27.690  1.00  0.00     0.011 C 
HETATM   22  C29 UNL     1     -13.737   2.662  27.071  1.00  0.00    -0.032 C 
HETATM   23  C30 UNL     1     -12.310   2.239  26.563  1.00  0.00     0.016 C 
ENDROOT
BRANCH   1  24
HETATM   24  C2  UNL     1     -14.197   5.713  22.978  1.00  0.00    -0.084 C 
HETATM   25  C1  UNL     1     -14.073   5.497  21.656  1.00  0.00     0.014 C 
BRANCH  24  26
HETATM   26  C3  UNL     1     -13.646   7.002  23.571  1.00  0.00     0.037 C 
BRANCH  26  27
HETATM   27  C4  UNL     1     -12.114   7.042  23.624  1.00  0.00     0.031 C 
BRANCH  27  28
HETATM   28  C5  UNL     1     -11.618   8.371  24.129  1.00  0.00    -0.024 C 
HETATM   29  C6  UNL     1     -11.392   9.487  23.407  1.00  0.00    -0.091 C 
HETATM   30  C7  UNL     1     -11.551   9.593  21.914  1.00  0.00     0.042 C 
HETATM   31  C8  UNL     1     -10.926  10.756  24.074  1.00  0.00     0.042 C 
ENDBRANCH  27  28
ENDBRANCH  26  27
ENDBRANCH  24  26
ENDBRANCH   1  24
TORSDOF 4
ENDMDL
MODEL 7
REMARK minimizedAffinity -7.02419424
REMARK CNNscore 0.364279151
REMARK CNNaffinity 6.32812691
REMARK  4 active torsions:
REMARK  status: ('A' for Active; 'I' for Inactive)
REMARK    1  A    between atoms: C2_2  and  C3_3 
REMARK    2  A    between atoms: C2_2  and  C9_9 
REMARK    3  A    between atoms: C3_3  and  C4_4 
REMARK    4  A    between atoms: C4_4  and  C5_5 
ROOT
HETATM    1  C9  UNL     1      -9.814   7.385  14.295  1.00  0.00     0.018 C 
HETATM    2  C10 UNL     1     -11.224   6.770  14.168  1.00  0.00     0.010 C 
HETATM    3  C11 UNL     1     -12.217   7.795  14.750  1.00  0.00     0.011 C 
HETATM    4  C12 UNL     1     -11.449   9.141  14.818  1.00  0.00    -0.032 C 
HETATM    5  C13 UNL     1     -11.492   9.742  13.383  1.00  0.00     0.016 C 
HETATM    6  C14 UNL     1     -10.053   8.608  15.210  1.00  0.00     0.002 C 
HETATM    7  C15 UNL     1      -8.971   9.671  15.185  1.00  0.00     0.006 C 
HETATM    8  C16 UNL     1      -9.477  11.085  15.466  1.00  0.00     0.006 C 
HETATM    9  C17 UNL     1     -10.799  11.250  16.277  1.00  0.00     0.003 C 
HETATM   10  C18 UNL     1     -11.307  12.761  16.294  1.00  0.00    -0.035 C 
HETATM   11  C19 UNL     1     -12.208  12.989  17.541  1.00  0.00     0.016 C 
HETATM   12  C20 UNL     1     -10.121  13.758  16.403  1.00  0.00     0.017 C 
HETATM   13  C21 UNL     1     -10.552  15.216  16.484  1.00  0.00     0.080 C 
HETATM   14  C22 UNL     1     -11.805  15.509  15.689  1.00  0.00     0.135 C 
HETATM   15  O1  UNL     1     -12.445  16.536  15.934  1.00  0.00    -0.297 OA
HETATM   16  C23 UNL     1     -12.189  14.563  14.542  1.00  0.00     0.017 C 
HETATM   17  C24 UNL     1     -11.218  14.883  13.378  1.00  0.00     0.023 C 
HETATM   18  C25 UNL     1     -13.599  14.944  14.047  1.00  0.00     0.023 C 
HETATM   19  C26 UNL     1     -12.048  13.038  14.952  1.00  0.00     0.009 C 
HETATM   20  C27 UNL     1     -13.328  12.196  14.837  1.00  0.00     0.007 C 
HETATM   21  C28 UNL     1     -13.309  10.818  15.502  1.00  0.00     0.011 C 
HETATM   22  C29 UNL     1     -11.942  10.186  15.918  1.00  0.00    -0.032 C 
HETATM   23  C30 UNL     1     -12.264   9.446  17.267  1.00  0.00     0.016 C 
ENDROOT
BRANCH   1  24
HETATM   24  C2  UNL     1      -8.747   6.372  14.687  1.00  0.00    -0.084 C 
HETATM   25  C1  UNL     1      -8.237   6.239  15.925  1.00  0.00     0.014 C 
BRANCH  24  26
HETATM   26  C3  UNL     1      -8.191   5.510  13.562  1.00  0.00     0.037 C 
BRANCH  26  27
HETATM   27  C4  UNL     1      -7.564   4.199  14.052  1.00  0.00     0.031 C 
BRANCH  27  28
HETATM   28  C5  UNL     1      -7.005   3.397  12.906  1.00  0.00    -0.024 C 
HETATM   29  C6  UNL     1      -5.778   3.499  12.360  1.00  0.00    -0.091 C 
HETATM   30  C7  UNL     1      -4.731   4.499  12.775  1.00  0.00     0.042 C 
HETATM   31  C8  UNL     1      -5.357   2.591  11.233  1.00  0.00     0.042 C 
ENDBRANCH  27  28
ENDBRANCH  26  27
ENDBRANCH  24  26
ENDBRANCH   1  24
TORSDOF 4
ENDMDL
MODEL 8
REMARK minimizedAffinity -8.97282314
REMARK CNNscore 0.340484023
REMARK CNNaffinity 6.6135354
REMARK  4 active torsions:
REMARK  status: ('A' for Active; 'I' for Inactive)
REMARK    1  A    between atoms: C2_2  and  C3_3 
REMARK    2  A    between atoms: C2_2  and  C9_9 
REMARK    3  A    between atoms: C3_3  and  C4_4 
REMARK    4  A    between atoms: C4_4  and  C5_5 
ROOT
HETATM    1  C9  UNL     1      -1.752   6.553  12.875  1.00  0.00     0.018 C 
HETATM    2  C10 UNL     1      -1.903   5.268  12.031  1.00  0.00     0.010 C 
HETATM    3  C11 UNL     1      -0.719   5.235  11.045  1.00  0.00     0.011 C 
HETATM    4  C12 UNL     1       0.320   6.248  11.592  1.00  0.00    -0.032 C 
HETATM    5  C13 UNL     1       1.093   5.511  12.725  1.00  0.00     0.016 C 
HETATM    6  C14 UNL     1      -0.646   7.330  12.124  1.00  0.00     0.002 C 
HETATM    7  C15 UNL     1       0.045   8.422  12.915  1.00  0.00     0.006 C 
HETATM    8  C16 UNL     1       1.495   8.673  12.502  1.00  0.00     0.006 C 
HETATM    9  C17 UNL     1       1.930   8.277  11.057  1.00  0.00     0.003 C 
HETATM   10  C18 UNL     1       3.507   8.392  10.855  1.00  0.00    -0.035 C 
HETATM   11  C19 UNL     1       3.821   8.590   9.344  1.00  0.00     0.016 C 
HETATM   12  C20 UNL     1       4.089   9.623  11.603  1.00  0.00     0.017 C 
HETATM   13  C21 UNL     1       5.584   9.817  11.395  1.00  0.00     0.080 C 
HETATM   14  C22 UNL     1       6.336   8.513  11.244  1.00  0.00     0.135 C 
HETATM   15  O1  UNL     1       7.462   8.524  10.741  1.00  0.00    -0.297 OA
HETATM   16  C23 UNL     1       5.706   7.230  11.807  1.00  0.00     0.017 C 
HETATM   17  C24 UNL     1       5.880   7.304  13.344  1.00  0.00     0.023 C 
HETATM   18  C25 UNL     1       6.547   6.026  11.333  1.00  0.00     0.023 C 
HETATM   19  C26 UNL     1       4.167   7.112  11.448  1.00  0.00     0.009 C 
HETATM   20  C27 UNL     1       3.761   5.858  10.658  1.00  0.00     0.007 C 
HETATM   21  C28 UNL     1       2.362   5.857  10.038  1.00  0.00     0.011 C 
HETATM   22  C29 UNL     1       1.307   6.902  10.523  1.00  0.00    -0.032 C 
HETATM   23  C30 UNL     1       0.520   7.279   9.214  1.00  0.00     0.016 C 
ENDROOT
BRANCH   1  24
HETATM   24  C2  UNL     1      -3.077   7.248  13.157  1.00  0.00    -0.084 C 
HETATM   25  C1  UNL     1      -3.311   8.558  12.955  1.00  0.00     0.014 C 
BRANCH  24  26
HETATM   26  C3  UNL     1      -4.171   6.388  13.773  1.00  0.00     0.037 C 
BRANCH  26  27
HETATM   27  C4  UNL     1      -4.534   5.164  12.923  1.00  0.00     0.031 C 
BRANCH  27  28
HETATM   28  C5  UNL     1      -5.907   4.648  13.264  1.00  0.00    -0.024 C 
HETATM   29  C6  UNL     1      -6.534   3.581  12.731  1.00  0.00    -0.091 C 
HETATM   30  C7  UNL     1      -5.979   2.718  11.630  1.00  0.00     0.042 C 
HETATM   31  C8  UNL     1      -7.903   3.172  13.211  1.00  0.00     0.042 C 
ENDBRANCH  27  28
ENDBRANCH  26  27
ENDBRANCH  24  26
ENDBRANCH   1  24
TORSDOF 4
ENDMDL
MODEL 9
REMARK minimizedAffinity -6.5116353
REMARK CNNscore 0.308350831
REMARK CNNaffinity 6.22398329
REMARK  4 active torsions:
REMARK  status: ('A' for Active; 'I' for Inactive)
REMARK    1  A    between atoms: C2_2  and  C3_3 
REMARK    2  A    between atoms: C2_2  and  C9_9 
REMARK    3  A    between atoms: C3_3  and  C4_4 
REMARK    4  A    between atoms: C4_4  and  C5_5 
ROOT
HETATM    1  C9  UNL     1      -3.176   8.372  15.347  1.00  0.00     0.018 C 
HETATM    2  C10 UNL     1      -2.243   8.257  14.121  1.00  0.00     0.010 C 
HETATM    3  C11 UNL     1      -1.345   9.509  14.119  1.00  0.00     0.011 C 
HETATM    4  C12 UNL     1      -1.460  10.118  15.541  1.00  0.00    -0.032 C 
HETATM    5  C13 UNL     1      -0.503   9.292  16.449  1.00  0.00     0.016 C 
HETATM    6  C14 UNL     1      -2.953   9.829  15.813  1.00  0.00     0.002 C 
HETATM    7  C15 UNL     1      -3.379  10.138  17.235  1.00  0.00     0.006 C 
HETATM    8  C16 UNL     1      -2.568  11.246  17.905  1.00  0.00     0.006 C 
HETATM    9  C17 UNL     1      -1.854  12.293  16.995  1.00  0.00     0.003 C 
HETATM   10  C18 UNL     1      -0.877  13.240  17.824  1.00  0.00    -0.035 C 
HETATM   11  C19 UNL     1      -0.679  14.578  17.056  1.00  0.00     0.016 C 
HETATM   12  C20 UNL     1      -1.475  13.599  19.212  1.00  0.00     0.017 C 
HETATM   13  C21 UNL     1      -0.610  14.552  20.025  1.00  0.00     0.080 C 
HETATM   14  C22 UNL     1       0.871  14.353  19.793  1.00  0.00     0.135 C 
HETATM   15  O1  UNL     1       1.655  15.252  20.108  1.00  0.00    -0.297 OA
HETATM   16  C23 UNL     1       1.358  12.999  19.253  1.00  0.00     0.017 C 
HETATM   17  C24 UNL     1       1.278  12.010  20.443  1.00  0.00     0.023 C 
HETATM   18  C25 UNL     1       2.853  13.125  18.895  1.00  0.00     0.023 C 
HETATM   19  C26 UNL     1       0.459  12.473  18.059  1.00  0.00     0.009 C 
HETATM   20  C27 UNL     1       1.194  12.216  16.735  1.00  0.00     0.007 C 
HETATM   21  C28 UNL     1       0.324  12.003  15.493  1.00  0.00     0.011 C 
HETATM   22  C29 UNL     1      -1.195  11.687  15.666  1.00  0.00    -0.032 C 
HETATM   23  C30 UNL     1      -1.878  12.451  14.473  1.00  0.00     0.016 C 
ENDROOT
BRANCH   1  24
HETATM   24  C2  UNL     1      -4.596   7.897  15.071  1.00  0.00    -0.084 C 
HETATM   25  C1  UNL     1      -5.647   8.711  14.864  1.00  0.00     0.014 C 
BRANCH  24  26
HETATM   26  C3  UNL     1      -4.822   6.392  15.107  1.00  0.00     0.037 C 
BRANCH  26  27
HETATM   27  C4  UNL     1      -4.979   5.767  13.716  1.00  0.00     0.031 C 
BRANCH  27  28
HETATM   28  C5  UNL     1      -6.315   5.090  13.567  1.00  0.00    -0.024 C 
HETATM   29  C6  UNL     1      -6.583   3.948  12.904  1.00  0.00    -0.091 C 
HETATM   30  C7  UNL     1      -5.573   3.147  12.126  1.00  0.00     0.042 C 
HETATM   31  C8  UNL     1      -7.979   3.379  12.879  1.00  0.00     0.042 C 
ENDBRANCH  27  28
ENDBRANCH  26  27
ENDBRANCH  24  26
ENDBRANCH   1  24
TORSDOF 4
ENDMDL
