MODEL 1
REMARK minimizedAffinity -8.28574181
REMARK  8 active torsions:
REMARK  status: ('A' for Active; 'I' for Inactive)
REMARK    1  A    between atoms: C2_2  and  O2_4 
REMARK    2  A    between atoms: O2_4  and  C3_5 
REMARK    3  A    between atoms: C5_7  and  O3_8 
REMARK    4  A    between atoms: C14_17  and  C15_18 
REMARK    5  A    between atoms: C15_18  and  O5_20 
REMARK    6  A    between atoms: O5_20  and  C16_21 
REMARK    7  A    between atoms: C16_21  and  C17_22 
REMARK    8  A    between atoms: C17_22  and  N1_23 
ROOT
HETATM    1  C3  UNL     1      -2.835  51.546 -24.238  1.00  0.00     0.097 C 
HETATM    2  C4  UNL     1      -2.410  52.466 -25.400  1.00  0.00     0.050 C 
HETATM    3  C5  UNL     1      -4.266  52.032 -23.788  1.00  0.00     0.153 C 
HETATM    4  C6  UNL     1      -4.611  51.757 -22.317  1.00  0.00     0.035 C 
HETATM    5  C7  UNL     1      -3.895  50.537 -21.753  1.00  0.00     0.012 C 
HETATM    6  C8  UNL     1      -2.337  50.631 -21.823  1.00  0.00    -0.033 C 
HETATM    7  C9  UNL     1      -1.813  49.185 -22.019  1.00  0.00     0.016 C 
HETATM    8  C10 UNL     1      -1.709  51.235 -20.507  1.00  0.00     0.006 C 
HETATM    9  C11 UNL     1      -2.086  50.514 -19.185  1.00  0.00     0.010 C 
HETATM   10  C12 UNL     1      -0.887  50.017 -18.372  1.00  0.00     0.035 C 
HETATM   11  C13 UNL     1       0.173  51.081 -18.144  1.00  0.00    -0.070 C 
HETATM   12  C14 UNL     1       0.804  51.116 -16.950  1.00  0.00     0.085 C 
HETATM   13  C20 UNL     1       0.430  52.016 -19.326  1.00  0.00     0.022 C 
HETATM   14  C21 UNL     1      -0.129  53.417 -19.023  1.00  0.00     0.015 C 
HETATM   15  C22 UNL     1      -0.167  51.397 -20.618  1.00  0.00     0.068 C 
HETATM   16  C23 UNL     1       0.243  52.132 -21.894  1.00  0.00     0.132 C 
HETATM   17  O6  UNL     1       1.122  52.991 -21.911  1.00  0.00    -0.298 OA
HETATM   18  C24 UNL     1      -0.409  51.665 -23.184  1.00  0.00     0.087 C 
HETATM   19  C25 UNL     1      -1.925  51.633 -22.978  1.00  0.00     0.038 C 
ENDROOT
BRANCH  12  20
HETATM   20  C15 UNL     1       1.876  52.001 -16.437  1.00  0.00     0.283 C 
HETATM   21  O4  UNL     1       2.504  52.738 -17.183  1.00  0.00    -0.260 OA
BRANCH  20  22
HETATM   22  O5  UNL     1       2.018  51.921 -15.099  1.00  0.00    -0.316 OA
BRANCH  22  23
HETATM   23  C16 UNL     1       1.141  50.997 -14.429  1.00  0.00     0.209 C 
BRANCH  23  24
HETATM   24  C17 UNL     1       0.803  51.505 -13.018  1.00  0.00     0.298 C 
BRANCH  24  25
HETATM   25  N1  UNL     1      -0.225  52.563 -12.994  1.00  0.00     0.082 N 
HETATM   26  C18 UNL     1      -0.200  53.253 -11.701  1.00  0.00     0.309 C 
HETATM   27  C19 UNL     1      -1.564  52.016 -13.233  1.00  0.00     0.309 C 
ENDBRANCH  24  25
ENDBRANCH  23  24
ENDBRANCH  22  23
ENDBRANCH  20  22
ENDBRANCH  12  20
BRANCH   1  28
HETATM   28  O2  UNL     1      -3.029  50.181 -24.720  1.00  0.00    -0.308 OA
BRANCH  28  29
HETATM   29  C2  UNL     1      -3.278  49.915 -26.029  1.00  0.00     0.255 C 
HETATM   30  C1  UNL     1      -3.505  48.445 -26.212  1.00  0.00     0.126 C 
HETATM   31  O1  UNL     1      -3.318  50.731 -26.936  1.00  0.00    -0.266 OA
ENDBRANCH  28  29
ENDBRANCH   1  28
BRANCH   3  32
HETATM   32  O3  UNL     1      -5.277  51.455 -24.621  1.00  0.00    -0.393 OA
HETATM   33  H8  UNL     1      -5.013  50.527 -24.768  1.00  0.00     0.210 HD
ENDBRANCH   3  32
TORSDOF 8
ENDMDL
MODEL 2
REMARK minimizedAffinity -8.20834446
REMARK  8 active torsions:
REMARK  status: ('A' for Active; 'I' for Inactive)
REMARK    1  A    between atoms: C2_2  and  O2_4 
REMARK    2  A    between atoms: O2_4  and  C3_5 
REMARK    3  A    between atoms: C5_7  and  O3_8 
REMARK    4  A    between atoms: C14_17  and  C15_18 
REMARK    5  A    between atoms: C15_18  and  O5_20 
REMARK    6  A    between atoms: O5_20  and  C16_21 
REMARK    7  A    between atoms: C16_21  and  C17_22 
REMARK    8  A    between atoms: C17_22  and  N1_23 
ROOT
HETATM    1  C3  UNL     1      -2.850  51.526 -24.341  1.00  0.00     0.097 C 
HETATM    2  C4  UNL     1      -2.471  52.477 -25.494  1.00  0.00     0.050 C 
HETATM    3  C5  UNL     1      -4.318  51.912 -23.913  1.00  0.00     0.153 C 
HETATM    4  C6  UNL     1      -4.667  51.610 -22.448  1.00  0.00     0.035 C 
HETATM    5  C7  UNL     1      -3.878  50.441 -21.874  1.00  0.00     0.012 C 
HETATM    6  C8  UNL     1      -2.329  50.641 -21.919  1.00  0.00    -0.033 C 
HETATM    7  C9  UNL     1      -1.704  49.235 -22.109  1.00  0.00     0.016 C 
HETATM    8  C10 UNL     1      -1.765  51.282 -20.592  1.00  0.00     0.006 C 
HETATM    9  C11 UNL     1      -2.112  50.534 -19.278  1.00  0.00     0.010 C 
HETATM   10  C12 UNL     1      -0.895  50.118 -18.446  1.00  0.00     0.035 C 
HETATM   11  C13 UNL     1       0.085  51.251 -18.200  1.00  0.00    -0.070 C 
HETATM   12  C14 UNL     1       0.693  51.326 -16.996  1.00  0.00     0.085 C 
HETATM   13  C20 UNL     1       0.296  52.205 -19.376  1.00  0.00     0.022 C 
HETATM   14  C21 UNL     1      -0.363  53.563 -19.079  1.00  0.00     0.015 C 
HETATM   15  C22 UNL     1      -0.236  51.550 -20.678  1.00  0.00     0.068 C 
HETATM   16  C23 UNL     1       0.142  52.315 -21.946  1.00  0.00     0.132 C 
HETATM   17  O6  UNL     1       0.961  53.233 -21.948  1.00  0.00    -0.298 OA
HETATM   18  C24 UNL     1      -0.456  51.809 -23.248  1.00  0.00     0.087 C 
HETATM   19  C25 UNL     1      -1.969  51.672 -23.066  1.00  0.00     0.038 C 
ENDROOT
BRANCH  12  20
HETATM   20  C15 UNL     1       1.694  52.281 -16.464  1.00  0.00     0.283 C 
HETATM   21  O4  UNL     1       2.747  52.491 -17.049  1.00  0.00    -0.260 OA
BRANCH  20  22
HETATM   22  O5  UNL     1       1.280  52.890 -15.336  1.00  0.00    -0.316 OA
BRANCH  22  23
HETATM   23  C16 UNL     1       1.033  52.027 -14.210  1.00  0.00     0.209 C 
BRANCH  23  24
HETATM   24  C17 UNL     1       2.358  51.632 -13.537  1.00  0.00     0.298 C 
BRANCH  24  25
HETATM   25  N1  UNL     1       2.838  50.286 -13.904  1.00  0.00     0.082 N 
HETATM   26  C18 UNL     1       1.774  49.301 -13.686  1.00  0.00     0.309 C 
HETATM   27  C19 UNL     1       4.023  49.909 -13.130  1.00  0.00     0.309 C 
ENDBRANCH  24  25
ENDBRANCH  23  24
ENDBRANCH  22  23
ENDBRANCH  20  22
ENDBRANCH  12  20
BRANCH   1  28
HETATM   28  O2  UNL     1      -2.943  50.153 -24.828  1.00  0.00    -0.308 OA
BRANCH  28  29
HETATM   29  C2  UNL     1      -3.309  49.872 -26.106  1.00  0.00     0.255 C 
HETATM   30  C1  UNL     1      -3.763  48.447 -26.200  1.00  0.00     0.126 C 
HETATM   31  O1  UNL     1      -3.283  50.646 -27.050  1.00  0.00    -0.266 OA
ENDBRANCH  28  29
ENDBRANCH   1  28
BRANCH   3  32
HETATM   32  O3  UNL     1      -5.274  51.269 -24.763  1.00  0.00    -0.393 OA
HETATM   33  H8  UNL     1      -4.944  50.363 -24.907  1.00  0.00     0.210 HD
ENDBRANCH   3  32
TORSDOF 8
ENDMDL
MODEL 3
REMARK minimizedAffinity -8.08042622
REMARK  8 active torsions:
REMARK  status: ('A' for Active; 'I' for Inactive)
REMARK    1  A    between atoms: C2_2  and  O2_4 
REMARK    2  A    between atoms: O2_4  and  C3_5 
REMARK    3  A    between atoms: C5_7  and  O3_8 
REMARK    4  A    between atoms: C14_17  and  C15_18 
REMARK    5  A    between atoms: C15_18  and  O5_20 
REMARK    6  A    between atoms: O5_20  and  C16_21 
REMARK    7  A    between atoms: C16_21  and  C17_22 
REMARK    8  A    between atoms: C17_22  and  N1_23 
ROOT
HETATM    1  C3  UNL     1      -0.421  52.065 -27.014  1.00  0.00     0.097 C 
HETATM    2  C4  UNL     1      -1.556  51.590 -27.942  1.00  0.00     0.050 C 
HETATM    3  C5  UNL     1       0.794  51.092 -27.265  1.00  0.00     0.153 C 
HETATM    4  C6  UNL     1       1.747  50.923 -26.072  1.00  0.00     0.035 C 
HETATM    5  C7  UNL     1       1.791  52.145 -25.164  1.00  0.00     0.012 C 
HETATM    6  C8  UNL     1       0.403  52.533 -24.560  1.00  0.00    -0.033 C 
HETATM    7  C9  UNL     1       0.403  54.076 -24.403  1.00  0.00     0.016 C 
HETATM    8  C10 UNL     1       0.151  51.869 -23.151  1.00  0.00     0.006 C 
HETATM    9  C11 UNL     1       1.234  52.139 -22.073  1.00  0.00     0.010 C 
HETATM   10  C12 UNL     1       0.701  52.777 -20.786  1.00  0.00     0.035 C 
HETATM   11  C13 UNL     1      -0.498  52.051 -20.202  1.00  0.00    -0.070 C 
HETATM   12  C14 UNL     1      -0.594  51.943 -18.859  1.00  0.00     0.085 C 
HETATM   13  C20 UNL     1      -1.503  51.516 -21.223  1.00  0.00     0.022 C 
HETATM   14  C21 UNL     1      -1.416  49.982 -21.296  1.00  0.00     0.015 C 
HETATM   15  C22 UNL     1      -1.263  52.199 -22.596  1.00  0.00     0.068 C 
HETATM   16  C23 UNL     1      -2.362  51.916 -23.620  1.00  0.00     0.132 C 
HETATM   17  O6  UNL     1      -3.427  51.380 -23.319  1.00  0.00    -0.298 OA
HETATM   18  C24 UNL     1      -2.129  52.439 -25.027  1.00  0.00     0.087 C 
HETATM   19  C25 UNL     1      -0.748  51.977 -25.495  1.00  0.00     0.038 C 
ENDROOT
BRANCH  12  20
HETATM   20  C15 UNL     1      -1.631  51.325 -18.001  1.00  0.00     0.283 C 
HETATM   21  O4  UNL     1      -2.812  51.622 -18.113  1.00  0.00    -0.260 OA
BRANCH  20  22
HETATM   22  O5  UNL     1      -1.124  50.401 -17.160  1.00  0.00    -0.316 OA
BRANCH  22  23
HETATM   23  C16 UNL     1       0.256  50.579 -16.790  1.00  0.00     0.209 C 
BRANCH  23  24
HETATM   24  C17 UNL     1       0.359  51.227 -15.400  1.00  0.00     0.298 C 
BRANCH  24  25
HETATM   25  N1  UNL     1       1.592  52.011 -15.196  1.00  0.00     0.082 N 
HETATM   26  C18 UNL     1       2.201  52.329 -16.492  1.00  0.00     0.309 C 
HETATM   27  C19 UNL     1       2.557  51.286 -14.365  1.00  0.00     0.309 C 
ENDBRANCH  24  25
ENDBRANCH  23  24
ENDBRANCH  22  23
ENDBRANCH  20  22
ENDBRANCH  12  20
BRANCH   1  28
HETATM   28  O2  UNL     1       0.053  53.382 -27.429  1.00  0.00    -0.308 OA
BRANCH  28  29
HETATM   29  C2  UNL     1      -0.808  54.396 -27.706  1.00  0.00     0.255 C 
HETATM   30  C1  UNL     1      -0.189  55.705 -27.319  1.00  0.00     0.126 C 
HETATM   31  O1  UNL     1      -1.920  54.284 -28.196  1.00  0.00    -0.266 OA
ENDBRANCH  28  29
ENDBRANCH   1  28
BRANCH   3  32
HETATM   32  O3  UNL     1       1.547  51.512 -28.408  1.00  0.00    -0.393 OA
HETATM   33  H8  UNL     1       1.600  52.485 -28.356  1.00  0.00     0.210 HD
ENDBRANCH   3  32
TORSDOF 8
ENDMDL
MODEL 4
REMARK minimizedAffinity -7.66785908
REMARK  8 active torsions:
REMARK  status: ('A' for Active; 'I' for Inactive)
REMARK    1  A    between atoms: C2_2  and  O2_4 
REMARK    2  A    between atoms: O2_4  and  C3_5 
REMARK    3  A    between atoms: C5_7  and  O3_8 
REMARK    4  A    between atoms: C14_17  and  C15_18 
REMARK    5  A    between atoms: C15_18  and  O5_20 
REMARK    6  A    between atoms: O5_20  and  C16_21 
REMARK    7  A    between atoms: C16_21  and  C17_22 
REMARK    8  A    between atoms: C17_22  and  N1_23 
ROOT
HETATM    1  C3  UNL     1      -0.570  52.148 -26.999  1.00  0.00     0.097 C 
HETATM    2  C4  UNL     1      -1.748  51.767 -27.919  1.00  0.00     0.050 C 
HETATM    3  C5  UNL     1       0.569  51.094 -27.278  1.00  0.00     0.153 C 
HETATM    4  C6  UNL     1       1.522  50.841 -26.100  1.00  0.00     0.035 C 
HETATM    5  C7  UNL     1       1.664  52.045 -25.178  1.00  0.00     0.012 C 
HETATM    6  C8  UNL     1       0.314  52.523 -24.550  1.00  0.00    -0.033 C 
HETATM    7  C9  UNL     1       0.426  54.059 -24.373  1.00  0.00     0.016 C 
HETATM    8  C10 UNL     1       0.033  51.859 -23.147  1.00  0.00     0.006 C 
HETATM    9  C11 UNL     1       1.145  52.036 -22.080  1.00  0.00     0.010 C 
HETATM   10  C12 UNL     1       0.675  52.693 -20.778  1.00  0.00     0.035 C 
HETATM   11  C13 UNL     1      -0.566  52.046 -20.188  1.00  0.00    -0.070 C 
HETATM   12  C14 UNL     1      -0.653  51.927 -18.845  1.00  0.00     0.085 C 
HETATM   13  C20 UNL     1      -1.619  51.598 -21.202  1.00  0.00     0.022 C 
HETATM   14  C21 UNL     1      -1.642  50.063 -21.296  1.00  0.00     0.015 C 
HETATM   15  C22 UNL     1      -1.348  52.280 -22.569  1.00  0.00     0.068 C 
HETATM   16  C23 UNL     1      -2.476  52.090 -23.582  1.00  0.00     0.132 C 
HETATM   17  O6  UNL     1      -3.573  51.628 -23.274  1.00  0.00    -0.298 OA
HETATM   18  C24 UNL     1      -2.223  52.615 -24.985  1.00  0.00     0.087 C 
HETATM   19  C25 UNL     1      -0.884  52.062 -25.477  1.00  0.00     0.038 C 
ENDROOT
BRANCH  12  20
HETATM   20  C15 UNL     1      -1.721  51.372 -17.981  1.00  0.00     0.283 C 
HETATM   21  O4  UNL     1      -2.900  51.620 -18.187  1.00  0.00    -0.260 OA
BRANCH  20  22
HETATM   22  O5  UNL     1      -1.240  50.558 -17.020  1.00  0.00    -0.316 OA
BRANCH  22  23
HETATM   23  C16 UNL     1      -2.208  49.715 -16.369  1.00  0.00     0.209 C 
BRANCH  23  24
HETATM   24  C17 UNL     1      -1.518  48.793 -15.351  1.00  0.00     0.298 C 
BRANCH  24  25
HETATM   25  N1  UNL     1      -0.151  49.216 -14.992  1.00  0.00     0.082 N 
HETATM   26  C18 UNL     1       0.788  48.115 -15.225  1.00  0.00     0.309 C 
HETATM   27  C19 UNL     1      -0.071  49.642 -13.592  1.00  0.00     0.309 C 
ENDBRANCH  24  25
ENDBRANCH  23  24
ENDBRANCH  22  23
ENDBRANCH  20  22
ENDBRANCH  12  20
BRANCH   1  28
HETATM   28  O2  UNL     1      -0.009  53.433 -27.404  1.00  0.00    -0.308 OA
BRANCH  28  29
HETATM   29  C2  UNL     1      -0.801  54.499 -27.692  1.00  0.00     0.255 C 
HETATM   30  C1  UNL     1      -0.156  55.757 -27.195  1.00  0.00     0.126 C 
HETATM   31  O1  UNL     1      -1.876  54.463 -28.269  1.00  0.00    -0.266 OA
ENDBRANCH  28  29
ENDBRANCH   1  28
BRANCH   3  32
HETATM   32  O3  UNL     1       1.336  51.475 -28.426  1.00  0.00    -0.393 OA
HETATM   33  H8  UNL     1       1.459  52.441 -28.362  1.00  0.00     0.210 HD
ENDBRANCH   3  32
TORSDOF 8
ENDMDL
MODEL 5
REMARK minimizedAffinity -7.53552341
REMARK  8 active torsions:
REMARK  status: ('A' for Active; 'I' for Inactive)
REMARK    1  A    between atoms: C2_2  and  O2_4 
REMARK    2  A    between atoms: O2_4  and  C3_5 
REMARK    3  A    between atoms: C5_7  and  O3_8 
REMARK    4  A    between atoms: C14_17  and  C15_18 
REMARK    5  A    between atoms: C15_18  and  O5_20 
REMARK    6  A    between atoms: O5_20  and  C16_21 
REMARK    7  A    between atoms: C16_21  and  C17_22 
REMARK    8  A    between atoms: C17_22  and  N1_23 
ROOT
HETATM    1  C3  UNL     1      -0.338  52.300 -26.931  1.00  0.00     0.097 C 
HETATM    2  C4  UNL     1      -1.516  52.019 -27.885  1.00  0.00     0.050 C 
HETATM    3  C5  UNL     1       0.742  51.189 -27.220  1.00  0.00     0.153 C 
HETATM    4  C6  UNL     1       1.653  50.844 -26.032  1.00  0.00     0.035 C 
HETATM    5  C7  UNL     1       1.845  52.009 -25.069  1.00  0.00     0.012 C 
HETATM    6  C8  UNL     1       0.513  52.547 -24.454  1.00  0.00    -0.033 C 
HETATM    7  C9  UNL     1       0.712  54.068 -24.227  1.00  0.00     0.016 C 
HETATM    8  C10 UNL     1       0.163  51.859 -23.078  1.00  0.00     0.006 C 
HETATM    9  C11 UNL     1       1.260  51.937 -21.984  1.00  0.00     0.010 C 
HETATM   10  C12 UNL     1       0.801  52.581 -20.672  1.00  0.00     0.035 C 
HETATM   11  C13 UNL     1      -0.488  51.992 -20.127  1.00  0.00    -0.070 C 
HETATM   12  C14 UNL     1      -0.612  51.837 -18.791  1.00  0.00     0.085 C 
HETATM   13  C20 UNL     1      -1.543  51.639 -21.176  1.00  0.00     0.022 C 
HETATM   14  C21 UNL     1      -1.656  50.111 -21.319  1.00  0.00     0.015 C 
HETATM   15  C22 UNL     1      -1.203  52.345 -22.515  1.00  0.00     0.068 C 
HETATM   16  C23 UNL     1      -2.318  52.254 -23.556  1.00  0.00     0.132 C 
HETATM   17  O6  UNL     1      -3.447  51.849 -23.285  1.00  0.00    -0.298 OA
HETATM   18  C24 UNL     1      -2.004  52.805 -24.936  1.00  0.00     0.087 C 
HETATM   19  C25 UNL     1      -0.690  52.187 -25.419  1.00  0.00     0.038 C 
ENDROOT
BRANCH  12  20
HETATM   20  C15 UNL     1      -1.729  51.322 -17.967  1.00  0.00     0.283 C 
HETATM   21  O4  UNL     1      -2.884  51.666 -18.172  1.00  0.00    -0.260 OA
BRANCH  20  22
HETATM   22  O5  UNL     1      -1.322  50.429 -17.043  1.00  0.00    -0.316 OA
BRANCH  22  23
HETATM   23  C16 UNL     1      -1.253  49.059 -17.482  1.00  0.00     0.209 C 
BRANCH  23  24
HETATM   24  C17 UNL     1      -2.353  48.224 -16.807  1.00  0.00     0.298 C 
BRANCH  24  25
HETATM   25  N1  UNL     1      -3.301  47.607 -17.754  1.00  0.00     0.082 N 
HETATM   26  C18 UNL     1      -2.635  47.361 -19.037  1.00  0.00     0.309 C 
HETATM   27  C19 UNL     1      -4.478  48.455 -17.966  1.00  0.00     0.309 C 
ENDBRANCH  24  25
ENDBRANCH  23  24
ENDBRANCH  22  23
ENDBRANCH  20  22
ENDBRANCH  12  20
BRANCH   1  28
HETATM   28  O2  UNL     1       0.307  53.561 -27.283  1.00  0.00    -0.308 OA
BRANCH  28  29
HETATM   29  C2  UNL     1      -0.411  54.695 -27.501  1.00  0.00     0.255 C 
HETATM   30  C1  UNL     1      -1.439  54.446 -28.563  1.00  0.00     0.126 C 
HETATM   31  O1  UNL     1      -0.263  55.763 -26.930  1.00  0.00    -0.266 OA
ENDBRANCH  28  29
ENDBRANCH   1  28
BRANCH   3  32
HETATM   32  O3  UNL     1       1.555  51.558 -28.340  1.00  0.00    -0.393 OA
HETATM   33  H8  UNL     1       1.734  52.513 -28.243  1.00  0.00     0.210 HD
ENDBRANCH   3  32
TORSDOF 8
ENDMDL
MODEL 6
REMARK minimizedAffinity -7.41109896
REMARK  8 active torsions:
REMARK  status: ('A' for Active; 'I' for Inactive)
REMARK    1  A    between atoms: C2_2  and  O2_4 
REMARK    2  A    between atoms: O2_4  and  C3_5 
REMARK    3  A    between atoms: C5_7  and  O3_8 
REMARK    4  A    between atoms: C14_17  and  C15_18 
REMARK    5  A    between atoms: C15_18  and  O5_20 
REMARK    6  A    between atoms: O5_20  and  C16_21 
REMARK    7  A    between atoms: C16_21  and  C17_22 
REMARK    8  A    between atoms: C17_22  and  N1_23 
ROOT
HETATM    1  C3  UNL     1      -6.305  47.903 -21.713  1.00  0.00     0.097 C 
HETATM    2  C4  UNL     1      -7.202  47.315 -22.821  1.00  0.00     0.050 C 
HETATM    3  C5  UNL     1      -7.194  48.940 -20.926  1.00  0.00     0.153 C 
HETATM    4  C6  UNL     1      -6.419  50.085 -20.258  1.00  0.00     0.035 C 
HETATM    5  C7  UNL     1      -4.996  49.699 -19.875  1.00  0.00     0.012 C 
HETATM    6  C8  UNL     1      -4.122  49.229 -21.082  1.00  0.00    -0.033 C 
HETATM    7  C9  UNL     1      -3.132  48.171 -20.529  1.00  0.00     0.016 C 
HETATM    8  C10 UNL     1      -3.306  50.411 -21.733  1.00  0.00     0.006 C 
HETATM    9  C11 UNL     1      -2.395  51.216 -20.769  1.00  0.00     0.010 C 
HETATM   10  C12 UNL     1      -0.920  51.259 -21.180  1.00  0.00     0.035 C 
HETATM   11  C13 UNL     1      -0.706  51.674 -22.625  1.00  0.00    -0.070 C 
HETATM   12  C14 UNL     1       0.348  52.466 -22.918  1.00  0.00     0.085 C 
HETATM   13  C20 UNL     1      -1.727  51.128 -23.623  1.00  0.00     0.022 C 
HETATM   14  C21 UNL     1      -2.653  52.259 -24.104  1.00  0.00     0.015 C 
HETATM   15  C22 UNL     1      -2.503  49.947 -22.981  1.00  0.00     0.068 C 
HETATM   16  C23 UNL     1      -3.375  49.177 -23.972  1.00  0.00     0.132 C 
HETATM   17  O6  UNL     1      -3.303  49.344 -25.188  1.00  0.00    -0.298 OA
HETATM   18  C24 UNL     1      -4.266  48.093 -23.390  1.00  0.00     0.087 C 
HETATM   19  C25 UNL     1      -5.068  48.692 -22.233  1.00  0.00     0.038 C 
ENDROOT
BRANCH  12  20
HETATM   20  C15 UNL     1       0.829  53.015 -24.208  1.00  0.00     0.283 C 
HETATM   21  O4  UNL     1       0.964  54.219 -24.377  1.00  0.00    -0.260 OA
BRANCH  20  22
HETATM   22  O5  UNL     1       1.130  52.052 -25.101  1.00  0.00    -0.316 OA
BRANCH  22  23
HETATM   23  C16 UNL     1       1.521  52.509 -26.409  1.00  0.00     0.209 C 
BRANCH  23  24
HETATM   24  C17 UNL     1       0.969  51.568 -27.493  1.00  0.00     0.298 C 
BRANCH  24  25
HETATM   25  N1  UNL     1      -0.304  52.020 -28.085  1.00  0.00     0.082 N 
HETATM   26  C18 UNL     1      -0.451  53.468 -27.907  1.00  0.00     0.309 C 
HETATM   27  C19 UNL     1      -1.450  51.333 -27.482  1.00  0.00     0.309 C 
ENDBRANCH  24  25
ENDBRANCH  23  24
ENDBRANCH  22  23
ENDBRANCH  20  22
ENDBRANCH  12  20
BRANCH   1  28
HETATM   28  O2  UNL     1      -5.966  46.872 -20.737  1.00  0.00    -0.308 OA
BRANCH  28  29
HETATM   29  C2  UNL     1      -5.727  45.587 -21.110  1.00  0.00     0.255 C 
HETATM   30  C1  UNL     1      -4.605  45.024 -20.292  1.00  0.00     0.126 C 
HETATM   31  O1  UNL     1      -6.322  44.964 -21.975  1.00  0.00    -0.266 OA
ENDBRANCH  28  29
ENDBRANCH   1  28
BRANCH   3  32
HETATM   32  O3  UNL     1      -7.987  48.273 -19.937  1.00  0.00    -0.393 OA
HETATM   33  H8  UNL     1      -7.407  47.599 -19.533  1.00  0.00     0.210 HD
ENDBRANCH   3  32
TORSDOF 8
ENDMDL
MODEL 7
REMARK minimizedAffinity -7.34729862
REMARK  8 active torsions:
REMARK  status: ('A' for Active; 'I' for Inactive)
REMARK    1  A    between atoms: C2_2  and  O2_4 
REMARK    2  A    between atoms: O2_4  and  C3_5 
REMARK    3  A    between atoms: C5_7  and  O3_8 
REMARK    4  A    between atoms: C14_17  and  C15_18 
REMARK    5  A    between atoms: C15_18  and  O5_20 
REMARK    6  A    between atoms: O5_20  and  C16_21 
REMARK    7  A    between atoms: C16_21  and  C17_22 
REMARK    8  A    between atoms: C17_22  and  N1_23 
ROOT
HETATM    1  C3  UNL     1      -0.303  51.883 -25.739  1.00  0.00     0.097 C 
HETATM    2  C4  UNL     1       0.396  51.180 -26.920  1.00  0.00     0.050 C 
HETATM    3  C5  UNL     1       0.813  52.143 -24.656  1.00  0.00     0.153 C 
HETATM    4  C6  UNL     1       0.308  52.206 -23.206  1.00  0.00     0.035 C 
HETATM    5  C7  UNL     1      -1.133  52.685 -23.096  1.00  0.00     0.012 C 
HETATM    6  C8  UNL     1      -2.156  51.796 -23.874  1.00  0.00    -0.033 C 
HETATM    7  C9  UNL     1      -3.286  52.740 -24.359  1.00  0.00     0.016 C 
HETATM    8  C10 UNL     1      -2.780  50.663 -22.971  1.00  0.00     0.006 C 
HETATM    9  C11 UNL     1      -3.461  51.140 -21.661  1.00  0.00     0.010 C 
HETATM   10  C12 UNL     1      -4.926  50.716 -21.519  1.00  0.00     0.035 C 
HETATM   11  C13 UNL     1      -5.153  49.234 -21.757  1.00  0.00    -0.070 C 
HETATM   12  C14 UNL     1      -6.059  48.590 -20.990  1.00  0.00     0.085 C 
HETATM   13  C20 UNL     1      -4.318  48.613 -22.878  1.00  0.00     0.022 C 
HETATM   14  C21 UNL     1      -3.232  47.700 -22.283  1.00  0.00     0.015 C 
HETATM   15  C22 UNL     1      -3.735  49.736 -23.775  1.00  0.00     0.068 C 
HETATM   16  C23 UNL     1      -3.087  49.219 -25.059  1.00  0.00     0.132 C 
HETATM   17  O6  UNL     1      -3.206  48.056 -25.440  1.00  0.00    -0.298 OA
HETATM   18  C24 UNL     1      -2.377  50.248 -25.922  1.00  0.00     0.087 C 
HETATM   19  C25 UNL     1      -1.403  51.033 -25.040  1.00  0.00     0.038 C 
ENDROOT
BRANCH  12  20
HETATM   20  C15 UNL     1      -6.513  47.179 -20.990  1.00  0.00     0.283 C 
HETATM   21  O4  UNL     1      -5.929  46.322 -20.343  1.00  0.00    -0.260 OA
BRANCH  20  22
HETATM   22  O5  UNL     1      -7.630  46.994 -21.721  1.00  0.00    -0.316 OA
BRANCH  22  23
HETATM   23  C16 UNL     1      -7.468  46.235 -22.933  1.00  0.00     0.209 C 
BRANCH  23  24
HETATM   24  C17 UNL     1      -7.623  47.147 -24.162  1.00  0.00     0.298 C 
BRANCH  24  25
HETATM   25  N1  UNL     1      -8.904  47.877 -24.207  1.00  0.00     0.082 N 
HETATM   26  C18 UNL     1     -10.012  46.930 -24.364  1.00  0.00     0.309 C 
HETATM   27  C19 UNL     1      -8.928  48.850 -25.303  1.00  0.00     0.309 C 
ENDBRANCH  24  25
ENDBRANCH  23  24
ENDBRANCH  22  23
ENDBRANCH  20  22
ENDBRANCH  12  20
BRANCH   1  28
HETATM   28  O2  UNL     1      -0.762  53.209 -26.140  1.00  0.00    -0.308 OA
BRANCH  28  29
HETATM   29  C2  UNL     1      -0.553  53.687 -27.396  1.00  0.00     0.255 C 
HETATM   30  C1  UNL     1       0.048  52.614 -28.252  1.00  0.00     0.126 C 
HETATM   31  O1  UNL     1      -0.809  54.813 -27.790  1.00  0.00    -0.266 OA
ENDBRANCH  28  29
ENDBRANCH   1  28
BRANCH   3  32
HETATM   32  O3  UNL     1       1.531  53.346 -24.953  1.00  0.00    -0.393 OA
HETATM   33  H8  UNL     1       0.865  53.994 -25.249  1.00  0.00     0.210 HD
ENDBRANCH   3  32
TORSDOF 8
ENDMDL
MODEL 8
REMARK minimizedAffinity -7.22666359
REMARK  8 active torsions:
REMARK  status: ('A' for Active; 'I' for Inactive)
REMARK    1  A    between atoms: C2_2  and  O2_4 
REMARK    2  A    between atoms: O2_4  and  C3_5 
REMARK    3  A    between atoms: C5_7  and  O3_8 
REMARK    4  A    between atoms: C14_17  and  C15_18 
REMARK    5  A    between atoms: C15_18  and  O5_20 
REMARK    6  A    between atoms: O5_20  and  C16_21 
REMARK    7  A    between atoms: C16_21  and  C17_22 
REMARK    8  A    between atoms: C17_22  and  N1_23 
ROOT
HETATM    1  C3  UNL     1      -0.674  51.572 -25.260  1.00  0.00     0.097 C 
HETATM    2  C4  UNL     1      -0.317  50.661 -26.451  1.00  0.00     0.050 C 
HETATM    3  C5  UNL     1       0.688  52.159 -24.726  1.00  0.00     0.153 C 
HETATM    4  C6  UNL     1       0.697  52.526 -23.235  1.00  0.00     0.035 C 
HETATM    5  C7  UNL     1      -0.678  52.916 -22.708  1.00  0.00     0.012 C 
HETATM    6  C8  UNL     1      -1.758  51.798 -22.874  1.00  0.00    -0.033 C 
HETATM    7  C9  UNL     1      -3.113  52.518 -23.093  1.00  0.00     0.016 C 
HETATM    8  C10 UNL     1      -1.865  50.869 -21.603  1.00  0.00     0.006 C 
HETATM    9  C11 UNL     1      -2.130  51.593 -20.256  1.00  0.00     0.010 C 
HETATM   10  C12 UNL     1      -3.381  51.113 -19.514  1.00  0.00     0.035 C 
HETATM   11  C13 UNL     1      -3.451  49.604 -19.359  1.00  0.00    -0.070 C 
HETATM   12  C14 UNL     1      -3.939  49.097 -18.206  1.00  0.00     0.085 C 
HETATM   13  C20 UNL     1      -2.958  48.797 -20.560  1.00  0.00     0.022 C 
HETATM   14  C21 UNL     1      -1.612  48.128 -20.231  1.00  0.00     0.015 C 
HETATM   15  C22 UNL     1      -2.885  49.714 -21.809  1.00  0.00     0.068 C 
HETATM   16  C23 UNL     1      -2.637  48.955 -23.112  1.00  0.00     0.132 C 
HETATM   17  O6  UNL     1      -2.702  47.730 -23.188  1.00  0.00    -0.298 OA
HETATM   18  C24 UNL     1      -2.420  49.798 -24.357  1.00  0.00     0.087 C 
HETATM   19  C25 UNL     1      -1.336  50.836 -24.059  1.00  0.00     0.038 C 
ENDROOT
BRANCH  12  20
HETATM   20  C15 UNL     1      -4.150  47.698 -17.765  1.00  0.00     0.283 C 
HETATM   21  O4  UNL     1      -3.359  47.139 -17.020  1.00  0.00    -0.260 OA
BRANCH  20  22
HETATM   22  O5  UNL     1      -5.302  47.176 -18.234  1.00  0.00    -0.316 OA
BRANCH  22  23
HETATM   23  C16 UNL     1      -6.420  48.081 -18.300  1.00  0.00     0.209 C 
BRANCH  23  24
HETATM   24  C17 UNL     1      -7.548  47.607 -17.369  1.00  0.00     0.298 C 
BRANCH  24  25
HETATM   25  N1  UNL     1      -8.831  48.303 -17.584  1.00  0.00     0.082 N 
HETATM   26  C18 UNL     1      -9.911  47.578 -16.907  1.00  0.00     0.309 C 
HETATM   27  C19 UNL     1      -9.143  48.428 -19.011  1.00  0.00     0.309 C 
ENDBRANCH  24  25
ENDBRANCH  23  24
ENDBRANCH  22  23
ENDBRANCH  20  22
ENDBRANCH  12  20
BRANCH   1  28
HETATM   28  O2  UNL     1      -1.434  52.730 -25.720  1.00  0.00    -0.308 OA
BRANCH  28  29
HETATM   29  C2  UNL     1      -1.989  52.773 -26.960  1.00  0.00     0.255 C 
HETATM   30  C1  UNL     1      -3.023  51.695 -27.089  1.00  0.00     0.126 C 
HETATM   31  O1  UNL     1      -1.707  53.560 -27.849  1.00  0.00    -0.266 OA
ENDBRANCH  28  29
ENDBRANCH   1  28
BRANCH   3  32
HETATM   32  O3  UNL     1       1.076  53.304 -25.492  1.00  0.00    -0.393 OA
HETATM   33  H8  UNL     1       0.260  53.816 -25.649  1.00  0.00     0.210 HD
ENDBRANCH   3  32
TORSDOF 8
ENDMDL
MODEL 9
REMARK minimizedAffinity -7.15360928
REMARK  8 active torsions:
REMARK  status: ('A' for Active; 'I' for Inactive)
REMARK    1  A    between atoms: C2_2  and  O2_4 
REMARK    2  A    between atoms: O2_4  and  C3_5 
REMARK    3  A    between atoms: C5_7  and  O3_8 
REMARK    4  A    between atoms: C14_17  and  C15_18 
REMARK    5  A    between atoms: C15_18  and  O5_20 
REMARK    6  A    between atoms: O5_20  and  C16_21 
REMARK    7  A    between atoms: C16_21  and  C17_22 
REMARK    8  A    between atoms: C17_22  and  N1_23 
ROOT
HETATM    1  C3  UNL     1      -4.051  50.059 -24.116  1.00  0.00     0.097 C 
HETATM    2  C4  UNL     1      -3.938  51.121 -25.228  1.00  0.00     0.050 C 
HETATM    3  C5  UNL     1      -5.522  50.156 -23.557  1.00  0.00     0.153 C 
HETATM    4  C6  UNL     1      -5.690  49.720 -22.094  1.00  0.00     0.035 C 
HETATM    5  C7  UNL     1      -4.666  48.680 -21.659  1.00  0.00     0.012 C 
HETATM    6  C8  UNL     1      -3.184  49.154 -21.804  1.00  0.00    -0.033 C 
HETATM    7  C9  UNL     1      -2.345  47.892 -22.133  1.00  0.00     0.016 C 
HETATM    8  C10 UNL     1      -2.630  49.813 -20.482  1.00  0.00     0.006 C 
HETATM    9  C11 UNL     1      -2.731  48.947 -19.199  1.00  0.00     0.010 C 
HETATM   10  C12 UNL     1      -1.395  48.709 -18.488  1.00  0.00     0.035 C 
HETATM   11  C13 UNL     1      -0.607  49.983 -18.239  1.00  0.00    -0.070 C 
HETATM   12  C14 UNL     1       0.077  50.100 -17.080  1.00  0.00     0.085 C 
HETATM   13  C20 UNL     1      -0.663  51.019 -19.361  1.00  0.00     0.022 C 
HETATM   14  C21 UNL     1      -1.518  52.223 -18.927  1.00  0.00     0.015 C 
HETATM   15  C22 UNL     1      -1.182  50.351 -20.662  1.00  0.00     0.068 C 
HETATM   16  C23 UNL     1      -1.048  51.237 -21.900  1.00  0.00     0.132 C 
HETATM   17  O6  UNL     1      -0.403  52.283 -21.900  1.00  0.00    -0.298 OA
HETATM   18  C24 UNL     1      -1.657  50.703 -23.185  1.00  0.00     0.087 C 
HETATM   19  C25 UNL     1      -3.104  50.291 -22.903  1.00  0.00     0.038 C 
ENDROOT
BRANCH  12  20
HETATM   20  C15 UNL     1       0.940  51.187 -16.561  1.00  0.00     0.283 C 
HETATM   21  O4  UNL     1       1.687  51.815 -17.298  1.00  0.00    -0.260 OA
BRANCH  20  22
HETATM   22  O5  UNL     1       0.757  51.410 -15.244  1.00  0.00    -0.316 OA
BRANCH  22  23
HETATM   23  C16 UNL     1      -0.552  51.101 -14.732  1.00  0.00     0.209 C 
BRANCH  23  24
HETATM   24  C17 UNL     1      -0.529  51.051 -13.196  1.00  0.00     0.298 C 
BRANCH  24  25
HETATM   25  N1  UNL     1      -1.798  51.461 -12.565  1.00  0.00     0.082 N 
HETATM   26  C18 UNL     1      -2.778  51.811 -13.597  1.00  0.00     0.309 C 
HETATM   27  C19 UNL     1      -1.605  52.602 -11.664  1.00  0.00     0.309 C 
ENDBRANCH  24  25
ENDBRANCH  23  24
ENDBRANCH  22  23
ENDBRANCH  20  22
ENDBRANCH  12  20
BRANCH   1  28
HETATM   28  O2  UNL     1      -3.946  48.719 -24.685  1.00  0.00    -0.308 OA
BRANCH  28  29
HETATM   29  C2  UNL     1      -3.918  48.515 -26.029  1.00  0.00     0.255 C 
HETATM   30  C1  UNL     1      -2.506  48.599 -26.524  1.00  0.00     0.126 C 
HETATM   31  O1  UNL     1      -4.882  48.292 -26.744  1.00  0.00    -0.266 OA
ENDBRANCH  28  29
ENDBRANCH   1  28
BRANCH   3  32
HETATM   32  O3  UNL     1      -6.421  49.401 -24.376  1.00  0.00    -0.393 OA
HETATM   33  H8  UNL     1      -5.953  48.575 -24.604  1.00  0.00     0.210 HD
ENDBRANCH   3  32
TORSDOF 8
ENDMDL
