MODEL 1
REMARK minimizedAffinity -9.73018646
REMARK CNNscore 0.820947587
REMARK CNNaffinity 7.76157713
REMARK  7 active torsions:
REMARK  status: ('A' for Active; 'I' for Inactive)
REMARK    1  A    between atoms: C2_2  and  C3_3 
REMARK    2  A    between atoms: C4_4  and  C5_5 
REMARK    3  A    between atoms: C5_5  and  O2_7 
REMARK    4  A    between atoms: O2_7  and  C6_8 
REMARK    5  A    between atoms: C6_8  and  C8_10 
REMARK    6  A    between atoms: C18_22  and  O4_23 
REMARK    7  A    between atoms: C20_26  and  O6_27 
ROOT
HETATM    1  C8  UNL     1      -1.646   6.725  12.598  1.00  0.00     0.028 C 
HETATM    2  C9  UNL     1      -2.396   8.042  12.459  1.00  0.00     0.011 C 
HETATM    3  C10 UNL     1      -1.392   8.908  11.702  1.00  0.00     0.044 C 
HETATM    4  C11 UNL     1       0.049   8.425  12.117  1.00  0.00     0.097 C 
HETATM    5  O3  UNL     1       0.760   9.537  12.670  1.00  0.00    -0.373 OA
HETATM    6  C12 UNL     1       0.271  10.163  13.841  1.00  0.00     0.199 C 
HETATM    7  C13 UNL     1       0.942   9.581  15.085  1.00  0.00     0.298 C 
HETATM    8  N1  UNL     1       0.998   8.109  15.111  1.00  0.00     0.087 N 
HETATM    9  C14 UNL     1       1.343   7.641  16.455  1.00  0.00     0.310 C 
HETATM   10  C15 UNL     1      -0.228   7.489  14.606  1.00  0.00     0.285 C 
HETATM   11  C16 UNL     1      -0.216   7.177  13.073  1.00  0.00     0.030 C 
HETATM   12  C17 UNL     1       0.752   5.984  12.808  1.00  0.00     0.050 C 
HETATM   13  C18 UNL     1       2.194   6.365  12.485  1.00  0.00     0.159 C 
HETATM   14  C19 UNL     1       2.305   7.341  11.265  1.00  0.00     0.124 C 
HETATM   15  O5  UNL     1       3.191   8.431  11.648  1.00  0.00    -0.336 OA
HETATM   16  C20 UNL     1       4.329   8.568  10.813  1.00  0.00     0.163 C 
HETATM   17  C21 UNL     1       5.173   7.303  10.901  1.00  0.00     0.069 C 
HETATM   18  C22 UNL     1       4.384   6.140  10.314  1.00  0.00     0.018 C 
HETATM   19  C23 UNL     1       2.925   6.583  10.008  1.00  0.00    -0.002 C 
HETATM   20  C24 UNL     1       2.123   5.347   9.555  1.00  0.00     0.019 C 
HETATM   21  C25 UNL     1       3.012   7.650   8.877  1.00  0.00     0.005 C 
HETATM   22  C26 UNL     1       1.614   8.120   8.464  1.00  0.00     0.033 C 
HETATM   23  C27 UNL     1       0.704   8.376   9.632  1.00  0.00    -0.017 C 
HETATM   24  C28 UNL     1       0.962   8.041  10.918  1.00  0.00    -0.011 C 
HETATM   25  C29 UNL     1       3.881   8.827   9.375  1.00  0.00     0.074 C 
ENDROOT
BRANCH   1  26
HETATM   26  C6  UNL     1      -2.396   5.603  13.357  1.00  0.00     0.133 C 
HETATM   27  C7  UNL     1      -2.594   5.812  14.855  1.00  0.00     0.040 C 
BRANCH  26  28
HETATM   28  O2  UNL     1      -3.754   5.523  12.845  1.00  0.00    -0.312 OA
BRANCH  28  29
HETATM   29  C5  UNL     1      -4.120   4.380  12.196  1.00  0.00     0.296 C 
HETATM   30  O1  UNL     1      -3.422   3.811  11.366  1.00  0.00    -0.259 OA
BRANCH  29  31
HETATM   31  C4  UNL     1      -5.481   3.963  12.546  1.00  0.00     0.069 A 
HETATM   32  C3  UNL     1      -6.361   4.688  13.346  1.00  0.00     0.025 A 
HETATM   33  N2  UNL     1      -7.519   3.963  13.467  1.00  0.00    -0.368 N 
HETATM   34  C32 UNL     1      -7.410   2.791  12.772  1.00  0.00     0.096 A 
HETATM   35  H46 UNL     1      -8.331   4.248  14.003  1.00  0.00     0.165 HD
HETATM   36  C30 UNL     1      -6.164   2.750  12.177  1.00  0.00    -0.028 A 
HETATM   37  C31 UNL     1      -5.651   1.651  11.313  1.00  0.00     0.050 C 
BRANCH  32  38
HETATM   38  C2  UNL     1      -6.206   6.008  14.036  1.00  0.00     0.054 C 
HETATM   39  C1  UNL     1      -7.541   6.716  14.225  1.00  0.00     0.011 C 
ENDBRANCH  32  38
ENDBRANCH  29  31
ENDBRANCH  28  29
ENDBRANCH  26  28
ENDBRANCH   1  26
BRANCH  13  40
HETATM   40  O4  UNL     1       2.864   6.830  13.654  1.00  0.00    -0.392 OA
HETATM   41  H27 UNL     1       2.399   7.653  13.927  1.00  0.00     0.210 HD
ENDBRANCH  13  40
BRANCH  16  42
HETATM   42  O6  UNL     1       5.072   9.668  11.292  1.00  0.00    -0.365 OA
HETATM   43  H28 UNL     1       4.719   9.760  12.198  1.00  0.00     0.213 HD
ENDBRANCH  16  42
TORSDOF 7
ENDMDL
MODEL 2
REMARK minimizedAffinity -9.66381931
REMARK CNNscore 0.801373482
REMARK CNNaffinity 7.74550486
REMARK  7 active torsions:
REMARK  status: ('A' for Active; 'I' for Inactive)
REMARK    1  A    between atoms: C2_2  and  C3_3 
REMARK    2  A    between atoms: C4_4  and  C5_5 
REMARK    3  A    between atoms: C5_5  and  O2_7 
REMARK    4  A    between atoms: O2_7  and  C6_8 
REMARK    5  A    between atoms: C6_8  and  C8_10 
REMARK    6  A    between atoms: C18_22  and  O4_23 
REMARK    7  A    between atoms: C20_26  and  O6_27 
ROOT
HETATM    1  C8  UNL     1      -1.470   7.002  13.304  1.00  0.00     0.028 C 
HETATM    2  C9  UNL     1      -2.189   8.332  13.137  1.00  0.00     0.011 C 
HETATM    3  C10 UNL     1      -1.262   9.084  12.185  1.00  0.00     0.044 C 
HETATM    4  C11 UNL     1       0.204   8.578  12.464  1.00  0.00     0.097 C 
HETATM    5  O3  UNL     1       1.014   9.704  12.821  1.00  0.00    -0.373 OA
HETATM    6  C12 UNL     1       0.696  10.451  13.980  1.00  0.00     0.199 C 
HETATM    7  C13 UNL     1       1.499   9.951  15.180  1.00  0.00     0.298 C 
HETATM    8  N1  UNL     1       1.511   8.487  15.335  1.00  0.00     0.087 N 
HETATM    9  C14 UNL     1       2.008   8.125  16.665  1.00  0.00     0.310 C 
HETATM   10  C15 UNL     1       0.213   7.878  15.044  1.00  0.00     0.285 C 
HETATM   11  C16 UNL     1       0.023   7.432  13.557  1.00  0.00     0.030 C 
HETATM   12  C17 UNL     1       0.911   6.180  13.286  1.00  0.00     0.050 C 
HETATM   13  C18 UNL     1       2.312   6.469  12.755  1.00  0.00     0.159 C 
HETATM   14  C19 UNL     1       2.300   7.328  11.446  1.00  0.00     0.124 C 
HETATM   15  O5  UNL     1       3.261   8.409  11.615  1.00  0.00    -0.336 OA
HETATM   16  C20 UNL     1       4.289   8.424  10.638  1.00  0.00     0.163 C 
HETATM   17  C21 UNL     1       5.096   7.136  10.739  1.00  0.00     0.069 C 
HETATM   18  C22 UNL     1       4.204   5.961  10.363  1.00  0.00     0.018 C 
HETATM   19  C23 UNL     1       2.733   6.437  10.198  1.00  0.00    -0.002 C 
HETATM   20  C24 UNL     1       1.842   5.202   9.963  1.00  0.00     0.019 C 
HETATM   21  C25 UNL     1       2.710   7.396   8.972  1.00  0.00     0.005 C 
HETATM   22  C26 UNL     1       1.288   7.887   8.691  1.00  0.00     0.033 C 
HETATM   23  C27 UNL     1       0.540   8.284   9.932  1.00  0.00    -0.017 C 
HETATM   24  C28 UNL     1       0.947   8.052  11.203  1.00  0.00    -0.011 C 
HETATM   25  C29 UNL     1       3.672   8.574   9.248  1.00  0.00     0.074 C 
ENDROOT
BRANCH   1  26
HETATM   26  C6  UNL     1      -2.153   5.983  14.249  1.00  0.00     0.133 C 
HETATM   27  C7  UNL     1      -3.319   6.508  15.082  1.00  0.00     0.040 C 
BRANCH  26  28
HETATM   28  O2  UNL     1      -2.759   4.936  13.443  1.00  0.00    -0.312 OA
BRANCH  28  29
HETATM   29  C5  UNL     1      -3.953   5.210  12.843  1.00  0.00     0.296 C 
HETATM   30  O1  UNL     1      -4.527   6.289  12.923  1.00  0.00    -0.259 OA
BRANCH  29  31
HETATM   31  C4  UNL     1      -4.508   4.036  12.164  1.00  0.00     0.069 A 
HETATM   32  C3  UNL     1      -3.881   3.331  11.138  1.00  0.00     0.025 A 
HETATM   33  N2  UNL     1      -4.721   2.321  10.745  1.00  0.00    -0.368 N 
HETATM   34  C32 UNL     1      -5.870   2.355  11.482  1.00  0.00     0.096 A 
HETATM   35  H46 UNL     1      -4.523   1.654  10.006  1.00  0.00     0.165 HD
HETATM   36  C30 UNL     1      -5.781   3.399  12.383  1.00  0.00    -0.028 A 
HETATM   37  C31 UNL     1      -6.817   3.770  13.387  1.00  0.00     0.050 C 
BRANCH  32  38
HETATM   38  C2  UNL     1      -2.557   3.535  10.469  1.00  0.00     0.054 C 
HETATM   39  C1  UNL     1      -1.472   2.644  11.062  1.00  0.00     0.011 C 
ENDBRANCH  32  38
ENDBRANCH  29  31
ENDBRANCH  28  29
ENDBRANCH  26  28
ENDBRANCH   1  26
BRANCH  13  40
HETATM   40  O4  UNL     1       3.138   7.006  13.786  1.00  0.00    -0.392 OA
HETATM   41  H27 UNL     1       2.737   7.869  14.036  1.00  0.00     0.210 HD
ENDBRANCH  13  40
BRANCH  16  42
HETATM   42  O6  UNL     1       5.120   9.529  10.919  1.00  0.00    -0.365 OA
HETATM   43  H28 UNL     1       4.887   9.715  11.849  1.00  0.00     0.213 HD
ENDBRANCH  16  42
TORSDOF 7
ENDMDL
MODEL 3
REMARK minimizedAffinity -9.90135479
REMARK CNNscore 0.616391063
REMARK CNNaffinity 7.43177271
REMARK  7 active torsions:
REMARK  status: ('A' for Active; 'I' for Inactive)
REMARK    1  A    between atoms: C2_2  and  C3_3 
REMARK    2  A    between atoms: C4_4  and  C5_5 
REMARK    3  A    between atoms: C5_5  and  O2_7 
REMARK    4  A    between atoms: O2_7  and  C6_8 
REMARK    5  A    between atoms: C6_8  and  C8_10 
REMARK    6  A    between atoms: C18_22  and  O4_23 
REMARK    7  A    between atoms: C20_26  and  O6_27 
ROOT
HETATM    1  C8  UNL     1      -0.080   7.060  10.582  1.00  0.00     0.028 C 
HETATM    2  C9  UNL     1       0.599   5.726  10.857  1.00  0.00     0.011 C 
HETATM    3  C10 UNL     1      -0.048   5.299  12.173  1.00  0.00     0.044 C 
HETATM    4  C11 UNL     1      -0.404   6.612  12.967  1.00  0.00     0.097 C 
HETATM    5  O3  UNL     1       0.258   6.570  14.236  1.00  0.00    -0.373 OA
HETATM    6  C12 UNL     1       1.672   6.528  14.282  1.00  0.00     0.199 C 
HETATM    7  C13 UNL     1       2.248   7.935  14.435  1.00  0.00     0.298 C 
HETATM    8  N1  UNL     1       1.658   8.935  13.529  1.00  0.00     0.087 N 
HETATM    9  C14 UNL     1       2.481  10.146  13.509  1.00  0.00     0.310 C 
HETATM   10  C15 UNL     1       1.418   8.406  12.186  1.00  0.00     0.285 C 
HETATM   11  C16 UNL     1      -0.005   7.792  11.973  1.00  0.00     0.030 C 
HETATM   12  C17 UNL     1      -1.053   8.946  11.939  1.00  0.00     0.050 C 
HETATM   13  C18 UNL     1      -1.685   9.303  13.281  1.00  0.00     0.159 C 
HETATM   14  C19 UNL     1      -2.361   8.074  13.979  1.00  0.00     0.124 C 
HETATM   15  O5  UNL     1      -1.913   8.050  15.364  1.00  0.00    -0.336 OA
HETATM   16  C20 UNL     1      -2.967   8.126  16.311  1.00  0.00     0.163 C 
HETATM   17  C21 UNL     1      -3.701   9.449  16.140  1.00  0.00     0.069 C 
HETATM   18  C22 UNL     1      -4.384   9.464  14.779  1.00  0.00     0.018 C 
HETATM   19  C23 UNL     1      -3.946   8.226  13.946  1.00  0.00    -0.002 C 
HETATM   20  C24 UNL     1      -4.541   8.353  12.531  1.00  0.00     0.019 C 
HETATM   21  C25 UNL     1      -4.501   6.973  14.686  1.00  0.00     0.005 C 
HETATM   22  C26 UNL     1      -4.164   5.693  13.916  1.00  0.00     0.033 C 
HETATM   23  C27 UNL     1      -2.753   5.663  13.403  1.00  0.00    -0.017 C 
HETATM   24  C28 UNL     1      -1.894   6.710  13.401  1.00  0.00    -0.011 C 
HETATM   25  C29 UNL     1      -3.917   6.944  16.117  1.00  0.00     0.074 C 
ENDROOT
BRANCH   1  26
HETATM   26  C6  UNL     1       0.374   7.791   9.296  1.00  0.00     0.133 C 
HETATM   27  C7  UNL     1      -0.530   8.916   8.800  1.00  0.00     0.040 C 
BRANCH  26  28
HETATM   28  O2  UNL     1       1.634   8.464   9.564  1.00  0.00    -0.312 OA
BRANCH  28  29
HETATM   29  C5  UNL     1       2.683   8.198   8.732  1.00  0.00     0.296 C 
HETATM   30  O1  UNL     1       3.118   8.990   7.905  1.00  0.00    -0.259 OA
BRANCH  29  31
HETATM   31  C4  UNL     1       3.169   6.824   8.886  1.00  0.00     0.069 A 
HETATM   32  C3  UNL     1       3.033   5.814   7.936  1.00  0.00     0.025 A 
HETATM   33  N2  UNL     1       3.585   4.670   8.453  1.00  0.00    -0.368 N 
HETATM   34  C32 UNL     1       4.069   4.911   9.708  1.00  0.00     0.096 A 
HETATM   35  H46 UNL     1       3.618   3.774   7.979  1.00  0.00     0.165 HD
HETATM   36  C30 UNL     1       3.840   6.238  10.017  1.00  0.00    -0.028 A 
HETATM   37  C31 UNL     1       4.232   6.913  11.286  1.00  0.00     0.050 C 
BRANCH  32  38
HETATM   38  C2  UNL     1       2.405   5.819   6.576  1.00  0.00     0.054 C 
HETATM   39  C1  UNL     1       1.607   7.090   6.318  1.00  0.00     0.011 C 
ENDBRANCH  32  38
ENDBRANCH  29  31
ENDBRANCH  28  29
ENDBRANCH  26  28
ENDBRANCH   1  26
BRANCH  13  40
HETATM   40  O4  UNL     1      -0.749   9.989  14.109  1.00  0.00    -0.392 OA
HETATM   41  H27 UNL     1      -0.022   9.350  14.289  1.00  0.00     0.210 HD
ENDBRANCH  13  40
BRANCH  16  42
HETATM   42  O6  UNL     1      -2.383   8.069  17.595  1.00  0.00    -0.365 OA
HETATM   43  H28 UNL     1      -1.456   8.306  17.397  1.00  0.00     0.213 HD
ENDBRANCH  16  42
TORSDOF 7
ENDMDL
MODEL 4
REMARK minimizedAffinity -8.28178024
REMARK CNNscore 0.597500443
REMARK CNNaffinity 7.35094833
REMARK  7 active torsions:
REMARK  status: ('A' for Active; 'I' for Inactive)
REMARK    1  A    between atoms: C2_2  and  C3_3 
REMARK    2  A    between atoms: C4_4  and  C5_5 
REMARK    3  A    between atoms: C5_5  and  O2_7 
REMARK    4  A    between atoms: O2_7  and  C6_8 
REMARK    5  A    between atoms: C6_8  and  C8_10 
REMARK    6  A    between atoms: C18_22  and  O4_23 
REMARK    7  A    between atoms: C20_26  and  O6_27 
ROOT
HETATM    1  C8  UNL     1      -2.936   7.847  14.348  1.00  0.00     0.028 C 
HETATM    2  C9  UNL     1      -3.586   8.870  13.428  1.00  0.00     0.011 C 
HETATM    3  C10 UNL     1      -2.377   9.615  12.869  1.00  0.00     0.044 C 
HETATM    4  C11 UNL     1      -1.256   9.588  13.976  1.00  0.00     0.097 C 
HETATM    5  O3  UNL     1      -0.900  10.937  14.296  1.00  0.00    -0.373 OA
HETATM    6  C12 UNL     1      -1.878  11.807  14.835  1.00  0.00     0.199 C 
HETATM    7  C13 UNL     1      -1.813  11.811  16.362  1.00  0.00     0.298 C 
HETATM    8  N1  UNL     1      -1.729  10.471  16.969  1.00  0.00     0.087 N 
HETATM    9  C14 UNL     1      -2.004  10.551  18.406  1.00  0.00     0.310 C 
HETATM   10  C15 UNL     1      -2.583   9.493  16.295  1.00  0.00     0.285 C 
HETATM   11  C16 UNL     1      -1.881   8.701  15.144  1.00  0.00     0.030 C 
HETATM   12  C17 UNL     1      -0.861   7.701  15.767  1.00  0.00     0.050 C 
HETATM   13  C18 UNL     1       0.562   8.227  15.930  1.00  0.00     0.159 C 
HETATM   14  C19 UNL     1       1.175   8.747  14.585  1.00  0.00     0.124 C 
HETATM   15  O5  UNL     1       1.764  10.053  14.843  1.00  0.00    -0.336 OA
HETATM   16  C20 UNL     1       3.151  10.127  14.551  1.00  0.00     0.163 C 
HETATM   17  C21 UNL     1       3.904   9.153  15.446  1.00  0.00     0.069 C 
HETATM   18  C22 UNL     1       3.495   7.730  15.086  1.00  0.00     0.018 C 
HETATM   19  C23 UNL     1       2.311   7.753  14.078  1.00  0.00    -0.002 C 
HETATM   20  C24 UNL     1       1.833   6.305  13.853  1.00  0.00     0.019 C 
HETATM   21  C25 UNL     1       2.860   8.382  12.763  1.00  0.00     0.005 C 
HETATM   22  C26 UNL     1       1.779   8.406  11.680  1.00  0.00     0.033 C 
HETATM   23  C27 UNL     1       0.437   8.851  12.189  1.00  0.00    -0.017 C 
HETATM   24  C28 UNL     1       0.106   9.017  13.491  1.00  0.00    -0.011 C 
HETATM   25  C29 UNL     1       3.381   9.803  13.075  1.00  0.00     0.074 C 
ENDROOT
BRANCH   1  26
HETATM   26  C6  UNL     1      -3.911   6.914  15.109  1.00  0.00     0.133 C 
HETATM   27  C7  UNL     1      -5.194   7.555  15.630  1.00  0.00     0.040 C 
BRANCH  26  28
HETATM   28  O2  UNL     1      -4.391   5.895  14.190  1.00  0.00    -0.312 OA
BRANCH  28  29
HETATM   29  C5  UNL     1      -5.490   6.190  13.436  1.00  0.00     0.296 C 
HETATM   30  O1  UNL     1      -5.706   7.291  12.944  1.00  0.00    -0.259 OA
BRANCH  29  31
HETATM   31  C4  UNL     1      -6.421   5.061  13.360  1.00  0.00     0.069 A 
HETATM   32  C3  UNL     1      -7.735   5.072  13.824  1.00  0.00     0.025 A 
HETATM   33  N2  UNL     1      -8.272   3.829  13.602  1.00  0.00    -0.368 N 
HETATM   34  C32 UNL     1      -7.344   3.018  13.013  1.00  0.00     0.096 A 
HETATM   35  H46 UNL     1      -9.215   3.550  13.850  1.00  0.00     0.165 HD
HETATM   36  C30 UNL     1      -6.180   3.741  12.836  1.00  0.00    -0.028 A 
HETATM   37  C31 UNL     1      -4.928   3.232  12.209  1.00  0.00     0.050 C 
BRANCH  32  38
HETATM   38  C2  UNL     1      -8.537   6.149  14.485  1.00  0.00     0.054 C 
HETATM   39  C1  UNL     1      -8.306   6.194  15.990  1.00  0.00     0.011 C 
ENDBRANCH  32  38
ENDBRANCH  29  31
ENDBRANCH  28  29
ENDBRANCH  26  28
ENDBRANCH   1  26
BRANCH  13  40
HETATM   40  O4  UNL     1       0.628   9.174  16.994  1.00  0.00    -0.392 OA
HETATM   41  H27 UNL     1       0.065   9.933  16.719  1.00  0.00     0.210 HD
ENDBRANCH  13  40
BRANCH  16  42
HETATM   42  O6  UNL     1       3.568  11.446  14.826  1.00  0.00    -0.365 OA
HETATM   43  H28 UNL     1       2.846  11.761  15.404  1.00  0.00     0.213 HD
ENDBRANCH  16  42
TORSDOF 7
ENDMDL
MODEL 5
REMARK minimizedAffinity -8.32014751
REMARK CNNscore 0.588320732
REMARK CNNaffinity 7.11648178
REMARK  7 active torsions:
REMARK  status: ('A' for Active; 'I' for Inactive)
REMARK    1  A    between atoms: C2_2  and  C3_3 
REMARK    2  A    between atoms: C4_4  and  C5_5 
REMARK    3  A    between atoms: C5_5  and  O2_7 
REMARK    4  A    between atoms: O2_7  and  C6_8 
REMARK    5  A    between atoms: C6_8  and  C8_10 
REMARK    6  A    between atoms: C18_22  and  O4_23 
REMARK    7  A    between atoms: C20_26  and  O6_27 
ROOT
HETATM    1  C8  UNL     1      -3.813   8.070  15.404  1.00  0.00     0.028 C 
HETATM    2  C9  UNL     1      -3.076   6.911  16.058  1.00  0.00     0.011 C 
HETATM    3  C10 UNL     1      -1.953   7.625  16.807  1.00  0.00     0.044 C 
HETATM    4  C11 UNL     1      -1.594   8.922  15.988  1.00  0.00     0.097 C 
HETATM    5  O3  UNL     1      -0.207   8.870  15.638  1.00  0.00    -0.373 OA
HETATM    6  C12 UNL     1       0.265   7.819  14.817  1.00  0.00     0.199 C 
HETATM    7  C13 UNL     1       0.283   8.247  13.350  1.00  0.00     0.298 C 
HETATM    8  N1  UNL     1      -0.947   8.920  12.899  1.00  0.00     0.087 N 
HETATM    9  C14 UNL     1      -0.975   8.992  11.436  1.00  0.00     0.310 C 
HETATM   10  C15 UNL     1      -2.158   8.310  13.447  1.00  0.00     0.285 C 
HETATM   11  C16 UNL     1      -2.650   8.936  14.793  1.00  0.00     0.030 C 
HETATM   12  C17 UNL     1      -3.235  10.352  14.508  1.00  0.00     0.050 C 
HETATM   13  C18 UNL     1      -2.247  11.509  14.624  1.00  0.00     0.159 C 
HETATM   14  C19 UNL     1      -1.540  11.565  16.020  1.00  0.00     0.124 C 
HETATM   15  O5  UNL     1      -0.111  11.724  15.787  1.00  0.00    -0.336 OA
HETATM   16  C20 UNL     1       0.442  12.890  16.376  1.00  0.00     0.163 C 
HETATM   17  C21 UNL     1      -0.214  14.121  15.764  1.00  0.00     0.069 C 
HETATM   18  C22 UNL     1      -1.687  14.140  16.148  1.00  0.00     0.018 C 
HETATM   19  C23 UNL     1      -2.073  12.811  16.858  1.00  0.00    -0.002 C 
HETATM   20  C24 UNL     1      -3.595  12.808  17.097  1.00  0.00     0.019 C 
HETATM   21  C25 UNL     1      -1.286  12.780  18.201  1.00  0.00     0.005 C 
HETATM   22  C26 UNL     1      -1.634  11.525  19.006  1.00  0.00     0.033 C 
HETATM   23  C27 UNL     1      -1.687  10.278  18.170  1.00  0.00    -0.017 C 
HETATM   24  C28 UNL     1      -1.653  10.237  16.817  1.00  0.00    -0.011 C 
HETATM   25  C29 UNL     1       0.226  12.851  17.889  1.00  0.00     0.074 C 
ENDROOT
BRANCH   1  26
HETATM   26  C6  UNL     1      -5.031   7.681  14.529  1.00  0.00     0.133 C 
HETATM   27  C7  UNL     1      -4.918   7.982  13.037  1.00  0.00     0.040 C 
BRANCH  26  28
HETATM   28  O2  UNL     1      -5.192   6.237  14.572  1.00  0.00    -0.312 OA
BRANCH  28  29
HETATM   29  C5  UNL     1      -4.898   5.535  13.440  1.00  0.00     0.296 C 
HETATM   30  O1  UNL     1      -3.953   5.789  12.702  1.00  0.00    -0.259 OA
BRANCH  29  31
HETATM   31  C4  UNL     1      -5.896   4.497  13.164  1.00  0.00     0.069 A 
HETATM   32  C3  UNL     1      -5.762   3.488  12.213  1.00  0.00     0.025 A 
HETATM   33  N2  UNL     1      -6.909   2.735  12.231  1.00  0.00    -0.368 N 
HETATM   34  C32 UNL     1      -7.778   3.231  13.161  1.00  0.00     0.096 A 
HETATM   35  H46 UNL     1      -7.090   1.936  11.633  1.00  0.00     0.165 HD
HETATM   36  C30 UNL     1      -7.190   4.322  13.772  1.00  0.00    -0.028 A 
HETATM   37  C31 UNL     1      -7.797   5.140  14.859  1.00  0.00     0.050 C 
BRANCH  32  38
HETATM   38  C2  UNL     1      -4.651   3.172  11.261  1.00  0.00     0.054 C 
HETATM   39  C1  UNL     1      -3.853   1.949  11.695  1.00  0.00     0.011 C 
ENDBRANCH  32  38
ENDBRANCH  29  31
ENDBRANCH  28  29
ENDBRANCH  26  28
ENDBRANCH   1  26
BRANCH  13  40
HETATM   40  O4  UNL     1      -1.342  11.508  13.522  1.00  0.00    -0.392 OA
HETATM   41  H27 UNL     1      -0.825  10.674  13.594  1.00  0.00     0.210 HD
ENDBRANCH  13  40
BRANCH  16  42
HETATM   42  O6  UNL     1       1.823  12.893  16.086  1.00  0.00    -0.365 OA
HETATM   43  H28 UNL     1       1.864  12.270  15.334  1.00  0.00     0.213 HD
ENDBRANCH  16  42
TORSDOF 7
ENDMDL
MODEL 6
REMARK minimizedAffinity -6.85541391
REMARK CNNscore 0.525894821
REMARK CNNaffinity 6.98275518
REMARK  7 active torsions:
REMARK  status: ('A' for Active; 'I' for Inactive)
REMARK    1  A    between atoms: C2_2  and  C3_3 
REMARK    2  A    between atoms: C4_4  and  C5_5 
REMARK    3  A    between atoms: C5_5  and  O2_7 
REMARK    4  A    between atoms: O2_7  and  C6_8 
REMARK    5  A    between atoms: C6_8  and  C8_10 
REMARK    6  A    between atoms: C18_22  and  O4_23 
REMARK    7  A    between atoms: C20_26  and  O6_27 
ROOT
HETATM    1  C8  UNL     1      -9.917   9.208  16.061  1.00  0.00     0.028 C 
HETATM    2  C9  UNL     1      -9.190  10.160  15.122  1.00  0.00     0.011 C 
HETATM    3  C10 UNL     1      -9.489  11.521  15.747  1.00  0.00     0.044 C 
HETATM    4  C11 UNL     1     -10.900  11.418  16.440  1.00  0.00     0.097 C 
HETATM    5  O3  UNL     1     -11.759  12.414  15.874  1.00  0.00    -0.373 OA
HETATM    6  C12 UNL     1     -12.065  12.366  14.493  1.00  0.00     0.199 C 
HETATM    7  C13 UNL     1     -13.376  11.618  14.256  1.00  0.00     0.298 C 
HETATM    8  N1  UNL     1     -13.491  10.347  14.990  1.00  0.00     0.087 N 
HETATM    9  C14 UNL     1     -14.604   9.556  14.458  1.00  0.00     0.310 C 
HETATM   10  C15 UNL     1     -12.237   9.594  15.014  1.00  0.00     0.285 C 
HETATM   11  C16 UNL     1     -11.322   9.893  16.246  1.00  0.00     0.030 C 
HETATM   12  C17 UNL     1     -11.969   9.269  17.520  1.00  0.00     0.050 C 
HETATM   13  C18 UNL     1     -12.898  10.190  18.306  1.00  0.00     0.159 C 
HETATM   14  C19 UNL     1     -12.204  11.526  18.738  1.00  0.00     0.124 C 
HETATM   15  O5  UNL     1     -13.098  12.622  18.392  1.00  0.00    -0.336 OA
HETATM   16  C20 UNL     1     -13.483  13.422  19.499  1.00  0.00     0.163 C 
HETATM   17  C21 UNL     1     -14.251  12.564  20.495  1.00  0.00     0.069 C 
HETATM   18  C22 UNL     1     -13.311  11.512  21.070  1.00  0.00     0.018 C 
HETATM   19  C23 UNL     1     -11.954  11.534  20.311  1.00  0.00    -0.002 C 
HETATM   20  C24 UNL     1     -11.090  10.364  20.821  1.00  0.00     0.019 C 
HETATM   21  C25 UNL     1     -11.293  12.908  20.623  1.00  0.00     0.005 C 
HETATM   22  C26 UNL     1      -9.918  13.013  19.958  1.00  0.00     0.033 C 
HETATM   23  C27 UNL     1      -9.902  12.508  18.543  1.00  0.00    -0.017 C 
HETATM   24  C28 UNL     1     -10.904  11.826  17.941  1.00  0.00    -0.011 C 
HETATM   25  C29 UNL     1     -12.240  14.033  20.146  1.00  0.00     0.074 C 
ENDROOT
BRANCH   1  26
HETATM   26  C6  UNL     1      -9.829   7.706  15.694  1.00  0.00     0.133 C 
HETATM   27  C7  UNL     1     -10.797   7.213  14.622  1.00  0.00     0.040 C 
BRANCH  26  28
HETATM   28  O2  UNL     1      -8.522   7.446  15.114  1.00  0.00    -0.312 OA
BRANCH  28  29
HETATM   29  C5  UNL     1      -8.472   6.677  13.987  1.00  0.00     0.296 C 
HETATM   30  O1  UNL     1      -9.441   6.440  13.277  1.00  0.00    -0.259 OA
BRANCH  29  31
HETATM   31  C4  UNL     1      -7.142   6.099  13.778  1.00  0.00     0.069 A 
HETATM   32  C3  UNL     1      -5.953   6.823  13.715  1.00  0.00     0.025 A 
HETATM   33  N2  UNL     1      -4.931   5.938  13.480  1.00  0.00    -0.368 N 
HETATM   34  C32 UNL     1      -5.425   4.668  13.386  1.00  0.00     0.096 A 
HETATM   35  H46 UNL     1      -3.954   6.191  13.378  1.00  0.00     0.165 HD
HETATM   36  C30 UNL     1      -6.793   4.716  13.572  1.00  0.00    -0.028 A 
HETATM   37  C31 UNL     1      -7.713   3.544  13.566  1.00  0.00     0.050 C 
BRANCH  32  38
HETATM   38  C2  UNL     1      -5.686   8.291  13.835  1.00  0.00     0.054 C 
HETATM   39  C1  UNL     1      -5.337   8.695  15.262  1.00  0.00     0.011 C 
ENDBRANCH  32  38
ENDBRANCH  29  31
ENDBRANCH  28  29
ENDBRANCH  26  28
ENDBRANCH   1  26
BRANCH  13  40
HETATM   40  O4  UNL     1     -14.125  10.382  17.605  1.00  0.00    -0.392 OA
HETATM   41  H27 UNL     1     -13.893  10.845  16.769  1.00  0.00     0.210 HD
ENDBRANCH  13  40
BRANCH  16  42
HETATM   42  O6  UNL     1     -14.321  14.445  19.007  1.00  0.00    -0.365 OA
HETATM   43  H28 UNL     1     -14.593  14.074  18.144  1.00  0.00     0.213 HD
ENDBRANCH  16  42
TORSDOF 7
ENDMDL
MODEL 7
REMARK minimizedAffinity -7.93614578
REMARK CNNscore 0.504156113
REMARK CNNaffinity 7.03087473
REMARK  7 active torsions:
REMARK  status: ('A' for Active; 'I' for Inactive)
REMARK    1  A    between atoms: C2_2  and  C3_3 
REMARK    2  A    between atoms: C4_4  and  C5_5 
REMARK    3  A    between atoms: C5_5  and  O2_7 
REMARK    4  A    between atoms: O2_7  and  C6_8 
REMARK    5  A    between atoms: C6_8  and  C8_10 
REMARK    6  A    between atoms: C18_22  and  O4_23 
REMARK    7  A    between atoms: C20_26  and  O6_27 
ROOT
HETATM    1  C8  UNL     1       0.287   6.583  11.801  1.00  0.00     0.028 C 
HETATM    2  C9  UNL     1       0.899   5.406  12.546  1.00  0.00     0.011 C 
HETATM    3  C10 UNL     1       0.273   5.539  13.932  1.00  0.00     0.044 C 
HETATM    4  C11 UNL     1       0.016   7.073  14.184  1.00  0.00     0.097 C 
HETATM    5  O3  UNL     1       0.716   7.462  15.371  1.00  0.00    -0.373 OA
HETATM    6  C12 UNL     1       2.125   7.350  15.417  1.00  0.00     0.199 C 
HETATM    7  C13 UNL     1       2.784   8.673  15.030  1.00  0.00     0.298 C 
HETATM    8  N1  UNL     1       2.221   9.301  13.822  1.00  0.00     0.087 N 
HETATM    9  C14 UNL     1       3.110  10.364  13.345  1.00  0.00     0.310 C 
HETATM   10  C15 UNL     1       1.909   8.329  12.775  1.00  0.00     0.285 C 
HETATM   11  C16 UNL     1       0.448   7.772  12.819  1.00  0.00     0.030 C 
HETATM   12  C17 UNL     1      -0.535   8.895  12.367  1.00  0.00     0.050 C 
HETATM   13  C18 UNL     1      -1.102   9.764  13.486  1.00  0.00     0.159 C 
HETATM   14  C19 UNL     1      -1.822   8.927  14.598  1.00  0.00     0.124 C 
HETATM   15  O5  UNL     1      -1.332   9.390  15.888  1.00  0.00    -0.336 OA
HETATM   16  C20 UNL     1      -2.348   9.879  16.749  1.00  0.00     0.163 C 
HETATM   17  C21 UNL     1      -3.013  11.088  16.104  1.00  0.00     0.069 C 
HETATM   18  C22 UNL     1      -3.738  10.641  14.842  1.00  0.00     0.018 C 
HETATM   19  C23 UNL     1      -3.397   9.157  14.526  1.00  0.00    -0.002 C 
HETATM   20  C24 UNL     1      -4.029   8.788  13.170  1.00  0.00     0.019 C 
HETATM   21  C25 UNL     1      -3.997   8.306  15.683  1.00  0.00     0.005 C 
HETATM   22  C26 UNL     1      -3.757   6.814  15.442  1.00  0.00     0.033 C 
HETATM   23  C27 UNL     1      -2.367   6.505  14.964  1.00  0.00    -0.017 C 
HETATM   24  C28 UNL     1      -1.452   7.419  14.565  1.00  0.00    -0.011 C 
HETATM   25  C29 UNL     1      -3.369   8.773  17.017  1.00  0.00     0.074 C 
ENDROOT
BRANCH   1  26
HETATM   26  C6  UNL     1       0.739   6.754  10.330  1.00  0.00     0.133 C 
HETATM   27  C7  UNL     1       0.253   8.010   9.614  1.00  0.00     0.040 C 
BRANCH  26  28
HETATM   28  O2  UNL     1       2.186   6.888  10.302  1.00  0.00    -0.312 OA
BRANCH  28  29
HETATM   29  C5  UNL     1       2.757   7.342   9.148  1.00  0.00     0.296 C 
HETATM   30  O1  UNL     1       3.090   8.506   8.961  1.00  0.00    -0.259 OA
BRANCH  29  31
HETATM   31  C4  UNL     1       2.842   6.292   8.129  1.00  0.00     0.069 A 
HETATM   32  C3  UNL     1       3.468   5.058   8.299  1.00  0.00     0.025 A 
HETATM   33  N2  UNL     1       3.363   4.365   7.120  1.00  0.00    -0.368 N 
HETATM   34  C32 UNL     1       2.694   5.116   6.195  1.00  0.00     0.096 A 
HETATM   35  H46 UNL     1       3.740   3.438   6.955  1.00  0.00     0.165 HD
HETATM   36  C30 UNL     1       2.343   6.318   6.778  1.00  0.00    -0.028 A 
HETATM   37  C31 UNL     1       1.583   7.415   6.117  1.00  0.00     0.050 C 
BRANCH  32  38
HETATM   38  C2  UNL     1       4.183   4.470   9.476  1.00  0.00     0.054 C 
HETATM   39  C1  UNL     1       4.815   3.124   9.148  1.00  0.00     0.011 C 
ENDBRANCH  32  38
ENDBRANCH  29  31
ENDBRANCH  28  29
ENDBRANCH  26  28
ENDBRANCH   1  26
BRANCH  13  40
HETATM   40  O4  UNL     1      -0.102  10.647  13.991  1.00  0.00    -0.392 OA
HETATM   41  H27 UNL     1       0.593  10.075  14.388  1.00  0.00     0.210 HD
ENDBRANCH  13  40
BRANCH  16  42
HETATM   42  O6  UNL     1      -1.728  10.265  17.956  1.00  0.00    -0.365 OA
HETATM   43  H28 UNL     1      -0.796  10.351  17.675  1.00  0.00     0.213 HD
ENDBRANCH  16  42
TORSDOF 7
ENDMDL
MODEL 8
REMARK minimizedAffinity -9.43177319
REMARK CNNscore 0.490325987
REMARK CNNaffinity 7.30606794
REMARK  7 active torsions:
REMARK  status: ('A' for Active; 'I' for Inactive)
REMARK    1  A    between atoms: C2_2  and  C3_3 
REMARK    2  A    between atoms: C4_4  and  C5_5 
REMARK    3  A    between atoms: C5_5  and  O2_7 
REMARK    4  A    between atoms: O2_7  and  C6_8 
REMARK    5  A    between atoms: C6_8  and  C8_10 
REMARK    6  A    between atoms: C18_22  and  O4_23 
REMARK    7  A    between atoms: C20_26  and  O6_27 
ROOT
HETATM    1  C8  UNL     1      -3.372   7.313  14.161  1.00  0.00     0.028 C 
HETATM    2  C9  UNL     1      -4.117   8.303  13.278  1.00  0.00     0.011 C 
HETATM    3  C10 UNL     1      -2.980   9.150  12.711  1.00  0.00     0.044 C 
HETATM    4  C11 UNL     1      -1.836   9.184  13.794  1.00  0.00     0.097 C 
HETATM    5  O3  UNL     1      -1.575  10.550  14.136  1.00  0.00    -0.373 OA
HETATM    6  C12 UNL     1      -2.603  11.331  14.715  1.00  0.00     0.199 C 
HETATM    7  C13 UNL     1      -2.504  11.308  16.240  1.00  0.00     0.298 C 
HETATM    8  N1  UNL     1      -2.307   9.966  16.815  1.00  0.00     0.087 N 
HETATM    9  C14 UNL     1      -2.554   9.995  18.259  1.00  0.00     0.310 C 
HETATM   10  C15 UNL     1      -3.099   8.940  16.137  1.00  0.00     0.285 C 
HETATM   11  C16 UNL     1      -2.366   8.228  14.954  1.00  0.00     0.030 C 
HETATM   12  C17 UNL     1      -1.260   7.295  15.533  1.00  0.00     0.050 C 
HETATM   13  C18 UNL     1       0.123   7.924  15.678  1.00  0.00     0.159 C 
HETATM   14  C19 UNL     1       0.664   8.517  14.333  1.00  0.00     0.124 C 
HETATM   15  O5  UNL     1       1.160   9.858  14.607  1.00  0.00    -0.336 OA
HETATM   16  C20 UNL     1       2.530  10.043  14.288  1.00  0.00     0.163 C 
HETATM   17  C21 UNL     1       3.375   9.110  15.146  1.00  0.00     0.069 C 
HETATM   18  C22 UNL     1       3.065   7.669  14.762  1.00  0.00     0.018 C 
HETATM   19  C23 UNL     1       1.861   7.623  13.779  1.00  0.00    -0.002 C 
HETATM   20  C24 UNL     1       1.488   6.148  13.532  1.00  0.00     0.019 C 
HETATM   21  C25 UNL     1       2.331   8.318  12.468  1.00  0.00     0.005 C 
HETATM   22  C26 UNL     1       1.227   8.283  11.408  1.00  0.00     0.033 C 
HETATM   23  C27 UNL     1      -0.133   8.615  11.955  1.00  0.00    -0.017 C 
HETATM   24  C28 UNL     1      -0.446   8.728  13.267  1.00  0.00    -0.011 C 
HETATM   25  C29 UNL     1       2.751   9.768  12.801  1.00  0.00     0.074 C 
ENDROOT
BRANCH   1  26
HETATM   26  C6  UNL     1      -4.256   6.294  14.920  1.00  0.00     0.133 C 
HETATM   27  C7  UNL     1      -5.705   6.704  15.165  1.00  0.00     0.040 C 
BRANCH  26  28
HETATM   28  O2  UNL     1      -4.377   5.092  14.113  1.00  0.00    -0.312 OA
BRANCH  28  29
HETATM   29  C5  UNL     1      -5.398   5.037  13.209  1.00  0.00     0.296 C 
HETATM   30  O1  UNL     1      -6.211   5.937  13.040  1.00  0.00    -0.259 OA
BRANCH  29  31
HETATM   31  C4  UNL     1      -5.459   3.740  12.530  1.00  0.00     0.069 A 
HETATM   32  C3  UNL     1      -4.390   3.119  11.888  1.00  0.00     0.025 A 
HETATM   33  N2  UNL     1      -4.844   1.942  11.351  1.00  0.00    -0.368 N 
HETATM   34  C32 UNL     1      -6.173   1.786  11.624  1.00  0.00     0.096 A 
HETATM   35  H46 UNL     1      -4.279   1.289  10.818  1.00  0.00     0.165 HD
HETATM   36  C30 UNL     1      -6.599   2.874  12.361  1.00  0.00    -0.028 A 
HETATM   37  C31 UNL     1      -7.979   3.086  12.880  1.00  0.00     0.050 C 
BRANCH  32  38
HETATM   38  C2  UNL     1      -2.965   3.546  11.711  1.00  0.00     0.054 C 
HETATM   39  C1  UNL     1      -2.582   3.668  10.241  1.00  0.00     0.011 C 
ENDBRANCH  32  38
ENDBRANCH  29  31
ENDBRANCH  28  29
ENDBRANCH  26  28
ENDBRANCH   1  26
BRANCH  13  40
HETATM   40  O4  UNL     1       0.141   8.851  16.761  1.00  0.00    -0.392 OA
HETATM   41  H27 UNL     1      -0.483   9.571  16.516  1.00  0.00     0.210 HD
ENDBRANCH  13  40
BRANCH  16  42
HETATM   42  O6  UNL     1       2.853  11.384  14.584  1.00  0.00    -0.365 OA
HETATM   43  H28 UNL     1       2.123  11.631  15.184  1.00  0.00     0.213 HD
ENDBRANCH  16  42
TORSDOF 7
ENDMDL
MODEL 9
REMARK minimizedAffinity -7.06105232
REMARK CNNscore 0.489880949
REMARK CNNaffinity 6.87375212
REMARK  7 active torsions:
REMARK  status: ('A' for Active; 'I' for Inactive)
REMARK    1  A    between atoms: C2_2  and  C3_3 
REMARK    2  A    between atoms: C4_4  and  C5_5 
REMARK    3  A    between atoms: C5_5  and  O2_7 
REMARK    4  A    between atoms: O2_7  and  C6_8 
REMARK    5  A    between atoms: C6_8  and  C8_10 
REMARK    6  A    between atoms: C18_22  and  O4_23 
REMARK    7  A    between atoms: C20_26  and  O6_27 
ROOT
HETATM    1  C8  UNL     1     -10.330   8.915  15.544  1.00  0.00     0.028 C 
HETATM    2  C9  UNL     1      -9.355   9.992  15.092  1.00  0.00     0.011 C 
HETATM    3  C10 UNL     1      -9.741  11.171  15.984  1.00  0.00     0.044 C 
HETATM    4  C11 UNL     1     -11.281  11.044  16.287  1.00  0.00     0.097 C 
HETATM    5  O3  UNL     1     -11.933  12.238  15.840  1.00  0.00    -0.373 OA
HETATM    6  C12 UNL     1     -11.893  12.580  14.467  1.00  0.00     0.199 C 
HETATM    7  C13 UNL     1     -13.137  12.064  13.746  1.00  0.00     0.298 C 
HETATM    8  N1  UNL     1     -13.481  10.666  14.056  1.00  0.00     0.087 N 
HETATM    9  C14 UNL     1     -14.462  10.162  13.091  1.00  0.00     0.310 C 
HETATM   10  C15 UNL     1     -12.304   9.803  14.151  1.00  0.00     0.285 C 
HETATM   11  C16 UNL     1     -11.707   9.675  15.591  1.00  0.00     0.030 C 
HETATM   12  C17 UNL     1     -12.672   8.817  16.464  1.00  0.00     0.050 C 
HETATM   13  C18 UNL     1     -13.725   9.598  17.245  1.00  0.00     0.159 C 
HETATM   14  C19 UNL     1     -13.102  10.696  18.172  1.00  0.00     0.124 C 
HETATM   15  O5  UNL     1     -13.837  11.932  17.951  1.00  0.00    -0.336 OA
HETATM   16  C20 UNL     1     -14.447  12.457  19.120  1.00  0.00     0.163 C 
HETATM   17  C21 UNL     1     -15.471  11.458  19.643  1.00  0.00     0.069 C 
HETATM   18  C22 UNL     1     -14.746  10.199  20.100  1.00  0.00     0.018 C 
HETATM   19  C23 UNL     1     -13.245  10.271  19.701  1.00  0.00    -0.002 C 
HETATM   20  C24 UNL     1     -12.582   8.924  20.049  1.00  0.00     0.019 C 
HETATM   21  C25 UNL     1     -12.622  11.439  20.520  1.00  0.00     0.005 C 
HETATM   22  C26 UNL     1     -11.123  11.565  20.235  1.00  0.00     0.033 C 
HETATM   23  C27 UNL     1     -10.783  11.442  18.777  1.00  0.00    -0.017 C 
HETATM   24  C28 UNL     1     -11.635  11.049  17.801  1.00  0.00    -0.011 C 
HETATM   25  C29 UNL     1     -13.376  12.743  20.172  1.00  0.00     0.074 C 
ENDROOT
BRANCH   1  26
HETATM   26  C6  UNL     1     -10.218   7.558  14.806  1.00  0.00     0.133 C 
HETATM   27  C7  UNL     1     -11.001   7.428  13.503  1.00  0.00     0.040 C 
BRANCH  26  28
HETATM   28  O2  UNL     1      -8.838   7.367  14.391  1.00  0.00    -0.312 OA
BRANCH  28  29
HETATM   29  C5  UNL     1      -8.123   6.382  15.007  1.00  0.00     0.296 C 
HETATM   30  O1  UNL     1      -8.381   5.944  16.122  1.00  0.00    -0.259 OA
BRANCH  29  31
HETATM   31  C4  UNL     1      -6.959   5.973  14.216  1.00  0.00     0.069 A 
HETATM   32  C3  UNL     1      -6.776   4.713  13.650  1.00  0.00     0.025 A 
HETATM   33  N2  UNL     1      -5.560   4.707  13.015  1.00  0.00    -0.368 N 
HETATM   34  C32 UNL     1      -4.953   5.922  13.157  1.00  0.00     0.096 A 
HETATM   35  H46 UNL     1      -5.164   3.913  12.523  1.00  0.00     0.165 HD
HETATM   36  C30 UNL     1      -5.787   6.745  13.890  1.00  0.00    -0.028 A 
HETATM   37  C31 UNL     1      -5.509   8.163  14.253  1.00  0.00     0.050 C 
BRANCH  32  38
HETATM   38  C2  UNL     1      -7.639   3.490  13.669  1.00  0.00     0.054 C 
HETATM   39  C1  UNL     1      -7.206   2.466  12.628  1.00  0.00     0.011 C 
ENDBRANCH  32  38
ENDBRANCH  29  31
ENDBRANCH  28  29
ENDBRANCH  26  28
ENDBRANCH   1  26
BRANCH  13  40
HETATM   40  O4  UNL     1     -14.734  10.094  16.368  1.00  0.00    -0.392 OA
HETATM   41  H27 UNL     1     -14.285  10.729  15.766  1.00  0.00     0.210 HD
ENDBRANCH  13  40
BRANCH  16  42
HETATM   42  O6  UNL     1     -15.096  13.655  18.754  1.00  0.00    -0.365 OA
HETATM   43  H28 UNL     1     -15.163  13.550  17.785  1.00  0.00     0.213 HD
ENDBRANCH  16  42
TORSDOF 7
ENDMDL
