MODEL 1
REMARK minimizedAffinity -9.71560192
REMARK  9 active torsions:
REMARK  status: ('A' for Active; 'I' for Inactive)
REMARK    1  A    between atoms: C2_2  and  C30_34 
REMARK    2  A    between atoms: C3_3  and  C4_4 
REMARK    3  A    between atoms: C4_4  and  C5_5 
REMARK    4  A    between atoms: C5_5  and  C6_6 
REMARK    5  A    between atoms: C6_6  and  C8_8 
REMARK    6  A    between atoms: C10_10  and  O1_12 
REMARK    7  A    between atoms: C14_15  and  O2_16 
REMARK    8  A    between atoms: C25_28  and  O4_29 
REMARK    9  A    between atoms: C30_34  and  O5_35 
ROOT
HETATM    1  C8  UNL     1      -0.767  52.253 -21.831  1.00  0.00     0.005 C 
HETATM    2  C9  UNL     1      -0.619  51.884 -23.311  1.00  0.00     0.048 C 
HETATM    3  C10 UNL     1      -2.030  51.410 -23.715  1.00  0.00     0.079 C 
HETATM    4  C11 UNL     1      -2.791  52.576 -24.359  1.00  0.00     0.051 C 
HETATM    5  C12 UNL     1      -2.638  50.896 -22.411  1.00  0.00    -0.030 C 
HETATM    6  C13 UNL     1      -3.909  50.479 -22.188  1.00  0.00    -0.011 C 
HETATM    7  C14 UNL     1      -4.930  50.323 -23.290  1.00  0.00     0.151 C 
HETATM    8  C15 UNL     1      -5.728  49.019 -23.208  1.00  0.00     0.043 C 
HETATM    9  C16 UNL     1      -6.298  48.712 -21.803  1.00  0.00     0.015 C 
HETATM   10  C17 UNL     1      -7.199  47.421 -21.786  1.00  0.00     0.018 C 
HETATM   11  C18 UNL     1      -8.654  47.803 -22.150  1.00  0.00     0.023 C 
HETATM   12  C19 UNL     1      -6.759  46.322 -22.777  1.00  0.00     0.023 C 
HETATM   13  C20 UNL     1      -7.245  46.837 -20.372  1.00  0.00     0.135 C 
HETATM   14  O3  UNL     1      -7.474  45.646 -20.142  1.00  0.00    -0.297 OA
HETATM   15  C21 UNL     1      -7.102  47.808 -19.234  1.00  0.00     0.080 C 
HETATM   16  C22 UNL     1      -5.781  48.562 -19.291  1.00  0.00     0.020 C 
HETATM   17  C23 UNL     1      -5.161  48.762 -20.710  1.00  0.00    -0.004 C 
HETATM   18  C24 UNL     1      -4.125  47.630 -20.938  1.00  0.00     0.019 C 
HETATM   19  C25 UNL     1      -4.449  50.185 -20.780  1.00  0.00     0.092 C 
HETATM   20  C26 UNL     1      -3.424  50.413 -19.633  1.00  0.00     0.044 C 
HETATM   21  C27 UNL     1      -2.354  51.451 -19.984  1.00  0.00     0.017 C 
HETATM   22  C28 UNL     1      -1.622  51.077 -21.283  1.00  0.00    -0.013 C 
HETATM   23  C29 UNL     1      -0.832  49.766 -21.095  1.00  0.00     0.021 C 
ENDROOT
BRANCH   1  24
HETATM   24  C6  UNL     1       0.553  52.641 -21.106  1.00  0.00    -0.013 C 
HETATM   25  C7  UNL     1       1.291  53.844 -21.703  1.00  0.00     0.010 C 
BRANCH  24  26
HETATM   26  C5  UNL     1       0.228  52.882 -19.601  1.00  0.00     0.008 C 
BRANCH  26  27
HETATM   27  C4  UNL     1       1.421  52.873 -18.635  1.00  0.00     0.028 C 
BRANCH  27  28
HETATM   28  C3  UNL     1       1.115  52.353 -17.260  1.00  0.00    -0.022 C 
HETATM   29  C2  UNL     1       1.961  52.277 -16.208  1.00  0.00    -0.064 C 
HETATM   30  C1  UNL     1       3.418  52.660 -16.258  1.00  0.00     0.045 C 
BRANCH  29  31
HETATM   31  C30 UNL     1       1.481  51.788 -14.865  1.00  0.00     0.197 C 
BRANCH  31  32
HETATM   32  O5  UNL     1       0.698  52.792 -14.226  1.00  0.00    -0.397 OA
HETATM   33  H48 UNL     1       0.455  53.449 -14.901  1.00  0.00     0.209 HD
ENDBRANCH  31  32
ENDBRANCH  29  31
ENDBRANCH  27  28
ENDBRANCH  26  27
ENDBRANCH  24  26
ENDBRANCH   1  24
BRANCH   3  34
HETATM   34  O1  UNL     1      -1.929  50.337 -24.637  1.00  0.00    -0.386 OA
HETATM   35  H19 UNL     1      -1.356  50.624 -25.364  1.00  0.00     0.211 HD
ENDBRANCH   3  34
BRANCH   7  36
HETATM   36  O2  UNL     1      -5.798  51.457 -23.219  1.00  0.00    -0.391 OA
HETATM   37  H21 UNL     1      -6.593  51.246 -23.734  1.00  0.00     0.210 HD
ENDBRANCH   7  36
BRANCH  19  38
HETATM   38  O4  UNL     1      -5.480  51.170 -20.523  1.00  0.00    -0.384 OA
HETATM   39  H38 UNL     1      -5.339  51.904 -21.157  1.00  0.00     0.211 HD
ENDBRANCH  19  38
TORSDOF 9
ENDMDL
MODEL 2
REMARK minimizedAffinity -9.34548187
REMARK  9 active torsions:
REMARK  status: ('A' for Active; 'I' for Inactive)
REMARK    1  A    between atoms: C2_2  and  C30_34 
REMARK    2  A    between atoms: C3_3  and  C4_4 
REMARK    3  A    between atoms: C4_4  and  C5_5 
REMARK    4  A    between atoms: C5_5  and  C6_6 
REMARK    5  A    between atoms: C6_6  and  C8_8 
REMARK    6  A    between atoms: C10_10  and  O1_12 
REMARK    7  A    between atoms: C14_15  and  O2_16 
REMARK    8  A    between atoms: C25_28  and  O4_29 
REMARK    9  A    between atoms: C30_34  and  O5_35 
ROOT
HETATM    1  C8  UNL     1      -2.083  51.298 -22.784  1.00  0.00     0.005 C 
HETATM    2  C9  UNL     1      -1.723  50.382 -23.957  1.00  0.00     0.048 C 
HETATM    3  C10 UNL     1      -3.072  49.749 -24.358  1.00  0.00     0.079 C 
HETATM    4  C11 UNL     1      -3.681  50.547 -25.517  1.00  0.00     0.051 C 
HETATM    5  C12 UNL     1      -3.891  49.771 -23.068  1.00  0.00    -0.030 C 
HETATM    6  C13 UNL     1      -5.195  49.441 -22.901  1.00  0.00    -0.011 C 
HETATM    7  C14 UNL     1      -6.039  48.837 -23.997  1.00  0.00     0.151 C 
HETATM    8  C15 UNL     1      -6.888  47.648 -23.536  1.00  0.00     0.043 C 
HETATM    9  C16 UNL     1      -7.677  47.902 -22.231  1.00  0.00     0.015 C 
HETATM   10  C17 UNL     1      -8.616  46.696 -21.849  1.00  0.00     0.018 C 
HETATM   11  C18 UNL     1      -9.983  46.865 -22.556  1.00  0.00     0.023 C 
HETATM   12  C19 UNL     1      -8.069  45.309 -22.249  1.00  0.00     0.023 C 
HETATM   13  C20 UNL     1      -8.900  46.714 -20.345  1.00  0.00     0.135 C 
HETATM   14  O3  UNL     1      -9.204  45.702 -19.706  1.00  0.00    -0.297 OA
HETATM   15  C21 UNL     1      -8.898  48.057 -19.672  1.00  0.00     0.080 C 
HETATM   16  C22 UNL     1      -7.558  48.764 -19.814  1.00  0.00     0.020 C 
HETATM   17  C23 UNL     1      -6.720  48.408 -21.082  1.00  0.00    -0.004 C 
HETATM   18  C24 UNL     1      -5.703  47.306 -20.685  1.00  0.00     0.019 C 
HETATM   19  C25 UNL     1      -5.956  49.708 -21.593  1.00  0.00     0.092 C 
HETATM   20  C26 UNL     1      -5.111  50.396 -20.482  1.00  0.00     0.044 C 
HETATM   21  C27 UNL     1      -3.963  51.242 -21.041  1.00  0.00     0.017 C 
HETATM   22  C28 UNL     1      -3.054  50.408 -21.959  1.00  0.00    -0.013 C 
HETATM   23  C29 UNL     1      -2.351  49.299 -21.152  1.00  0.00     0.021 C 
ENDROOT
BRANCH   1  24
HETATM   24  C6  UNL     1      -0.877  51.976 -22.073  1.00  0.00    -0.013 C 
HETATM   25  C7  UNL     1      -0.479  51.346 -20.734  1.00  0.00     0.010 C 
BRANCH  24  26
HETATM   26  C5  UNL     1       0.328  51.984 -23.061  1.00  0.00     0.008 C 
BRANCH  26  27
HETATM   27  C4  UNL     1       0.087  52.647 -24.425  1.00  0.00     0.028 C 
BRANCH  27  28
HETATM   28  C3  UNL     1       1.082  52.282 -25.488  1.00  0.00    -0.022 C 
HETATM   29  C2  UNL     1       0.825  51.980 -26.780  1.00  0.00    -0.064 C 
HETATM   30  C1  UNL     1      -0.558  51.898 -27.376  1.00  0.00     0.045 C 
BRANCH  29  31
HETATM   31  C30 UNL     1       1.948  51.698 -27.746  1.00  0.00     0.197 C 
BRANCH  31  32
HETATM   32  O5  UNL     1       3.144  51.393 -27.035  1.00  0.00    -0.397 OA
HETATM   33  H48 UNL     1       2.897  51.198 -26.114  1.00  0.00     0.209 HD
ENDBRANCH  31  32
ENDBRANCH  29  31
ENDBRANCH  27  28
ENDBRANCH  26  27
ENDBRANCH  24  26
ENDBRANCH   1  24
BRANCH   3  34
HETATM   34  O1  UNL     1      -2.869  48.403 -24.758  1.00  0.00    -0.386 OA
HETATM   35  H19 UNL     1      -2.181  48.398 -25.441  1.00  0.00     0.211 HD
ENDBRANCH   3  34
BRANCH   7  36
HETATM   36  O2  UNL     1      -6.866  49.883 -24.512  1.00  0.00    -0.391 OA
HETATM   37  H21 UNL     1      -7.580  49.465 -25.020  1.00  0.00     0.210 HD
ENDBRANCH   7  36
BRANCH  19  38
HETATM   38  O4  UNL     1      -6.977  50.686 -21.906  1.00  0.00    -0.384 OA
HETATM   39  H38 UNL     1      -6.714  51.116 -22.746  1.00  0.00     0.211 HD
ENDBRANCH  19  38
TORSDOF 9
ENDMDL
MODEL 3
REMARK minimizedAffinity -9.31407452
REMARK  9 active torsions:
REMARK  status: ('A' for Active; 'I' for Inactive)
REMARK    1  A    between atoms: C2_2  and  C30_34 
REMARK    2  A    between atoms: C3_3  and  C4_4 
REMARK    3  A    between atoms: C4_4  and  C5_5 
REMARK    4  A    between atoms: C5_5  and  C6_6 
REMARK    5  A    between atoms: C6_6  and  C8_8 
REMARK    6  A    between atoms: C10_10  and  O1_12 
REMARK    7  A    between atoms: C14_15  and  O2_16 
REMARK    8  A    between atoms: C25_28  and  O4_29 
REMARK    9  A    between atoms: C30_34  and  O5_35 
ROOT
HETATM    1  C8  UNL     1      -2.938  48.743 -24.590  1.00  0.00     0.005 C 
HETATM    2  C9  UNL     1      -2.084  49.358 -23.477  1.00  0.00     0.048 C 
HETATM    3  C10 UNL     1      -2.694  48.779 -22.183  1.00  0.00     0.079 C 
HETATM    4  C11 UNL     1      -1.889  47.546 -21.751  1.00  0.00     0.051 C 
HETATM    5  C12 UNL     1      -4.149  48.493 -22.552  1.00  0.00    -0.030 C 
HETATM    6  C13 UNL     1      -5.092  47.865 -21.808  1.00  0.00    -0.011 C 
HETATM    7  C14 UNL     1      -4.870  47.455 -20.372  1.00  0.00     0.151 C 
HETATM    8  C15 UNL     1      -6.040  47.798 -19.447  1.00  0.00     0.043 C 
HETATM    9  C16 UNL     1      -7.425  47.377 -19.993  1.00  0.00     0.015 C 
HETATM   10  C17 UNL     1      -8.587  47.652 -18.966  1.00  0.00     0.018 C 
HETATM   11  C18 UNL     1      -8.735  46.437 -18.018  1.00  0.00     0.023 C 
HETATM   12  C19 UNL     1      -8.373  48.896 -18.077  1.00  0.00     0.023 C 
HETATM   13  C20 UNL     1      -9.918  47.786 -19.711  1.00  0.00     0.135 C 
HETATM   14  O3  UNL     1     -10.878  48.422 -19.265  1.00  0.00    -0.297 OA
HETATM   15  C21 UNL     1     -10.057  47.011 -20.991  1.00  0.00     0.080 C 
HETATM   16  C22 UNL     1      -9.006  47.410 -22.016  1.00  0.00     0.020 C 
HETATM   17  C23 UNL     1      -7.654  47.944 -21.447  1.00  0.00    -0.004 C 
HETATM   18  C24 UNL     1      -7.724  49.493 -21.431  1.00  0.00     0.019 C 
HETATM   19  C25 UNL     1      -6.458  47.455 -22.378  1.00  0.00     0.092 C 
HETATM   20  C26 UNL     1      -6.667  47.810 -23.878  1.00  0.00     0.044 C 
HETATM   21  C27 UNL     1      -5.354  47.887 -24.663  1.00  0.00     0.017 C 
HETATM   22  C28 UNL     1      -4.375  48.880 -24.014  1.00  0.00    -0.013 C 
HETATM   23  C29 UNL     1      -4.942  50.312 -24.080  1.00  0.00     0.021 C 
ENDROOT
BRANCH   1  24
HETATM   24  C6  UNL     1      -2.638  49.264 -26.025  1.00  0.00    -0.013 C 
HETATM   25  C7  UNL     1      -3.546  48.698 -27.121  1.00  0.00     0.010 C 
BRANCH  24  26
HETATM   26  C5  UNL     1      -2.704  50.821 -26.000  1.00  0.00     0.008 C 
BRANCH  26  27
HETATM   27  C4  UNL     1      -1.612  51.563 -26.783  1.00  0.00     0.028 C 
BRANCH  27  28
HETATM   28  C3  UNL     1      -0.213  51.329 -26.291  1.00  0.00    -0.022 C 
HETATM   29  C2  UNL     1       0.934  51.456 -26.995  1.00  0.00    -0.064 C 
HETATM   30  C1  UNL     1       0.999  51.810 -28.459  1.00  0.00     0.045 C 
BRANCH  29  31
HETATM   31  C30 UNL     1       2.273  51.247 -26.334  1.00  0.00     0.197 C 
BRANCH  31  32
HETATM   32  O5  UNL     1       3.323  51.466 -27.270  1.00  0.00    -0.397 OA
HETATM   33  H48 UNL     1       2.944  51.932 -28.035  1.00  0.00     0.209 HD
ENDBRANCH  31  32
ENDBRANCH  29  31
ENDBRANCH  27  28
ENDBRANCH  26  27
ENDBRANCH  24  26
ENDBRANCH   1  24
BRANCH   3  34
HETATM   34  O1  UNL     1      -2.656  49.758 -21.157  1.00  0.00    -0.386 OA
HETATM   35  H19 UNL     1      -1.745  50.079 -21.087  1.00  0.00     0.211 HD
ENDBRANCH   3  34
BRANCH   7  36
HETATM   36  O2  UNL     1      -4.618  46.047 -20.374  1.00  0.00    -0.391 OA
HETATM   37  H21 UNL     1      -4.733  45.731 -19.464  1.00  0.00     0.210 HD
ENDBRANCH   7  36
BRANCH  19  38
HETATM   38  O4  UNL     1      -6.492  46.007 -22.359  1.00  0.00    -0.384 OA
HETATM   39  H38 UNL     1      -5.564  45.700 -22.284  1.00  0.00     0.211 HD
ENDBRANCH  19  38
TORSDOF 9
ENDMDL
MODEL 4
REMARK minimizedAffinity -9.24703598
REMARK  9 active torsions:
REMARK  status: ('A' for Active; 'I' for Inactive)
REMARK    1  A    between atoms: C2_2  and  C30_34 
REMARK    2  A    between atoms: C3_3  and  C4_4 
REMARK    3  A    between atoms: C4_4  and  C5_5 
REMARK    4  A    between atoms: C5_5  and  C6_6 
REMARK    5  A    between atoms: C6_6  and  C8_8 
REMARK    6  A    between atoms: C10_10  and  O1_12 
REMARK    7  A    between atoms: C14_15  and  O2_16 
REMARK    8  A    between atoms: C25_28  and  O4_29 
REMARK    9  A    between atoms: C30_34  and  O5_35 
ROOT
HETATM    1  C8  UNL     1      -0.536  51.587 -20.965  1.00  0.00     0.005 C 
HETATM    2  C9  UNL     1      -0.757  52.143 -19.554  1.00  0.00     0.048 C 
HETATM    3  C10 UNL     1      -1.448  50.984 -18.806  1.00  0.00     0.079 C 
HETATM    4  C11 UNL     1      -0.394  50.179 -18.034  1.00  0.00     0.051 C 
HETATM    5  C12 UNL     1      -2.164  50.204 -19.908  1.00  0.00    -0.030 C 
HETATM    6  C13 UNL     1      -2.822  49.023 -19.803  1.00  0.00    -0.011 C 
HETATM    7  C14 UNL     1      -3.076  48.335 -18.483  1.00  0.00     0.151 C 
HETATM    8  C15 UNL     1      -4.506  47.811 -18.329  1.00  0.00     0.043 C 
HETATM    9  C16 UNL     1      -5.020  47.004 -19.544  1.00  0.00     0.015 C 
HETATM   10  C17 UNL     1      -6.452  46.394 -19.301  1.00  0.00     0.018 C 
HETATM   11  C18 UNL     1      -6.315  45.017 -18.608  1.00  0.00     0.023 C 
HETATM   12  C19 UNL     1      -7.372  47.258 -18.412  1.00  0.00     0.023 C 
HETATM   13  C20 UNL     1      -7.142  46.138 -20.643  1.00  0.00     0.135 C 
HETATM   14  O3  UNL     1      -8.370  46.101 -20.773  1.00  0.00    -0.297 OA
HETATM   15  C21 UNL     1      -6.252  45.821 -21.812  1.00  0.00     0.080 C 
HETATM   16  C22 UNL     1      -5.268  46.945 -22.100  1.00  0.00     0.020 C 
HETATM   17  C23 UNL     1      -4.848  47.825 -20.880  1.00  0.00    -0.004 C 
HETATM   18  C24 UNL     1      -5.750  49.087 -20.873  1.00  0.00     0.019 C 
HETATM   19  C25 UNL     1      -3.318  48.240 -21.029  1.00  0.00     0.092 C 
HETATM   20  C26 UNL     1      -2.997  48.908 -22.396  1.00  0.00     0.044 C 
HETATM   21  C27 UNL     1      -1.756  49.805 -22.348  1.00  0.00     0.017 C 
HETATM   22  C28 UNL     1      -1.889  50.877 -21.253  1.00  0.00    -0.013 C 
HETATM   23  C29 UNL     1      -3.043  51.842 -21.584  1.00  0.00     0.021 C 
ENDROOT
BRANCH   1  24
HETATM   24  C6  UNL     1       0.028  52.602 -22.000  1.00  0.00    -0.013 C 
HETATM   25  C7  UNL     1       0.996  53.642 -21.425  1.00  0.00     0.010 C 
BRANCH  24  26
HETATM   26  C5  UNL     1       0.702  51.796 -23.152  1.00  0.00     0.008 C 
BRANCH  26  27
HETATM   27  C4  UNL     1       0.167  52.054 -24.567  1.00  0.00     0.028 C 
BRANCH  27  28
HETATM   28  C3  UNL     1       1.192  51.947 -25.659  1.00  0.00    -0.022 C 
HETATM   29  C2  UNL     1       0.966  51.755 -26.977  1.00  0.00    -0.064 C 
HETATM   30  C1  UNL     1      -0.398  51.550 -27.586  1.00  0.00     0.045 C 
BRANCH  29  31
HETATM   31  C30 UNL     1       2.108  51.735 -27.962  1.00  0.00     0.197 C 
BRANCH  31  32
HETATM   32  O5  UNL     1       3.338  51.500 -27.285  1.00  0.00    -0.397 OA
HETATM   33  H48 UNL     1       3.126  51.165 -26.396  1.00  0.00     0.209 HD
ENDBRANCH  31  32
ENDBRANCH  29  31
ENDBRANCH  27  28
ENDBRANCH  26  27
ENDBRANCH  24  26
ENDBRANCH   1  24
BRANCH   3  34
HETATM   34  O1  UNL     1      -2.409  51.504 -17.903  1.00  0.00    -0.386 OA
HETATM   35  H19 UNL     1      -1.967  52.161 -17.345  1.00  0.00     0.211 HD
ENDBRANCH   3  34
BRANCH   7  36
HETATM   36  O2  UNL     1      -2.129  47.270 -18.378  1.00  0.00    -0.391 OA
HETATM   37  H21 UNL     1      -2.441  46.672 -17.680  1.00  0.00     0.210 HD
ENDBRANCH   7  36
BRANCH  19  38
HETATM   38  O4  UNL     1      -2.561  47.006 -21.060  1.00  0.00    -0.384 OA
HETATM   39  H38 UNL     1      -1.767  47.143 -20.503  1.00  0.00     0.211 HD
ENDBRANCH  19  38
TORSDOF 9
ENDMDL
MODEL 5
REMARK minimizedAffinity -9.21354675
REMARK  9 active torsions:
REMARK  status: ('A' for Active; 'I' for Inactive)
REMARK    1  A    between atoms: C2_2  and  C30_34 
REMARK    2  A    between atoms: C3_3  and  C4_4 
REMARK    3  A    between atoms: C4_4  and  C5_5 
REMARK    4  A    between atoms: C5_5  and  C6_6 
REMARK    5  A    between atoms: C6_6  and  C8_8 
REMARK    6  A    between atoms: C10_10  and  O1_12 
REMARK    7  A    between atoms: C14_15  and  O2_16 
REMARK    8  A    between atoms: C25_28  and  O4_29 
REMARK    9  A    between atoms: C30_34  and  O5_35 
ROOT
HETATM    1  C8  UNL     1      -0.116  51.371 -21.179  1.00  0.00     0.005 C 
HETATM    2  C9  UNL     1       0.049  52.851 -20.821  1.00  0.00     0.048 C 
HETATM    3  C10 UNL     1       0.346  52.833 -19.307  1.00  0.00     0.079 C 
HETATM    4  C11 UNL     1       1.863  52.887 -19.087  1.00  0.00     0.051 C 
HETATM    5  C12 UNL     1      -0.325  51.552 -18.811  1.00  0.00    -0.030 C 
HETATM    6  C13 UNL     1      -0.262  51.000 -17.574  1.00  0.00    -0.011 C 
HETATM    7  C14 UNL     1       0.403  51.680 -16.402  1.00  0.00     0.151 C 
HETATM    8  C15 UNL     1      -0.418  51.623 -15.111  1.00  0.00     0.043 C 
HETATM    9  C16 UNL     1      -0.965  50.218 -14.769  1.00  0.00     0.015 C 
HETATM   10  C17 UNL     1      -1.712  50.181 -13.383  1.00  0.00     0.018 C 
HETATM   11  C18 UNL     1      -0.688  49.917 -12.253  1.00  0.00     0.023 C 
HETATM   12  C19 UNL     1      -2.455  51.487 -13.024  1.00  0.00     0.023 C 
HETATM   13  C20 UNL     1      -2.701  49.013 -13.356  1.00  0.00     0.135 C 
HETATM   14  O3  UNL     1      -3.703  48.996 -12.635  1.00  0.00    -0.297 OA
HETATM   15  C21 UNL     1      -2.347  47.808 -14.181  1.00  0.00     0.080 C 
HETATM   16  C22 UNL     1      -2.204  48.150 -15.657  1.00  0.00     0.020 C 
HETATM   17  C23 UNL     1      -1.762  49.611 -15.988  1.00  0.00    -0.004 C 
HETATM   18  C24 UNL     1      -3.041  50.439 -16.278  1.00  0.00     0.019 C 
HETATM   19  C25 UNL     1      -0.810  49.599 -17.265  1.00  0.00     0.092 C 
HETATM   20  C26 UNL     1      -1.434  48.863 -18.485  1.00  0.00     0.044 C 
HETATM   21  C27 UNL     1      -0.846  49.320 -19.823  1.00  0.00     0.017 C 
HETATM   22  C28 UNL     1      -0.977  50.842 -19.998  1.00  0.00    -0.013 C 
HETATM   23  C29 UNL     1      -2.462  51.246 -20.078  1.00  0.00     0.021 C 
ENDROOT
BRANCH   1  24
HETATM   24  C6  UNL     1      -0.566  51.085 -22.640  1.00  0.00    -0.013 C 
HETATM   25  C7  UNL     1      -1.631  49.994 -22.787  1.00  0.00     0.010 C 
BRANCH  24  26
HETATM   26  C5  UNL     1      -1.056  52.425 -23.268  1.00  0.00     0.008 C 
BRANCH  26  27
HETATM   27  C4  UNL     1      -0.560  52.734 -24.688  1.00  0.00     0.028 C 
BRANCH  27  28
HETATM   28  C3  UNL     1       0.761  52.115 -25.044  1.00  0.00    -0.022 C 
HETATM   29  C2  UNL     1       1.192  51.760 -26.274  1.00  0.00    -0.064 C 
HETATM   30  C1  UNL     1       0.368  51.876 -27.532  1.00  0.00     0.045 C 
BRANCH  29  31
HETATM   31  C30 UNL     1       2.581  51.207 -26.477  1.00  0.00     0.197 C 
BRANCH  31  32
HETATM   32  O5  UNL     1       3.324  52.049 -27.351  1.00  0.00    -0.397 OA
HETATM   33  H48 UNL     1       2.853  52.899 -27.413  1.00  0.00     0.209 HD
ENDBRANCH  31  32
ENDBRANCH  29  31
ENDBRANCH  27  28
ENDBRANCH  26  27
ENDBRANCH  24  26
ENDBRANCH   1  24
BRANCH   3  34
HETATM   34  O1  UNL     1      -0.267  53.950 -18.686  1.00  0.00    -0.386 OA
HETATM   35  H19 UNL     1       0.016  54.746 -19.162  1.00  0.00     0.211 HD
ENDBRANCH   3  34
BRANCH   7  36
HETATM   36  O2  UNL     1       1.676  51.054 -16.223  1.00  0.00    -0.391 OA
HETATM   37  H21 UNL     1       1.995  51.291 -15.338  1.00  0.00     0.210 HD
ENDBRANCH   7  36
BRANCH  19  38
HETATM   38  O4  UNL     1       0.332  48.781 -16.914  1.00  0.00    -0.384 OA
HETATM   39  H38 UNL     1       1.128  49.238 -17.256  1.00  0.00     0.211 HD
ENDBRANCH  19  38
TORSDOF 9
ENDMDL
MODEL 6
REMARK minimizedAffinity -9.07380676
REMARK  9 active torsions:
REMARK  status: ('A' for Active; 'I' for Inactive)
REMARK    1  A    between atoms: C2_2  and  C30_34 
REMARK    2  A    between atoms: C3_3  and  C4_4 
REMARK    3  A    between atoms: C4_4  and  C5_5 
REMARK    4  A    between atoms: C5_5  and  C6_6 
REMARK    5  A    between atoms: C6_6  and  C8_8 
REMARK    6  A    between atoms: C10_10  and  O1_12 
REMARK    7  A    between atoms: C14_15  and  O2_16 
REMARK    8  A    between atoms: C25_28  and  O4_29 
REMARK    9  A    between atoms: C30_34  and  O5_35 
ROOT
HETATM    1  C8  UNL     1      -1.600  50.290 -23.096  1.00  0.00     0.005 C 
HETATM    2  C9  UNL     1      -1.272  51.146 -21.869  1.00  0.00     0.048 C 
HETATM    3  C10 UNL     1      -2.035  50.452 -20.722  1.00  0.00     0.079 C 
HETATM    4  C11 UNL     1      -1.083  49.504 -19.981  1.00  0.00     0.051 C 
HETATM    5  C12 UNL     1      -3.207  49.763 -21.417  1.00  0.00    -0.030 C 
HETATM    6  C13 UNL     1      -4.117  48.914 -20.878  1.00  0.00    -0.011 C 
HETATM    7  C14 UNL     1      -4.193  48.617 -19.400  1.00  0.00     0.151 C 
HETATM    8  C15 UNL     1      -5.617  48.643 -18.840  1.00  0.00     0.043 C 
HETATM    9  C16 UNL     1      -6.641  47.839 -19.674  1.00  0.00     0.015 C 
HETATM   10  C17 UNL     1      -8.068  47.804 -19.008  1.00  0.00     0.018 C 
HETATM   11  C18 UNL     1      -8.143  46.620 -18.014  1.00  0.00     0.023 C 
HETATM   12  C19 UNL     1      -8.437  49.080 -18.220  1.00  0.00     0.023 C 
HETATM   13  C20 UNL     1      -9.134  47.543 -20.075  1.00  0.00     0.135 C 
HETATM   14  O3  UNL     1     -10.311  47.896 -19.952  1.00  0.00    -0.297 OA
HETATM   15  C21 UNL     1      -8.714  46.729 -21.266  1.00  0.00     0.080 C 
HETATM   16  C22 UNL     1      -7.567  47.380 -22.026  1.00  0.00     0.020 C 
HETATM   17  C23 UNL     1      -6.609  48.284 -21.188  1.00  0.00    -0.004 C 
HETATM   18  C24 UNL     1      -7.085  49.752 -21.343  1.00  0.00     0.019 C 
HETATM   19  C25 UNL     1      -5.121  48.125 -21.733  1.00  0.00     0.092 C 
HETATM   20  C26 UNL     1      -5.002  48.371 -23.264  1.00  0.00     0.044 C 
HETATM   21  C27 UNL     1      -3.593  48.792 -23.695  1.00  0.00     0.017 C 
HETATM   22  C28 UNL     1      -3.123  50.034 -22.920  1.00  0.00    -0.013 C 
HETATM   23  C29 UNL     1      -4.005  51.249 -23.267  1.00  0.00     0.021 C 
ENDROOT
BRANCH   1  24
HETATM   24  C6  UNL     1      -1.070  50.839 -24.452  1.00  0.00    -0.013 C 
HETATM   25  C7  UNL     1      -1.894  50.435 -25.679  1.00  0.00     0.010 C 
BRANCH  24  26
HETATM   26  C5  UNL     1      -0.966  52.390 -24.341  1.00  0.00     0.008 C 
BRANCH  26  27
HETATM   27  C4  UNL     1       0.406  53.005 -24.650  1.00  0.00     0.028 C 
BRANCH  27  28
HETATM   28  C3  UNL     1       1.201  52.281 -25.698  1.00  0.00    -0.022 C 
HETATM   29  C2  UNL     1       1.072  52.385 -27.039  1.00  0.00    -0.064 C 
HETATM   30  C1  UNL     1       0.034  53.230 -27.732  1.00  0.00     0.045 C 
BRANCH  29  31
HETATM   31  C30 UNL     1       1.998  51.634 -27.964  1.00  0.00     0.197 C 
BRANCH  31  32
HETATM   32  O5  UNL     1       3.294  51.530 -27.385  1.00  0.00    -0.397 OA
HETATM   33  H48 UNL     1       3.213  51.745 -26.440  1.00  0.00     0.209 HD
ENDBRANCH  31  32
ENDBRANCH  29  31
ENDBRANCH  27  28
ENDBRANCH  26  27
ENDBRANCH  24  26
ENDBRANCH   1  24
BRANCH   3  34
HETATM   34  O1  UNL     1      -2.535  51.427 -19.821  1.00  0.00    -0.386 OA
HETATM   35  H19 UNL     1      -1.793  51.991 -19.554  1.00  0.00     0.211 HD
ENDBRANCH   3  34
BRANCH   7  36
HETATM   36  O2  UNL     1      -3.590  47.337 -19.200  1.00  0.00    -0.391 OA
HETATM   37  H21 UNL     1      -3.859  47.023 -18.322  1.00  0.00     0.210 HD
ENDBRANCH   7  36
BRANCH  19  38
HETATM   38  O4  UNL     1      -4.777  46.726 -21.580  1.00  0.00    -0.384 OA
HETATM   39  H38 UNL     1      -3.858  46.692 -21.243  1.00  0.00     0.211 HD
ENDBRANCH  19  38
TORSDOF 9
ENDMDL
MODEL 7
REMARK minimizedAffinity -9.01352119
REMARK  9 active torsions:
REMARK  status: ('A' for Active; 'I' for Inactive)
REMARK    1  A    between atoms: C2_2  and  C30_34 
REMARK    2  A    between atoms: C3_3  and  C4_4 
REMARK    3  A    between atoms: C4_4  and  C5_5 
REMARK    4  A    between atoms: C5_5  and  C6_6 
REMARK    5  A    between atoms: C6_6  and  C8_8 
REMARK    6  A    between atoms: C10_10  and  O1_12 
REMARK    7  A    between atoms: C14_15  and  O2_16 
REMARK    8  A    between atoms: C25_28  and  O4_29 
REMARK    9  A    between atoms: C30_34  and  O5_35 
ROOT
HETATM    1  C8  UNL     1      -0.297  51.797 -23.302  1.00  0.00     0.005 C 
HETATM    2  C9  UNL     1      -0.140  52.541 -21.972  1.00  0.00     0.048 C 
HETATM    3  C10 UNL     1      -0.721  51.561 -20.931  1.00  0.00     0.079 C 
HETATM    4  C11 UNL     1       0.421  50.752 -20.304  1.00  0.00     0.051 C 
HETATM    5  C12 UNL     1      -1.731  50.732 -21.723  1.00  0.00    -0.030 C 
HETATM    6  C13 UNL     1      -2.431  49.648 -21.307  1.00  0.00    -0.011 C 
HETATM    7  C14 UNL     1      -2.420  49.158 -19.879  1.00  0.00     0.151 C 
HETATM    8  C15 UNL     1      -3.810  48.810 -19.338  1.00  0.00     0.043 C 
HETATM    9  C16 UNL     1      -4.651  47.918 -20.281  1.00  0.00     0.015 C 
HETATM   10  C17 UNL     1      -6.028  47.496 -19.642  1.00  0.00     0.018 C 
HETATM   11  C18 UNL     1      -5.835  46.207 -18.807  1.00  0.00     0.023 C 
HETATM   12  C19 UNL     1      -6.648  48.554 -18.704  1.00  0.00     0.023 C 
HETATM   13  C20 UNL     1      -7.030  47.151 -20.747  1.00  0.00     0.135 C 
HETATM   14  O3  UNL     1      -8.253  47.228 -20.595  1.00  0.00    -0.297 OA
HETATM   15  C21 UNL     1      -6.464  46.602 -22.026  1.00  0.00     0.080 C 
HETATM   16  C22 UNL     1      -5.493  47.573 -22.683  1.00  0.00     0.020 C 
HETATM   17  C23 UNL     1      -4.736  48.547 -21.725  1.00  0.00    -0.004 C 
HETATM   18  C24 UNL     1      -5.516  49.887 -21.699  1.00  0.00     0.019 C 
HETATM   19  C25 UNL     1      -3.257  48.778 -22.267  1.00  0.00     0.092 C 
HETATM   20  C26 UNL     1      -3.215  49.235 -23.753  1.00  0.00     0.044 C 
HETATM   21  C27 UNL     1      -1.935  49.997 -24.110  1.00  0.00     0.017 C 
HETATM   22  C28 UNL     1      -1.728  51.202 -23.178  1.00  0.00    -0.013 C 
HETATM   23  C29 UNL     1      -2.853  52.236 -23.380  1.00  0.00     0.021 C 
ENDROOT
BRANCH   1  24
HETATM   24  C6  UNL     1       0.084  52.612 -24.570  1.00  0.00    -0.013 C 
HETATM   25  C7  UNL     1       0.629  54.017 -24.297  1.00  0.00     0.010 C 
BRANCH  24  26
HETATM   26  C5  UNL     1       1.104  51.773 -25.398  1.00  0.00     0.008 C 
BRANCH  26  27
HETATM   27  C4  UNL     1       0.721  51.479 -26.855  1.00  0.00     0.028 C 
BRANCH  27  28
HETATM   28  C3  UNL     1      -0.616  50.820 -27.036  1.00  0.00    -0.022 C 
HETATM   29  C2  UNL     1      -1.784  51.417 -27.361  1.00  0.00    -0.064 C 
HETATM   30  C1  UNL     1      -1.959  52.903 -27.545  1.00  0.00     0.045 C 
BRANCH  29  31
HETATM   31  C30 UNL     1      -3.036  50.601 -27.571  1.00  0.00     0.197 C 
BRANCH  31  32
HETATM   32  O5  UNL     1      -3.395  50.598 -28.949  1.00  0.00    -0.397 OA
HETATM   33  H48 UNL     1      -2.624  50.909 -29.455  1.00  0.00     0.209 HD
ENDBRANCH  31  32
ENDBRANCH  29  31
ENDBRANCH  27  28
ENDBRANCH  26  27
ENDBRANCH  24  26
ENDBRANCH   1  24
BRANCH   3  34
HETATM   34  O1  UNL     1      -1.404  52.286 -19.921  1.00  0.00    -0.386 OA
HETATM   35  H19 UNL     1      -0.795  52.957 -19.575  1.00  0.00     0.211 HD
ENDBRANCH   3  34
BRANCH   7  36
HETATM   36  O2  UNL     1      -1.556  48.020 -19.835  1.00  0.00    -0.391 OA
HETATM   37  H21 UNL     1      -1.740  47.548 -19.007  1.00  0.00     0.210 HD
ENDBRANCH   7  36
BRANCH  19  38
HETATM   38  O4  UNL     1      -2.621  47.476 -22.288  1.00  0.00    -0.384 OA
HETATM   39  H38 UNL     1      -1.711  47.596 -21.947  1.00  0.00     0.211 HD
ENDBRANCH  19  38
TORSDOF 9
ENDMDL
MODEL 8
REMARK minimizedAffinity -8.55814743
REMARK  9 active torsions:
REMARK  status: ('A' for Active; 'I' for Inactive)
REMARK    1  A    between atoms: C2_2  and  C30_34 
REMARK    2  A    between atoms: C3_3  and  C4_4 
REMARK    3  A    between atoms: C4_4  and  C5_5 
REMARK    4  A    between atoms: C5_5  and  C6_6 
REMARK    5  A    between atoms: C6_6  and  C8_8 
REMARK    6  A    between atoms: C10_10  and  O1_12 
REMARK    7  A    between atoms: C14_15  and  O2_16 
REMARK    8  A    between atoms: C25_28  and  O4_29 
REMARK    9  A    between atoms: C30_34  and  O5_35 
ROOT
HETATM    1  C8  UNL     1      -1.732  50.551 -23.205  1.00  0.00     0.005 C 
HETATM    2  C9  UNL     1      -0.993  50.676 -21.869  1.00  0.00     0.048 C 
HETATM    3  C10 UNL     1      -1.705  49.655 -20.958  1.00  0.00     0.079 C 
HETATM    4  C11 UNL     1      -0.920  48.337 -20.963  1.00  0.00     0.051 C 
HETATM    5  C12 UNL     1      -3.116  49.559 -21.537  1.00  0.00    -0.030 C 
HETATM    6  C13 UNL     1      -4.110  48.709 -21.179  1.00  0.00    -0.011 C 
HETATM    7  C14 UNL     1      -4.010  47.775 -19.998  1.00  0.00     0.151 C 
HETATM    8  C15 UNL     1      -5.264  47.757 -19.120  1.00  0.00     0.043 C 
HETATM    9  C16 UNL     1      -6.586  47.602 -19.907  1.00  0.00     0.015 C 
HETATM   10  C17 UNL     1      -7.841  47.482 -18.962  1.00  0.00     0.018 C 
HETATM   11  C18 UNL     1      -8.051  45.999 -18.572  1.00  0.00     0.023 C 
HETATM   12  C19 UNL     1      -7.730  48.285 -17.648  1.00  0.00     0.023 C 
HETATM   13  C20 UNL     1      -9.102  47.916 -19.715  1.00  0.00     0.135 C 
HETATM   14  O3  UNL     1     -10.109  48.348 -19.147  1.00  0.00    -0.297 OA
HETATM   15  C21 UNL     1      -9.112  47.695 -21.201  1.00  0.00     0.080 C 
HETATM   16  C22 UNL     1      -7.981  48.439 -21.896  1.00  0.00     0.020 C 
HETATM   17  C23 UNL     1      -6.695  48.689 -21.046  1.00  0.00    -0.004 C 
HETATM   18  C24 UNL     1      -6.795  50.114 -20.443  1.00  0.00     0.019 C 
HETATM   19  C25 UNL     1      -5.412  48.574 -21.983  1.00  0.00     0.092 C 
HETATM   20  C26 UNL     1      -5.493  49.482 -23.243  1.00  0.00     0.044 C 
HETATM   21  C27 UNL     1      -4.116  49.832 -23.818  1.00  0.00     0.017 C 
HETATM   22  C28 UNL     1      -3.218  50.481 -22.752  1.00  0.00    -0.013 C 
HETATM   23  C29 UNL     1      -3.802  51.838 -22.313  1.00  0.00     0.021 C 
ENDROOT
BRANCH   1  24
HETATM   24  C6  UNL     1      -1.315  51.578 -24.297  1.00  0.00    -0.013 C 
HETATM   25  C7  UNL     1       0.018  52.288 -24.040  1.00  0.00     0.010 C 
BRANCH  24  26
HETATM   26  C5  UNL     1      -1.296  50.845 -25.672  1.00  0.00     0.008 C 
BRANCH  26  27
HETATM   27  C4  UNL     1      -2.036  51.537 -26.824  1.00  0.00     0.028 C 
BRANCH  27  28
HETATM   28  C3  UNL     1      -3.063  50.688 -27.516  1.00  0.00    -0.022 C 
HETATM   29  C2  UNL     1      -3.271  49.362 -27.355  1.00  0.00    -0.064 C 
HETATM   30  C1  UNL     1      -2.439  48.472 -26.466  1.00  0.00     0.045 C 
BRANCH  29  31
HETATM   31  C30 UNL     1      -4.394  48.662 -28.079  1.00  0.00     0.197 C 
BRANCH  31  32
HETATM   32  O5  UNL     1      -4.563  49.218 -29.379  1.00  0.00    -0.397 OA
HETATM   33  H48 UNL     1      -3.767  49.740 -29.582  1.00  0.00     0.209 HD
ENDBRANCH  31  32
ENDBRANCH  29  31
ENDBRANCH  27  28
ENDBRANCH  26  27
ENDBRANCH  24  26
ENDBRANCH   1  24
BRANCH   3  34
HETATM   34  O1  UNL     1      -1.777  50.163 -19.636  1.00  0.00    -0.386 OA
HETATM   35  H19 UNL     1      -0.881  50.417 -19.366  1.00  0.00     0.211 HD
ENDBRANCH   3  34
BRANCH   7  36
HETATM   36  O2  UNL     1      -3.734  46.472 -20.517  1.00  0.00    -0.391 OA
HETATM   37  H21 UNL     1      -3.923  45.832 -19.813  1.00  0.00     0.210 HD
ENDBRANCH   7  36
BRANCH  19  38
HETATM   38  O4  UNL     1      -5.421  47.230 -22.524  1.00  0.00    -0.384 OA
HETATM   39  H38 UNL     1      -4.499  46.902 -22.491  1.00  0.00     0.211 HD
ENDBRANCH  19  38
TORSDOF 9
ENDMDL
MODEL 9
REMARK minimizedAffinity -8.54320145
REMARK  9 active torsions:
REMARK  status: ('A' for Active; 'I' for Inactive)
REMARK    1  A    between atoms: C2_2  and  C30_34 
REMARK    2  A    between atoms: C3_3  and  C4_4 
REMARK    3  A    between atoms: C4_4  and  C5_5 
REMARK    4  A    between atoms: C5_5  and  C6_6 
REMARK    5  A    between atoms: C6_6  and  C8_8 
REMARK    6  A    between atoms: C10_10  and  O1_12 
REMARK    7  A    between atoms: C14_15  and  O2_16 
REMARK    8  A    between atoms: C25_28  and  O4_29 
REMARK    9  A    between atoms: C30_34  and  O5_35 
ROOT
HETATM    1  C8  UNL     1      -2.194  50.492 -22.457  1.00  0.00     0.005 C 
HETATM    2  C9  UNL     1      -3.280  51.515 -22.109  1.00  0.00     0.048 C 
HETATM    3  C10 UNL     1      -3.879  50.981 -20.791  1.00  0.00     0.079 C 
HETATM    4  C11 UNL     1      -3.209  51.690 -19.607  1.00  0.00     0.051 C 
HETATM    5  C12 UNL     1      -3.633  49.474 -20.852  1.00  0.00    -0.030 C 
HETATM    6  C13 UNL     1      -3.859  48.550 -19.886  1.00  0.00    -0.011 C 
HETATM    7  C14 UNL     1      -4.553  48.872 -18.585  1.00  0.00     0.151 C 
HETATM    8  C15 UNL     1      -5.615  47.845 -18.184  1.00  0.00     0.043 C 
HETATM    9  C16 UNL     1      -5.141  46.375 -18.273  1.00  0.00     0.015 C 
HETATM   10  C17 UNL     1      -6.225  45.358 -17.753  1.00  0.00     0.018 C 
HETATM   11  C18 UNL     1      -6.071  45.180 -16.223  1.00  0.00     0.023 C 
HETATM   12  C19 UNL     1      -7.684  45.792 -18.012  1.00  0.00     0.023 C 
HETATM   13  C20 UNL     1      -5.989  43.981 -18.377  1.00  0.00     0.135 C 
HETATM   14  O3  UNL     1      -6.885  43.144 -18.520  1.00  0.00    -0.297 OA
HETATM   15  C21 UNL     1      -4.570  43.631 -18.725  1.00  0.00     0.080 C 
HETATM   16  C22 UNL     1      -3.970  44.609 -19.725  1.00  0.00     0.020 C 
HETATM   17  C23 UNL     1      -4.544  46.061 -19.700  1.00  0.00    -0.004 C 
HETATM   18  C24 UNL     1      -5.641  46.157 -20.791  1.00  0.00     0.019 C 
HETATM   19  C25 UNL     1      -3.373  47.098 -20.001  1.00  0.00     0.092 C 
HETATM   20  C26 UNL     1      -2.594  46.777 -21.308  1.00  0.00     0.044 C 
HETATM   21  C27 UNL     1      -1.902  48.004 -21.909  1.00  0.00     0.017 C 
HETATM   22  C28 UNL     1      -2.905  49.143 -22.155  1.00  0.00    -0.013 C 
HETATM   23  C29 UNL     1      -3.936  48.728 -23.223  1.00  0.00     0.021 C 
ENDROOT
BRANCH   1  24
HETATM   24  C6  UNL     1      -1.501  50.698 -23.835  1.00  0.00    -0.013 C 
HETATM   25  C7  UNL     1      -2.397  51.293 -24.926  1.00  0.00     0.010 C 
BRANCH  24  26
HETATM   26  C5  UNL     1      -0.236  51.581 -23.614  1.00  0.00     0.008 C 
BRANCH  26  27
HETATM   27  C4  UNL     1       0.068  52.620 -24.702  1.00  0.00     0.028 C 
BRANCH  27  28
HETATM   28  C3  UNL     1       1.121  52.210 -25.691  1.00  0.00    -0.022 C 
HETATM   29  C2  UNL     1       0.990  52.113 -27.032  1.00  0.00    -0.064 C 
HETATM   30  C1  UNL     1      -0.297  52.354 -27.781  1.00  0.00     0.045 C 
BRANCH  29  31
HETATM   31  C30 UNL     1       2.168  51.748 -27.900  1.00  0.00     0.197 C 
BRANCH  31  32
HETATM   32  O5  UNL     1       3.285  51.395 -27.090  1.00  0.00    -0.397 OA
HETATM   33  H48 UNL     1       2.956  51.235 -26.188  1.00  0.00     0.209 HD
ENDBRANCH  31  32
ENDBRANCH  29  31
ENDBRANCH  27  28
ENDBRANCH  26  27
ENDBRANCH  24  26
ENDBRANCH   1  24
BRANCH   3  34
HETATM   34  O1  UNL     1      -5.275  51.226 -20.766  1.00  0.00    -0.386 OA
HETATM   35  H19 UNL     1      -5.414  52.169 -20.941  1.00  0.00     0.211 HD
ENDBRANCH   3  34
BRANCH   7  36
HETATM   36  O2  UNL     1      -3.538  48.972 -17.583  1.00  0.00    -0.391 OA
HETATM   37  H21 UNL     1      -3.976  48.917 -16.719  1.00  0.00     0.210 HD
ENDBRANCH   7  36
BRANCH  19  38
HETATM   38  O4  UNL     1      -2.386  46.913 -18.957  1.00  0.00    -0.384 OA
HETATM   39  H38 UNL     1      -2.089  47.805 -18.682  1.00  0.00     0.211 HD
ENDBRANCH  19  38
TORSDOF 9
ENDMDL
