MODEL 1
REMARK minimizedAffinity -7.49629641
REMARK  7 active torsions:
REMARK  status: ('A' for Active; 'I' for Inactive)
REMARK    1  A    between atoms: N1_2  and  C2_3 
REMARK    2  A    between atoms: C2_3  and  C3_4 
REMARK    3  A    between atoms: C3_4  and  O1_5 
REMARK    4  A    between atoms: O1_5  and  C4_6 
REMARK    5  A    between atoms: C4_6  and  C5_8 
REMARK    6  A    between atoms: C19_23  and  C21_25 
REMARK    7  A    between atoms: C21_25  and  O5_27 
ROOT
HETATM    1  C5  UNL     1      -2.626  49.532 -26.436  1.00  0.00     0.085 C 
HETATM    2  C6  UNL     1      -2.575  50.449 -25.448  1.00  0.00    -0.070 C 
HETATM    3  C7  UNL     1      -1.364  51.343 -25.312  1.00  0.00     0.035 C 
HETATM    4  C8  UNL     1      -0.729  51.139 -23.937  1.00  0.00     0.010 C 
HETATM    5  C9  UNL     1      -1.723  51.339 -22.766  1.00  0.00     0.006 C 
HETATM    6  C10 UNL     1      -3.002  50.493 -22.979  1.00  0.00     0.068 C 
HETATM    7  C11 UNL     1      -4.018  50.796 -21.884  1.00  0.00     0.132 C 
HETATM    8  O3  UNL     1      -5.214  50.527 -22.004  1.00  0.00    -0.298 OA
HETATM    9  C12 UNL     1      -3.497  51.428 -20.612  1.00  0.00     0.085 C 
HETATM   10  C13 UNL     1      -2.164  50.755 -20.241  1.00  0.00     0.019 C 
HETATM   11  C14 UNL     1      -1.068  51.134 -21.323  1.00  0.00    -0.034 C 
HETATM   12  C15 UNL     1      -0.002  50.011 -21.360  1.00  0.00     0.016 C 
HETATM   13  C16 UNL     1      -0.368  52.475 -20.963  1.00  0.00     0.010 C 
HETATM   14  C17 UNL     1       0.109  52.568 -19.523  1.00  0.00     0.002 C 
HETATM   15  C18 UNL     1      -1.043  52.348 -18.555  1.00  0.00     0.020 C 
HETATM   16  C19 UNL     1      -1.741  50.984 -18.736  1.00  0.00     0.049 C 
HETATM   17  C20 UNL     1      -2.939  50.947 -17.756  1.00  0.00     0.026 C 
HETATM   18  C23 UNL     1      -3.636  50.688 -24.382  1.00  0.00     0.022 C 
HETATM   19  C24 UNL     1      -4.287  52.067 -24.598  1.00  0.00     0.015 C 
ENDROOT
BRANCH   1  20
HETATM   20  C4  UNL     1      -3.669  48.517 -26.698  1.00  0.00     0.283 C 
HETATM   21  O2  UNL     1      -4.485  48.184 -25.853  1.00  0.00    -0.260 OA
BRANCH  20  22
HETATM   22  O1  UNL     1      -3.651  48.133 -27.994  1.00  0.00    -0.316 OA
BRANCH  22  23
HETATM   23  C3  UNL     1      -4.770  48.562 -28.787  1.00  0.00     0.209 C 
BRANCH  23  24
HETATM   24  C2  UNL     1      -6.044  47.771 -28.451  1.00  0.00     0.295 C 
BRANCH  24  25
HETATM   25  N1  UNL     1      -7.306  48.429 -28.832  1.00  0.00     0.081 N 
HETATM   26  C1  UNL     1      -7.516  48.457 -30.273  1.00  0.00     0.306 C 
HETATM   27  H4  UNL     1      -7.281  49.389 -28.488  1.00  0.00     0.315 HD
ENDBRANCH  24  25
ENDBRANCH  23  24
ENDBRANCH  22  23
ENDBRANCH  20  22
ENDBRANCH   1  20
BRANCH  16  28
HETATM   28  C21 UNL     1      -0.822  49.855 -18.222  1.00  0.00     0.267 C 
HETATM   29  O4  UNL     1      -0.985  48.662 -18.445  1.00  0.00    -0.264 OA
BRANCH  28  30
HETATM   30  O5  UNL     1       0.231  50.361 -17.518  1.00  0.00    -0.326 OA
HETATM   31  C22 UNL     1       0.463  49.718 -16.264  1.00  0.00     0.213 C 
ENDBRANCH  28  30
ENDBRANCH  16  28
TORSDOF 7
ENDMDL
MODEL 2
REMARK minimizedAffinity -7.38926601
REMARK  7 active torsions:
REMARK  status: ('A' for Active; 'I' for Inactive)
REMARK    1  A    between atoms: N1_2  and  C2_3 
REMARK    2  A    between atoms: C2_3  and  C3_4 
REMARK    3  A    between atoms: C3_4  and  O1_5 
REMARK    4  A    between atoms: O1_5  and  C4_6 
REMARK    5  A    between atoms: C4_6  and  C5_8 
REMARK    6  A    between atoms: C19_23  and  C21_25 
REMARK    7  A    between atoms: C21_25  and  O5_27 
ROOT
HETATM    1  C5  UNL     1       1.480  52.209 -24.845  1.00  0.00     0.085 C 
HETATM    2  C6  UNL     1       0.353  52.290 -24.108  1.00  0.00    -0.070 C 
HETATM    3  C7  UNL     1       0.406  52.870 -22.714  1.00  0.00     0.035 C 
HETATM    4  C8  UNL     1      -0.079  51.827 -21.706  1.00  0.00     0.010 C 
HETATM    5  C9  UNL     1      -1.481  51.259 -22.039  1.00  0.00     0.006 C 
HETATM    6  C10 UNL     1      -1.543  50.767 -23.505  1.00  0.00     0.068 C 
HETATM    7  C11 UNL     1      -2.961  50.328 -23.850  1.00  0.00     0.132 C 
HETATM    8  O3  UNL     1      -3.352  50.220 -25.014  1.00  0.00    -0.298 OA
HETATM    9  C12 UNL     1      -3.884  49.998 -22.697  1.00  0.00     0.085 C 
HETATM   10  C13 UNL     1      -3.086  49.215 -21.640  1.00  0.00     0.019 C 
HETATM   11  C14 UNL     1      -2.001  50.172 -20.989  1.00  0.00    -0.034 C 
HETATM   12  C15 UNL     1      -0.826  49.305 -20.471  1.00  0.00     0.016 C 
HETATM   13  C16 UNL     1      -2.601  50.965 -19.794  1.00  0.00     0.010 C 
HETATM   14  C17 UNL     1      -3.370  50.115 -18.797  1.00  0.00     0.002 C 
HETATM   15  C18 UNL     1      -4.493  49.354 -19.486  1.00  0.00     0.020 C 
HETATM   16  C19 UNL     1      -3.999  48.428 -20.618  1.00  0.00     0.049 C 
HETATM   17  C20 UNL     1      -5.251  47.804 -21.279  1.00  0.00     0.026 C 
HETATM   18  C23 UNL     1      -1.034  51.820 -24.525  1.00  0.00     0.022 C 
HETATM   19  C24 UNL     1      -1.963  53.037 -24.698  1.00  0.00     0.015 C 
ENDROOT
BRANCH   1  20
HETATM   20  C4  UNL     1       1.663  51.612 -26.186  1.00  0.00     0.283 C 
HETATM   21  O2  UNL     1       2.661  51.811 -26.859  1.00  0.00    -0.260 OA
BRANCH  20  22
HETATM   22  O1  UNL     1       0.656  50.758 -26.474  1.00  0.00    -0.316 OA
BRANCH  22  23
HETATM   23  C3  UNL     1      -0.203  51.149 -27.557  1.00  0.00     0.209 C 
BRANCH  23  24
HETATM   24  C2  UNL     1       0.314  52.410 -28.268  1.00  0.00     0.295 C 
BRANCH  24  25
HETATM   25  N1  UNL     1      -0.617  53.552 -28.269  1.00  0.00     0.081 N 
HETATM   26  C1  UNL     1      -0.153  54.660 -27.445  1.00  0.00     0.306 C 
HETATM   27  H4  UNL     1      -1.515  53.231 -27.907  1.00  0.00     0.315 HD
ENDBRANCH  24  25
ENDBRANCH  23  24
ENDBRANCH  22  23
ENDBRANCH  20  22
ENDBRANCH   1  20
BRANCH  16  28
HETATM   28  C21 UNL     1      -3.265  47.212 -20.015  1.00  0.00     0.267 C 
HETATM   29  O4  UNL     1      -2.760  47.180 -18.899  1.00  0.00    -0.264 OA
BRANCH  28  30
HETATM   30  O5  UNL     1      -3.288  46.150 -20.872  1.00  0.00    -0.326 OA
HETATM   31  C22 UNL     1      -3.834  44.955 -20.313  1.00  0.00     0.213 C 
ENDBRANCH  28  30
ENDBRANCH  16  28
TORSDOF 7
ENDMDL
MODEL 3
REMARK minimizedAffinity -7.2443614
REMARK  7 active torsions:
REMARK  status: ('A' for Active; 'I' for Inactive)
REMARK    1  A    between atoms: N1_2  and  C2_3 
REMARK    2  A    between atoms: C2_3  and  C3_4 
REMARK    3  A    between atoms: C3_4  and  O1_5 
REMARK    4  A    between atoms: O1_5  and  C4_6 
REMARK    5  A    between atoms: C4_6  and  C5_8 
REMARK    6  A    between atoms: C19_23  and  C21_25 
REMARK    7  A    between atoms: C21_25  and  O5_27 
ROOT
HETATM    1  C5  UNL     1      -5.643  49.847 -21.153  1.00  0.00     0.085 C 
HETATM    2  C6  UNL     1      -4.368  49.753 -21.583  1.00  0.00    -0.070 C 
HETATM    3  C7  UNL     1      -3.260  50.425 -20.805  1.00  0.00     0.035 C 
HETATM    4  C8  UNL     1      -2.544  51.434 -21.703  1.00  0.00     0.010 C 
HETATM    5  C9  UNL     1      -2.024  50.817 -23.025  1.00  0.00     0.006 C 
HETATM    6  C10 UNL     1      -3.150  50.044 -23.753  1.00  0.00     0.068 C 
HETATM    7  C11 UNL     1      -2.591  49.341 -24.984  1.00  0.00     0.132 C 
HETATM    8  O3  UNL     1      -3.179  48.408 -25.534  1.00  0.00    -0.298 OA
HETATM    9  C12 UNL     1      -1.278  49.852 -25.537  1.00  0.00     0.085 C 
HETATM   10  C13 UNL     1      -1.290  51.390 -25.484  1.00  0.00     0.019 C 
HETATM   11  C14 UNL     1      -1.267  51.861 -23.969  1.00  0.00    -0.034 C 
HETATM   12  C15 UNL     1      -1.926  53.260 -23.877  1.00  0.00     0.016 C 
HETATM   13  C16 UNL     1       0.191  51.959 -23.437  1.00  0.00     0.010 C 
HETATM   14  C17 UNL     1       1.142  52.718 -24.347  1.00  0.00     0.002 C 
HETATM   15  C18 UNL     1       1.175  52.098 -25.735  1.00  0.00     0.020 C 
HETATM   16  C19 UNL     1      -0.208  52.060 -26.420  1.00  0.00     0.049 C 
HETATM   17  C20 UNL     1      -0.032  51.322 -27.769  1.00  0.00     0.026 C 
HETATM   18  C23 UNL     1      -3.888  49.032 -22.836  1.00  0.00     0.022 C 
HETATM   19  C24 UNL     1      -3.047  47.805 -22.438  1.00  0.00     0.015 C 
ENDROOT
BRANCH   1  20
HETATM   20  C4  UNL     1      -6.873  49.337 -21.798  1.00  0.00     0.283 C 
HETATM   21  O2  UNL     1      -7.786  48.838 -21.161  1.00  0.00    -0.260 OA
BRANCH  20  22
HETATM   22  O1  UNL     1      -6.873  49.614 -23.121  1.00  0.00    -0.316 OA
BRANCH  22  23
HETATM   23  C3  UNL     1      -7.160  48.506 -23.990  1.00  0.00     0.209 C 
BRANCH  23  24
HETATM   24  C2  UNL     1      -8.623  48.515 -24.460  1.00  0.00     0.295 C 
BRANCH  24  25
HETATM   25  N1  UNL     1      -8.964  49.580 -25.420  1.00  0.00     0.081 N 
HETATM   26  C1  UNL     1      -9.654  49.077 -26.600  1.00  0.00     0.306 C 
HETATM   27  H4  UNL     1      -8.098  50.030 -25.716  1.00  0.00     0.315 HD
ENDBRANCH  24  25
ENDBRANCH  23  24
ENDBRANCH  22  23
ENDBRANCH  20  22
ENDBRANCH   1  20
BRANCH  16  28
HETATM   28  C21 UNL     1      -0.621  53.486 -26.841  1.00  0.00     0.267 C 
HETATM   29  O4  UNL     1       0.035  54.498 -26.628  1.00  0.00    -0.264 OA
BRANCH  28  30
HETATM   30  O5  UNL     1      -1.800  53.474 -27.527  1.00  0.00    -0.326 OA
HETATM   31  C22 UNL     1      -2.528  52.249 -27.423  1.00  0.00     0.213 C 
ENDBRANCH  28  30
ENDBRANCH  16  28
TORSDOF 7
ENDMDL
MODEL 4
REMARK minimizedAffinity -7.18395567
REMARK  7 active torsions:
REMARK  status: ('A' for Active; 'I' for Inactive)
REMARK    1  A    between atoms: N1_2  and  C2_3 
REMARK    2  A    between atoms: C2_3  and  C3_4 
REMARK    3  A    between atoms: C3_4  and  O1_5 
REMARK    4  A    between atoms: O1_5  and  C4_6 
REMARK    5  A    between atoms: C4_6  and  C5_8 
REMARK    6  A    between atoms: C19_23  and  C21_25 
REMARK    7  A    between atoms: C21_25  and  O5_27 
ROOT
HETATM    1  C5  UNL     1      -3.430  47.268 -20.965  1.00  0.00     0.085 C 
HETATM    2  C6  UNL     1      -3.679  48.346 -21.735  1.00  0.00    -0.070 C 
HETATM    3  C7  UNL     1      -4.570  48.215 -22.949  1.00  0.00     0.035 C 
HETATM    4  C8  UNL     1      -3.792  48.616 -24.202  1.00  0.00     0.010 C 
HETATM    5  C9  UNL     1      -3.159  50.027 -24.105  1.00  0.00     0.006 C 
HETATM    6  C10 UNL     1      -2.338  50.174 -22.801  1.00  0.00     0.068 C 
HETATM    7  C11 UNL     1      -1.827  51.604 -22.663  1.00  0.00     0.132 C 
HETATM    8  O3  UNL     1      -1.449  52.066 -21.585  1.00  0.00    -0.298 OA
HETATM    9  C12 UNL     1      -1.776  52.445 -23.919  1.00  0.00     0.085 C 
HETATM   10  C13 UNL     1      -1.264  51.569 -25.075  1.00  0.00     0.019 C 
HETATM   11  C14 UNL     1      -2.348  50.460 -25.411  1.00  0.00    -0.034 C 
HETATM   12  C15 UNL     1      -1.628  49.240 -26.039  1.00  0.00     0.016 C 
HETATM   13  C16 UNL     1      -3.398  50.996 -26.424  1.00  0.00     0.010 C 
HETATM   14  C17 UNL     1      -2.804  51.685 -27.641  1.00  0.00     0.002 C 
HETATM   15  C18 UNL     1      -1.901  52.837 -27.226  1.00  0.00     0.020 C 
HETATM   16  C19 UNL     1      -0.737  52.401 -26.311  1.00  0.00     0.049 C 
HETATM   17  C20 UNL     1       0.028  53.682 -25.898  1.00  0.00     0.026 C 
HETATM   18  C23 UNL     1      -3.123  49.750 -21.532  1.00  0.00     0.022 C 
HETATM   19  C24 UNL     1      -4.264  50.708 -21.142  1.00  0.00     0.015 C 
ENDROOT
BRANCH   1  20
HETATM   20  C4  UNL     1      -2.536  47.161 -19.791  1.00  0.00     0.283 C 
HETATM   21  O2  UNL     1      -1.468  47.748 -19.727  1.00  0.00    -0.260 OA
BRANCH  20  22
HETATM   22  O1  UNL     1      -3.122  46.446 -18.805  1.00  0.00    -0.316 OA
BRANCH  22  23
HETATM   23  C3  UNL     1      -3.256  47.119 -17.542  1.00  0.00     0.209 C 
BRANCH  23  24
HETATM   24  C2  UNL     1      -4.202  48.327 -17.639  1.00  0.00     0.295 C 
BRANCH  24  25
HETATM   25  N1  UNL     1      -3.779  49.514 -16.874  1.00  0.00     0.081 N 
HETATM   26  C1  UNL     1      -2.853  50.361 -17.613  1.00  0.00     0.306 C 
HETATM   27  H4  UNL     1      -3.320  49.196 -16.021  1.00  0.00     0.315 HD
ENDBRANCH  24  25
ENDBRANCH  23  24
ENDBRANCH  22  23
ENDBRANCH  20  22
ENDBRANCH   1  20
BRANCH  16  28
HETATM   28  C21 UNL     1       0.304  51.610 -27.132  1.00  0.00     0.267 C 
HETATM   29  O4  UNL     1       0.356  51.580 -28.355  1.00  0.00    -0.264 OA
BRANCH  28  30
HETATM   30  O5  UNL     1       1.195  50.976 -26.316  1.00  0.00    -0.326 OA
HETATM   31  C22 UNL     1       2.558  51.333 -26.545  1.00  0.00     0.213 C 
ENDBRANCH  28  30
ENDBRANCH  16  28
TORSDOF 7
ENDMDL
MODEL 5
REMARK minimizedAffinity -7.08270931
REMARK  7 active torsions:
REMARK  status: ('A' for Active; 'I' for Inactive)
REMARK    1  A    between atoms: N1_2  and  C2_3 
REMARK    2  A    between atoms: C2_3  and  C3_4 
REMARK    3  A    between atoms: C3_4  and  O1_5 
REMARK    4  A    between atoms: O1_5  and  C4_6 
REMARK    5  A    between atoms: C4_6  and  C5_8 
REMARK    6  A    between atoms: C19_23  and  C21_25 
REMARK    7  A    between atoms: C21_25  and  O5_27 
ROOT
HETATM    1  C5  UNL     1       5.245  63.331 -34.440  1.00  0.00     0.085 C 
HETATM    2  C6  UNL     1       5.167  64.611 -34.858  1.00  0.00    -0.070 C 
HETATM    3  C7  UNL     1       4.154  65.545 -34.237  1.00  0.00     0.035 C 
HETATM    4  C8  UNL     1       3.214  66.075 -35.320  1.00  0.00     0.010 C 
HETATM    5  C9  UNL     1       3.957  66.741 -36.504  1.00  0.00     0.006 C 
HETATM    6  C10 UNL     1       5.062  65.807 -37.057  1.00  0.00     0.068 C 
HETATM    7  C11 UNL     1       5.863  66.526 -38.137  1.00  0.00     0.132 C 
HETATM    8  O3  UNL     1       6.980  66.146 -38.489  1.00  0.00    -0.298 OA
HETATM    9  C12 UNL     1       5.218  67.728 -38.792  1.00  0.00     0.085 C 
HETATM   10  C13 UNL     1       3.732  67.415 -39.036  1.00  0.00     0.019 C 
HETATM   11  C14 UNL     1       2.985  67.304 -37.640  1.00  0.00    -0.034 C 
HETATM   12  C15 UNL     1       1.752  66.382 -37.812  1.00  0.00     0.016 C 
HETATM   13  C16 UNL     1       2.501  68.699 -37.155  1.00  0.00     0.010 C 
HETATM   14  C17 UNL     1       1.758  69.508 -38.204  1.00  0.00     0.002 C 
HETATM   15  C18 UNL     1       2.613  69.699 -39.447  1.00  0.00     0.020 C 
HETATM   16  C19 UNL     1       3.053  68.369 -40.096  1.00  0.00     0.049 C 
HETATM   17  C20 UNL     1       3.985  68.722 -41.280  1.00  0.00     0.026 C 
HETATM   18  C23 UNL     1       6.004  65.256 -35.954  1.00  0.00     0.022 C 
HETATM   19  C24 UNL     1       6.943  66.310 -35.337  1.00  0.00     0.015 C 
ENDROOT
BRANCH   1  20
HETATM   20  C4  UNL     1       6.101  62.243 -34.960  1.00  0.00     0.283 C 
HETATM   21  O2  UNL     1       5.678  61.115 -35.155  1.00  0.00    -0.260 OA
BRANCH  20  22
HETATM   22  O1  UNL     1       7.327  62.709 -35.286  1.00  0.00    -0.316 OA
BRANCH  22  23
HETATM   23  C3  UNL     1       8.238  62.888 -34.188  1.00  0.00     0.209 C 
BRANCH  23  24
HETATM   24  C2  UNL     1       9.065  61.620 -33.922  1.00  0.00     0.295 C 
BRANCH  24  25
HETATM   25  N1  UNL     1       9.200  61.249 -32.503  1.00  0.00     0.081 N 
HETATM   26  C1  UNL     1      10.507  61.585 -31.953  1.00  0.00     0.306 C 
HETATM   27  H4  UNL     1       9.063  60.242 -32.422  1.00  0.00     0.315 HD
ENDBRANCH  24  25
ENDBRANCH  23  24
ENDBRANCH  22  23
ENDBRANCH  20  22
ENDBRANCH   1  20
BRANCH  16  28
HETATM   28  C21 UNL     1       1.843  67.697 -40.779  1.00  0.00     0.267 C 
HETATM   29  O4  UNL     1       1.849  66.574 -41.269  1.00  0.00    -0.264 OA
BRANCH  28  30
HETATM   30  O5  UNL     1       0.742  68.501 -40.732  1.00  0.00    -0.326 OA
HETATM   31  C22 UNL     1       0.199  68.830 -42.011  1.00  0.00     0.213 C 
ENDBRANCH  28  30
ENDBRANCH  16  28
TORSDOF 7
ENDMDL
MODEL 6
REMARK minimizedAffinity -7.04809046
REMARK  7 active torsions:
REMARK  status: ('A' for Active; 'I' for Inactive)
REMARK    1  A    between atoms: N1_2  and  C2_3 
REMARK    2  A    between atoms: C2_3  and  C3_4 
REMARK    3  A    between atoms: C3_4  and  O1_5 
REMARK    4  A    between atoms: O1_5  and  C4_6 
REMARK    5  A    between atoms: C4_6  and  C5_8 
REMARK    6  A    between atoms: C19_23  and  C21_25 
REMARK    7  A    between atoms: C21_25  and  O5_27 
ROOT
HETATM    1  C5  UNL     1      -5.231  47.076 -22.093  1.00  0.00     0.085 C 
HETATM    2  C6  UNL     1      -5.035  48.331 -22.547  1.00  0.00    -0.070 C 
HETATM    3  C7  UNL     1      -5.621  48.751 -23.876  1.00  0.00     0.035 C 
HETATM    4  C8  UNL     1      -4.499  49.196 -24.813  1.00  0.00     0.010 C 
HETATM    5  C9  UNL     1      -3.598  50.301 -24.209  1.00  0.00     0.006 C 
HETATM    6  C10 UNL     1      -3.095  49.894 -22.802  1.00  0.00     0.068 C 
HETATM    7  C11 UNL     1      -2.314  51.043 -22.173  1.00  0.00     0.132 C 
HETATM    8  O3  UNL     1      -2.104  51.110 -20.961  1.00  0.00    -0.298 OA
HETATM    9  C12 UNL     1      -1.775  52.106 -23.106  1.00  0.00     0.085 C 
HETATM   10  C13 UNL     1      -1.223  51.418 -24.366  1.00  0.00     0.019 C 
HETATM   11  C14 UNL     1      -2.424  50.779 -25.182  1.00  0.00    -0.034 C 
HETATM   12  C15 UNL     1      -1.880  49.588 -26.010  1.00  0.00     0.016 C 
HETATM   13  C16 UNL     1      -3.053  51.817 -26.154  1.00  0.00     0.010 C 
HETATM   14  C17 UNL     1      -2.046  52.573 -27.004  1.00  0.00     0.002 C 
HETATM   15  C18 UNL     1      -1.025  53.286 -26.130  1.00  0.00     0.020 C 
HETATM   16  C19 UNL     1      -0.242  52.331 -25.203  1.00  0.00     0.049 C 
HETATM   17  C20 UNL     1       0.679  53.204 -24.317  1.00  0.00     0.026 C 
HETATM   18  C23 UNL     1      -4.233  49.426 -21.858  1.00  0.00     0.022 C 
HETATM   19  C24 UNL     1      -5.180  50.551 -21.398  1.00  0.00     0.015 C 
ENDROOT
BRANCH   1  20
HETATM   20  C4  UNL     1      -4.688  46.443 -20.871  1.00  0.00     0.283 C 
HETATM   21  O2  UNL     1      -3.770  45.640 -20.904  1.00  0.00    -0.260 OA
BRANCH  20  22
HETATM   22  O1  UNL     1      -5.260  46.967 -19.764  1.00  0.00    -0.316 OA
BRANCH  22  23
HETATM   23  C3  UNL     1      -6.079  46.066 -19.000  1.00  0.00     0.209 C 
BRANCH  23  24
HETATM   24  C2  UNL     1      -6.739  46.772 -17.804  1.00  0.00     0.295 C 
BRANCH  24  25
HETATM   25  N1  UNL     1      -6.725  48.244 -17.863  1.00  0.00     0.081 N 
HETATM   26  C1  UNL     1      -7.978  48.802 -18.353  1.00  0.00     0.306 C 
HETATM   27  H4  UNL     1      -5.974  48.531 -18.490  1.00  0.00     0.315 HD
ENDBRANCH  24  25
ENDBRANCH  23  24
ENDBRANCH  22  23
ENDBRANCH  20  22
ENDBRANCH   1  20
BRANCH  16  28
HETATM   28  C21 UNL     1       0.750  51.492 -26.036  1.00  0.00     0.267 C 
HETATM   29  O4  UNL     1       0.561  50.336 -26.395  1.00  0.00    -0.264 OA
BRANCH  28  30
HETATM   30  O5  UNL     1       1.856  52.220 -26.363  1.00  0.00    -0.326 OA
HETATM   31  C22 UNL     1       2.615  51.682 -27.447  1.00  0.00     0.213 C 
ENDBRANCH  28  30
ENDBRANCH  16  28
TORSDOF 7
ENDMDL
MODEL 7
REMARK minimizedAffinity -6.97745466
REMARK  7 active torsions:
REMARK  status: ('A' for Active; 'I' for Inactive)
REMARK    1  A    between atoms: N1_2  and  C2_3 
REMARK    2  A    between atoms: C2_3  and  C3_4 
REMARK    3  A    between atoms: C3_4  and  O1_5 
REMARK    4  A    between atoms: O1_5  and  C4_6 
REMARK    5  A    between atoms: C4_6  and  C5_8 
REMARK    6  A    between atoms: C19_23  and  C21_25 
REMARK    7  A    between atoms: C21_25  and  O5_27 
ROOT
HETATM    1  C5  UNL     1      -2.441  49.678 -26.570  1.00  0.00     0.085 C 
HETATM    2  C6  UNL     1      -2.390  50.567 -25.558  1.00  0.00    -0.070 C 
HETATM    3  C7  UNL     1      -1.151  51.410 -25.357  1.00  0.00     0.035 C 
HETATM    4  C8  UNL     1      -0.572  51.148 -23.967  1.00  0.00     0.010 C 
HETATM    5  C9  UNL     1      -1.599  51.356 -22.826  1.00  0.00     0.006 C 
HETATM    6  C10 UNL     1      -2.900  50.566 -23.105  1.00  0.00     0.068 C 
HETATM    7  C11 UNL     1      -3.942  50.881 -22.037  1.00  0.00     0.132 C 
HETATM    8  O3  UNL     1      -5.143  50.661 -22.204  1.00  0.00    -0.298 OA
HETATM    9  C12 UNL     1      -3.442  51.460 -20.732  1.00  0.00     0.085 C 
HETATM   10  C13 UNL     1      -2.150  50.727 -20.333  1.00  0.00     0.019 C 
HETATM   11  C14 UNL     1      -1.002  51.090 -21.367  1.00  0.00    -0.034 C 
HETATM   12  C15 UNL     1       0.021  49.928 -21.398  1.00  0.00     0.016 C 
HETATM   13  C16 UNL     1      -0.266  52.394 -20.948  1.00  0.00     0.010 C 
HETATM   14  C17 UNL     1       0.164  52.433 -19.492  1.00  0.00     0.002 C 
HETATM   15  C18 UNL     1      -1.029  52.233 -18.569  1.00  0.00     0.020 C 
HETATM   16  C19 UNL     1      -1.771  50.901 -18.809  1.00  0.00     0.049 C 
HETATM   17  C20 UNL     1      -3.003  50.887 -17.872  1.00  0.00     0.026 C 
HETATM   18  C23 UNL     1      -3.477  50.820 -24.522  1.00  0.00     0.022 C 
HETATM   19  C24 UNL     1      -4.068  52.228 -24.725  1.00  0.00     0.015 C 
ENDROOT
BRANCH   1  20
HETATM   20  C4  UNL     1      -3.511  48.711 -26.895  1.00  0.00     0.283 C 
HETATM   21  O2  UNL     1      -3.801  48.416 -28.043  1.00  0.00    -0.260 OA
BRANCH  20  22
HETATM   22  O1  UNL     1      -4.003  48.144 -25.771  1.00  0.00    -0.316 OA
BRANCH  22  23
HETATM   23  C3  UNL     1      -5.335  48.542 -25.403  1.00  0.00     0.209 C 
BRANCH  23  24
HETATM   24  C2  UNL     1      -6.396  47.613 -26.015  1.00  0.00     0.295 C 
BRANCH  24  25
HETATM   25  N1  UNL     1      -7.719  48.228 -26.222  1.00  0.00     0.081 N 
HETATM   26  C1  UNL     1      -8.401  48.536 -24.972  1.00  0.00     0.306 C 
HETATM   27  H4  UNL     1      -8.294  47.575 -26.753  1.00  0.00     0.315 HD
ENDBRANCH  24  25
ENDBRANCH  23  24
ENDBRANCH  22  23
ENDBRANCH  20  22
ENDBRANCH   1  20
BRANCH  16  28
HETATM   28  C21 UNL     1      -0.914  49.726 -18.295  1.00  0.00     0.267 C 
HETATM   29  O4  UNL     1      -1.107  48.546 -18.564  1.00  0.00    -0.264 OA
BRANCH  28  30
HETATM   30  O5  UNL     1       0.123  50.172 -17.529  1.00  0.00    -0.326 OA
HETATM   31  C22 UNL     1       0.302  49.456 -16.306  1.00  0.00     0.213 C 
ENDBRANCH  28  30
ENDBRANCH  16  28
TORSDOF 7
ENDMDL
MODEL 8
REMARK minimizedAffinity -6.96135378
REMARK  7 active torsions:
REMARK  status: ('A' for Active; 'I' for Inactive)
REMARK    1  A    between atoms: N1_2  and  C2_3 
REMARK    2  A    between atoms: C2_3  and  C3_4 
REMARK    3  A    between atoms: C3_4  and  O1_5 
REMARK    4  A    between atoms: O1_5  and  C4_6 
REMARK    5  A    between atoms: C4_6  and  C5_8 
REMARK    6  A    between atoms: C19_23  and  C21_25 
REMARK    7  A    between atoms: C21_25  and  O5_27 
ROOT
HETATM    1  C5  UNL     1      -0.587  51.158 -25.119  1.00  0.00     0.085 C 
HETATM    2  C6  UNL     1      -1.145  51.513 -23.944  1.00  0.00    -0.070 C 
HETATM    3  C7  UNL     1      -0.289  52.121 -22.856  1.00  0.00     0.035 C 
HETATM    4  C8  UNL     1      -0.358  51.250 -21.602  1.00  0.00     0.010 C 
HETATM    5  C9  UNL     1      -1.806  50.992 -21.115  1.00  0.00     0.006 C 
HETATM    6  C10 UNL     1      -2.692  50.469 -22.272  1.00  0.00     0.068 C 
HETATM    7  C11 UNL     1      -4.137  50.340 -21.806  1.00  0.00     0.132 C 
HETATM    8  O3  UNL     1      -5.080  50.275 -22.597  1.00  0.00    -0.298 OA
HETATM    9  C12 UNL     1      -4.380  50.266 -20.314  1.00  0.00     0.085 C 
HETATM   10  C13 UNL     1      -3.301  49.368 -19.686  1.00  0.00     0.019 C 
HETATM   11  C14 UNL     1      -1.891  50.087 -19.800  1.00  0.00    -0.034 C 
HETATM   12  C15 UNL     1      -0.783  49.004 -19.808  1.00  0.00     0.016 C 
HETATM   13  C16 UNL     1      -1.651  51.039 -18.595  1.00  0.00     0.010 C 
HETATM   14  C17 UNL     1      -1.932  50.417 -17.237  1.00  0.00     0.002 C 
HETATM   15  C18 UNL     1      -3.359  49.896 -17.165  1.00  0.00     0.020 C 
HETATM   16  C19 UNL     1      -3.680  48.842 -18.245  1.00  0.00     0.049 C 
HETATM   17  C20 UNL     1      -5.179  48.482 -18.106  1.00  0.00     0.026 C 
HETATM   18  C23 UNL     1      -2.606  51.345 -23.550  1.00  0.00     0.022 C 
HETATM   19  C24 UNL     1      -3.271  52.728 -23.418  1.00  0.00     0.015 C 
ENDROOT
BRANCH   1  20
HETATM   20  C4  UNL     1      -1.220  50.485 -26.273  1.00  0.00     0.283 C 
HETATM   21  O2  UNL     1      -2.091  49.640 -26.141  1.00  0.00    -0.260 OA
BRANCH  20  22
HETATM   22  O1  UNL     1      -0.788  51.019 -27.437  1.00  0.00    -0.316 OA
BRANCH  22  23
HETATM   23  C3  UNL     1       0.186  52.069 -27.318  1.00  0.00     0.209 C 
BRANCH  23  24
HETATM   24  C2  UNL     1       1.349  51.881 -28.305  1.00  0.00     0.295 C 
BRANCH  24  25
HETATM   25  N1  UNL     1       2.690  51.860 -27.694  1.00  0.00     0.081 N 
HETATM   26  C1  UNL     1       2.688  51.309 -26.345  1.00  0.00     0.306 C 
HETATM   27  H4  UNL     1       3.036  52.819 -27.652  1.00  0.00     0.315 HD
ENDBRANCH  24  25
ENDBRANCH  23  24
ENDBRANCH  22  23
ENDBRANCH  20  22
ENDBRANCH   1  20
BRANCH  16  28
HETATM   28  C21 UNL     1      -2.960  47.517 -17.912  1.00  0.00     0.267 C 
HETATM   29  O4  UNL     1      -2.802  46.589 -18.696  1.00  0.00    -0.264 OA
BRANCH  28  30
HETATM   30  O5  UNL     1      -2.480  47.527 -16.636  1.00  0.00    -0.326 OA
HETATM   31  C22 UNL     1      -2.805  46.362 -15.876  1.00  0.00     0.213 C 
ENDBRANCH  28  30
ENDBRANCH  16  28
TORSDOF 7
ENDMDL
MODEL 9
REMARK minimizedAffinity -6.91251326
REMARK  7 active torsions:
REMARK  status: ('A' for Active; 'I' for Inactive)
REMARK    1  A    between atoms: N1_2  and  C2_3 
REMARK    2  A    between atoms: C2_3  and  C3_4 
REMARK    3  A    between atoms: C3_4  and  O1_5 
REMARK    4  A    between atoms: O1_5  and  C4_6 
REMARK    5  A    between atoms: C4_6  and  C5_8 
REMARK    6  A    between atoms: C19_23  and  C21_25 
REMARK    7  A    between atoms: C21_25  and  O5_27 
ROOT
HETATM    1  C5  UNL     1       7.694  64.533 -34.736  1.00  0.00     0.085 C 
HETATM    2  C6  UNL     1       7.187  65.663 -35.269  1.00  0.00    -0.070 C 
HETATM    3  C7  UNL     1       6.377  66.605 -34.409  1.00  0.00     0.035 C 
HETATM    4  C8  UNL     1       4.976  66.763 -35.002  1.00  0.00     0.010 C 
HETATM    5  C9  UNL     1       4.985  67.206 -36.486  1.00  0.00     0.006 C 
HETATM    6  C10 UNL     1       5.905  66.290 -37.329  1.00  0.00     0.068 C 
HETATM    7  C11 UNL     1       5.999  66.815 -38.757  1.00  0.00     0.132 C 
HETATM    8  O3  UNL     1       6.906  66.483 -39.522  1.00  0.00    -0.298 OA
HETATM    9  C12 UNL     1       4.908  67.755 -39.222  1.00  0.00     0.085 C 
HETATM   10  C13 UNL     1       3.559  67.238 -38.694  1.00  0.00     0.019 C 
HETATM   11  C14 UNL     1       3.526  67.380 -37.114  1.00  0.00    -0.034 C 
HETATM   12  C15 UNL     1       2.553  66.319 -36.542  1.00  0.00     0.016 C 
HETATM   13  C16 UNL     1       3.031  68.792 -36.692  1.00  0.00     0.010 C 
HETATM   14  C17 UNL     1       1.762  69.249 -37.391  1.00  0.00     0.002 C 
HETATM   15  C18 UNL     1       1.939  69.231 -38.902  1.00  0.00     0.020 C 
HETATM   16  C19 UNL     1       2.312  67.839 -39.456  1.00  0.00     0.049 C 
HETATM   17  C20 UNL     1       2.551  68.000 -40.977  1.00  0.00     0.026 C 
HETATM   18  C23 UNL     1       7.321  66.117 -36.717  1.00  0.00     0.022 C 
HETATM   19  C24 UNL     1       8.201  67.379 -36.786  1.00  0.00     0.015 C 
ENDROOT
BRANCH   1  20
HETATM   20  C4  UNL     1       8.440  63.449 -35.410  1.00  0.00     0.283 C 
HETATM   21  O2  UNL     1       9.431  63.662 -36.089  1.00  0.00    -0.260 OA
BRANCH  20  22
HETATM   22  O1  UNL     1       7.946  62.239 -35.067  1.00  0.00    -0.316 OA
BRANCH  22  23
HETATM   23  C3  UNL     1       6.824  62.256 -34.168  1.00  0.00     0.209 C 
BRANCH  23  24
HETATM   24  C2  UNL     1       5.497  62.028 -34.908  1.00  0.00     0.295 C 
BRANCH  24  25
HETATM   25  N1  UNL     1       4.460  63.044 -34.657  1.00  0.00     0.081 N 
HETATM   26  C1  UNL     1       4.348  63.402 -33.250  1.00  0.00     0.306 C 
HETATM   27  H4  UNL     1       3.564  62.669 -34.970  1.00  0.00     0.315 HD
ENDBRANCH  24  25
ENDBRANCH  23  24
ENDBRANCH  22  23
ENDBRANCH  20  22
ENDBRANCH   1  20
BRANCH  16  28
HETATM   28  C21 UNL     1       1.089  66.902 -39.381  1.00  0.00     0.267 C 
HETATM   29  O4  UNL     1       1.134  65.711 -39.100  1.00  0.00    -0.264 OA
BRANCH  28  30
HETATM   30  O5  UNL     1      -0.068  67.582 -39.628  1.00  0.00    -0.326 OA
HETATM   31  C22 UNL     1      -0.568  67.429 -40.957  1.00  0.00     0.213 C 
ENDBRANCH  28  30
ENDBRANCH  16  28
TORSDOF 7
ENDMDL
