MODEL 1
REMARK minimizedAffinity -6.63523626
REMARK CNNscore 0.610605359
REMARK CNNaffinity 6.57638597
REMARK  13 active torsions:
REMARK  status: ('A' for Active; 'I' for Inactive)
REMARK    1  A    between atoms: C2_2  and  C3_3 
REMARK    2  A    between atoms: C2_2  and  C14_14 
REMARK    3  A    between atoms: C4_4  and  C5_5 
REMARK    4  A    between atoms: C6_6  and  C8_8 
REMARK    5  A    between atoms: C8_8  and  C9_9 
REMARK    6  A    between atoms: C9_9  and  C10_10 
REMARK    7  A    between atoms: C18_18  and  O1_19 
REMARK    8  A    between atoms: C19_20  and  C20_21 
REMARK    9  A    between atoms: C20_21  and  C21_22 
REMARK   10  A    between atoms: C21_22  and  C22_23 
REMARK   11  A    between atoms: C22_23  and  O2_24 
REMARK   12  A    between atoms: C24_26  and  C26_28 
REMARK   13  A    between atoms: C29_32  and  O4_34 
ROOT
HETATM    1  C14 UNL     1      -0.425  52.716 -11.652  1.00  0.00     0.047 C 
HETATM    2  C15 UNL     1       0.303  51.655 -10.814  1.00  0.00     0.013 C 
HETATM    3  C16 UNL     1      -0.241  50.296 -11.252  1.00  0.00     0.017 C 
HETATM    4  C17 UNL     1      -0.838  50.470 -12.673  1.00  0.00     0.024 C 
HETATM    5  C18 UNL     1      -1.469  51.908 -12.470  1.00  0.00     0.138 C 
HETATM    6  C19 UNL     1       0.250  50.523 -13.843  1.00  0.00     0.029 C 
HETATM    7  C23 UNL     1      -0.275  50.327 -15.284  1.00  0.00    -0.066 C 
HETATM    8  C24 UNL     1       0.263  50.931 -16.382  1.00  0.00    -0.021 C 
HETATM    9  C25 UNL     1      -0.163  50.677 -17.809  1.00  0.00     0.052 C 
HETATM   10  C27 UNL     1      -1.501  49.439 -15.440  1.00  0.00     0.038 C 
HETATM   11  C28 UNL     1      -2.547  49.596 -14.348  1.00  0.00     0.042 C 
HETATM   12  C29 UNL     1      -1.972  49.412 -12.943  1.00  0.00     0.065 C 
HETATM   13  C30 UNL     1      -1.565  47.944 -12.742  1.00  0.00     0.047 C 
ENDROOT
BRANCH   5  14
HETATM   14  O1  UNL     1      -1.747  52.577 -13.695  1.00  0.00    -0.394 OA
HETATM   15  H26 UNL     1      -2.152  53.432 -13.464  1.00  0.00     0.210 HD
ENDBRANCH   5  14
BRANCH   6  16
HETATM   16  C20 UNL     1       1.641  49.855 -13.595  1.00  0.00     0.012 C 
BRANCH  16  17
HETATM   17  C21 UNL     1       2.886  50.686 -13.301  1.00  0.00     0.027 C 
BRANCH  17  18
HETATM   18  C22 UNL     1       3.977  49.946 -12.540  1.00  0.00     0.164 C 
BRANCH  18  19
HETATM   19  O2  UNL     1       5.007  49.564 -13.444  1.00  0.00    -0.401 OA
HETATM   20  H34 UNL     1       5.396  50.376 -13.810  1.00  0.00     0.209 HD
ENDBRANCH  18  19
ENDBRANCH  17  18
ENDBRANCH  16  17
ENDBRANCH   6  16
BRANCH  12  21
HETATM   21  O4  UNL     1      -3.074  49.620 -12.038  1.00  0.00    -0.389 OA
HETATM   22  H46 UNL     1      -2.885  49.174 -11.195  1.00  0.00     0.210 HD
ENDBRANCH  12  21
BRANCH   1  23
HETATM   23  C2  UNL     1      -0.913  53.900 -10.811  1.00  0.00    -0.061 C 
HETATM   24  C1  UNL     1      -2.211  54.162 -10.571  1.00  0.00     0.019 C 
BRANCH  23  25
HETATM   25  C3  UNL     1       0.074  54.826 -10.244  1.00  0.00     0.007 C 
HETATM   26  C4  UNL     1       0.807  54.656  -9.131  1.00  0.00     0.001 C 
BRANCH  26  27
HETATM   27  C5  UNL     1       1.760  55.644  -8.665  1.00  0.00     0.002 C 
HETATM   28  C6  UNL     1       2.885  56.044  -9.291  1.00  0.00    -0.084 C 
HETATM   29  C7  UNL     1       3.405  55.501 -10.598  1.00  0.00     0.043 C 
BRANCH  28  30
HETATM   30  C8  UNL     1       3.766  57.108  -8.654  1.00  0.00     0.037 C 
BRANCH  30  31
HETATM   31  C9  UNL     1       4.875  56.513  -7.779  1.00  0.00     0.031 C 
BRANCH  31  32
HETATM   32  C10 UNL     1       5.305  57.475  -6.703  1.00  0.00    -0.024 C 
HETATM   33  C11 UNL     1       6.422  57.423  -5.952  1.00  0.00    -0.091 C 
HETATM   34  C12 UNL     1       6.723  58.503  -4.947  1.00  0.00     0.042 C 
HETATM   35  C13 UNL     1       7.454  56.331  -6.014  1.00  0.00     0.042 C 
ENDBRANCH  31  32
ENDBRANCH  30  31
ENDBRANCH  28  30
ENDBRANCH  26  27
ENDBRANCH  23  25
ENDBRANCH   1  23
BRANCH   8  36
HETATM   36  C26 UNL     1       1.378  51.934 -16.301  1.00  0.00     0.265 C 
HETATM   37  O3  UNL     1       1.644  52.713 -17.211  1.00  0.00    -0.302 OA
ENDBRANCH   8  36
TORSDOF 13
ENDMDL
MODEL 2
REMARK minimizedAffinity -6.17721891
REMARK CNNscore 0.569433331
REMARK CNNaffinity 6.44920301
REMARK  13 active torsions:
REMARK  status: ('A' for Active; 'I' for Inactive)
REMARK    1  A    between atoms: C2_2  and  C3_3 
REMARK    2  A    between atoms: C2_2  and  C14_14 
REMARK    3  A    between atoms: C4_4  and  C5_5 
REMARK    4  A    between atoms: C6_6  and  C8_8 
REMARK    5  A    between atoms: C8_8  and  C9_9 
REMARK    6  A    between atoms: C9_9  and  C10_10 
REMARK    7  A    between atoms: C18_18  and  O1_19 
REMARK    8  A    between atoms: C19_20  and  C20_21 
REMARK    9  A    between atoms: C20_21  and  C21_22 
REMARK   10  A    between atoms: C21_22  and  C22_23 
REMARK   11  A    between atoms: C22_23  and  O2_24 
REMARK   12  A    between atoms: C24_26  and  C26_28 
REMARK   13  A    between atoms: C29_32  and  O4_34 
ROOT
HETATM    1  C14 UNL     1      -8.689  47.098 -29.877  1.00  0.00     0.047 C 
HETATM    2  C15 UNL     1      -9.071  48.069 -31.003  1.00  0.00     0.013 C 
HETATM    3  C16 UNL     1      -7.878  48.134 -31.955  1.00  0.00     0.017 C 
HETATM    4  C17 UNL     1      -7.044  46.842 -31.744  1.00  0.00     0.024 C 
HETATM    5  C18 UNL     1      -7.210  46.731 -30.174  1.00  0.00     0.138 C 
HETATM    6  C19 UNL     1      -7.657  45.541 -32.442  1.00  0.00     0.029 C 
HETATM    7  C23 UNL     1      -6.714  44.324 -32.584  1.00  0.00    -0.066 C 
HETATM    8  C24 UNL     1      -7.126  43.027 -32.525  1.00  0.00    -0.021 C 
HETATM    9  C25 UNL     1      -6.246  41.822 -32.764  1.00  0.00     0.052 C 
HETATM   10  C27 UNL     1      -5.233  44.635 -32.746  1.00  0.00     0.038 C 
HETATM   11  C28 UNL     1      -4.727  45.797 -31.906  1.00  0.00     0.042 C 
HETATM   12  C29 UNL     1      -5.534  47.078 -32.117  1.00  0.00     0.065 C 
HETATM   13  C30 UNL     1      -5.280  47.618 -33.533  1.00  0.00     0.047 C 
ENDROOT
BRANCH   5  14
HETATM   14  O1  UNL     1      -6.923  45.431 -29.671  1.00  0.00    -0.394 OA
HETATM   15  H26 UNL     1      -7.028  45.473 -28.704  1.00  0.00     0.210 HD
ENDBRANCH   5  14
BRANCH   6  16
HETATM   16  C20 UNL     1      -8.610  45.732 -33.666  1.00  0.00     0.012 C 
BRANCH  16  17
HETATM   17  C21 UNL     1     -10.122  45.822 -33.496  1.00  0.00     0.027 C 
BRANCH  17  18
HETATM   18  C22 UNL     1     -10.919  44.889 -34.397  1.00  0.00     0.164 C 
BRANCH  18  19
HETATM   19  O2  UNL     1     -12.211  44.683 -33.840  1.00  0.00    -0.401 OA
HETATM   20  H34 UNL     1     -12.667  45.542 -33.823  1.00  0.00     0.209 HD
ENDBRANCH  18  19
ENDBRANCH  17  18
ENDBRANCH  16  17
ENDBRANCH   6  16
BRANCH  12  21
HETATM   21  O4  UNL     1      -4.949  48.058 -31.236  1.00  0.00    -0.389 OA
HETATM   22  H46 UNL     1      -5.152  48.949 -31.568  1.00  0.00     0.210 HD
ENDBRANCH  12  21
BRANCH   1  23
HETATM   23  C2  UNL     1      -9.044  47.636 -28.487  1.00  0.00    -0.061 C 
HETATM   24  C1  UNL     1     -10.305  47.829 -28.060  1.00  0.00     0.019 C 
BRANCH  23  25
HETATM   25  C3  UNL     1      -7.961  47.988 -27.562  1.00  0.00     0.007 C 
HETATM   26  C4  UNL     1      -7.632  47.366 -26.417  1.00  0.00     0.001 C 
BRANCH  26  27
HETATM   27  C5  UNL     1      -6.532  47.804 -25.580  1.00  0.00     0.002 C 
HETATM   28  C6  UNL     1      -6.449  47.714 -24.238  1.00  0.00    -0.084 C 
HETATM   29  C7  UNL     1      -7.521  47.175 -23.324  1.00  0.00     0.043 C 
BRANCH  28  30
HETATM   30  C8  UNL     1      -5.204  48.217 -23.523  1.00  0.00     0.037 C 
BRANCH  30  31
HETATM   31  C9  UNL     1      -5.401  48.341 -22.007  1.00  0.00     0.031 C 
BRANCH  31  32
HETATM   32  C10 UNL     1      -5.127  47.036 -21.307  1.00  0.00    -0.024 C 
HETATM   33  C11 UNL     1      -3.927  46.493 -21.019  1.00  0.00    -0.091 C 
HETATM   34  C12 UNL     1      -3.832  45.194 -20.264  1.00  0.00     0.042 C 
HETATM   35  C13 UNL     1      -2.599  47.085 -21.402  1.00  0.00     0.042 C 
ENDBRANCH  31  32
ENDBRANCH  30  31
ENDBRANCH  28  30
ENDBRANCH  26  27
ENDBRANCH  23  25
ENDBRANCH   1  23
BRANCH   8  36
HETATM   36  C26 UNL     1      -8.543  42.630 -32.221  1.00  0.00     0.265 C 
HETATM   37  O3  UNL     1      -8.988  42.558 -31.080  1.00  0.00    -0.302 OA
ENDBRANCH   8  36
TORSDOF 13
ENDMDL
MODEL 3
REMARK minimizedAffinity -6.58415508
REMARK CNNscore 0.542996526
REMARK CNNaffinity 6.09341574
REMARK  13 active torsions:
REMARK  status: ('A' for Active; 'I' for Inactive)
REMARK    1  A    between atoms: C2_2  and  C3_3 
REMARK    2  A    between atoms: C2_2  and  C14_14 
REMARK    3  A    between atoms: C4_4  and  C5_5 
REMARK    4  A    between atoms: C6_6  and  C8_8 
REMARK    5  A    between atoms: C8_8  and  C9_9 
REMARK    6  A    between atoms: C9_9  and  C10_10 
REMARK    7  A    between atoms: C18_18  and  O1_19 
REMARK    8  A    between atoms: C19_20  and  C20_21 
REMARK    9  A    between atoms: C20_21  and  C21_22 
REMARK   10  A    between atoms: C21_22  and  C22_23 
REMARK   11  A    between atoms: C22_23  and  O2_24 
REMARK   12  A    between atoms: C24_26  and  C26_28 
REMARK   13  A    between atoms: C29_32  and  O4_34 
ROOT
HETATM    1  C14 UNL     1      -7.543  46.772 -27.582  1.00  0.00     0.047 C 
HETATM    2  C15 UNL     1      -8.588  45.650 -27.675  1.00  0.00     0.013 C 
HETATM    3  C16 UNL     1      -9.504  45.995 -28.847  1.00  0.00     0.017 C 
HETATM    4  C17 UNL     1      -8.724  46.960 -29.780  1.00  0.00     0.024 C 
HETATM    5  C18 UNL     1      -7.990  47.800 -28.657  1.00  0.00     0.138 C 
HETATM    6  C19 UNL     1      -7.639  46.243 -30.709  1.00  0.00     0.029 C 
HETATM    7  C23 UNL     1      -7.097  47.068 -31.899  1.00  0.00    -0.066 C 
HETATM    8  C24 UNL     1      -5.826  46.968 -32.383  1.00  0.00    -0.021 C 
HETATM    9  C25 UNL     1      -5.302  47.683 -33.606  1.00  0.00     0.052 C 
HETATM   10  C27 UNL     1      -8.054  48.082 -32.509  1.00  0.00     0.038 C 
HETATM   11  C28 UNL     1      -8.925  48.821 -31.506  1.00  0.00     0.042 C 
HETATM   12  C29 UNL     1      -9.709  47.880 -30.592  1.00  0.00     0.065 C 
HETATM   13  C30 UNL     1     -10.779  47.140 -31.410  1.00  0.00     0.047 C 
ENDROOT
BRANCH   5  14
HETATM   14  O1  UNL     1      -6.860  48.516 -29.142  1.00  0.00    -0.394 OA
HETATM   15  H26 UNL     1      -6.497  49.016 -28.389  1.00  0.00     0.210 HD
ENDBRANCH   5  14
BRANCH   6  16
HETATM   16  C20 UNL     1      -7.828  44.728 -31.042  1.00  0.00     0.012 C 
BRANCH  16  17
HETATM   17  C21 UNL     1      -6.877  43.666 -30.503  1.00  0.00     0.027 C 
BRANCH  17  18
HETATM   18  C22 UNL     1      -6.746  42.428 -31.378  1.00  0.00     0.164 C 
BRANCH  18  19
HETATM   19  O2  UNL     1      -5.478  42.438 -32.025  1.00  0.00    -0.401 OA
HETATM   20  H34 UNL     1      -4.794  42.390 -31.336  1.00  0.00     0.209 HD
ENDBRANCH  18  19
ENDBRANCH  17  18
ENDBRANCH  16  17
ENDBRANCH   6  16
BRANCH  12  21
HETATM   21  O4  UNL     1     -10.451  48.731 -29.695  1.00  0.00    -0.389 OA
HETATM   22  H46 UNL     1     -11.218  48.243 -29.352  1.00  0.00     0.210 HD
ENDBRANCH  12  21
BRANCH   1  23
HETATM   23  C2  UNL     1      -7.328  47.262 -26.147  1.00  0.00    -0.061 C 
HETATM   24  C1  UNL     1      -6.203  47.868 -25.724  1.00  0.00     0.019 C 
BRANCH  23  25
HETATM   25  C3  UNL     1      -8.388  47.049 -25.155  1.00  0.00     0.007 C 
HETATM   26  C4  UNL     1      -9.716  47.099 -25.357  1.00  0.00     0.001 C 
BRANCH  26  27
HETATM   27  C5  UNL     1     -10.676  46.866 -24.296  1.00  0.00     0.002 C 
HETATM   28  C6  UNL     1     -12.007  46.705 -24.427  1.00  0.00    -0.084 C 
HETATM   29  C7  UNL     1     -12.780  46.784 -25.719  1.00  0.00     0.043 C 
BRANCH  28  30
HETATM   30  C8  UNL     1     -12.863  46.455 -23.194  1.00  0.00     0.037 C 
BRANCH  30  31
HETATM   31  C9  UNL     1     -14.303  46.956 -23.362  1.00  0.00     0.031 C 
BRANCH  31  32
HETATM   32  C10 UNL     1     -14.948  47.237 -22.031  1.00  0.00    -0.024 C 
HETATM   33  C11 UNL     1     -15.936  46.544 -21.432  1.00  0.00    -0.091 C 
HETATM   34  C12 UNL     1     -16.433  46.937 -20.066  1.00  0.00     0.042 C 
HETATM   35  C13 UNL     1     -16.636  45.353 -22.026  1.00  0.00     0.042 C 
ENDBRANCH  31  32
ENDBRANCH  30  31
ENDBRANCH  28  30
ENDBRANCH  26  27
ENDBRANCH  23  25
ENDBRANCH   1  23
BRANCH   8  36
HETATM   36  C26 UNL     1      -4.774  46.102 -31.749  1.00  0.00     0.265 C 
HETATM   37  O3  UNL     1      -4.261  45.146 -32.321  1.00  0.00    -0.302 OA
ENDBRANCH   8  36
TORSDOF 13
ENDMDL
MODEL 4
REMARK minimizedAffinity -6.73353529
REMARK CNNscore 0.541789174
REMARK CNNaffinity 6.60095263
REMARK  13 active torsions:
REMARK  status: ('A' for Active; 'I' for Inactive)
REMARK    1  A    between atoms: C2_2  and  C3_3 
REMARK    2  A    between atoms: C2_2  and  C14_14 
REMARK    3  A    between atoms: C4_4  and  C5_5 
REMARK    4  A    between atoms: C6_6  and  C8_8 
REMARK    5  A    between atoms: C8_8  and  C9_9 
REMARK    6  A    between atoms: C9_9  and  C10_10 
REMARK    7  A    between atoms: C18_18  and  O1_19 
REMARK    8  A    between atoms: C19_20  and  C20_21 
REMARK    9  A    between atoms: C20_21  and  C21_22 
REMARK   10  A    between atoms: C21_22  and  C22_23 
REMARK   11  A    between atoms: C22_23  and  O2_24 
REMARK   12  A    between atoms: C24_26  and  C26_28 
REMARK   13  A    between atoms: C29_32  and  O4_34 
ROOT
HETATM    1  C14 UNL     1      -5.789  47.680 -26.533  1.00  0.00     0.047 C 
HETATM    2  C15 UNL     1      -6.371  47.434 -25.133  1.00  0.00     0.013 C 
HETATM    3  C16 UNL     1      -7.878  47.660 -25.235  1.00  0.00     0.017 C 
HETATM    4  C17 UNL     1      -8.275  47.485 -26.725  1.00  0.00     0.024 C 
HETATM    5  C18 UNL     1      -7.002  48.168 -27.371  1.00  0.00     0.138 C 
HETATM    6  C19 UNL     1      -8.371  45.963 -27.206  1.00  0.00     0.029 C 
HETATM    7  C23 UNL     1      -9.104  45.707 -28.544  1.00  0.00    -0.066 C 
HETATM    8  C24 UNL     1      -8.774  44.714 -29.417  1.00  0.00    -0.021 C 
HETATM    9  C25 UNL     1      -9.536  44.376 -30.677  1.00  0.00     0.052 C 
HETATM   10  C27 UNL     1     -10.222  46.677 -28.896  1.00  0.00     0.038 C 
HETATM   11  C28 UNL     1      -9.948  48.128 -28.535  1.00  0.00     0.042 C 
HETATM   12  C29 UNL     1      -9.569  48.313 -27.066  1.00  0.00     0.065 C 
HETATM   13  C30 UNL     1     -10.790  48.024 -26.179  1.00  0.00     0.047 C 
ENDROOT
BRANCH   5  14
HETATM   14  O1  UNL     1      -6.815  47.824 -28.739  1.00  0.00    -0.394 OA
HETATM   15  H26 UNL     1      -6.030  48.309 -29.048  1.00  0.00     0.210 HD
ENDBRANCH   5  14
BRANCH   6  16
HETATM   16  C20 UNL     1      -8.636  44.859 -26.134  1.00  0.00     0.012 C 
BRANCH  16  17
HETATM   17  C21 UNL     1     -10.010  44.675 -25.498  1.00  0.00     0.027 C 
BRANCH  17  18
HETATM   18  C22 UNL     1     -10.889  43.635 -26.179  1.00  0.00     0.164 C 
BRANCH  18  19
HETATM   19  O2  UNL     1     -11.931  44.291 -26.892  1.00  0.00    -0.401 OA
HETATM   20  H34 UNL     1     -11.519  44.833 -27.586  1.00  0.00     0.209 HD
ENDBRANCH  18  19
ENDBRANCH  17  18
ENDBRANCH  16  17
ENDBRANCH   6  16
BRANCH  12  21
HETATM   21  O4  UNL     1      -9.317  49.723 -26.901  1.00  0.00    -0.389 OA
HETATM   22  H46 UNL     1      -9.432  49.962 -25.965  1.00  0.00     0.210 HD
ENDBRANCH  12  21
BRANCH   1  23
HETATM   23  C2  UNL     1      -4.526  48.546 -26.503  1.00  0.00    -0.061 C 
HETATM   24  C1  UNL     1      -3.795  48.840 -27.594  1.00  0.00     0.019 C 
BRANCH  23  25
HETATM   25  C3  UNL     1      -4.057  49.078 -25.219  1.00  0.00     0.007 C 
HETATM   26  C4  UNL     1      -2.853  48.895 -24.651  1.00  0.00     0.001 C 
BRANCH  26  27
HETATM   27  C5  UNL     1      -2.497  49.475 -23.371  1.00  0.00     0.002 C 
HETATM   28  C6  UNL     1      -2.179  48.815 -22.241  1.00  0.00    -0.084 C 
HETATM   29  C7  UNL     1      -2.175  47.317 -22.068  1.00  0.00     0.043 C 
BRANCH  28  30
HETATM   30  C8  UNL     1      -1.816  49.595 -20.986  1.00  0.00     0.037 C 
BRANCH  30  31
HETATM   31  C9  UNL     1      -2.102  51.096 -21.119  1.00  0.00     0.031 C 
BRANCH  31  32
HETATM   32  C10 UNL     1      -0.893  51.921 -20.766  1.00  0.00    -0.024 C 
HETATM   33  C11 UNL     1       0.024  52.438 -21.608  1.00  0.00    -0.091 C 
HETATM   34  C12 UNL     1       1.153  53.288 -21.087  1.00  0.00     0.042 C 
HETATM   35  C13 UNL     1       0.038  52.236 -23.098  1.00  0.00     0.042 C 
ENDBRANCH  31  32
ENDBRANCH  30  31
ENDBRANCH  28  30
ENDBRANCH  26  27
ENDBRANCH  23  25
ENDBRANCH   1  23
BRANCH   8  36
HETATM   36  C26 UNL     1      -7.594  43.807 -29.219  1.00  0.00     0.265 C 
HETATM   37  O3  UNL     1      -6.808  43.525 -30.118  1.00  0.00    -0.302 OA
ENDBRANCH   8  36
TORSDOF 13
ENDMDL
MODEL 5
REMARK minimizedAffinity -7.07900953
REMARK CNNscore 0.490899682
REMARK CNNaffinity 6.17064857
REMARK  13 active torsions:
REMARK  status: ('A' for Active; 'I' for Inactive)
REMARK    1  A    between atoms: C2_2  and  C3_3 
REMARK    2  A    between atoms: C2_2  and  C14_14 
REMARK    3  A    between atoms: C4_4  and  C5_5 
REMARK    4  A    between atoms: C6_6  and  C8_8 
REMARK    5  A    between atoms: C8_8  and  C9_9 
REMARK    6  A    between atoms: C9_9  and  C10_10 
REMARK    7  A    between atoms: C18_18  and  O1_19 
REMARK    8  A    between atoms: C19_20  and  C20_21 
REMARK    9  A    between atoms: C20_21  and  C21_22 
REMARK   10  A    between atoms: C21_22  and  C22_23 
REMARK   11  A    between atoms: C22_23  and  O2_24 
REMARK   12  A    between atoms: C24_26  and  C26_28 
REMARK   13  A    between atoms: C29_32  and  O4_34 
ROOT
HETATM    1  C14 UNL     1      -7.373  47.662 -28.772  1.00  0.00     0.047 C 
HETATM    2  C15 UNL     1      -8.266  48.755 -29.376  1.00  0.00     0.013 C 
HETATM    3  C16 UNL     1      -9.278  48.051 -30.279  1.00  0.00     0.017 C 
HETATM    4  C17 UNL     1      -9.375  46.576 -29.807  1.00  0.00     0.024 C 
HETATM    5  C18 UNL     1      -7.845  46.356 -29.466  1.00  0.00     0.138 C 
HETATM    6  C19 UNL     1     -10.254  46.363 -28.489  1.00  0.00     0.029 C 
HETATM    7  C23 UNL     1     -10.692  44.913 -28.178  1.00  0.00    -0.066 C 
HETATM    8  C24 UNL     1     -10.844  44.415 -26.918  1.00  0.00    -0.021 C 
HETATM    9  C25 UNL     1     -11.370  43.038 -26.586  1.00  0.00     0.052 C 
HETATM   10  C27 UNL     1     -10.906  44.001 -29.377  1.00  0.00     0.038 C 
HETATM   11  C28 UNL     1      -9.904  44.185 -30.506  1.00  0.00     0.042 C 
HETATM   12  C29 UNL     1      -9.811  45.633 -30.988  1.00  0.00     0.065 C 
HETATM   13  C30 UNL     1     -11.117  46.025 -31.697  1.00  0.00     0.047 C 
ENDROOT
BRANCH   5  14
HETATM   14  O1  UNL     1      -7.616  45.242 -28.610  1.00  0.00    -0.394 OA
HETATM   15  H26 UNL     1      -6.653  45.177 -28.483  1.00  0.00     0.210 HD
ENDBRANCH   5  14
BRANCH   6  16
HETATM   16  C20 UNL     1     -11.345  47.427 -28.142  1.00  0.00     0.012 C 
BRANCH  16  17
HETATM   17  C21 UNL     1     -12.802  47.242 -28.553  1.00  0.00     0.027 C 
BRANCH  17  18
HETATM   18  C22 UNL     1     -13.722  46.776 -27.434  1.00  0.00     0.164 C 
BRANCH  18  19
HETATM   19  O2  UNL     1     -13.530  47.601 -26.290  1.00  0.00    -0.401 OA
HETATM   20  H34 UNL     1     -13.789  48.507 -26.532  1.00  0.00     0.209 HD
ENDBRANCH  18  19
ENDBRANCH  17  18
ENDBRANCH  16  17
ENDBRANCH   6  16
BRANCH  12  21
HETATM   21  O4  UNL     1      -8.810  45.636 -32.026  1.00  0.00    -0.389 OA
HETATM   22  H46 UNL     1      -8.955  46.402 -32.608  1.00  0.00     0.210 HD
ENDBRANCH  12  21
BRANCH   1  23
HETATM   23  C2  UNL     1      -5.885  48.020 -28.823  1.00  0.00    -0.061 C 
HETATM   24  C1  UNL     1      -5.245  48.397 -29.945  1.00  0.00     0.019 C 
BRANCH  23  25
HETATM   25  C3  UNL     1      -5.088  47.934 -27.594  1.00  0.00     0.007 C 
HETATM   26  C4  UNL     1      -3.993  48.646 -27.279  1.00  0.00     0.001 C 
BRANCH  26  27
HETATM   27  C5  UNL     1      -3.285  48.477 -26.025  1.00  0.00     0.002 C 
HETATM   28  C6  UNL     1      -3.742  48.764 -24.791  1.00  0.00    -0.084 C 
HETATM   29  C7  UNL     1      -5.084  49.371 -24.468  1.00  0.00     0.043 C 
BRANCH  28  30
HETATM   30  C8  UNL     1      -2.857  48.509 -23.580  1.00  0.00     0.037 C 
BRANCH  30  31
HETATM   31  C9  UNL     1      -2.689  49.751 -22.697  1.00  0.00     0.031 C 
BRANCH  31  32
HETATM   32  C10 UNL     1      -1.751  50.749 -23.322  1.00  0.00    -0.024 C 
HETATM   33  C11 UNL     1      -0.682  51.342 -22.754  1.00  0.00    -0.091 C 
HETATM   34  C12 UNL     1       0.184  52.286 -23.544  1.00  0.00     0.042 C 
HETATM   35  C13 UNL     1      -0.246  51.150 -21.327  1.00  0.00     0.042 C 
ENDBRANCH  31  32
ENDBRANCH  30  31
ENDBRANCH  28  30
ENDBRANCH  26  27
ENDBRANCH  23  25
ENDBRANCH   1  23
BRANCH   8  36
HETATM   36  C26 UNL     1     -10.513  45.199 -25.681  1.00  0.00     0.265 C 
HETATM   37  O3  UNL     1      -9.378  45.277 -25.222  1.00  0.00    -0.302 OA
ENDBRANCH   8  36
TORSDOF 13
ENDMDL
MODEL 6
REMARK minimizedAffinity -8.79591751
REMARK CNNscore 0.470366538
REMARK CNNaffinity 6.16438627
REMARK  13 active torsions:
REMARK  status: ('A' for Active; 'I' for Inactive)
REMARK    1  A    between atoms: C2_2  and  C3_3 
REMARK    2  A    between atoms: C2_2  and  C14_14 
REMARK    3  A    between atoms: C4_4  and  C5_5 
REMARK    4  A    between atoms: C6_6  and  C8_8 
REMARK    5  A    between atoms: C8_8  and  C9_9 
REMARK    6  A    between atoms: C9_9  and  C10_10 
REMARK    7  A    between atoms: C18_18  and  O1_19 
REMARK    8  A    between atoms: C19_20  and  C20_21 
REMARK    9  A    between atoms: C20_21  and  C21_22 
REMARK   10  A    between atoms: C21_22  and  C22_23 
REMARK   11  A    between atoms: C22_23  and  O2_24 
REMARK   12  A    between atoms: C24_26  and  C26_28 
REMARK   13  A    between atoms: C29_32  and  O4_34 
ROOT
HETATM    1  C14 UNL     1      -7.250  46.834 -27.565  1.00  0.00     0.047 C 
HETATM    2  C15 UNL     1      -8.269  45.684 -27.564  1.00  0.00     0.013 C 
HETATM    3  C16 UNL     1      -9.292  45.999 -28.653  1.00  0.00     0.017 C 
HETATM    4  C17 UNL     1      -8.622  46.979 -29.652  1.00  0.00     0.024 C 
HETATM    5  C18 UNL     1      -7.816  47.844 -28.600  1.00  0.00     0.138 C 
HETATM    6  C19 UNL     1      -7.603  46.287 -30.671  1.00  0.00     0.029 C 
HETATM    7  C23 UNL     1      -7.188  47.121 -31.905  1.00  0.00    -0.066 C 
HETATM    8  C24 UNL     1      -5.962  47.051 -32.497  1.00  0.00    -0.021 C 
HETATM    9  C25 UNL     1      -5.565  47.774 -33.763  1.00  0.00     0.052 C 
HETATM   10  C27 UNL     1      -8.221  48.106 -32.432  1.00  0.00     0.038 C 
HETATM   11  C28 UNL     1      -9.022  48.827 -31.359  1.00  0.00     0.042 C 
HETATM   12  C29 UNL     1      -9.698  47.869 -30.378  1.00  0.00     0.065 C 
HETATM   13  C30 UNL     1     -10.815  47.098 -31.098  1.00  0.00     0.047 C 
ENDROOT
BRANCH   5  14
HETATM   14  O1  UNL     1      -6.752  48.588 -29.183  1.00  0.00    -0.394 OA
HETATM   15  H26 UNL     1      -6.339  49.101 -28.465  1.00  0.00     0.210 HD
ENDBRANCH   5  14
BRANCH   6  16
HETATM   16  C20 UNL     1      -7.780  44.766 -30.981  1.00  0.00     0.012 C 
BRANCH  16  17
HETATM   17  C21 UNL     1      -6.613  43.789 -30.885  1.00  0.00     0.027 C 
BRANCH  17  18
HETATM   18  C22 UNL     1      -6.847  42.452 -31.575  1.00  0.00     0.164 C 
BRANCH  18  19
HETATM   19  O2  UNL     1      -5.607  41.944 -32.053  1.00  0.00    -0.401 OA
HETATM   20  H34 UNL     1      -5.035  41.787 -31.283  1.00  0.00     0.209 HD
ENDBRANCH  18  19
ENDBRANCH  17  18
ENDBRANCH  16  17
ENDBRANCH   6  16
BRANCH  12  21
HETATM   21  O4  UNL     1     -10.382  48.705 -29.423  1.00  0.00    -0.389 OA
HETATM   22  H46 UNL     1     -11.103  48.199 -29.013  1.00  0.00     0.210 HD
ENDBRANCH  12  21
BRANCH   1  23
HETATM   23  C2  UNL     1      -6.925  47.336 -26.155  1.00  0.00    -0.061 C 
HETATM   24  C1  UNL     1      -7.660  47.039 -25.068  1.00  0.00     0.019 C 
BRANCH  23  25
HETATM   25  C3  UNL     1      -5.763  48.211 -25.961  1.00  0.00     0.007 C 
HETATM   26  C4  UNL     1      -4.539  48.073 -26.498  1.00  0.00     0.001 C 
BRANCH  26  27
HETATM   27  C5  UNL     1      -3.462  49.007 -26.236  1.00  0.00     0.002 C 
HETATM   28  C6  UNL     1      -2.858  49.238 -25.054  1.00  0.00    -0.084 C 
HETATM   29  C7  UNL     1      -3.220  48.593 -23.740  1.00  0.00     0.043 C 
BRANCH  28  30
HETATM   30  C8  UNL     1      -1.727  50.252 -24.969  1.00  0.00     0.037 C 
BRANCH  30  31
HETATM   31  C9  UNL     1      -1.154  50.617 -26.344  1.00  0.00     0.031 C 
BRANCH  31  32
HETATM   32  C10 UNL     1       0.339  50.800 -26.288  1.00  0.00    -0.024 C 
HETATM   33  C11 UNL     1       1.116  51.490 -27.146  1.00  0.00    -0.091 C 
HETATM   34  C12 UNL     1       2.598  51.614 -26.912  1.00  0.00     0.042 C 
HETATM   35  C13 UNL     1       0.626  52.182 -28.388  1.00  0.00     0.042 C 
ENDBRANCH  31  32
ENDBRANCH  30  31
ENDBRANCH  28  30
ENDBRANCH  26  27
ENDBRANCH  23  25
ENDBRANCH   1  23
BRANCH   8  36
HETATM   36  C26 UNL     1      -4.836  46.217 -31.955  1.00  0.00     0.265 C 
HETATM   37  O3  UNL     1      -3.659  46.553 -32.027  1.00  0.00    -0.302 OA
ENDBRANCH   8  36
TORSDOF 13
ENDMDL
MODEL 7
REMARK minimizedAffinity -7.39248753
REMARK CNNscore 0.43086955
REMARK CNNaffinity 6.31174278
REMARK  13 active torsions:
REMARK  status: ('A' for Active; 'I' for Inactive)
REMARK    1  A    between atoms: C2_2  and  C3_3 
REMARK    2  A    between atoms: C2_2  and  C14_14 
REMARK    3  A    between atoms: C4_4  and  C5_5 
REMARK    4  A    between atoms: C6_6  and  C8_8 
REMARK    5  A    between atoms: C8_8  and  C9_9 
REMARK    6  A    between atoms: C9_9  and  C10_10 
REMARK    7  A    between atoms: C18_18  and  O1_19 
REMARK    8  A    between atoms: C19_20  and  C20_21 
REMARK    9  A    between atoms: C20_21  and  C21_22 
REMARK   10  A    between atoms: C21_22  and  C22_23 
REMARK   11  A    between atoms: C22_23  and  O2_24 
REMARK   12  A    between atoms: C24_26  and  C26_28 
REMARK   13  A    between atoms: C29_32  and  O4_34 
ROOT
HETATM    1  C14 UNL     1      -8.623  47.131 -29.838  1.00  0.00     0.047 C 
HETATM    2  C15 UNL     1      -9.015  48.111 -30.954  1.00  0.00     0.013 C 
HETATM    3  C16 UNL     1      -7.769  48.324 -31.812  1.00  0.00     0.017 C 
HETATM    4  C17 UNL     1      -6.835  47.106 -31.587  1.00  0.00     0.024 C 
HETATM    5  C18 UNL     1      -7.099  46.913 -30.038  1.00  0.00     0.138 C 
HETATM    6  C19 UNL     1      -7.273  45.785 -32.374  1.00  0.00     0.029 C 
HETATM    7  C23 UNL     1      -6.212  44.666 -32.491  1.00  0.00    -0.066 C 
HETATM    8  C24 UNL     1      -6.505  43.335 -32.509  1.00  0.00    -0.021 C 
HETATM    9  C25 UNL     1      -5.501  42.227 -32.726  1.00  0.00     0.052 C 
HETATM   10  C27 UNL     1      -4.759  45.116 -32.532  1.00  0.00     0.038 C 
HETATM   11  C28 UNL     1      -4.425  46.282 -31.614  1.00  0.00     0.042 C 
HETATM   12  C29 UNL     1      -5.330  47.493 -31.838  1.00  0.00     0.065 C 
HETATM   13  C30 UNL     1      -5.030  48.114 -33.211  1.00  0.00     0.047 C 
ENDROOT
BRANCH   5  14
HETATM   14  O1  UNL     1      -6.728  45.623 -29.562  1.00  0.00    -0.394 OA
HETATM   15  H26 UNL     1      -6.904  45.614 -28.605  1.00  0.00     0.210 HD
ENDBRANCH   5  14
BRANCH   6  16
HETATM   16  C20 UNL     1      -8.151  45.942 -33.658  1.00  0.00     0.012 C 
BRANCH  16  17
HETATM   17  C21 UNL     1      -8.342  47.294 -34.336  1.00  0.00     0.027 C 
BRANCH  17  18
HETATM   18  C22 UNL     1      -8.172  47.275 -35.848  1.00  0.00     0.164 C 
BRANCH  18  19
HETATM   19  O2  UNL     1      -6.931  47.880 -36.192  1.00  0.00    -0.401 OA
HETATM   20  H34 UNL     1      -6.222  47.340 -35.806  1.00  0.00     0.209 HD
ENDBRANCH  18  19
ENDBRANCH  17  18
ENDBRANCH  16  17
ENDBRANCH   6  16
BRANCH  12  21
HETATM   21  O4  UNL     1      -4.903  48.483 -30.881  1.00  0.00    -0.389 OA
HETATM   22  H46 UNL     1      -5.164  49.366 -31.195  1.00  0.00     0.210 HD
ENDBRANCH  12  21
BRANCH   1  23
HETATM   23  C2  UNL     1      -9.124  47.575 -28.460  1.00  0.00    -0.061 C 
HETATM   24  C1  UNL     1     -10.424  47.626 -28.117  1.00  0.00     0.019 C 
BRANCH  23  25
HETATM   25  C3  UNL     1      -8.147  47.993 -27.448  1.00  0.00     0.007 C 
HETATM   26  C4  UNL     1      -7.515  47.216 -26.553  1.00  0.00     0.001 C 
BRANCH  26  27
HETATM   27  C5  UNL     1      -6.560  47.742 -25.598  1.00  0.00     0.002 C 
HETATM   28  C6  UNL     1      -5.320  48.200 -25.858  1.00  0.00    -0.084 C 
HETATM   29  C7  UNL     1      -4.652  48.213 -27.210  1.00  0.00     0.043 C 
BRANCH  28  30
HETATM   30  C8  UNL     1      -4.457  48.731 -24.723  1.00  0.00     0.037 C 
BRANCH  30  31
HETATM   31  C9  UNL     1      -2.965  48.762 -25.078  1.00  0.00     0.031 C 
BRANCH  31  32
HETATM   32  C10 UNL     1      -2.301  50.011 -24.560  1.00  0.00    -0.024 C 
HETATM   33  C11 UNL     1      -1.786  50.220 -23.333  1.00  0.00    -0.091 C 
HETATM   34  C12 UNL     1      -1.109  51.521 -22.995  1.00  0.00     0.042 C 
HETATM   35  C13 UNL     1      -1.829  49.232 -22.200  1.00  0.00     0.042 C 
ENDBRANCH  31  32
ENDBRANCH  30  31
ENDBRANCH  28  30
ENDBRANCH  26  27
ENDBRANCH  23  25
ENDBRANCH   1  23
BRANCH   8  36
HETATM   36  C26 UNL     1      -7.896  42.799 -32.325  1.00  0.00     0.265 C 
HETATM   37  O3  UNL     1      -8.629  42.503 -33.263  1.00  0.00    -0.302 OA
ENDBRANCH   8  36
TORSDOF 13
ENDMDL
MODEL 8
REMARK minimizedAffinity -6.2441268
REMARK CNNscore 0.416770995
REMARK CNNaffinity 6.64832687
REMARK  13 active torsions:
REMARK  status: ('A' for Active; 'I' for Inactive)
REMARK    1  A    between atoms: C2_2  and  C3_3 
REMARK    2  A    between atoms: C2_2  and  C14_14 
REMARK    3  A    between atoms: C4_4  and  C5_5 
REMARK    4  A    between atoms: C6_6  and  C8_8 
REMARK    5  A    between atoms: C8_8  and  C9_9 
REMARK    6  A    between atoms: C9_9  and  C10_10 
REMARK    7  A    between atoms: C18_18  and  O1_19 
REMARK    8  A    between atoms: C19_20  and  C20_21 
REMARK    9  A    between atoms: C20_21  and  C21_22 
REMARK   10  A    between atoms: C21_22  and  C22_23 
REMARK   11  A    between atoms: C22_23  and  O2_24 
REMARK   12  A    between atoms: C24_26  and  C26_28 
REMARK   13  A    between atoms: C29_32  and  O4_34 
ROOT
HETATM    1  C14 UNL     1      -1.575  51.751 -11.879  1.00  0.00     0.047 C 
HETATM    2  C15 UNL     1      -2.155  50.330 -11.817  1.00  0.00     0.013 C 
HETATM    3  C16 UNL     1      -2.110  49.772 -13.239  1.00  0.00     0.017 C 
HETATM    4  C17 UNL     1      -1.035  50.575 -14.019  1.00  0.00     0.024 C 
HETATM    5  C18 UNL     1      -1.328  51.998 -13.392  1.00  0.00     0.138 C 
HETATM    6  C19 UNL     1       0.471  50.146 -13.697  1.00  0.00     0.029 C 
HETATM    7  C23 UNL     1       1.555  50.634 -14.685  1.00  0.00    -0.066 C 
HETATM    8  C24 UNL     1       2.830  50.953 -14.325  1.00  0.00    -0.021 C 
HETATM    9  C25 UNL     1       3.936  51.331 -15.283  1.00  0.00     0.052 C 
HETATM   10  C27 UNL     1       1.118  50.807 -16.133  1.00  0.00     0.038 C 
HETATM   11  C28 UNL     1      -0.279  51.378 -16.315  1.00  0.00     0.042 C 
HETATM   12  C29 UNL     1      -1.348  50.585 -15.562  1.00  0.00     0.065 C 
HETATM   13  C30 UNL     1      -1.516  49.203 -16.210  1.00  0.00     0.047 C 
ENDROOT
BRANCH   5  14
HETATM   14  O1  UNL     1      -0.256  52.918 -13.563  1.00  0.00    -0.394 OA
HETATM   15  H26 UNL     1      -0.542  53.762 -13.170  1.00  0.00     0.210 HD
ENDBRANCH   5  14
BRANCH   6  16
HETATM   16  C20 UNL     1       0.733  48.705 -13.152  1.00  0.00     0.012 C 
BRANCH  16  17
HETATM   17  C21 UNL     1       1.092  47.552 -14.082  1.00  0.00     0.027 C 
BRANCH  17  18
HETATM   18  C22 UNL     1       2.174  46.622 -13.552  1.00  0.00     0.164 C 
BRANCH  18  19
HETATM   19  O2  UNL     1       3.202  47.393 -12.940  1.00  0.00    -0.401 OA
HETATM   20  H34 UNL     1       2.810  47.859 -12.182  1.00  0.00     0.209 HD
ENDBRANCH  18  19
ENDBRANCH  17  18
ENDBRANCH  16  17
ENDBRANCH   6  16
BRANCH  12  21
HETATM   21  O4  UNL     1      -2.592  51.268 -15.814  1.00  0.00    -0.389 OA
HETATM   22  H46 UNL     1      -3.330  50.647 -15.687  1.00  0.00     0.210 HD
ENDBRANCH  12  21
BRANCH   1  23
HETATM   23  C2  UNL     1      -2.418  52.766 -11.100  1.00  0.00    -0.061 C 
HETATM   24  C1  UNL     1      -3.750  52.899 -11.243  1.00  0.00     0.019 C 
BRANCH  23  25
HETATM   25  C3  UNL     1      -1.751  53.670 -10.156  1.00  0.00     0.007 C 
HETATM   26  C4  UNL     1      -0.603  54.342 -10.342  1.00  0.00     0.001 C 
BRANCH  26  27
HETATM   27  C5  UNL     1      -0.037  55.216  -9.333  1.00  0.00     0.002 C 
HETATM   28  C6  UNL     1       0.787  54.867  -8.327  1.00  0.00    -0.084 C 
HETATM   29  C7  UNL     1       1.255  53.467  -8.019  1.00  0.00     0.043 C 
BRANCH  28  30
HETATM   30  C8  UNL     1       1.296  55.928  -7.363  1.00  0.00     0.037 C 
BRANCH  30  31
HETATM   31  C9  UNL     1       2.321  56.870  -8.007  1.00  0.00     0.031 C 
BRANCH  31  32
HETATM   32  C10 UNL     1       3.569  56.132  -8.413  1.00  0.00    -0.024 C 
HETATM   33  C11 UNL     1       4.040  55.935  -9.660  1.00  0.00    -0.091 C 
HETATM   34  C12 UNL     1       5.340  55.211  -9.886  1.00  0.00     0.042 C 
HETATM   35  C13 UNL     1       3.356  56.386 -10.921  1.00  0.00     0.042 C 
ENDBRANCH  31  32
ENDBRANCH  30  31
ENDBRANCH  28  30
ENDBRANCH  26  27
ENDBRANCH  23  25
ENDBRANCH   1  23
BRANCH   8  36
HETATM   36  C26 UNL     1       3.303  50.953 -12.899  1.00  0.00     0.265 C 
HETATM   37  O3  UNL     1       3.963  50.040 -12.413  1.00  0.00    -0.302 OA
ENDBRANCH   8  36
TORSDOF 13
ENDMDL
MODEL 9
REMARK minimizedAffinity -6.75149536
REMARK CNNscore 0.386068881
REMARK CNNaffinity 6.2259407
REMARK  13 active torsions:
REMARK  status: ('A' for Active; 'I' for Inactive)
REMARK    1  A    between atoms: C2_2  and  C3_3 
REMARK    2  A    between atoms: C2_2  and  C14_14 
REMARK    3  A    between atoms: C4_4  and  C5_5 
REMARK    4  A    between atoms: C6_6  and  C8_8 
REMARK    5  A    between atoms: C8_8  and  C9_9 
REMARK    6  A    between atoms: C9_9  and  C10_10 
REMARK    7  A    between atoms: C18_18  and  O1_19 
REMARK    8  A    between atoms: C19_20  and  C20_21 
REMARK    9  A    between atoms: C20_21  and  C21_22 
REMARK   10  A    between atoms: C21_22  and  C22_23 
REMARK   11  A    between atoms: C22_23  and  O2_24 
REMARK   12  A    between atoms: C24_26  and  C26_28 
REMARK   13  A    between atoms: C29_32  and  O4_34 
ROOT
HETATM    1  C14 UNL     1      -5.574  47.644 -28.098  1.00  0.00     0.047 C 
HETATM    2  C15 UNL     1      -6.551  47.353 -26.949  1.00  0.00     0.013 C 
HETATM    3  C16 UNL     1      -7.959  47.560 -27.503  1.00  0.00     0.017 C 
HETATM    4  C17 UNL     1      -7.877  47.418 -29.046  1.00  0.00     0.024 C 
HETATM    5  C18 UNL     1      -6.482  48.136 -29.257  1.00  0.00     0.138 C 
HETATM    6  C19 UNL     1      -7.788  45.908 -29.565  1.00  0.00     0.029 C 
HETATM    7  C23 UNL     1      -8.070  45.677 -31.068  1.00  0.00    -0.066 C 
HETATM    8  C24 UNL     1      -7.467  44.712 -31.818  1.00  0.00    -0.021 C 
HETATM    9  C25 UNL     1      -7.800  44.396 -33.258  1.00  0.00     0.052 C 
HETATM   10  C27 UNL     1      -9.048  46.639 -31.726  1.00  0.00     0.038 C 
HETATM   11  C28 UNL     1      -8.928  48.084 -31.269  1.00  0.00     0.042 C 
HETATM   12  C29 UNL     1      -9.022  48.237 -29.751  1.00  0.00     0.065 C 
HETATM   13  C30 UNL     1     -10.449  47.907 -29.287  1.00  0.00     0.047 C 
ENDROOT
BRANCH   5  14
HETATM   14  O1  UNL     1      -5.878  47.830 -30.509  1.00  0.00    -0.394 OA
HETATM   15  H26 UNL     1      -5.046  48.335 -30.551  1.00  0.00     0.210 HD
ENDBRANCH   5  14
BRANCH   6  16
HETATM   16  C20 UNL     1      -8.345  44.773 -28.648  1.00  0.00     0.012 C 
BRANCH  16  17
HETATM   17  C21 UNL     1      -9.680  44.095 -28.936  1.00  0.00     0.027 C 
BRANCH  17  18
HETATM   18  C22 UNL     1     -10.154  43.139 -27.851  1.00  0.00     0.164 C 
BRANCH  18  19
HETATM   19  O2  UNL     1     -10.746  41.995 -28.455  1.00  0.00    -0.401 OA
HETATM   20  H34 UNL     1     -10.058  41.543 -28.971  1.00  0.00     0.209 HD
ENDBRANCH  18  19
ENDBRANCH  17  18
ENDBRANCH  16  17
ENDBRANCH   6  16
BRANCH  12  21
HETATM   21  O4  UNL     1      -8.863  49.645 -29.488  1.00  0.00    -0.389 OA
HETATM   22  H46 UNL     1      -9.264  49.858 -28.628  1.00  0.00     0.210 HD
ENDBRANCH  12  21
BRANCH   1  23
HETATM   23  C2  UNL     1      -4.400  48.527 -27.664  1.00  0.00    -0.061 C 
HETATM   24  C1  UNL     1      -3.902  49.530 -28.411  1.00  0.00     0.019 C 
BRANCH  23  25
HETATM   25  C3  UNL     1      -3.751  48.267 -26.373  1.00  0.00     0.007 C 
HETATM   26  C4  UNL     1      -3.788  49.036 -25.273  1.00  0.00     0.001 C 
BRANCH  26  27
HETATM   27  C5  UNL     1      -3.108  48.675 -24.044  1.00  0.00     0.002 C 
HETATM   28  C6  UNL     1      -2.407  49.493 -23.234  1.00  0.00    -0.084 C 
HETATM   29  C7  UNL     1      -2.150  50.959 -23.473  1.00  0.00     0.043 C 
BRANCH  28  30
HETATM   30  C8  UNL     1      -1.767  48.937 -21.971  1.00  0.00     0.037 C 
BRANCH  30  31
HETATM   31  C9  UNL     1      -2.211  47.501 -21.664  1.00  0.00     0.031 C 
BRANCH  31  32
HETATM   32  C10 UNL     1      -2.871  47.404 -20.314  1.00  0.00    -0.024 C 
HETATM   33  C11 UNL     1      -4.133  47.746 -19.989  1.00  0.00    -0.091 C 
HETATM   34  C12 UNL     1      -4.650  47.536 -18.591  1.00  0.00     0.042 C 
HETATM   35  C13 UNL     1      -5.132  48.356 -20.933  1.00  0.00     0.042 C 
ENDBRANCH  31  32
ENDBRANCH  30  31
ENDBRANCH  28  30
ENDBRANCH  26  27
ENDBRANCH  23  25
ENDBRANCH   1  23
BRANCH   8  36
HETATM   36  C26 UNL     1      -6.385  43.816 -31.286  1.00  0.00     0.265 C 
HETATM   37  O3  UNL     1      -5.403  43.490 -31.944  1.00  0.00    -0.302 OA
ENDBRANCH   8  36
TORSDOF 13
ENDMDL
