MODEL 1
REMARK minimizedAffinity -10.0099001
REMARK CNNscore 0.478665292
REMARK CNNaffinity 6.99459887
REMARK  11 active torsions:
REMARK  status: ('A' for Active; 'I' for Inactive)
REMARK    1  A    between atoms: C2_2  and  C4_4 
REMARK    2  A    between atoms: C4_4  and  C6_6 
REMARK    3  A    between atoms: C7_7  and  C8_8 
REMARK    4  A    between atoms: C8_8  and  C10_10 
REMARK    5  A    between atoms: C24_24  and  O1_25 
REMARK    6  A    between atoms: O1_25  and  C25_26 
REMARK    7  A    between atoms: C26_28  and  C27_29 
REMARK    8  A    between atoms: C27_29  and  O3_30 
REMARK    9  A    between atoms: C28_31  and  O4_32 
REMARK   10  A    between atoms: C29_33  and  O5_34 
REMARK   11  A    between atoms: C30_35  and  O6_36 
ROOT
HETATM    1  C10 UNL     1      -5.957   6.495  14.333  1.00  0.00     0.002 C 
HETATM    2  C11 UNL     1      -6.287   7.807  13.590  1.00  0.00     0.006 C 
HETATM    3  C12 UNL     1      -4.975   8.259  12.956  1.00  0.00     0.009 C 
HETATM    4  C13 UNL     1      -3.956   7.925  14.049  1.00  0.00     0.041 C 
HETATM    5  C14 UNL     1      -4.381   6.486  14.474  1.00  0.00    -0.029 C 
HETATM    6  C15 UNL     1      -3.838   6.159  15.873  1.00  0.00     0.016 C 
HETATM    7  C16 UNL     1      -3.830   5.420  13.470  1.00  0.00     0.037 C 
HETATM    8  C17 UNL     1      -2.430   5.652  13.002  1.00  0.00    -0.019 C 
HETATM    9  C18 UNL     1      -1.813   6.845  13.079  1.00  0.00    -0.030 C 
HETATM   10  C19 UNL     1      -2.465   8.096  13.664  1.00  0.00     0.142 C 
HETATM   11  C20 UNL     1      -1.605   8.591  14.821  1.00  0.00     0.018 C 
HETATM   12  C21 UNL     1      -0.331   8.868  14.487  1.00  0.00     0.014 C 
HETATM   13  C22 UNL     1      -0.033   8.598  13.028  1.00  0.00     0.127 C 
HETATM   14  C23 UNL     1       1.384   9.026  12.612  1.00  0.00     0.078 C 
HETATM   15  C24 UNL     1       1.823   8.479  11.236  1.00  0.00     0.128 C 
HETATM   16  C31 UNL     1       0.644   7.976  10.403  1.00  0.00     0.033 C 
HETATM   17  C32 UNL     1      -0.196   6.906  11.110  1.00  0.00     0.020 C 
HETATM   18  C33 UNL     1      -0.352   7.109  12.643  1.00  0.00     0.021 C 
HETATM   19  C34 UNL     1       0.554   6.118  13.418  1.00  0.00     0.024 C 
HETATM   20  O7  UNL     1      -0.960   9.471  12.318  1.00  0.00    -0.223 OA
HETATM   21  O8  UNL     1      -2.379   9.110  12.623  1.00  0.00    -0.219 OA
ENDROOT
BRANCH  15  22
HETATM   22  O1  UNL     1       2.739   7.403  11.482  1.00  0.00    -0.353 OA
BRANCH  22  23
HETATM   23  C25 UNL     1       4.099   7.826  11.685  1.00  0.00     0.292 C 
HETATM   24  O2  UNL     1       4.913   7.411  10.597  1.00  0.00    -0.348 OA
HETATM   25  C26 UNL     1       6.298   7.154  10.883  1.00  0.00     0.179 C 
HETATM   26  C28 UNL     1       6.830   7.877  12.138  1.00  0.00     0.180 C 
HETATM   27  C29 UNL     1       5.954   7.630  13.375  1.00  0.00     0.183 C 
HETATM   28  C30 UNL     1       4.536   7.186  13.013  1.00  0.00     0.204 C 
BRANCH  25  29
HETATM   29  C27 UNL     1       6.545   5.640  10.897  1.00  0.00     0.198 C 
BRANCH  29  30
HETATM   30  O3  UNL     1       5.505   4.932  10.242  1.00  0.00    -0.398 OA
HETATM   31  H39 UNL     1       5.786   4.008  10.145  1.00  0.00     0.209 HD
ENDBRANCH  29  30
ENDBRANCH  25  29
BRANCH  26  32
HETATM   32  O4  UNL     1       6.813   9.290  11.854  1.00  0.00    -0.390 OA
HETATM   33  H41 UNL     1       7.304   9.737  12.570  1.00  0.00     0.210 HD
ENDBRANCH  26  32
BRANCH  27  34
HETATM   34  O5  UNL     1       6.546   6.645  14.235  1.00  0.00    -0.390 OA
HETATM   35  H43 UNL     1       5.909   6.521  14.965  1.00  0.00     0.210 HD
ENDBRANCH  27  34
BRANCH  28  36
HETATM   36  O6  UNL     1       3.664   7.522  14.101  1.00  0.00    -0.388 OA
HETATM   37  H45 UNL     1       2.760   7.302  13.791  1.00  0.00     0.210 HD
ENDBRANCH  28  36
ENDBRANCH  22  23
ENDBRANCH  15  22
BRANCH   1  38
HETATM   38  C8  UNL     1      -6.853   6.197  15.568  1.00  0.00     0.008 C 
HETATM   39  C9  UNL     1      -7.492   4.801  15.442  1.00  0.00     0.014 C 
BRANCH  38  40
HETATM   40  C7  UNL     1      -7.963   7.187  15.853  1.00  0.00    -0.026 C 
HETATM   41  C6  UNL     1      -8.893   7.538  14.944  1.00  0.00    -0.026 C 
BRANCH  41  42
HETATM   42  C4  UNL     1     -10.015   8.559  15.074  1.00  0.00     0.007 C 
HETATM   43  C5  UNL     1     -10.169   8.901  16.564  1.00  0.00     0.014 C 
BRANCH  42  44
HETATM   44  C2  UNL     1     -11.368   8.192  14.392  1.00  0.00    -0.015 C 
HETATM   45  C1  UNL     1     -11.489   6.682  14.159  1.00  0.00     0.010 C 
HETATM   46  C3  UNL     1     -11.610   8.924  13.066  1.00  0.00     0.010 C 
ENDBRANCH  42  44
ENDBRANCH  41  42
ENDBRANCH  38  40
ENDBRANCH   1  38
TORSDOF 11
ENDMDL
MODEL 2
REMARK minimizedAffinity -9.4487896
REMARK CNNscore 0.410397708
REMARK CNNaffinity 6.93595743
REMARK  11 active torsions:
REMARK  status: ('A' for Active; 'I' for Inactive)
REMARK    1  A    between atoms: C2_2  and  C4_4 
REMARK    2  A    between atoms: C4_4  and  C6_6 
REMARK    3  A    between atoms: C7_7  and  C8_8 
REMARK    4  A    between atoms: C8_8  and  C10_10 
REMARK    5  A    between atoms: C24_24  and  O1_25 
REMARK    6  A    between atoms: O1_25  and  C25_26 
REMARK    7  A    between atoms: C26_28  and  C27_29 
REMARK    8  A    between atoms: C27_29  and  O3_30 
REMARK    9  A    between atoms: C28_31  and  O4_32 
REMARK   10  A    between atoms: C29_33  and  O5_34 
REMARK   11  A    between atoms: C30_35  and  O6_36 
ROOT
HETATM    1  C10 UNL     1       0.211   6.243  12.159  1.00  0.00     0.002 C 
HETATM    2  C11 UNL     1      -0.315   4.856  11.732  1.00  0.00     0.006 C 
HETATM    3  C12 UNL     1      -1.786   4.835  12.134  1.00  0.00     0.009 C 
HETATM    4  C13 UNL     1      -1.762   5.554  13.486  1.00  0.00     0.041 C 
HETATM    5  C14 UNL     1      -0.856   6.789  13.192  1.00  0.00    -0.029 C 
HETATM    6  C15 UNL     1      -0.288   7.358  14.500  1.00  0.00     0.016 C 
HETATM    7  C16 UNL     1      -1.664   7.918  12.473  1.00  0.00     0.037 C 
HETATM    8  C17 UNL     1      -3.045   8.143  12.997  1.00  0.00    -0.019 C 
HETATM    9  C18 UNL     1      -3.717   7.233  13.725  1.00  0.00    -0.030 C 
HETATM   10  C19 UNL     1      -3.144   5.873  14.111  1.00  0.00     0.142 C 
HETATM   11  C20 UNL     1      -3.146   5.761  15.632  1.00  0.00     0.018 C 
HETATM   12  C21 UNL     1      -4.359   5.910  16.196  1.00  0.00     0.014 C 
HETATM   13  C22 UNL     1      -5.452   6.180  15.184  1.00  0.00     0.127 C 
HETATM   14  C23 UNL     1      -6.855   6.230  15.808  1.00  0.00     0.078 C 
HETATM   15  C24 UNL     1      -7.936   6.813  14.871  1.00  0.00     0.128 C 
HETATM   16  C31 UNL     1      -7.489   6.842  13.410  1.00  0.00     0.033 C 
HETATM   17  C32 UNL     1      -6.179   7.607  13.183  1.00  0.00     0.020 C 
HETATM   18  C33 UNL     1      -5.129   7.451  14.318  1.00  0.00     0.021 C 
HETATM   19  C34 UNL     1      -5.079   8.732  15.191  1.00  0.00     0.024 C 
HETATM   20  O7  UNL     1      -5.419   5.008  14.318  1.00  0.00    -0.223 OA
HETATM   21  O8  UNL     1      -4.099   4.888  13.624  1.00  0.00    -0.219 OA
ENDROOT
BRANCH  15  22
HETATM   22  O1  UNL     1      -8.211   8.147  15.323  1.00  0.00    -0.353 OA
BRANCH  22  23
HETATM   23  C25 UNL     1      -9.605   8.408  15.564  1.00  0.00     0.292 C 
HETATM   24  O2  UNL     1     -10.396   7.312  15.126  1.00  0.00    -0.348 OA
HETATM   25  C26 UNL     1     -11.732   7.610  14.687  1.00  0.00     0.179 C 
HETATM   26  C28 UNL     1     -12.307   8.923  15.256  1.00  0.00     0.180 C 
HETATM   27  C29 UNL     1     -11.371  10.121  15.036  1.00  0.00     0.183 C 
HETATM   28  C30 UNL     1      -9.923   9.698  14.791  1.00  0.00     0.204 C 
BRANCH  25  29
HETATM   29  C27 UNL     1     -11.796   7.526  13.156  1.00  0.00     0.198 C 
BRANCH  29  30
HETATM   30  O3  UNL     1     -13.052   7.041  12.709  1.00  0.00    -0.398 OA
HETATM   31  H39 UNL     1     -13.092   7.155  11.746  1.00  0.00     0.209 HD
ENDBRANCH  29  30
ENDBRANCH  25  29
BRANCH  26  32
HETATM   32  O4  UNL     1     -12.467   8.737  16.677  1.00  0.00    -0.390 OA
HETATM   33  H41 UNL     1     -12.986   9.493  17.014  1.00  0.00     0.210 HD
ENDBRANCH  26  32
BRANCH  27  34
HETATM   34  O5  UNL     1     -11.816  10.924  13.933  1.00  0.00    -0.390 OA
HETATM   35  H43 UNL     1     -11.148  11.630  13.839  1.00  0.00     0.210 HD
ENDBRANCH  27  34
BRANCH  28  36
HETATM   36  O6  UNL     1      -9.064  10.787  15.158  1.00  0.00    -0.388 OA
HETATM   37  H45 UNL     1      -8.150  10.443  15.069  1.00  0.00     0.210 HD
ENDBRANCH  28  36
ENDBRANCH  22  23
ENDBRANCH  15  22
BRANCH   1  38
HETATM   38  C8  UNL     1       1.727   6.293  12.502  1.00  0.00     0.008 C 
HETATM   39  C9  UNL     1       1.991   7.330  13.610  1.00  0.00     0.014 C 
BRANCH  38  40
HETATM   40  C7  UNL     1       2.670   6.594  11.355  1.00  0.00    -0.026 C 
HETATM   41  C6  UNL     1       2.267   7.128  10.187  1.00  0.00    -0.026 C 
BRANCH  41  42
HETATM   42  C4  UNL     1       3.089   7.420   8.939  1.00  0.00     0.007 C 
HETATM   43  C5  UNL     1       4.161   8.456   9.313  1.00  0.00     0.014 C 
BRANCH  42  44
HETATM   44  C2  UNL     1       2.290   7.808   7.658  1.00  0.00    -0.015 C 
HETATM   45  C1  UNL     1       0.897   8.346   8.005  1.00  0.00     0.010 C 
HETATM   46  C3  UNL     1       2.147   6.663   6.648  1.00  0.00     0.010 C 
ENDBRANCH  42  44
ENDBRANCH  41  42
ENDBRANCH  38  40
ENDBRANCH   1  38
TORSDOF 11
ENDMDL
MODEL 3
REMARK minimizedAffinity -8.7959938
REMARK CNNscore 0.374302268
REMARK CNNaffinity 6.90195131
REMARK  11 active torsions:
REMARK  status: ('A' for Active; 'I' for Inactive)
REMARK    1  A    between atoms: C2_2  and  C4_4 
REMARK    2  A    between atoms: C4_4  and  C6_6 
REMARK    3  A    between atoms: C7_7  and  C8_8 
REMARK    4  A    between atoms: C8_8  and  C10_10 
REMARK    5  A    between atoms: C24_24  and  O1_25 
REMARK    6  A    between atoms: O1_25  and  C25_26 
REMARK    7  A    between atoms: C26_28  and  C27_29 
REMARK    8  A    between atoms: C27_29  and  O3_30 
REMARK    9  A    between atoms: C28_31  and  O4_32 
REMARK   10  A    between atoms: C29_33  and  O5_34 
REMARK   11  A    between atoms: C30_35  and  O6_36 
ROOT
HETATM    1  C10 UNL     1      -7.522   5.734  14.323  1.00  0.00     0.002 C 
HETATM    2  C11 UNL     1      -7.125   4.839  13.129  1.00  0.00     0.006 C 
HETATM    3  C12 UNL     1      -5.622   5.031  12.957  1.00  0.00     0.009 C 
HETATM    4  C13 UNL     1      -5.455   6.531  13.217  1.00  0.00     0.041 C 
HETATM    5  C14 UNL     1      -6.319   6.746  14.499  1.00  0.00    -0.029 C 
HETATM    6  C15 UNL     1      -6.706   8.225  14.641  1.00  0.00     0.016 C 
HETATM    7  C16 UNL     1      -5.533   6.316  15.782  1.00  0.00     0.037 C 
HETATM    8  C17 UNL     1      -4.093   6.710  15.806  1.00  0.00    -0.019 C 
HETATM    9  C18 UNL     1      -3.396   7.034  14.702  1.00  0.00    -0.030 C 
HETATM   10  C19 UNL     1      -3.997   7.050  13.300  1.00  0.00     0.142 C 
HETATM   11  C20 UNL     1      -3.832   8.449  12.718  1.00  0.00     0.018 C 
HETATM   12  C21 UNL     1      -2.558   8.879  12.661  1.00  0.00     0.014 C 
HETATM   13  C22 UNL     1      -1.571   7.873  13.215  1.00  0.00     0.127 C 
HETATM   14  C23 UNL     1      -0.107   8.305  13.041  1.00  0.00     0.078 C 
HETATM   15  C24 UNL     1       0.894   7.467  13.868  1.00  0.00     0.128 C 
HETATM   16  C31 UNL     1       0.290   6.153  14.361  1.00  0.00     0.033 C 
HETATM   17  C32 UNL     1      -0.992   6.336  15.182  1.00  0.00     0.020 C 
HETATM   18  C33 UNL     1      -1.916   7.487  14.698  1.00  0.00     0.021 C 
HETATM   19  C34 UNL     1      -1.799   8.712  15.642  1.00  0.00     0.024 C 
HETATM   20  O7  UNL     1      -1.765   6.699  12.373  1.00  0.00    -0.223 OA
HETATM   21  O8  UNL     1      -3.158   6.170  12.500  1.00  0.00    -0.219 OA
ENDROOT
BRANCH  15  22
HETATM   22  O1  UNL     1       1.292   8.271  14.989  1.00  0.00    -0.353 OA
BRANCH  22  23
HETATM   23  C25 UNL     1       2.646   8.752  14.914  1.00  0.00     0.292 C 
HETATM   24  O2  UNL     1       2.851   9.465  13.702  1.00  0.00    -0.348 OA
HETATM   25  C26 UNL     1       4.180   9.450  13.158  1.00  0.00     0.179 C 
HETATM   26  C28 UNL     1       5.287   9.165  14.195  1.00  0.00     0.180 C 
HETATM   27  C29 UNL     1       5.010   7.897  15.018  1.00  0.00     0.183 C 
HETATM   28  C30 UNL     1       3.533   7.501  15.009  1.00  0.00     0.204 C 
BRANCH  25  29
HETATM   29  C27 UNL     1       4.224   8.513  11.943  1.00  0.00     0.198 C 
BRANCH  29  30
HETATM   30  O3  UNL     1       5.536   8.034  11.696  1.00  0.00    -0.398 OA
HETATM   31  H39 UNL     1       5.478   7.335  11.025  1.00  0.00     0.209 HD
ENDBRANCH  29  30
ENDBRANCH  25  29
BRANCH  26  32
HETATM   32  O4  UNL     1       5.319  10.286  15.100  1.00  0.00    -0.390 OA
HETATM   33  H41 UNL     1       6.122  10.194  15.649  1.00  0.00     0.210 HD
ENDBRANCH  26  32
BRANCH  27  34
HETATM   34  O5  UNL     1       5.792   6.794  14.538  1.00  0.00    -0.390 OA
HETATM   35  H43 UNL     1       5.525   6.029  15.084  1.00  0.00     0.210 HD
ENDBRANCH  27  34
BRANCH  28  36
HETATM   36  O6  UNL     1       3.266   6.722  16.183  1.00  0.00    -0.388 OA
HETATM   37  H45 UNL     1       2.298   6.566  16.181  1.00  0.00     0.210 HD
ENDBRANCH  28  36
ENDBRANCH  22  23
ENDBRANCH  15  22
BRANCH   1  38
HETATM   38  C8  UNL     1      -8.986   6.259  14.290  1.00  0.00     0.008 C 
HETATM   39  C9  UNL     1      -9.553   6.179  12.861  1.00  0.00     0.014 C 
BRANCH  38  40
HETATM   40  C7  UNL     1      -9.209   7.670  14.795  1.00  0.00    -0.026 C 
HETATM   41  C6  UNL     1     -10.229   8.448  14.388  1.00  0.00    -0.026 C 
BRANCH  41  42
HETATM   42  C4  UNL     1     -10.533   9.893  14.761  1.00  0.00     0.007 C 
HETATM   43  C5  UNL     1      -9.348  10.427  15.581  1.00  0.00     0.014 C 
BRANCH  42  44
HETATM   44  C2  UNL     1     -11.910  10.158  15.441  1.00  0.00    -0.015 C 
HETATM   45  C1  UNL     1     -12.688   8.855  15.663  1.00  0.00     0.010 C 
HETATM   46  C3  UNL     1     -12.798  11.146  14.675  1.00  0.00     0.010 C 
ENDBRANCH  42  44
ENDBRANCH  41  42
ENDBRANCH  38  40
ENDBRANCH   1  38
TORSDOF 11
ENDMDL
MODEL 4
REMARK minimizedAffinity -8.63535595
REMARK CNNscore 0.301203281
REMARK CNNaffinity 7.04110384
REMARK  11 active torsions:
REMARK  status: ('A' for Active; 'I' for Inactive)
REMARK    1  A    between atoms: C2_2  and  C4_4 
REMARK    2  A    between atoms: C4_4  and  C6_6 
REMARK    3  A    between atoms: C7_7  and  C8_8 
REMARK    4  A    between atoms: C8_8  and  C10_10 
REMARK    5  A    between atoms: C24_24  and  O1_25 
REMARK    6  A    between atoms: O1_25  and  C25_26 
REMARK    7  A    between atoms: C26_28  and  C27_29 
REMARK    8  A    between atoms: C27_29  and  O3_30 
REMARK    9  A    between atoms: C28_31  and  O4_32 
REMARK   10  A    between atoms: C29_33  and  O5_34 
REMARK   11  A    between atoms: C30_35  and  O6_36 
ROOT
HETATM    1  C10 UNL     1       1.122   6.691  13.270  1.00  0.00     0.002 C 
HETATM    2  C11 UNL     1       1.340   6.684  14.798  1.00  0.00     0.006 C 
HETATM    3  C12 UNL     1      -0.042   6.899  15.408  1.00  0.00     0.009 C 
HETATM    4  C13 UNL     1      -0.656   7.934  14.462  1.00  0.00     0.041 C 
HETATM    5  C14 UNL     1      -0.296   7.358  13.057  1.00  0.00    -0.029 C 
HETATM    6  C15 UNL     1      -0.361   8.464  11.994  1.00  0.00     0.016 C 
HETATM    7  C16 UNL     1      -1.289   6.221  12.647  1.00  0.00     0.037 C 
HETATM    8  C17 UNL     1      -2.723   6.480  12.977  1.00  0.00    -0.019 C 
HETATM    9  C18 UNL     1      -3.120   7.383  13.891  1.00  0.00    -0.030 C 
HETATM   10  C19 UNL     1      -2.155   8.257  14.688  1.00  0.00     0.142 C 
HETATM   11  C20 UNL     1      -2.494   9.719  14.419  1.00  0.00     0.018 C 
HETATM   12  C21 UNL     1      -3.759  10.060  14.725  1.00  0.00     0.014 C 
HETATM   13  C22 UNL     1      -4.573   8.896  15.249  1.00  0.00     0.127 C 
HETATM   14  C23 UNL     1      -5.980   9.304  15.714  1.00  0.00     0.078 C 
HETATM   15  C24 UNL     1      -6.931   8.109  15.949  1.00  0.00     0.128 C 
HETATM   16  C31 UNL     1      -6.185   6.781  16.065  1.00  0.00     0.033 C 
HETATM   17  C32 UNL     1      -5.295   6.469  14.855  1.00  0.00     0.020 C 
HETATM   18  C33 UNL     1      -4.596   7.705  14.225  1.00  0.00     0.021 C 
HETATM   19  C34 UNL     1      -5.298   8.110  12.903  1.00  0.00     0.024 C 
HETATM   20  O7  UNL     1      -3.845   8.472  16.439  1.00  0.00    -0.223 OA
HETATM   21  O8  UNL     1      -2.465   8.013  16.088  1.00  0.00    -0.219 OA
ENDROOT
BRANCH  15  22
HETATM   22  O1  UNL     1      -7.835   8.064  14.835  1.00  0.00    -0.353 OA
BRANCH  22  23
HETATM   23  C25 UNL     1      -9.211   8.295  15.187  1.00  0.00     0.292 C 
HETATM   24  O2  UNL     1     -10.042   7.300  14.604  1.00  0.00    -0.348 OA
HETATM   25  C26 UNL     1     -11.390   7.685  14.289  1.00  0.00     0.179 C 
HETATM   26  C28 UNL     1     -11.914   8.885  15.107  1.00  0.00     0.180 C 
HETATM   27  C29 UNL     1     -10.966  10.093  15.053  1.00  0.00     0.183 C 
HETATM   28  C30 UNL     1      -9.539   9.703  14.667  1.00  0.00     0.204 C 
BRANCH  25  29
HETATM   29  C27 UNL     1     -11.528   7.871  12.772  1.00  0.00     0.198 C 
BRANCH  29  30
HETATM   30  O3  UNL     1     -12.832   8.296  12.411  1.00  0.00    -0.398 OA
HETATM   31  H39 UNL     1     -12.817   8.545  11.473  1.00  0.00     0.209 HD
ENDBRANCH  29  30
ENDBRANCH  25  29
BRANCH  26  32
HETATM   32  O4  UNL     1     -12.011   8.454  16.478  1.00  0.00    -0.390 OA
HETATM   33  H41 UNL     1     -12.499   9.145  16.967  1.00  0.00     0.210 HD
ENDBRANCH  26  32
BRANCH  27  34
HETATM   34  O5  UNL     1     -11.446  11.081  14.130  1.00  0.00    -0.390 OA
HETATM   35  H43 UNL     1     -10.770  11.785  14.127  1.00  0.00     0.210 HD
ENDBRANCH  27  34
BRANCH  28  36
HETATM   36  O6  UNL     1      -8.644  10.702  15.175  1.00  0.00    -0.388 OA
HETATM   37  H45 UNL     1      -7.742  10.369  14.983  1.00  0.00     0.210 HD
ENDBRANCH  28  36
ENDBRANCH  22  23
ENDBRANCH  15  22
BRANCH   1  38
HETATM   38  C8  UNL     1       2.344   7.171  12.435  1.00  0.00     0.008 C 
HETATM   39  C9  UNL     1       2.637   8.656  12.720  1.00  0.00     0.014 C 
BRANCH  38  40
HETATM   40  C7  UNL     1       2.245   7.001  10.933  1.00  0.00    -0.026 C 
HETATM   41  C6  UNL     1       2.970   7.724  10.058  1.00  0.00    -0.026 C 
BRANCH  41  42
HETATM   42  C4  UNL     1       2.924   7.701   8.537  1.00  0.00     0.007 C 
HETATM   43  C5  UNL     1       3.418   9.065   8.030  1.00  0.00     0.014 C 
BRANCH  42  44
HETATM   44  C2  UNL     1       1.574   7.266   7.890  1.00  0.00    -0.015 C 
HETATM   45  C1  UNL     1       1.704   7.101   6.371  1.00  0.00     0.010 C 
HETATM   46  C3  UNL     1       0.409   8.217   8.191  1.00  0.00     0.010 C 
ENDBRANCH  42  44
ENDBRANCH  41  42
ENDBRANCH  38  40
ENDBRANCH   1  38
TORSDOF 11
ENDMDL
MODEL 5
REMARK minimizedAffinity -9.44118118
REMARK CNNscore 0.296967179
REMARK CNNaffinity 6.5952034
REMARK  11 active torsions:
REMARK  status: ('A' for Active; 'I' for Inactive)
REMARK    1  A    between atoms: C2_2  and  C4_4 
REMARK    2  A    between atoms: C4_4  and  C6_6 
REMARK    3  A    between atoms: C7_7  and  C8_8 
REMARK    4  A    between atoms: C8_8  and  C10_10 
REMARK    5  A    between atoms: C24_24  and  O1_25 
REMARK    6  A    between atoms: O1_25  and  C25_26 
REMARK    7  A    between atoms: C26_28  and  C27_29 
REMARK    8  A    between atoms: C27_29  and  O3_30 
REMARK    9  A    between atoms: C28_31  and  O4_32 
REMARK   10  A    between atoms: C29_33  and  O5_34 
REMARK   11  A    between atoms: C30_35  and  O6_36 
ROOT
HETATM    1  C10 UNL     1      -5.780   6.610  15.027  1.00  0.00     0.002 C 
HETATM    2  C11 UNL     1      -5.734   5.493  13.963  1.00  0.00     0.006 C 
HETATM    3  C12 UNL     1      -4.309   5.506  13.419  1.00  0.00     0.009 C 
HETATM    4  C13 UNL     1      -4.003   7.005  13.349  1.00  0.00     0.041 C 
HETATM    5  C14 UNL     1      -4.517   7.515  14.731  1.00  0.00    -0.029 C 
HETATM    6  C15 UNL     1      -4.776   9.028  14.680  1.00  0.00     0.016 C 
HETATM    7  C16 UNL     1      -3.468   7.233  15.857  1.00  0.00     0.037 C 
HETATM    8  C17 UNL     1      -2.045   7.483  15.477  1.00  0.00    -0.019 C 
HETATM    9  C18 UNL     1      -1.620   7.548  14.203  1.00  0.00    -0.030 C 
HETATM   10  C19 UNL     1      -2.542   7.385  12.997  1.00  0.00     0.142 C 
HETATM   11  C20 UNL     1      -2.447   8.645  12.143  1.00  0.00     0.018 C 
HETATM   12  C21 UNL     1      -1.203   8.932  11.717  1.00  0.00     0.014 C 
HETATM   13  C22 UNL     1      -0.168   7.942  12.207  1.00  0.00     0.127 C 
HETATM   14  C23 UNL     1       1.232   8.194  11.626  1.00  0.00     0.078 C 
HETATM   15  C24 UNL     1       2.356   7.414  12.343  1.00  0.00     0.128 C 
HETATM   16  C31 UNL     1       1.819   6.266  13.197  1.00  0.00     0.033 C 
HETATM   17  C32 UNL     1       0.786   6.709  14.241  1.00  0.00     0.020 C 
HETATM   18  C33 UNL     1      -0.164   7.847  13.775  1.00  0.00     0.021 C 
HETATM   19  C34 UNL     1       0.247   9.195  14.422  1.00  0.00     0.024 C 
HETATM   20  O7  UNL     1      -0.624   6.668  11.666  1.00  0.00    -0.223 OA
HETATM   21  O8  UNL     1      -1.972   6.306  12.205  1.00  0.00    -0.219 OA
ENDROOT
BRANCH  15  22
HETATM   22  O1  UNL     1       3.057   8.352  13.172  1.00  0.00    -0.353 OA
BRANCH  22  23
HETATM   23  C25 UNL     1       4.395   7.948  13.513  1.00  0.00     0.292 C 
HETATM   24  O2  UNL     1       5.094   9.021  14.128  1.00  0.00    -0.348 OA
HETATM   25  C26 UNL     1       6.519   9.055  13.949  1.00  0.00     0.179 C 
HETATM   26  C28 UNL     1       7.149   7.685  13.620  1.00  0.00     0.180 C 
HETATM   27  C29 UNL     1       6.458   6.989  12.438  1.00  0.00     0.183 C 
HETATM   28  C30 UNL     1       5.045   7.516  12.189  1.00  0.00     0.204 C 
BRANCH  25  29
HETATM   29  C27 UNL     1       6.882  10.154  12.942  1.00  0.00     0.198 C 
BRANCH  29  30
HETATM   30  O3  UNL     1       5.794  11.033  12.709  1.00  0.00    -0.398 OA
HETATM   31  H39 UNL     1       6.123  11.787  12.194  1.00  0.00     0.209 HD
ENDBRANCH  29  30
ENDBRANCH  25  29
BRANCH  26  32
HETATM   32  O4  UNL     1       6.986   6.852  14.785  1.00  0.00    -0.390 OA
HETATM   33  H41 UNL     1       7.529   6.051  14.648  1.00  0.00     0.210 HD
ENDBRANCH  26  32
BRANCH  27  34
HETATM   34  O5  UNL     1       7.229   7.133  11.236  1.00  0.00    -0.390 OA
HETATM   35  H43 UNL     1       6.702   6.703  10.535  1.00  0.00     0.210 HD
ENDBRANCH  27  34
BRANCH  28  36
HETATM   36  O6  UNL     1       4.294   6.498  11.512  1.00  0.00    -0.388 OA
HETATM   37  H45 UNL     1       3.378   6.842  11.452  1.00  0.00     0.210 HD
ENDBRANCH  28  36
ENDBRANCH  22  23
ENDBRANCH  15  22
BRANCH   1  38
HETATM   38  C8  UNL     1      -7.176   7.263  15.234  1.00  0.00     0.008 C 
HETATM   39  C9  UNL     1      -7.655   7.057  16.683  1.00  0.00     0.014 C 
BRANCH  38  40
HETATM   40  C7  UNL     1      -8.284   6.796  14.312  1.00  0.00    -0.026 C 
HETATM   41  C6  UNL     1      -9.568   7.181  14.444  1.00  0.00    -0.026 C 
BRANCH  41  42
HETATM   42  C4  UNL     1     -10.781   6.742  13.636  1.00  0.00     0.007 C 
HETATM   43  C5  UNL     1     -10.462   6.962  12.149  1.00  0.00     0.014 C 
BRANCH  42  44
HETATM   44  C2  UNL     1     -12.153   7.352  14.060  1.00  0.00    -0.015 C 
HETATM   45  C1  UNL     1     -13.171   6.259  14.405  1.00  0.00     0.010 C 
HETATM   46  C3  UNL     1     -12.762   8.290  13.011  1.00  0.00     0.010 C 
ENDBRANCH  42  44
ENDBRANCH  41  42
ENDBRANCH  38  40
ENDBRANCH   1  38
TORSDOF 11
ENDMDL
MODEL 6
REMARK minimizedAffinity -7.94354153
REMARK CNNscore 0.25092262
REMARK CNNaffinity 6.02123404
REMARK  11 active torsions:
REMARK  status: ('A' for Active; 'I' for Inactive)
REMARK    1  A    between atoms: C2_2  and  C4_4 
REMARK    2  A    between atoms: C4_4  and  C6_6 
REMARK    3  A    between atoms: C7_7  and  C8_8 
REMARK    4  A    between atoms: C8_8  and  C10_10 
REMARK    5  A    between atoms: C24_24  and  O1_25 
REMARK    6  A    between atoms: O1_25  and  C25_26 
REMARK    7  A    between atoms: C26_28  and  C27_29 
REMARK    8  A    between atoms: C27_29  and  O3_30 
REMARK    9  A    between atoms: C28_31  and  O4_32 
REMARK   10  A    between atoms: C29_33  and  O5_34 
REMARK   11  A    between atoms: C30_35  and  O6_36 
ROOT
HETATM    1  C10 UNL     1      -3.030  11.969  17.654  1.00  0.00     0.002 C 
HETATM    2  C11 UNL     1      -3.200  10.616  18.377  1.00  0.00     0.006 C 
HETATM    3  C12 UNL     1      -1.939  10.439  19.216  1.00  0.00     0.009 C 
HETATM    4  C13 UNL     1      -0.851  10.974  18.281  1.00  0.00     0.041 C 
HETATM    5  C14 UNL     1      -1.485  12.298  17.753  1.00  0.00    -0.029 C 
HETATM    6  C15 UNL     1      -0.809  12.730  16.444  1.00  0.00     0.016 C 
HETATM    7  C16 UNL     1      -1.321  13.452  18.797  1.00  0.00     0.037 C 
HETATM    8  C17 UNL     1       0.007  13.507  19.478  1.00  0.00    -0.019 C 
HETATM    9  C18 UNL     1       0.855  12.465  19.532  1.00  0.00    -0.030 C 
HETATM   10  C19 UNL     1       0.567  11.109  18.893  1.00  0.00     0.142 C 
HETATM   11  C20 UNL     1       1.676  10.800  17.894  1.00  0.00     0.018 C 
HETATM   12  C21 UNL     1       2.913  10.787  18.426  1.00  0.00     0.014 C 
HETATM   13  C22 UNL     1       2.922  11.109  19.904  1.00  0.00     0.127 C 
HETATM   14  C23 UNL     1       4.313  10.977  20.543  1.00  0.00     0.078 C 
HETATM   15  C24 UNL     1       4.416  11.599  21.953  1.00  0.00     0.128 C 
HETATM   16  C31 UNL     1       3.046  11.852  22.582  1.00  0.00     0.033 C 
HETATM   17  C32 UNL     1       2.128  12.731  21.724  1.00  0.00     0.020 C 
HETATM   18  C33 UNL     1       2.254  12.502  20.192  1.00  0.00     0.021 C 
HETATM   19  C34 UNL     1       3.052  13.658  19.534  1.00  0.00     0.024 C 
HETATM   20  O7  UNL     1       2.090  10.066  20.492  1.00  0.00    -0.223 OA
HETATM   21  O8  UNL     1       0.692  10.132  19.964  1.00  0.00    -0.219 OA
ENDROOT
BRANCH  15  22
HETATM   22  O1  UNL     1       5.124  12.840  21.816  1.00  0.00    -0.353 OA
BRANCH  22  23
HETATM   23  C25 UNL     1       6.557  12.703  21.842  1.00  0.00     0.292 C 
HETATM   24  O2  UNL     1       7.052  12.937  23.153  1.00  0.00    -0.348 OA
HETATM   25  C26 UNL     1       8.381  13.472  23.259  1.00  0.00     0.179 C 
HETATM   26  C28 UNL     1       9.273  13.199  22.030  1.00  0.00     0.180 C 
HETATM   27  C29 UNL     1       8.608  13.625  20.713  1.00  0.00     0.183 C 
HETATM   28  C30 UNL     1       7.087  13.731  20.830  1.00  0.00     0.204 C 
BRANCH  25  29
HETATM   29  C27 UNL     1       8.305  14.955  23.643  1.00  0.00     0.198 C 
BRANCH  29  30
HETATM   30  O3  UNL     1       9.109  15.246  24.775  1.00  0.00    -0.398 OA
HETATM   31  H39 UNL     1       9.147  16.211  24.876  1.00  0.00     0.209 HD
ENDBRANCH  29  30
ENDBRANCH  25  29
BRANCH  26  32
HETATM   32  O4  UNL     1       9.499  11.776  21.976  1.00  0.00    -0.390 OA
HETATM   33  H41 UNL     1      10.196  11.616  21.310  1.00  0.00     0.210 HD
ENDBRANCH  26  32
BRANCH  27  34
HETATM   34  O5  UNL     1       9.130  14.882  20.257  1.00  0.00    -0.390 OA
HETATM   35  H43 UNL     1       8.627  15.094  19.447  1.00  0.00     0.210 HD
ENDBRANCH  27  34
BRANCH  28  36
HETATM   36  O6  UNL     1       6.519  13.563  19.523  1.00  0.00    -0.388 OA
HETATM   37  H45 UNL     1       5.549  13.550  19.658  1.00  0.00     0.210 HD
ENDBRANCH  28  36
ENDBRANCH  22  23
ENDBRANCH  15  22
BRANCH   1  38
HETATM   38  C8  UNL     1      -3.766  12.081  16.289  1.00  0.00     0.008 C 
HETATM   39  C9  UNL     1      -5.218  12.548  16.500  1.00  0.00     0.014 C 
BRANCH  38  40
HETATM   40  C7  UNL     1      -3.804  10.829  15.437  1.00  0.00    -0.026 C 
HETATM   41  C6  UNL     1      -4.742   9.873  15.570  1.00  0.00    -0.026 C 
BRANCH  41  42
HETATM   42  C4  UNL     1      -4.862   8.547  14.832  1.00  0.00     0.007 C 
HETATM   43  C5  UNL     1      -4.049   8.656  13.532  1.00  0.00     0.014 C 
BRANCH  42  44
HETATM   44  C2  UNL     1      -6.308   8.011  14.599  1.00  0.00    -0.015 C 
HETATM   45  C1  UNL     1      -6.961   7.568  15.914  1.00  0.00     0.010 C 
HETATM   46  C3  UNL     1      -6.386   6.859  13.590  1.00  0.00     0.010 C 
ENDBRANCH  42  44
ENDBRANCH  41  42
ENDBRANCH  38  40
ENDBRANCH   1  38
TORSDOF 11
ENDMDL
MODEL 7
REMARK minimizedAffinity -8.17729855
REMARK CNNscore 0.245072022
REMARK CNNaffinity 6.52987814
REMARK  11 active torsions:
REMARK  status: ('A' for Active; 'I' for Inactive)
REMARK    1  A    between atoms: C2_2  and  C4_4 
REMARK    2  A    between atoms: C4_4  and  C6_6 
REMARK    3  A    between atoms: C7_7  and  C8_8 
REMARK    4  A    between atoms: C8_8  and  C10_10 
REMARK    5  A    between atoms: C24_24  and  O1_25 
REMARK    6  A    between atoms: O1_25  and  C25_26 
REMARK    7  A    between atoms: C26_28  and  C27_29 
REMARK    8  A    between atoms: C27_29  and  O3_30 
REMARK    9  A    between atoms: C28_31  and  O4_32 
REMARK   10  A    between atoms: C29_33  and  O5_34 
REMARK   11  A    between atoms: C30_35  and  O6_36 
ROOT
HETATM    1  C10 UNL     1       2.466   7.024  12.621  1.00  0.00     0.002 C 
HETATM    2  C11 UNL     1       3.367   6.413  11.527  1.00  0.00     0.006 C 
HETATM    3  C12 UNL     1       4.772   6.928  11.821  1.00  0.00     0.009 C 
HETATM    4  C13 UNL     1       4.505   8.375  12.242  1.00  0.00     0.041 C 
HETATM    5  C14 UNL     1       3.304   8.221  13.226  1.00  0.00    -0.029 C 
HETATM    6  C15 UNL     1       2.556   9.554  13.370  1.00  0.00     0.016 C 
HETATM    7  C16 UNL     1       3.795   7.776  14.643  1.00  0.00     0.037 C 
HETATM    8  C17 UNL     1       5.042   8.446  15.122  1.00  0.00    -0.019 C 
HETATM    9  C18 UNL     1       5.912   9.062  14.303  1.00  0.00    -0.030 C 
HETATM   10  C19 UNL     1       5.723   9.161  12.792  1.00  0.00     0.142 C 
HETATM   11  C20 UNL     1       5.703  10.635  12.403  1.00  0.00     0.018 C 
HETATM   12  C21 UNL     1       6.807  11.317  12.758  1.00  0.00     0.014 C 
HETATM   13  C22 UNL     1       7.818  10.461  13.492  1.00  0.00     0.127 C 
HETATM   14  C23 UNL     1       9.130  11.201  13.793  1.00  0.00     0.078 C 
HETATM   15  C24 UNL     1      10.041  10.471  14.805  1.00  0.00     0.128 C 
HETATM   16  C31 UNL     1       9.655   9.004  14.988  1.00  0.00     0.033 C 
HETATM   17  C32 UNL     1       8.194   8.801  15.409  1.00  0.00     0.020 C 
HETATM   18  C33 UNL     1       7.189   9.800  14.771  1.00  0.00     0.021 C 
HETATM   19  C34 UNL     1       6.757  10.872  15.806  1.00  0.00     0.024 C 
HETATM   20  O7  UNL     1       8.139   9.408  12.536  1.00  0.00    -0.223 OA
HETATM   21  O8  UNL     1       6.928   8.596  12.204  1.00  0.00    -0.219 OA
ENDROOT
BRANCH  15  22
HETATM   22  O1  UNL     1       9.923  11.166  16.055  1.00  0.00    -0.353 OA
BRANCH  22  23
HETATM   23  C25 UNL     1      11.154  11.253  16.796  1.00  0.00     0.292 C 
HETATM   24  O2  UNL     1      10.997  10.674  18.084  1.00  0.00    -0.348 OA
HETATM   25  C26 UNL     1      11.814  11.207  19.139  1.00  0.00     0.179 C 
HETATM   26  C28 UNL     1      13.100  11.907  18.652  1.00  0.00     0.180 C 
HETATM   27  C29 UNL     1      12.823  12.967  17.576  1.00  0.00     0.183 C 
HETATM   28  C30 UNL     1      11.483  12.753  16.871  1.00  0.00     0.204 C 
BRANCH  25  29
HETATM   29  C27 UNL     1      10.952  12.082  20.060  1.00  0.00     0.198 C 
BRANCH  29  30
HETATM   30  O3  UNL     1       9.741  11.435  20.415  1.00  0.00    -0.398 OA
HETATM   31  H39 UNL     1       9.315  11.959  21.112  1.00  0.00     0.209 HD
ENDBRANCH  29  30
ENDBRANCH  25  29
BRANCH  26  32
HETATM   32  O4  UNL     1      13.942  10.891  18.071  1.00  0.00    -0.390 OA
HETATM   33  H41 UNL     1      14.820  11.293  17.919  1.00  0.00     0.210 HD
ENDBRANCH  26  32
BRANCH  27  34
HETATM   34  O5  UNL     1      12.848  14.288  18.138  1.00  0.00    -0.390 OA
HETATM   35  H43 UNL     1      12.623  14.888  17.402  1.00  0.00     0.210 HD
ENDBRANCH  27  34
BRANCH  28  36
HETATM   36  O6  UNL     1      11.549  13.369  15.577  1.00  0.00    -0.388 OA
HETATM   37  H45 UNL     1      10.709  13.133  15.131  1.00  0.00     0.210 HD
ENDBRANCH  28  36
ENDBRANCH  22  23
ENDBRANCH  15  22
BRANCH   1  38
HETATM   38  C8  UNL     1       0.983   7.241  12.204  1.00  0.00     0.008 C 
HETATM   39  C9  UNL     1       0.099   6.107  12.755  1.00  0.00     0.014 C 
BRANCH  38  40
HETATM   40  C7  UNL     1       0.709   7.357  10.719  1.00  0.00    -0.026 C 
HETATM   41  C6  UNL     1       1.422   8.148   9.894  1.00  0.00    -0.026 C 
BRANCH  41  42
HETATM   42  C4  UNL     1       1.216   8.406   8.408  1.00  0.00     0.007 C 
HETATM   43  C5  UNL     1      -0.284   8.260   8.108  1.00  0.00     0.014 C 
BRANCH  42  44
HETATM   44  C2  UNL     1       2.114   7.587   7.431  1.00  0.00    -0.015 C 
HETATM   45  C1  UNL     1       1.417   7.359   6.085  1.00  0.00     0.010 C 
HETATM   46  C3  UNL     1       2.568   6.235   7.995  1.00  0.00     0.010 C 
ENDBRANCH  42  44
ENDBRANCH  41  42
ENDBRANCH  38  40
ENDBRANCH   1  38
TORSDOF 11
ENDMDL
MODEL 8
REMARK minimizedAffinity -8.42995834
REMARK CNNscore 0.217191294
REMARK CNNaffinity 6.04802656
REMARK  11 active torsions:
REMARK  status: ('A' for Active; 'I' for Inactive)
REMARK    1  A    between atoms: C2_2  and  C4_4 
REMARK    2  A    between atoms: C4_4  and  C6_6 
REMARK    3  A    between atoms: C7_7  and  C8_8 
REMARK    4  A    between atoms: C8_8  and  C10_10 
REMARK    5  A    between atoms: C24_24  and  O1_25 
REMARK    6  A    between atoms: O1_25  and  C25_26 
REMARK    7  A    between atoms: C26_28  and  C27_29 
REMARK    8  A    between atoms: C27_29  and  O3_30 
REMARK    9  A    between atoms: C28_31  and  O4_32 
REMARK   10  A    between atoms: C29_33  and  O5_34 
REMARK   11  A    between atoms: C30_35  and  O6_36 
ROOT
HETATM    1  C10 UNL     1       3.035   7.039   9.995  1.00  0.00     0.002 C 
HETATM    2  C11 UNL     1       3.401   8.127   8.963  1.00  0.00     0.006 C 
HETATM    3  C12 UNL     1       4.486   8.970   9.626  1.00  0.00     0.009 C 
HETATM    4  C13 UNL     1       3.993   9.052  11.073  1.00  0.00     0.041 C 
HETATM    5  C14 UNL     1       3.596   7.574  11.375  1.00  0.00    -0.029 C 
HETATM    6  C15 UNL     1       2.622   7.513  12.560  1.00  0.00     0.016 C 
HETATM    7  C16 UNL     1       4.857   6.717  11.728  1.00  0.00     0.037 C 
HETATM    8  C17 UNL     1       5.857   7.391  12.609  1.00  0.00    -0.019 C 
HETATM    9  C18 UNL     1       5.918   8.725  12.772  1.00  0.00    -0.030 C 
HETATM   10  C19 UNL     1       4.967   9.703  12.088  1.00  0.00     0.142 C 
HETATM   11  C20 UNL     1       4.250  10.512  13.163  1.00  0.00     0.018 C 
HETATM   12  C21 UNL     1       5.071  11.191  13.985  1.00  0.00     0.014 C 
HETATM   13  C22 UNL     1       6.535  10.976  13.666  1.00  0.00     0.127 C 
HETATM   14  C23 UNL     1       7.473  11.841  14.522  1.00  0.00     0.078 C 
HETATM   15  C24 UNL     1       8.957  11.418  14.446  1.00  0.00     0.128 C 
HETATM   16  C31 UNL     1       9.246  10.507  13.253  1.00  0.00     0.033 C 
HETATM   17  C32 UNL     1       8.373   9.247  13.217  1.00  0.00     0.020 C 
HETATM   18  C33 UNL     1       6.913   9.451  13.708  1.00  0.00     0.021 C 
HETATM   19  C34 UNL     1       6.732   8.863  15.132  1.00  0.00     0.024 C 
HETATM   20  O7  UNL     1       6.663  11.448  12.293  1.00  0.00    -0.223 OA
HETATM   21  O8  UNL     1       5.815  10.639  11.365  1.00  0.00    -0.219 OA
ENDROOT
BRANCH  15  22
HETATM   22  O1  UNL     1       9.261  10.730  15.668  1.00  0.00    -0.353 OA
BRANCH  22  23
HETATM   23  C25 UNL     1       9.987  11.524  16.624  1.00  0.00     0.292 C 
HETATM   24  O2  UNL     1      11.125  12.115  16.011  1.00  0.00    -0.348 OA
HETATM   25  C26 UNL     1      12.258  12.370  16.858  1.00  0.00     0.179 C 
HETATM   26  C28 UNL     1      11.912  12.500  18.356  1.00  0.00     0.180 C 
HETATM   27  C29 UNL     1      11.089  11.312  18.876  1.00  0.00     0.183 C 
HETATM   28  C30 UNL     1      10.373  10.558  17.755  1.00  0.00     0.204 C 
BRANCH  25  29
HETATM   29  C27 UNL     1      13.354  11.336  16.569  1.00  0.00     0.198 C 
BRANCH  29  30
HETATM   30  O3  UNL     1      13.850  10.750  17.761  1.00  0.00    -0.398 OA
HETATM   31  H39 UNL     1      14.419  10.003  17.514  1.00  0.00     0.209 HD
ENDBRANCH  29  30
ENDBRANCH  25  29
BRANCH  26  32
HETATM   32  O4  UNL     1      11.119  13.693  18.507  1.00  0.00    -0.390 OA
HETATM   33  H41 UNL     1      11.043  13.873  19.465  1.00  0.00     0.210 HD
ENDBRANCH  26  32
BRANCH  27  34
HETATM   34  O5  UNL     1      11.917  10.391  19.602  1.00  0.00    -0.390 OA
HETATM   35  H43 UNL     1      11.328   9.656  19.856  1.00  0.00     0.210 HD
ENDBRANCH  27  34
BRANCH  28  36
HETATM   36  O6  UNL     1       9.238   9.884  18.316  1.00  0.00    -0.388 OA
HETATM   37  H45 UNL     1       8.763   9.490  17.554  1.00  0.00     0.210 HD
ENDBRANCH  28  36
ENDBRANCH  22  23
ENDBRANCH  15  22
BRANCH   1  38
HETATM   38  C8  UNL     1       1.577   6.507   9.899  1.00  0.00     0.008 C 
HETATM   39  C9  UNL     1       0.582   7.681   9.824  1.00  0.00     0.014 C 
BRANCH  38  40
HETATM   40  C7  UNL     1       1.118   5.587  11.012  1.00  0.00    -0.026 C 
HETATM   41  C6  UNL     1      -0.178   5.363  11.299  1.00  0.00    -0.026 C 
BRANCH  41  42
HETATM   42  C4  UNL     1      -0.774   4.520  12.418  1.00  0.00     0.007 C 
HETATM   43  C5  UNL     1      -1.295   3.214  11.799  1.00  0.00     0.014 C 
BRANCH  42  44
HETATM   44  C2  UNL     1      -1.827   5.223  13.329  1.00  0.00    -0.015 C 
HETATM   45  C1  UNL     1      -3.229   4.640  13.119  1.00  0.00     0.010 C 
HETATM   46  C3  UNL     1      -1.885   6.744  13.147  1.00  0.00     0.010 C 
ENDBRANCH  42  44
ENDBRANCH  41  42
ENDBRANCH  38  40
ENDBRANCH   1  38
TORSDOF 11
ENDMDL
MODEL 9
REMARK minimizedAffinity -10.440794
REMARK CNNscore 0.205444425
REMARK CNNaffinity 6.79547262
REMARK  11 active torsions:
REMARK  status: ('A' for Active; 'I' for Inactive)
REMARK    1  A    between atoms: C2_2  and  C4_4 
REMARK    2  A    between atoms: C4_4  and  C6_6 
REMARK    3  A    between atoms: C7_7  and  C8_8 
REMARK    4  A    between atoms: C8_8  and  C10_10 
REMARK    5  A    between atoms: C24_24  and  O1_25 
REMARK    6  A    between atoms: O1_25  and  C25_26 
REMARK    7  A    between atoms: C26_28  and  C27_29 
REMARK    8  A    between atoms: C27_29  and  O3_30 
REMARK    9  A    between atoms: C28_31  and  O4_32 
REMARK   10  A    between atoms: C29_33  and  O5_34 
REMARK   11  A    between atoms: C30_35  and  O6_36 
ROOT
HETATM    1  C10 UNL     1      -5.882   6.748  14.386  1.00  0.00     0.002 C 
HETATM    2  C11 UNL     1      -6.056   8.186  13.852  1.00  0.00     0.006 C 
HETATM    3  C12 UNL     1      -4.738   8.530  13.167  1.00  0.00     0.009 C 
HETATM    4  C13 UNL     1      -3.709   7.902  14.111  1.00  0.00     0.041 C 
HETATM    5  C14 UNL     1      -4.320   6.493  14.383  1.00  0.00    -0.029 C 
HETATM    6  C15 UNL     1      -3.738   5.897  15.672  1.00  0.00     0.016 C 
HETATM    7  C16 UNL     1      -4.011   5.512  13.203  1.00  0.00     0.037 C 
HETATM    8  C17 UNL     1      -2.629   5.606  12.646  1.00  0.00    -0.019 C 
HETATM    9  C18 UNL     1      -1.831   6.675  12.820  1.00  0.00    -0.030 C 
HETATM   10  C19 UNL     1      -2.240   7.910  13.619  1.00  0.00     0.142 C 
HETATM   11  C20 UNL     1      -1.236   8.108  14.749  1.00  0.00     0.018 C 
HETATM   12  C21 UNL     1       0.039   8.244  14.341  1.00  0.00     0.014 C 
HETATM   13  C22 UNL     1       0.191   8.144  12.838  1.00  0.00     0.127 C 
HETATM   14  C23 UNL     1       1.624   8.419  12.356  1.00  0.00     0.078 C 
HETATM   15  C24 UNL     1       1.876   8.016  10.886  1.00  0.00     0.128 C 
HETATM   16  C31 UNL     1       0.580   7.810  10.104  1.00  0.00     0.033 C 
HETATM   17  C32 UNL     1      -0.364   6.782  10.739  1.00  0.00     0.020 C 
HETATM   18  C33 UNL     1      -0.381   6.786  12.293  1.00  0.00     0.021 C 
HETATM   19  C34 UNL     1       0.414   5.575  12.848  1.00  0.00     0.024 C 
HETATM   20  O7  UNL     1      -0.638   9.232  12.333  1.00  0.00    -0.223 OA
HETATM   21  O8  UNL     1      -2.071   9.038  12.716  1.00  0.00    -0.219 OA
ENDROOT
BRANCH  15  22
HETATM   22  O1  UNL     1       2.631   6.795  10.907  1.00  0.00    -0.353 OA
BRANCH  22  23
HETATM   23  C25 UNL     1       3.865   6.882  11.641  1.00  0.00     0.292 C 
HETATM   24  O2  UNL     1       4.094   8.218  12.067  1.00  0.00    -0.348 OA
HETATM   25  C26 UNL     1       5.464   8.626  12.212  1.00  0.00     0.179 C 
HETATM   26  C28 UNL     1       6.452   7.462  12.436  1.00  0.00     0.180 C 
HETATM   27  C29 UNL     1       6.313   6.359  11.377  1.00  0.00     0.183 C 
HETATM   28  C30 UNL     1       4.954   6.386  10.676  1.00  0.00     0.204 C 
BRANCH  25  29
HETATM   29  C27 UNL     1       5.851   9.542  11.043  1.00  0.00     0.198 C 
BRANCH  29  30
HETATM   30  O3  UNL     1       7.245   9.503  10.785  1.00  0.00    -0.398 OA
HETATM   31  H39 UNL     1       7.409   9.970   9.950  1.00  0.00     0.209 HD
ENDBRANCH  29  30
ENDBRANCH  25  29
BRANCH  26  32
HETATM   32  O4  UNL     1       6.146   6.887  13.722  1.00  0.00    -0.390 OA
HETATM   33  H41 UNL     1       6.870   6.269  13.944  1.00  0.00     0.210 HD
ENDBRANCH  26  32
BRANCH  27  34
HETATM   34  O5  UNL     1       7.349   6.462  10.389  1.00  0.00    -0.390 OA
HETATM   35  H43 UNL     1       7.161   5.758   9.740  1.00  0.00     0.210 HD
ENDBRANCH  27  34
BRANCH  28  36
HETATM   36  O6  UNL     1       4.682   5.073  10.165  1.00  0.00    -0.388 OA
HETATM   37  H45 UNL     1       3.771   5.114   9.805  1.00  0.00     0.210 HD
ENDBRANCH  28  36
ENDBRANCH  22  23
ENDBRANCH  15  22
BRANCH   1  38
HETATM   38  C8  UNL     1      -6.725   6.409  15.647  1.00  0.00     0.008 C 
HETATM   39  C9  UNL     1      -7.306   4.986  15.537  1.00  0.00     0.014 C 
BRANCH  38  40
HETATM   40  C7  UNL     1      -7.869   7.349  15.969  1.00  0.00    -0.026 C 
HETATM   41  C6  UNL     1      -8.739   7.798  15.044  1.00  0.00    -0.026 C 
BRANCH  41  42
HETATM   42  C4  UNL     1      -9.884   8.787  15.216  1.00  0.00     0.007 C 
HETATM   43  C5  UNL     1     -10.073   9.033  16.721  1.00  0.00     0.014 C 
BRANCH  42  44
HETATM   44  C2  UNL     1     -11.216   8.438  14.485  1.00  0.00    -0.015 C 
HETATM   45  C1  UNL     1     -11.223   6.986  13.992  1.00  0.00     0.010 C 
HETATM   46  C3  UNL     1     -11.538   9.367  13.308  1.00  0.00     0.010 C 
ENDBRANCH  42  44
ENDBRANCH  41  42
ENDBRANCH  38  40
ENDBRANCH   1  38
TORSDOF 11
ENDMDL
