MODEL 1
REMARK minimizedAffinity -6.78429794
REMARK CNNscore 0.541072845
REMARK CNNaffinity 6.18502855
REMARK  10 active torsions:
REMARK  status: ('A' for Active; 'I' for Inactive)
REMARK    1  A    between atoms: C14_14  and  C15_15 
REMARK    2  A    between atoms: C15_15  and  C17_17 
REMARK    3  A    between atoms: C17_17  and  C18_18 
REMARK    4  A    between atoms: C18_18  and  C19_19 
REMARK    5  A    between atoms: C20_20  and  C22_22 
REMARK    6  A    between atoms: C22_22  and  O2_24 
REMARK    7  A    between atoms: C27_29  and  C28_30 
REMARK    8  A    between atoms: C28_30  and  C29_31 
REMARK    9  A    between atoms: C29_31  and  C30_32 
REMARK   10  A    between atoms: C30_32  and  O4_34 
ROOT
HETATM    1  C1  UNL     1     -18.243  42.933 -27.551  1.00  0.00     0.043 C 
HETATM    2  C2  UNL     1     -17.523  43.736 -26.484  1.00  0.00    -0.085 C 
HETATM    3  C3  UNL     1     -17.893  43.244 -25.108  1.00  0.00     0.043 C 
HETATM    4  C4  UNL     1     -16.632  44.720 -26.786  1.00  0.00    -0.073 C 
HETATM    5  C5  UNL     1     -16.149  44.851 -28.226  1.00  0.00     0.035 C 
HETATM    6  C6  UNL     1     -14.818  45.587 -28.372  1.00  0.00     0.010 C 
HETATM    7  C7  UNL     1     -13.774  45.236 -27.276  1.00  0.00     0.003 C 
HETATM    8  C8  UNL     1     -14.368  45.291 -25.780  1.00  0.00    -0.032 C 
HETATM    9  C9  UNL     1     -14.305  43.893 -25.101  1.00  0.00     0.016 C 
HETATM   10  C10 UNL     1     -13.546  46.246 -24.855  1.00  0.00     0.011 C 
HETATM   11  C11 UNL     1     -12.006  46.238 -24.974  1.00  0.00     0.011 C 
HETATM   12  C12 UNL     1     -11.438  45.755 -26.321  1.00  0.00    -0.032 C 
HETATM   13  C13 UNL     1     -11.099  44.240 -26.229  1.00  0.00     0.016 C 
HETATM   14  C14 UNL     1     -10.156  46.502 -26.829  1.00  0.00    -0.002 C 
HETATM   15  C23 UNL     1     -10.216  46.303 -28.372  1.00  0.00     0.006 C 
HETATM   16  C24 UNL     1     -11.628  45.774 -28.705  1.00  0.00     0.011 C 
HETATM   17  C25 UNL     1     -12.471  46.094 -27.454  1.00  0.00    -0.032 C 
HETATM   18  C26 UNL     1     -12.847  47.614 -27.574  1.00  0.00     0.016 C 
HETATM   19  C27 UNL     1     -15.898  45.719 -25.861  1.00  0.00     0.024 C 
ENDROOT
BRANCH  14  20
HETATM   20  C15 UNL     1      -8.738  46.302 -26.205  1.00  0.00    -0.014 C 
HETATM   21  C16 UNL     1      -7.798  45.597 -27.191  1.00  0.00     0.010 C 
BRANCH  20  22
HETATM   22  C17 UNL     1      -8.047  47.543 -25.589  1.00  0.00     0.008 C 
BRANCH  22  23
HETATM   23  C18 UNL     1      -6.579  47.742 -26.008  1.00  0.00     0.028 C 
BRANCH  23  24
HETATM   24  C19 UNL     1      -5.735  48.348 -24.922  1.00  0.00    -0.013 C 
HETATM   25  C20 UNL     1      -4.414  48.617 -24.949  1.00  0.00     0.008 C 
HETATM   26  C21 UNL     1      -3.478  48.357 -26.091  1.00  0.00     0.055 C 
BRANCH  25  27
HETATM   27  C22 UNL     1      -3.840  49.224 -23.719  1.00  0.00     0.171 C 
HETATM   28  O1  UNL     1      -4.360  50.065 -23.007  1.00  0.00    -0.646 OA
BRANCH  27  29
HETATM   29  O2  UNL     1      -2.620  48.742 -23.430  1.00  0.00    -0.773 OA
HETATM   30  H35 UNL     1      -2.375  49.220 -22.612  1.00  0.00     0.167 HD
ENDBRANCH  27  29
ENDBRANCH  25  27
ENDBRANCH  23  24
ENDBRANCH  22  23
ENDBRANCH  20  22
ENDBRANCH  14  20
BRANCH  19  31
HETATM   31  C28 UNL     1     -16.588  46.127 -24.529  1.00  0.00     0.020 C 
BRANCH  31  32
HETATM   32  C29 UNL     1     -17.679  47.189 -24.708  1.00  0.00     0.110 C 
BRANCH  32  33
HETATM   33  C30 UNL     1     -19.072  46.721 -24.403  1.00  0.00     0.139 C 
HETATM   34  O3  UNL     1     -20.024  46.744 -25.166  1.00  0.00    -0.650 OA
BRANCH  33  35
HETATM   35  O4  UNL     1     -19.210  46.273 -23.143  1.00  0.00    -0.776 OA
HETATM   36  H48 UNL     1     -20.146  45.982 -23.107  1.00  0.00     0.167 HD
ENDBRANCH  33  35
ENDBRANCH  32  33
ENDBRANCH  31  32
ENDBRANCH  19  31
TORSDOF 10
ENDMDL
MODEL 2
REMARK minimizedAffinity -6.74753809
REMARK CNNscore 0.359330982
REMARK CNNaffinity 6.18047905
REMARK  10 active torsions:
REMARK  status: ('A' for Active; 'I' for Inactive)
REMARK    1  A    between atoms: C14_14  and  C15_15 
REMARK    2  A    between atoms: C15_15  and  C17_17 
REMARK    3  A    between atoms: C17_17  and  C18_18 
REMARK    4  A    between atoms: C18_18  and  C19_19 
REMARK    5  A    between atoms: C20_20  and  C22_22 
REMARK    6  A    between atoms: C22_22  and  O2_24 
REMARK    7  A    between atoms: C27_29  and  C28_30 
REMARK    8  A    between atoms: C28_30  and  C29_31 
REMARK    9  A    between atoms: C29_31  and  C30_32 
REMARK   10  A    between atoms: C30_32  and  O4_34 
ROOT
HETATM    1  C1  UNL     1      -4.144  53.117 -11.236  1.00  0.00     0.043 C 
HETATM    2  C2  UNL     1      -3.183  52.634 -10.165  1.00  0.00    -0.085 C 
HETATM    3  C3  UNL     1      -3.452  51.192  -9.820  1.00  0.00     0.043 C 
HETATM    4  C4  UNL     1      -2.195  53.424  -9.660  1.00  0.00    -0.073 C 
HETATM    5  C5  UNL     1      -1.879  54.739 -10.363  1.00  0.00     0.035 C 
HETATM    6  C6  UNL     1      -0.479  55.278 -10.075  1.00  0.00     0.010 C 
HETATM    7  C7  UNL     1       0.626  54.187 -10.026  1.00  0.00     0.003 C 
HETATM    8  C8  UNL     1       0.236  52.916  -9.116  1.00  0.00    -0.032 C 
HETATM    9  C9  UNL     1       0.166  51.617  -9.968  1.00  0.00     0.016 C 
HETATM   10  C10 UNL     1       1.302  52.638  -8.007  1.00  0.00     0.011 C 
HETATM   11  C11 UNL     1       2.796  52.777  -8.374  1.00  0.00     0.011 C 
HETATM   12  C12 UNL     1       3.113  53.698  -9.566  1.00  0.00    -0.032 C 
HETATM   13  C13 UNL     1       3.224  52.849 -10.863  1.00  0.00     0.016 C 
HETATM   14  C14 UNL     1       4.422  54.553  -9.440  1.00  0.00    -0.002 C 
HETATM   15  C23 UNL     1       4.143  55.772 -10.367  1.00  0.00     0.006 C 
HETATM   16  C24 UNL     1       2.636  55.747 -10.705  1.00  0.00     0.011 C 
HETATM   17  C25 UNL     1       2.013  54.816  -9.645  1.00  0.00    -0.032 C 
HETATM   18  C26 UNL     1       1.863  55.690  -8.349  1.00  0.00     0.016 C 
HETATM   19  C27 UNL     1      -1.209  53.165  -8.497  1.00  0.00     0.024 C 
ENDROOT
BRANCH  14  20
HETATM   20  C15 UNL     1       5.859  53.954  -9.572  1.00  0.00    -0.014 C 
HETATM   21  C16 UNL     1       6.924  55.001  -9.227  1.00  0.00     0.010 C 
BRANCH  20  22
HETATM   22  C17 UNL     1       6.148  52.623  -8.836  1.00  0.00     0.008 C 
BRANCH  22  23
HETATM   23  C18 UNL     1       5.935  51.355  -9.683  1.00  0.00     0.028 C 
BRANCH  23  24
HETATM   24  C19 UNL     1       7.136  50.450  -9.698  1.00  0.00    -0.013 C 
HETATM   25  C20 UNL     1       7.179  49.124  -9.459  1.00  0.00     0.008 C 
HETATM   26  C21 UNL     1       6.015  48.245  -9.111  1.00  0.00     0.055 C 
BRANCH  25  27
HETATM   27  C22 UNL     1       8.518  48.482  -9.546  1.00  0.00     0.171 C 
HETATM   28  O1  UNL     1       9.447  48.618  -8.769  1.00  0.00    -0.646 OA
BRANCH  27  29
HETATM   29  O2  UNL     1       8.634  47.682 -10.619  1.00  0.00    -0.773 OA
HETATM   30  H35 UNL     1       9.546  47.334 -10.544  1.00  0.00     0.167 HD
ENDBRANCH  27  29
ENDBRANCH  25  27
ENDBRANCH  23  24
ENDBRANCH  22  23
ENDBRANCH  20  22
ENDBRANCH  14  20
BRANCH  19  31
HETATM   31  C28 UNL     1      -1.658  52.214  -7.352  1.00  0.00     0.020 C 
BRANCH  31  32
HETATM   32  C29 UNL     1      -1.246  50.754  -7.575  1.00  0.00     0.110 C 
BRANCH  32  33
HETATM   33  C30 UNL     1      -0.787  50.032  -6.342  1.00  0.00     0.139 C 
HETATM   34  O3  UNL     1       0.321  49.559  -6.153  1.00  0.00    -0.650 OA
BRANCH  33  35
HETATM   35  O4  UNL     1      -1.755  49.912  -5.415  1.00  0.00    -0.776 OA
HETATM   36  H48 UNL     1      -1.303  49.455  -4.674  1.00  0.00     0.167 HD
ENDBRANCH  33  35
ENDBRANCH  32  33
ENDBRANCH  31  32
ENDBRANCH  19  31
TORSDOF 10
ENDMDL
MODEL 3
REMARK minimizedAffinity -6.48845148
REMARK CNNscore 0.335098326
REMARK CNNaffinity 6.02827072
REMARK  10 active torsions:
REMARK  status: ('A' for Active; 'I' for Inactive)
REMARK    1  A    between atoms: C14_14  and  C15_15 
REMARK    2  A    between atoms: C15_15  and  C17_17 
REMARK    3  A    between atoms: C17_17  and  C18_18 
REMARK    4  A    between atoms: C18_18  and  C19_19 
REMARK    5  A    between atoms: C20_20  and  C22_22 
REMARK    6  A    between atoms: C22_22  and  O2_24 
REMARK    7  A    between atoms: C27_29  and  C28_30 
REMARK    8  A    between atoms: C28_30  and  C29_31 
REMARK    9  A    between atoms: C29_31  and  C30_32 
REMARK   10  A    between atoms: C30_32  and  O4_34 
ROOT
HETATM    1  C1  UNL     1       6.199  48.560  -9.063  1.00  0.00     0.043 C 
HETATM    2  C2  UNL     1       4.978  49.329  -9.534  1.00  0.00    -0.085 C 
HETATM    3  C3  UNL     1       3.758  48.444  -9.527  1.00  0.00     0.043 C 
HETATM    4  C4  UNL     1       5.026  50.652  -9.854  1.00  0.00    -0.073 C 
HETATM    5  C5  UNL     1       6.273  51.447  -9.489  1.00  0.00     0.035 C 
HETATM    6  C6  UNL     1       6.046  52.955  -9.397  1.00  0.00     0.010 C 
HETATM    7  C7  UNL     1       4.699  53.356  -8.734  1.00  0.00     0.003 C 
HETATM    8  C8  UNL     1       3.429  52.557  -9.322  1.00  0.00    -0.032 C 
HETATM    9  C9  UNL     1       2.750  51.696  -8.219  1.00  0.00     0.016 C 
HETATM   10  C10 UNL     1       2.318  53.523  -9.846  1.00  0.00     0.011 C 
HETATM   11  C11 UNL     1       2.001  54.793  -9.024  1.00  0.00     0.011 C 
HETATM   12  C12 UNL     1       3.131  55.304  -8.113  1.00  0.00    -0.032 C 
HETATM   13  C13 UNL     1       2.937  54.738  -6.678  1.00  0.00     0.016 C 
HETATM   14  C14 UNL     1       3.265  56.862  -7.999  1.00  0.00    -0.002 C 
HETATM   15  C23 UNL     1       4.762  57.065  -7.621  1.00  0.00     0.006 C 
HETATM   16  C24 UNL     1       5.473  55.714  -7.853  1.00  0.00     0.011 C 
HETATM   17  C25 UNL     1       4.511  54.914  -8.755  1.00  0.00    -0.032 C 
HETATM   18  C26 UNL     1       4.741  55.460 -10.209  1.00  0.00     0.016 C 
HETATM   19  C27 UNL     1       3.939  51.570 -10.460  1.00  0.00     0.024 C 
ENDROOT
BRANCH  14  20
HETATM   20  C15 UNL     1       2.267  57.757  -7.196  1.00  0.00    -0.014 C 
HETATM   21  C16 UNL     1       0.874  57.116  -7.146  1.00  0.00     0.010 C 
BRANCH  20  22
HETATM   22  C17 UNL     1       2.702  58.223  -5.785  1.00  0.00     0.008 C 
BRANCH  22  23
HETATM   23  C18 UNL     1       2.252  57.306  -4.634  1.00  0.00     0.028 C 
BRANCH  23  24
HETATM   24  C19 UNL     1       0.779  57.399  -4.349  1.00  0.00    -0.013 C 
HETATM   25  C20 UNL     1       0.158  58.161  -3.425  1.00  0.00     0.008 C 
HETATM   26  C21 UNL     1       0.817  59.095  -2.455  1.00  0.00     0.055 C 
BRANCH  25  27
HETATM   27  C22 UNL     1      -1.324  58.051  -3.369  1.00  0.00     0.171 C 
HETATM   28  O1  UNL     1      -2.117  58.949  -3.144  1.00  0.00    -0.646 OA
BRANCH  27  29
HETATM   29  O2  UNL     1      -1.755  56.800  -3.603  1.00  0.00    -0.773 OA
HETATM   30  H35 UNL     1      -2.728  56.880  -3.538  1.00  0.00     0.167 HD
ENDBRANCH  27  29
ENDBRANCH  25  27
ENDBRANCH  23  24
ENDBRANCH  22  23
ENDBRANCH  20  22
ENDBRANCH  14  20
BRANCH  19  31
HETATM   31  C28 UNL     1       2.856  50.923 -11.369  1.00  0.00     0.020 C 
BRANCH  31  32
HETATM   32  C29 UNL     1       3.244  50.893 -12.852  1.00  0.00     0.110 C 
BRANCH  32  33
HETATM   33  C30 UNL     1       3.991  49.665 -13.284  1.00  0.00     0.139 C 
HETATM   34  O3  UNL     1       5.040  49.641 -13.908  1.00  0.00    -0.650 OA
BRANCH  33  35
HETATM   35  O4  UNL     1       3.370  48.524 -12.937  1.00  0.00    -0.776 OA
HETATM   36  H48 UNL     1       3.982  47.827 -13.255  1.00  0.00     0.167 HD
ENDBRANCH  33  35
ENDBRANCH  32  33
ENDBRANCH  31  32
ENDBRANCH  19  31
TORSDOF 10
ENDMDL
MODEL 4
REMARK minimizedAffinity -6.93437576
REMARK CNNscore 0.311931908
REMARK CNNaffinity 5.71180868
REMARK  10 active torsions:
REMARK  status: ('A' for Active; 'I' for Inactive)
REMARK    1  A    between atoms: C14_14  and  C15_15 
REMARK    2  A    between atoms: C15_15  and  C17_17 
REMARK    3  A    between atoms: C17_17  and  C18_18 
REMARK    4  A    between atoms: C18_18  and  C19_19 
REMARK    5  A    between atoms: C20_20  and  C22_22 
REMARK    6  A    between atoms: C22_22  and  O2_24 
REMARK    7  A    between atoms: C27_29  and  C28_30 
REMARK    8  A    between atoms: C28_30  and  C29_31 
REMARK    9  A    between atoms: C29_31  and  C30_32 
REMARK   10  A    between atoms: C30_32  and  O4_34 
ROOT
HETATM    1  C1  UNL     1     -18.180  42.905 -27.545  1.00  0.00     0.043 C 
HETATM    2  C2  UNL     1     -17.477  43.716 -26.471  1.00  0.00    -0.085 C 
HETATM    3  C3  UNL     1     -17.897  43.257 -25.099  1.00  0.00     0.043 C 
HETATM    4  C4  UNL     1     -16.559  44.678 -26.766  1.00  0.00    -0.073 C 
HETATM    5  C5  UNL     1     -16.032  44.773 -28.192  1.00  0.00     0.035 C 
HETATM    6  C6  UNL     1     -14.684  45.481 -28.312  1.00  0.00     0.010 C 
HETATM    7  C7  UNL     1     -13.679  45.133 -27.178  1.00  0.00     0.003 C 
HETATM    8  C8  UNL     1     -14.317  45.227 -25.702  1.00  0.00    -0.032 C 
HETATM    9  C9  UNL     1     -14.299  43.842 -24.996  1.00  0.00     0.016 C 
HETATM   10  C10 UNL     1     -13.506  46.186 -24.771  1.00  0.00     0.011 C 
HETATM   11  C11 UNL     1     -11.963  46.148 -24.844  1.00  0.00     0.011 C 
HETATM   12  C12 UNL     1     -11.364  45.629 -26.163  1.00  0.00    -0.032 C 
HETATM   13  C13 UNL     1     -11.056  44.111 -26.032  1.00  0.00     0.016 C 
HETATM   14  C14 UNL     1     -10.053  46.343 -26.646  1.00  0.00    -0.002 C 
HETATM   15  C23 UNL     1     -10.071  46.117 -28.186  1.00  0.00     0.006 C 
HETATM   16  C24 UNL     1     -11.482  45.606 -28.552  1.00  0.00     0.011 C 
HETATM   17  C25 UNL     1     -12.356  45.965 -27.333  1.00  0.00    -0.032 C 
HETATM   18  C26 UNL     1     -12.700  47.489 -27.492  1.00  0.00     0.016 C 
HETATM   19  C27 UNL     1     -15.835  45.681 -25.837  1.00  0.00     0.024 C 
ENDROOT
BRANCH  14  20
HETATM   20  C15 UNL     1      -8.659  46.131 -25.976  1.00  0.00    -0.014 C 
HETATM   21  C16 UNL     1      -7.689  45.431 -26.936  1.00  0.00     0.010 C 
BRANCH  20  22
HETATM   22  C17 UNL     1      -7.984  47.362 -25.325  1.00  0.00     0.008 C 
BRANCH  22  23
HETATM   23  C18 UNL     1      -6.547  47.640 -25.801  1.00  0.00     0.028 C 
BRANCH  23  24
HETATM   24  C19 UNL     1      -6.435  47.758 -27.295  1.00  0.00    -0.013 C 
HETATM   25  C20 UNL     1      -5.343  48.063 -28.025  1.00  0.00     0.008 C 
HETATM   26  C21 UNL     1      -3.975  48.366 -27.492  1.00  0.00     0.055 C 
BRANCH  25  27
HETATM   27  C22 UNL     1      -5.527  48.107 -29.500  1.00  0.00     0.171 C 
HETATM   28  O1  UNL     1      -6.211  47.357 -30.175  1.00  0.00    -0.646 OA
BRANCH  27  29
HETATM   29  O2  UNL     1      -4.836  49.106 -30.074  1.00  0.00    -0.773 OA
HETATM   30  H35 UNL     1      -5.052  49.014 -31.024  1.00  0.00     0.167 HD
ENDBRANCH  27  29
ENDBRANCH  25  27
ENDBRANCH  23  24
ENDBRANCH  22  23
ENDBRANCH  20  22
ENDBRANCH  14  20
BRANCH  19  31
HETATM   31  C28 UNL     1     -16.557  46.126 -24.534  1.00  0.00     0.020 C 
BRANCH  31  32
HETATM   32  C29 UNL     1     -17.652  47.173 -24.772  1.00  0.00     0.110 C 
BRANCH  32  33
HETATM   33  C30 UNL     1     -19.045  46.712 -24.454  1.00  0.00     0.139 C 
HETATM   34  O3  UNL     1     -19.990  46.686 -25.226  1.00  0.00    -0.650 OA
BRANCH  33  35
HETATM   35  O4  UNL     1     -19.192  46.333 -23.172  1.00  0.00    -0.776 OA
HETATM   36  H48 UNL     1     -20.126  46.038 -23.128  1.00  0.00     0.167 HD
ENDBRANCH  33  35
ENDBRANCH  32  33
ENDBRANCH  31  32
ENDBRANCH  19  31
TORSDOF 10
ENDMDL
MODEL 5
REMARK minimizedAffinity -6.46233082
REMARK CNNscore 0.293411732
REMARK CNNaffinity 5.5573802
REMARK  10 active torsions:
REMARK  status: ('A' for Active; 'I' for Inactive)
REMARK    1  A    between atoms: C14_14  and  C15_15 
REMARK    2  A    between atoms: C15_15  and  C17_17 
REMARK    3  A    between atoms: C17_17  and  C18_18 
REMARK    4  A    between atoms: C18_18  and  C19_19 
REMARK    5  A    between atoms: C20_20  and  C22_22 
REMARK    6  A    between atoms: C22_22  and  O2_24 
REMARK    7  A    between atoms: C27_29  and  C28_30 
REMARK    8  A    between atoms: C28_30  and  C29_31 
REMARK    9  A    between atoms: C29_31  and  C30_32 
REMARK   10  A    between atoms: C30_32  and  O4_34 
ROOT
HETATM    1  C1  UNL     1      -4.104  46.559 -32.454  1.00  0.00     0.043 C 
HETATM    2  C2  UNL     1      -5.203  45.512 -32.468  1.00  0.00    -0.085 C 
HETATM    3  C3  UNL     1      -4.624  44.132 -32.291  1.00  0.00     0.043 C 
HETATM    4  C4  UNL     1      -6.521  45.837 -32.573  1.00  0.00    -0.073 C 
HETATM    5  C5  UNL     1      -6.928  47.297 -32.417  1.00  0.00     0.035 C 
HETATM    6  C6  UNL     1      -8.392  47.498 -32.029  1.00  0.00     0.010 C 
HETATM    7  C7  UNL     1      -8.921  46.472 -30.989  1.00  0.00     0.003 C 
HETATM    8  C8  UNL     1      -8.564  44.944 -31.353  1.00  0.00    -0.032 C 
HETATM    9  C9  UNL     1      -7.652  44.308 -30.267  1.00  0.00     0.016 C 
HETATM   10  C10 UNL     1      -9.839  44.041 -31.415  1.00  0.00     0.011 C 
HETATM   11  C11 UNL     1     -10.936  44.246 -30.347  1.00  0.00     0.011 C 
HETATM   12  C12 UNL     1     -10.980  45.635 -29.685  1.00  0.00    -0.032 C 
HETATM   13  C13 UNL     1     -10.171  45.603 -28.358  1.00  0.00     0.016 C 
HETATM   14  C14 UNL     1     -12.409  46.194 -29.361  1.00  0.00    -0.002 C 
HETATM   15  C23 UNL     1     -12.195  47.735 -29.351  1.00  0.00     0.006 C 
HETATM   16  C24 UNL     1     -10.806  48.003 -29.970  1.00  0.00     0.011 C 
HETATM   17  C25 UNL     1     -10.450  46.699 -30.712  1.00  0.00    -0.032 C 
HETATM   18  C26 UNL     1     -11.235  46.756 -32.070  1.00  0.00     0.016 C 
HETATM   19  C27 UNL     1      -7.762  44.928 -32.727  1.00  0.00     0.024 C 
ENDROOT
BRANCH  14  20
HETATM   20  C15 UNL     1     -13.301  45.655 -28.197  1.00  0.00    -0.014 C 
HETATM   21  C16 UNL     1     -13.834  46.807 -27.336  1.00  0.00     0.010 C 
BRANCH  20  22
HETATM   22  C17 UNL     1     -14.445  44.680 -28.567  1.00  0.00     0.008 C 
BRANCH  22  23
HETATM   23  C18 UNL     1     -15.718  44.822 -27.714  1.00  0.00     0.028 C 
BRANCH  23  24
HETATM   24  C19 UNL     1     -16.933  44.221 -28.366  1.00  0.00    -0.013 C 
HETATM   25  C20 UNL     1     -18.211  44.264 -27.940  1.00  0.00     0.008 C 
HETATM   26  C21 UNL     1     -18.710  44.928 -26.692  1.00  0.00     0.055 C 
BRANCH  25  27
HETATM   27  C22 UNL     1     -19.215  43.577 -28.797  1.00  0.00     0.171 C 
HETATM   28  O1  UNL     1     -20.039  42.754 -28.441  1.00  0.00    -0.646 OA
BRANCH  27  29
HETATM   29  O2  UNL     1     -19.141  43.962 -30.081  1.00  0.00    -0.773 OA
HETATM   30  H35 UNL     1     -19.847  43.441 -30.515  1.00  0.00     0.167 HD
ENDBRANCH  27  29
ENDBRANCH  25  27
ENDBRANCH  23  24
ENDBRANCH  22  23
ENDBRANCH  20  22
ENDBRANCH  14  20
BRANCH  19  31
HETATM   31  C28 UNL     1      -7.579  43.548 -33.420  1.00  0.00     0.020 C 
BRANCH  31  32
HETATM   32  C29 UNL     1      -7.740  42.360 -32.465  1.00  0.00     0.110 C 
BRANCH  32  33
HETATM   33  C30 UNL     1      -6.749  41.251 -32.664  1.00  0.00     0.139 C 
HETATM   34  O3  UNL     1      -6.130  41.011 -33.688  1.00  0.00    -0.650 OA
BRANCH  33  35
HETATM   35  O4  UNL     1      -6.604  40.475 -31.575  1.00  0.00    -0.776 OA
HETATM   36  H48 UNL     1      -5.918  39.829 -31.846  1.00  0.00     0.167 HD
ENDBRANCH  33  35
ENDBRANCH  32  33
ENDBRANCH  31  32
ENDBRANCH  19  31
TORSDOF 10
ENDMDL
MODEL 6
REMARK minimizedAffinity -8.99067402
REMARK CNNscore 0.235864937
REMARK CNNaffinity 6.70626831
REMARK  10 active torsions:
REMARK  status: ('A' for Active; 'I' for Inactive)
REMARK    1  A    between atoms: C14_14  and  C15_15 
REMARK    2  A    between atoms: C15_15  and  C17_17 
REMARK    3  A    between atoms: C17_17  and  C18_18 
REMARK    4  A    between atoms: C18_18  and  C19_19 
REMARK    5  A    between atoms: C20_20  and  C22_22 
REMARK    6  A    between atoms: C22_22  and  O2_24 
REMARK    7  A    between atoms: C27_29  and  C28_30 
REMARK    8  A    between atoms: C28_30  and  C29_31 
REMARK    9  A    between atoms: C29_31  and  C30_32 
REMARK   10  A    between atoms: C30_32  and  O4_34 
ROOT
HETATM    1  C1  UNL     1      -8.711  47.730 -21.848  1.00  0.00     0.043 C 
HETATM    2  C2  UNL     1      -7.635  48.139 -22.838  1.00  0.00    -0.085 C 
HETATM    3  C3  UNL     1      -8.238  48.885 -24.000  1.00  0.00     0.043 C 
HETATM    4  C4  UNL     1      -6.314  47.887 -22.627  1.00  0.00    -0.073 C 
HETATM    5  C5  UNL     1      -5.871  47.413 -21.248  1.00  0.00     0.035 C 
HETATM    6  C6  UNL     1      -4.394  47.659 -20.949  1.00  0.00     0.010 C 
HETATM    7  C7  UNL     1      -3.860  49.025 -21.462  1.00  0.00     0.003 C 
HETATM    8  C8  UNL     1      -4.258  49.338 -22.991  1.00  0.00    -0.032 C 
HETATM    9  C9  UNL     1      -5.156  50.605 -23.087  1.00  0.00     0.016 C 
HETATM   10  C10 UNL     1      -3.006  49.641 -23.875  1.00  0.00     0.011 C 
HETATM   11  C11 UNL     1      -1.876  50.509 -23.276  1.00  0.00     0.011 C 
HETATM   12  C12 UNL     1      -1.786  50.529 -21.740  1.00  0.00    -0.032 C 
HETATM   13  C13 UNL     1      -2.560  51.759 -21.190  1.00  0.00     0.016 C 
HETATM   14  C14 UNL     1      -0.337  50.568 -21.140  1.00  0.00    -0.002 C 
HETATM   15  C23 UNL     1      -0.518  49.935 -19.729  1.00  0.00     0.006 C 
HETATM   16  C24 UNL     1      -1.917  49.282 -19.703  1.00  0.00     0.011 C 
HETATM   17  C25 UNL     1      -2.320  49.159 -21.186  1.00  0.00    -0.032 C 
HETATM   18  C26 UNL     1      -1.569  47.889 -21.726  1.00  0.00     0.016 C 
HETATM   19  C27 UNL     1      -5.096  48.109 -23.555  1.00  0.00     0.024 C 
ENDROOT
BRANCH  14  20
HETATM   20  C15 UNL     1       0.574  51.836 -21.170  1.00  0.00    -0.014 C 
HETATM   21  C16 UNL     1       0.645  52.427 -22.584  1.00  0.00     0.010 C 
BRANCH  20  22
HETATM   22  C17 UNL     1       0.286  52.947 -20.132  1.00  0.00     0.008 C 
BRANCH  22  23
HETATM   23  C18 UNL     1       1.363  53.110 -19.043  1.00  0.00     0.028 C 
BRANCH  23  24
HETATM   24  C19 UNL     1       0.929  52.583 -17.704  1.00  0.00    -0.013 C 
HETATM   25  C20 UNL     1       1.677  52.417 -16.594  1.00  0.00     0.008 C 
HETATM   26  C21 UNL     1       3.138  52.722 -16.455  1.00  0.00     0.055 C 
BRANCH  25  27
HETATM   27  C22 UNL     1       0.975  51.873 -15.401  1.00  0.00     0.171 C 
HETATM   28  O1  UNL     1       0.524  50.749 -15.267  1.00  0.00    -0.646 OA
BRANCH  27  29
HETATM   29  O2  UNL     1       0.871  52.776 -14.412  1.00  0.00    -0.773 OA
HETATM   30  H35 UNL     1       0.400  52.285 -13.707  1.00  0.00     0.167 HD
ENDBRANCH  27  29
ENDBRANCH  25  27
ENDBRANCH  23  24
ENDBRANCH  22  23
ENDBRANCH  20  22
ENDBRANCH  14  20
BRANCH  19  31
HETATM   31  C28 UNL     1      -5.327  48.059 -25.091  1.00  0.00     0.020 C 
BRANCH  31  32
HETATM   32  C29 UNL     1      -4.072  48.394 -25.907  1.00  0.00     0.110 C 
BRANCH  32  33
HETATM   33  C30 UNL     1      -4.275  48.422 -27.394  1.00  0.00     0.139 C 
HETATM   34  O3  UNL     1      -3.408  48.588 -28.237  1.00  0.00    -0.650 OA
BRANCH  33  35
HETATM   35  O4  UNL     1      -5.563  48.271 -27.750  1.00  0.00    -0.776 OA
HETATM   36  H48 UNL     1      -5.530  48.282 -28.730  1.00  0.00     0.167 HD
ENDBRANCH  33  35
ENDBRANCH  32  33
ENDBRANCH  31  32
ENDBRANCH  19  31
TORSDOF 10
ENDMDL
MODEL 7
REMARK minimizedAffinity -8.64753532
REMARK CNNscore 0.213641822
REMARK CNNaffinity 6.46558428
REMARK  10 active torsions:
REMARK  status: ('A' for Active; 'I' for Inactive)
REMARK    1  A    between atoms: C14_14  and  C15_15 
REMARK    2  A    between atoms: C15_15  and  C17_17 
REMARK    3  A    between atoms: C17_17  and  C18_18 
REMARK    4  A    between atoms: C18_18  and  C19_19 
REMARK    5  A    between atoms: C20_20  and  C22_22 
REMARK    6  A    between atoms: C22_22  and  O2_24 
REMARK    7  A    between atoms: C27_29  and  C28_30 
REMARK    8  A    between atoms: C28_30  and  C29_31 
REMARK    9  A    between atoms: C29_31  and  C30_32 
REMARK   10  A    between atoms: C30_32  and  O4_34 
ROOT
HETATM    1  C1  UNL     1      -4.510  49.682 -26.146  1.00  0.00     0.043 C 
HETATM    2  C2  UNL     1      -3.323  50.432 -25.570  1.00  0.00    -0.085 C 
HETATM    3  C3  UNL     1      -3.232  51.816 -26.159  1.00  0.00     0.043 C 
HETATM    4  C4  UNL     1      -2.516  49.897 -24.613  1.00  0.00    -0.073 C 
HETATM    5  C5  UNL     1      -2.959  48.618 -23.915  1.00  0.00     0.035 C 
HETATM    6  C6  UNL     1      -2.302  48.390 -22.554  1.00  0.00     0.010 C 
HETATM    7  C7  UNL     1      -2.148  49.678 -21.699  1.00  0.00     0.003 C 
HETATM    8  C8  UNL     1      -1.516  50.918 -22.510  1.00  0.00    -0.032 C 
HETATM    9  C9  UNL     1      -2.520  52.103 -22.595  1.00  0.00     0.016 C 
HETATM   10  C10 UNL     1      -0.243  51.493 -21.808  1.00  0.00     0.011 C 
HETATM   11  C11 UNL     1      -0.249  51.621 -20.268  1.00  0.00     0.011 C 
HETATM   12  C12 UNL     1      -1.214  50.685 -19.519  1.00  0.00    -0.032 C 
HETATM   13  C13 UNL     1      -2.552  51.428 -19.246  1.00  0.00     0.016 C 
HETATM   14  C14 UNL     1      -0.694  50.119 -18.152  1.00  0.00    -0.002 C 
HETATM   15  C23 UNL     1      -1.497  48.796 -17.985  1.00  0.00     0.006 C 
HETATM   16  C24 UNL     1      -2.161  48.495 -19.346  1.00  0.00     0.011 C 
HETATM   17  C25 UNL     1      -1.392  49.369 -20.358  1.00  0.00    -0.032 C 
HETATM   18  C26 UNL     1      -0.062  48.593 -20.663  1.00  0.00     0.016 C 
HETATM   19  C27 UNL     1      -1.206  50.442 -23.996  1.00  0.00     0.024 C 
ENDROOT
BRANCH  14  20
HETATM   20  C15 UNL     1      -0.579  50.977 -16.852  1.00  0.00    -0.014 C 
HETATM   21  C16 UNL     1      -1.216  50.253 -15.659  1.00  0.00     0.010 C 
BRANCH  20  22
HETATM   22  C17 UNL     1       0.821  51.518 -16.474  1.00  0.00     0.008 C 
BRANCH  22  23
HETATM   23  C18 UNL     1       0.938  52.064 -15.039  1.00  0.00     0.028 C 
BRANCH  23  24
HETATM   24  C19 UNL     1       1.917  51.296 -14.196  1.00  0.00    -0.013 C 
HETATM   25  C20 UNL     1       3.256  51.220 -14.338  1.00  0.00     0.008 C 
HETATM   26  C21 UNL     1       4.076  51.894 -15.397  1.00  0.00     0.055 C 
BRANCH  25  27
HETATM   27  C22 UNL     1       3.977  50.379 -13.346  1.00  0.00     0.171 C 
HETATM   28  O1  UNL     1       3.811  50.366 -12.139  1.00  0.00    -0.646 OA
BRANCH  27  29
HETATM   29  O2  UNL     1       4.889  49.577 -13.921  1.00  0.00    -0.773 OA
HETATM   30  H35 UNL     1       5.273  49.091 -13.163  1.00  0.00     0.167 HD
ENDBRANCH  27  29
ENDBRANCH  25  27
ENDBRANCH  23  24
ENDBRANCH  22  23
ENDBRANCH  20  22
ENDBRANCH  14  20
BRANCH  19  31
HETATM   31  C28 UNL     1      -0.319  51.377 -24.866  1.00  0.00     0.020 C 
BRANCH  31  32
HETATM   32  C29 UNL     1      -0.595  52.868 -24.634  1.00  0.00     0.110 C 
BRANCH  32  33
HETATM   33  C30 UNL     1       0.181  53.798 -25.518  1.00  0.00     0.139 C 
HETATM   34  O3  UNL     1       0.183  55.017 -25.459  1.00  0.00    -0.650 OA
BRANCH  33  35
HETATM   35  O4  UNL     1       0.898  53.154 -26.457  1.00  0.00    -0.776 OA
HETATM   36  H48 UNL     1       1.362  53.879 -26.926  1.00  0.00     0.167 HD
ENDBRANCH  33  35
ENDBRANCH  32  33
ENDBRANCH  31  32
ENDBRANCH  19  31
TORSDOF 10
ENDMDL
MODEL 8
REMARK minimizedAffinity -7.49757433
REMARK CNNscore 0.201954886
REMARK CNNaffinity 6.51052904
REMARK  10 active torsions:
REMARK  status: ('A' for Active; 'I' for Inactive)
REMARK    1  A    between atoms: C14_14  and  C15_15 
REMARK    2  A    between atoms: C15_15  and  C17_17 
REMARK    3  A    between atoms: C17_17  and  C18_18 
REMARK    4  A    between atoms: C18_18  and  C19_19 
REMARK    5  A    between atoms: C20_20  and  C22_22 
REMARK    6  A    between atoms: C22_22  and  O2_24 
REMARK    7  A    between atoms: C27_29  and  C28_30 
REMARK    8  A    between atoms: C28_30  and  C29_31 
REMARK    9  A    between atoms: C29_31  and  C30_32 
REMARK   10  A    between atoms: C30_32  and  O4_34 
ROOT
HETATM    1  C1  UNL     1       2.229  51.757 -25.904  1.00  0.00     0.043 C 
HETATM    2  C2  UNL     1       0.763  51.655 -26.285  1.00  0.00    -0.085 C 
HETATM    3  C3  UNL     1       0.615  51.144 -27.695  1.00  0.00     0.043 C 
HETATM    4  C4  UNL     1      -0.241  51.947 -25.412  1.00  0.00    -0.073 C 
HETATM    5  C5  UNL     1       0.102  52.134 -23.939  1.00  0.00     0.035 C 
HETATM    6  C6  UNL     1      -1.080  51.933 -22.993  1.00  0.00     0.010 C 
HETATM    7  C7  UNL     1      -2.016  50.757 -23.386  1.00  0.00     0.003 C 
HETATM    8  C8  UNL     1      -2.440  50.762 -24.940  1.00  0.00    -0.032 C 
HETATM    9  C9  UNL     1      -1.922  49.488 -25.665  1.00  0.00     0.016 C 
HETATM   10  C10 UNL     1      -3.992  50.752 -25.126  1.00  0.00     0.011 C 
HETATM   11  C11 UNL     1      -4.837  49.856 -24.194  1.00  0.00     0.011 C 
HETATM   12  C12 UNL     1      -4.199  49.502 -22.839  1.00  0.00    -0.032 C 
HETATM   13  C13 UNL     1      -3.479  48.129 -22.946  1.00  0.00     0.016 C 
HETATM   14  C14 UNL     1      -5.181  49.434 -21.618  1.00  0.00    -0.002 C 
HETATM   15  C23 UNL     1      -4.256  49.724 -20.400  1.00  0.00     0.006 C 
HETATM   16  C24 UNL     1      -2.920  50.255 -20.963  1.00  0.00     0.011 C 
HETATM   17  C25 UNL     1      -3.244  50.674 -22.412  1.00  0.00    -0.032 C 
HETATM   18  C26 UNL     1      -3.932  52.082 -22.301  1.00  0.00     0.016 C 
HETATM   19  C27 UNL     1      -1.769  52.022 -25.640  1.00  0.00     0.024 C 
ENDROOT
BRANCH  14  20
HETATM   20  C15 UNL     1      -6.201  48.272 -21.396  1.00  0.00    -0.014 C 
HETATM   21  C16 UNL     1      -5.760  47.370 -20.236  1.00  0.00     0.010 C 
BRANCH  20  22
HETATM   22  C17 UNL     1      -7.695  48.650 -21.252  1.00  0.00     0.008 C 
BRANCH  22  23
HETATM   23  C18 UNL     1      -8.151  48.951 -19.813  1.00  0.00     0.028 C 
BRANCH  23  24
HETATM   24  C19 UNL     1      -9.545  48.465 -19.525  1.00  0.00    -0.013 C 
HETATM   25  C20 UNL     1     -10.003  47.873 -18.403  1.00  0.00     0.008 C 
HETATM   26  C21 UNL     1      -9.202  47.555 -17.176  1.00  0.00     0.055 C 
BRANCH  25  27
HETATM   27  C22 UNL     1     -11.441  47.497 -18.397  1.00  0.00     0.171 C 
HETATM   28  O1  UNL     1     -12.323  47.964 -19.097  1.00  0.00    -0.646 OA
BRANCH  27  29
HETATM   29  O2  UNL     1     -11.716  46.535 -17.501  1.00  0.00    -0.773 OA
HETATM   30  H35 UNL     1     -12.678  46.392 -17.610  1.00  0.00     0.167 HD
ENDBRANCH  27  29
ENDBRANCH  25  27
ENDBRANCH  23  24
ENDBRANCH  22  23
ENDBRANCH  20  22
ENDBRANCH  14  20
BRANCH  19  31
HETATM   31  C28 UNL     1      -2.280  52.395 -27.060  1.00  0.00     0.020 C 
BRANCH  31  32
HETATM   32  C29 UNL     1      -1.217  53.074 -27.933  1.00  0.00     0.110 C 
BRANCH  32  33
HETATM   33  C30 UNL     1      -1.279  54.573 -27.952  1.00  0.00     0.139 C 
HETATM   34  O3  UNL     1      -2.090  55.254 -28.558  1.00  0.00    -0.650 OA
BRANCH  33  35
HETATM   35  O4  UNL     1      -0.299  55.147 -27.231  1.00  0.00    -0.776 OA
HETATM   36  H48 UNL     1      -0.488  56.106 -27.316  1.00  0.00     0.167 HD
ENDBRANCH  33  35
ENDBRANCH  32  33
ENDBRANCH  31  32
ENDBRANCH  19  31
TORSDOF 10
ENDMDL
MODEL 9
REMARK minimizedAffinity -6.75445795
REMARK CNNscore 0.183243617
REMARK CNNaffinity 4.90900755
REMARK  10 active torsions:
REMARK  status: ('A' for Active; 'I' for Inactive)
REMARK    1  A    between atoms: C14_14  and  C15_15 
REMARK    2  A    between atoms: C15_15  and  C17_17 
REMARK    3  A    between atoms: C17_17  and  C18_18 
REMARK    4  A    between atoms: C18_18  and  C19_19 
REMARK    5  A    between atoms: C20_20  and  C22_22 
REMARK    6  A    between atoms: C22_22  and  O2_24 
REMARK    7  A    between atoms: C27_29  and  C28_30 
REMARK    8  A    between atoms: C28_30  and  C29_31 
REMARK    9  A    between atoms: C29_31  and  C30_32 
REMARK   10  A    between atoms: C30_32  and  O4_34 
ROOT
HETATM    1  C1  UNL     1     -19.218  43.652 -18.103  1.00  0.00     0.043 C 
HETATM    2  C2  UNL     1     -18.045  44.325 -18.792  1.00  0.00    -0.085 C 
HETATM    3  C3  UNL     1     -16.764  44.055 -18.046  1.00  0.00     0.043 C 
HETATM    4  C4  UNL     1     -18.182  45.020 -19.955  1.00  0.00    -0.073 C 
HETATM    5  C5  UNL     1     -19.493  44.908 -20.723  1.00  0.00     0.035 C 
HETATM    6  C6  UNL     1     -19.380  45.264 -22.205  1.00  0.00     0.010 C 
HETATM    7  C7  UNL     1     -18.083  44.744 -22.886  1.00  0.00     0.003 C 
HETATM    8  C8  UNL     1     -16.744  45.068 -22.051  1.00  0.00    -0.032 C 
HETATM    9  C9  UNL     1     -16.032  43.760 -21.606  1.00  0.00     0.016 C 
HETATM   10  C10 UNL     1     -15.694  45.851 -22.904  1.00  0.00     0.011 C 
HETATM   11  C11 UNL     1     -15.492  45.438 -24.380  1.00  0.00     0.011 C 
HETATM   12  C12 UNL     1     -16.679  44.720 -25.046  1.00  0.00    -0.032 C 
HETATM   13  C13 UNL     1     -16.481  43.182 -24.943  1.00  0.00     0.016 C 
HETATM   14  C14 UNL     1     -16.930  45.070 -26.554  1.00  0.00    -0.002 C 
HETATM   15  C23 UNL     1     -18.447  44.773 -26.741  1.00  0.00     0.006 C 
HETATM   16  C24 UNL     1     -19.051  44.599 -25.331  1.00  0.00     0.011 C 
HETATM   17  C25 UNL     1     -18.009  45.223 -24.379  1.00  0.00    -0.032 C 
HETATM   18  C26 UNL     1     -18.243  46.774 -24.455  1.00  0.00     0.016 C 
HETATM   19  C27 UNL     1     -17.150  45.867 -20.737  1.00  0.00     0.024 C 
ENDROOT
BRANCH  14  20
HETATM   20  C15 UNL     1     -16.021  44.563 -27.719  1.00  0.00    -0.014 C 
HETATM   21  C16 UNL     1     -16.866  44.004 -28.871  1.00  0.00     0.010 C 
BRANCH  20  22
HETATM   22  C17 UNL     1     -14.944  45.535 -28.258  1.00  0.00     0.008 C 
BRANCH  22  23
HETATM   23  C18 UNL     1     -13.491  45.071 -28.048  1.00  0.00     0.028 C 
BRANCH  23  24
HETATM   24  C19 UNL     1     -12.609  46.145 -27.473  1.00  0.00    -0.013 C 
HETATM   25  C20 UNL     1     -12.088  47.218 -28.102  1.00  0.00     0.008 C 
HETATM   26  C21 UNL     1     -12.273  47.577 -29.546  1.00  0.00     0.055 C 
BRANCH  25  27
HETATM   27  C22 UNL     1     -11.246  48.122 -27.275  1.00  0.00     0.171 C 
HETATM   28  O1  UNL     1     -11.524  48.586 -26.183  1.00  0.00    -0.646 OA
BRANCH  27  29
HETATM   29  O2  UNL     1     -10.071  48.407 -27.861  1.00  0.00    -0.773 OA
HETATM   30  H35 UNL     1      -9.632  48.996 -27.214  1.00  0.00     0.167 HD
ENDBRANCH  27  29
ENDBRANCH  25  27
ENDBRANCH  23  24
ENDBRANCH  22  23
ENDBRANCH  20  22
ENDBRANCH  14  20
BRANCH  19  31
HETATM   31  C28 UNL     1     -16.000  46.542 -19.938  1.00  0.00     0.020 C 
BRANCH  31  32
HETATM   32  C29 UNL     1     -16.482  47.652 -18.996  1.00  0.00     0.110 C 
BRANCH  32  33
HETATM   33  C30 UNL     1     -15.392  48.369 -18.255  1.00  0.00     0.139 C 
HETATM   34  O3  UNL     1     -14.997  49.503 -18.472  1.00  0.00    -0.650 OA
BRANCH  33  35
HETATM   35  O4  UNL     1     -14.828  47.615 -17.294  1.00  0.00    -0.776 OA
HETATM   36  H48 UNL     1     -14.169  48.218 -16.889  1.00  0.00     0.167 HD
ENDBRANCH  33  35
ENDBRANCH  32  33
ENDBRANCH  31  32
ENDBRANCH  19  31
TORSDOF 10
ENDMDL
