MODEL 1
REMARK minimizedAffinity -6.90511036
REMARK CNNscore 0.695658207
REMARK CNNaffinity 6.82037115
REMARK  8 active torsions:
REMARK  status: ('A' for Active; 'I' for Inactive)
REMARK    1  A    between atoms: C2_2  and  C3_3 
REMARK    2  A    between atoms: C2_2  and  C5_6 
REMARK    3  A    between atoms: C3_3  and  C4_4 
REMARK    4  A    between atoms: C5_6  and  C6_7 
REMARK    5  A    between atoms: C6_7  and  C7_9 
REMARK    6  A    between atoms: C7_9  and  C8_10 
REMARK    7  A    between atoms: C8_10  and  C10_12 
REMARK    8  A    between atoms: C12_14  and  O3_15 
ROOT
HETATM    1  C10 UNL     1      -4.477  50.206 -21.900  1.00  0.00     0.002 C 
HETATM    2  C11 UNL     1      -4.120  50.712 -20.490  1.00  0.00     0.038 C 
HETATM    3  C12 UNL     1      -3.269  49.626 -19.847  1.00  0.00     0.132 C 
HETATM    4  C13 UNL     1      -3.734  48.286 -20.502  1.00  0.00     0.021 C 
HETATM    5  C14 UNL     1      -2.680  47.180 -20.291  1.00  0.00     0.024 C 
HETATM    6  C15 UNL     1      -5.108  47.803 -19.972  1.00  0.00     0.010 C 
HETATM    7  C16 UNL     1      -6.218  47.547 -20.708  1.00  0.00     0.007 C 
HETATM    8  C17 UNL     1      -6.077  47.617 -22.204  1.00  0.00     0.157 C 
HETATM    9  O4  UNL     1      -7.048  47.492 -22.947  1.00  0.00    -0.293 OA
HETATM   10  C18 UNL     1      -4.707  47.788 -22.803  1.00  0.00     0.094 C 
HETATM   11  C19 UNL     1      -3.829  48.767 -22.015  1.00  0.00    -0.019 C 
HETATM   12  C20 UNL     1      -2.457  48.787 -22.730  1.00  0.00     0.017 C 
HETATM   13  C21 UNL     1      -7.629  47.210 -20.141  1.00  0.00    -0.007 C 
HETATM   14  C22 UNL     1      -8.494  48.479 -20.361  1.00  0.00     0.021 C 
HETATM   15  C23 UNL     1      -8.299  46.007 -20.879  1.00  0.00     0.022 C 
HETATM   16  C24 UNL     1      -9.294  45.189 -20.053  1.00  0.00     0.080 C 
HETATM   17  C25 UNL     1      -9.891  45.981 -18.915  1.00  0.00     0.135 C 
HETATM   18  O5  UNL     1     -11.111  46.073 -18.780  1.00  0.00    -0.297 OA
HETATM   19  C26 UNL     1      -8.905  46.577 -17.904  1.00  0.00     0.018 C 
HETATM   20  C27 UNL     1      -9.505  47.839 -17.255  1.00  0.00     0.023 C 
HETATM   21  C28 UNL     1      -8.729  45.525 -16.788  1.00  0.00     0.023 C 
HETATM   22  C29 UNL     1      -7.537  46.816 -18.623  1.00  0.00     0.021 C 
HETATM   23  C30 UNL     1      -6.603  47.770 -17.884  1.00  0.00     0.090 C 
HETATM   24  C31 UNL     1      -5.244  47.566 -18.492  1.00  0.00     0.157 C 
HETATM   25  O6  UNL     1      -4.322  47.126 -17.811  1.00  0.00    -0.293 OA
ENDROOT
BRANCH   1  26
HETATM   26  C8  UNL     1      -4.279  51.306 -22.982  1.00  0.00    -0.007 C 
HETATM   27  C9  UNL     1      -5.559  51.585 -23.776  1.00  0.00     0.011 C 
BRANCH  26  28
HETATM   28  C7  UNL     1      -3.080  51.113 -23.929  1.00  0.00     0.083 C 
BRANCH  28  29
HETATM   29  C6  UNL     1      -2.098  52.266 -23.817  1.00  0.00     0.127 C 
HETATM   30  O2  UNL     1      -1.875  52.988 -24.789  1.00  0.00    -0.298 OA
BRANCH  29  31
HETATM   31  C5  UNL     1      -1.456  52.498 -22.456  1.00  0.00     0.082 C 
BRANCH  31  32
HETATM   32  C2  UNL     1      -0.101  51.814 -22.183  1.00  0.00    -0.005 C 
HETATM   33  C1  UNL     1      -0.105  50.875 -20.975  1.00  0.00     0.011 C 
BRANCH  32  34
HETATM   34  C3  UNL     1       1.092  52.781 -22.167  1.00  0.00     0.074 C 
BRANCH  34  35
HETATM   35  C4  UNL     1       1.576  53.159 -20.792  1.00  0.00     0.231 C 
HETATM   36  O1  UNL     1       1.678  54.329 -20.434  1.00  0.00    -0.307 OA
ENDBRANCH  34  35
ENDBRANCH  32  34
ENDBRANCH  31  32
ENDBRANCH  29  31
ENDBRANCH  28  29
ENDBRANCH  26  28
ENDBRANCH   1  26
BRANCH   3  37
HETATM   37  O3  UNL     1      -3.389  49.689 -18.442  1.00  0.00    -0.394 OA
HETATM   38  H20 UNL     1      -3.003  50.528 -18.142  1.00  0.00     0.210 HD
ENDBRANCH   3  37
TORSDOF 8
ENDMDL
MODEL 2
REMARK minimizedAffinity -7.10252285
REMARK CNNscore 0.640461504
REMARK CNNaffinity 6.98059797
REMARK  8 active torsions:
REMARK  status: ('A' for Active; 'I' for Inactive)
REMARK    1  A    between atoms: C2_2  and  C3_3 
REMARK    2  A    between atoms: C2_2  and  C5_6 
REMARK    3  A    between atoms: C3_3  and  C4_4 
REMARK    4  A    between atoms: C5_6  and  C6_7 
REMARK    5  A    between atoms: C6_7  and  C7_9 
REMARK    6  A    between atoms: C7_9  and  C8_10 
REMARK    7  A    between atoms: C8_10  and  C10_12 
REMARK    8  A    between atoms: C12_14  and  O3_15 
ROOT
HETATM    1  C10 UNL     1       0.463  54.807  -8.623  1.00  0.00     0.002 C 
HETATM    2  C11 UNL     1      -0.461  55.331  -9.740  1.00  0.00     0.038 C 
HETATM    3  C12 UNL     1      -1.628  54.357  -9.822  1.00  0.00     0.132 C 
HETATM    4  C13 UNL     1      -1.059  52.980  -9.354  1.00  0.00     0.021 C 
HETATM    5  C14 UNL     1      -2.203  52.022  -8.959  1.00  0.00     0.024 C 
HETATM    6  C15 UNL     1      -0.163  52.305 -10.423  1.00  0.00     0.010 C 
HETATM    7  C16 UNL     1       1.128  51.915 -10.272  1.00  0.00     0.007 C 
HETATM    8  C17 UNL     1       1.720  52.033  -8.894  1.00  0.00     0.157 C 
HETATM    9  O4  UNL     1       2.906  51.792  -8.682  1.00  0.00    -0.293 OA
HETATM   10  C18 UNL     1       0.824  52.399  -7.740  1.00  0.00     0.094 C 
HETATM   11  C19 UNL     1      -0.208  53.472  -8.104  1.00  0.00    -0.019 C 
HETATM   12  C20 UNL     1      -1.067  53.690  -6.836  1.00  0.00     0.017 C 
HETATM   13  C21 UNL     1       2.056  51.380 -11.402  1.00  0.00    -0.007 C 
HETATM   14  C22 UNL     1       3.056  52.525 -11.714  1.00  0.00     0.021 C 
HETATM   15  C23 UNL     1       2.858  50.113 -10.968  1.00  0.00     0.022 C 
HETATM   16  C24 UNL     1       3.247  49.152 -12.093  1.00  0.00     0.080 C 
HETATM   17  C25 UNL     1       3.319  49.834 -13.438  1.00  0.00     0.135 C 
HETATM   18  O5  UNL     1       4.331  49.758 -14.133  1.00  0.00    -0.297 OA
HETATM   19  C26 UNL     1       2.044  50.539 -13.917  1.00  0.00     0.018 C 
HETATM   20  C27 UNL     1       2.400  51.695 -14.870  1.00  0.00     0.023 C 
HETATM   21  C28 UNL     1       1.247  49.499 -14.733  1.00  0.00     0.023 C 
HETATM   22  C29 UNL     1       1.214  50.974 -12.664  1.00  0.00     0.021 C 
HETATM   23  C30 UNL     1       0.154  52.031 -12.957  1.00  0.00     0.090 C 
HETATM   24  C31 UNL     1      -0.770  52.024 -11.771  1.00  0.00     0.157 C 
HETATM   25  O6  UNL     1      -1.946  51.699 -11.905  1.00  0.00    -0.293 OA
ENDROOT
BRANCH   1  26
HETATM   26  C8  UNL     1       0.922  55.945  -7.667  1.00  0.00    -0.007 C 
HETATM   27  C9  UNL     1      -0.167  56.999  -7.443  1.00  0.00     0.011 C 
BRANCH  26  28
HETATM   28  C7  UNL     1       2.266  56.613  -8.010  1.00  0.00     0.083 C 
BRANCH  28  29
HETATM   29  C6  UNL     1       3.436  55.704  -7.673  1.00  0.00     0.127 C 
HETATM   30  O2  UNL     1       3.271  54.724  -6.946  1.00  0.00    -0.298 OA
BRANCH  29  31
HETATM   31  C5  UNL     1       4.779  56.043  -8.305  1.00  0.00     0.082 C 
BRANCH  31  32
HETATM   32  C2  UNL     1       5.055  55.502  -9.721  1.00  0.00    -0.005 C 
HETATM   33  C1  UNL     1       3.985  55.868 -10.752  1.00  0.00     0.011 C 
BRANCH  32  34
HETATM   34  C3  UNL     1       5.415  54.009  -9.758  1.00  0.00     0.074 C 
BRANCH  34  35
HETATM   35  C4  UNL     1       6.686  53.652  -9.032  1.00  0.00     0.231 C 
HETATM   36  O1  UNL     1       7.191  52.536  -9.110  1.00  0.00    -0.307 OA
ENDBRANCH  34  35
ENDBRANCH  32  34
ENDBRANCH  31  32
ENDBRANCH  29  31
ENDBRANCH  28  29
ENDBRANCH  26  28
ENDBRANCH   1  26
BRANCH   3  37
HETATM   37  O3  UNL     1      -2.181  54.376 -11.121  1.00  0.00    -0.394 OA
HETATM   38  H20 UNL     1      -2.568  55.254 -11.273  1.00  0.00     0.210 HD
ENDBRANCH   3  37
TORSDOF 8
ENDMDL
MODEL 3
REMARK minimizedAffinity -7.59779072
REMARK CNNscore 0.58984375
REMARK CNNaffinity 6.98464346
REMARK  8 active torsions:
REMARK  status: ('A' for Active; 'I' for Inactive)
REMARK    1  A    between atoms: C2_2  and  C3_3 
REMARK    2  A    between atoms: C2_2  and  C5_6 
REMARK    3  A    between atoms: C3_3  and  C4_4 
REMARK    4  A    between atoms: C5_6  and  C6_7 
REMARK    5  A    between atoms: C6_7  and  C7_9 
REMARK    6  A    between atoms: C7_9  and  C8_10 
REMARK    7  A    between atoms: C8_10  and  C10_12 
REMARK    8  A    between atoms: C12_14  and  O3_15 
ROOT
HETATM    1  C10 UNL     1       2.798  51.535 -14.463  1.00  0.00     0.002 C 
HETATM    2  C11 UNL     1       4.243  51.029 -14.291  1.00  0.00     0.038 C 
HETATM    3  C12 UNL     1       4.170  49.835 -13.349  1.00  0.00     0.132 C 
HETATM    4  C13 UNL     1       2.929  50.096 -12.437  1.00  0.00     0.021 C 
HETATM    5  C14 UNL     1       2.470  48.792 -11.753  1.00  0.00     0.024 C 
HETATM    6  C15 UNL     1       3.190  51.182 -11.363  1.00  0.00     0.010 C 
HETATM    7  C16 UNL     1       2.486  52.327 -11.176  1.00  0.00     0.007 C 
HETATM    8  C17 UNL     1       1.250  52.512 -12.013  1.00  0.00     0.157 C 
HETATM    9  O4  UNL     1       0.603  53.556 -11.979  1.00  0.00    -0.293 OA
HETATM   10  C18 UNL     1       0.765  51.370 -12.866  1.00  0.00     0.094 C 
HETATM   11  C19 UNL     1       1.906  50.605 -13.544  1.00  0.00    -0.019 C 
HETATM   12  C20 UNL     1       1.244  49.450 -14.330  1.00  0.00     0.017 C 
HETATM   13  C21 UNL     1       2.858  53.474 -10.192  1.00  0.00    -0.007 C 
HETATM   14  C22 UNL     1       3.387  54.639 -11.071  1.00  0.00     0.021 C 
HETATM   15  C23 UNL     1       1.630  53.979  -9.370  1.00  0.00     0.022 C 
HETATM   16  C24 UNL     1       1.945  54.566  -7.992  1.00  0.00     0.080 C 
HETATM   17  C25 UNL     1       3.359  55.090  -7.896  1.00  0.00     0.135 C 
HETATM   18  O5  UNL     1       3.582  56.244  -7.533  1.00  0.00    -0.297 OA
HETATM   19  C26 UNL     1       4.481  54.087  -8.187  1.00  0.00     0.018 C 
HETATM   20  C27 UNL     1       5.729  54.822  -8.713  1.00  0.00     0.023 C 
HETATM   21  C28 UNL     1       4.861  53.448  -6.833  1.00  0.00     0.023 C 
HETATM   22  C29 UNL     1       3.931  52.988  -9.153  1.00  0.00     0.021 C 
HETATM   23  C30 UNL     1       5.015  52.174  -9.852  1.00  0.00     0.090 C 
HETATM   24  C31 UNL     1       4.325  50.956 -10.400  1.00  0.00     0.157 C 
HETATM   25  O6  UNL     1       4.623  49.839  -9.988  1.00  0.00    -0.293 OA
ENDROOT
BRANCH   1  26
HETATM   26  C8  UNL     1       2.454  51.823 -15.952  1.00  0.00    -0.007 C 
HETATM   27  C9  UNL     1       3.472  52.755 -16.619  1.00  0.00     0.011 C 
BRANCH  26  28
HETATM   28  C7  UNL     1       1.016  52.294 -16.234  1.00  0.00     0.083 C 
BRANCH  28  29
HETATM   29  C6  UNL     1       0.448  51.623 -17.473  1.00  0.00     0.127 C 
HETATM   30  O2  UNL     1       0.360  50.397 -17.530  1.00  0.00    -0.298 OA
BRANCH  29  31
HETATM   31  C5  UNL     1      -0.033  52.536 -18.593  1.00  0.00     0.082 C 
BRANCH  31  32
HETATM   32  C2  UNL     1       0.791  52.558 -19.896  1.00  0.00    -0.005 C 
HETATM   33  C1  UNL     1       1.101  53.963 -20.417  1.00  0.00     0.011 C 
BRANCH  32  34
HETATM   34  C3  UNL     1       0.243  51.635 -20.994  1.00  0.00     0.074 C 
BRANCH  34  35
HETATM   35  C4  UNL     1      -1.215  51.833 -21.312  1.00  0.00     0.231 C 
HETATM   36  O1  UNL     1      -1.597  52.222 -22.412  1.00  0.00    -0.307 OA
ENDBRANCH  34  35
ENDBRANCH  32  34
ENDBRANCH  31  32
ENDBRANCH  29  31
ENDBRANCH  28  29
ENDBRANCH  26  28
ENDBRANCH   1  26
BRANCH   3  37
HETATM   37  O3  UNL     1       5.399  49.680 -12.672  1.00  0.00    -0.394 OA
HETATM   38  H20 UNL     1       6.079  49.448 -13.327  1.00  0.00     0.210 HD
ENDBRANCH   3  37
TORSDOF 8
ENDMDL
MODEL 4
REMARK minimizedAffinity -6.63430977
REMARK CNNscore 0.575933516
REMARK CNNaffinity 6.5091424
REMARK  8 active torsions:
REMARK  status: ('A' for Active; 'I' for Inactive)
REMARK    1  A    between atoms: C2_2  and  C3_3 
REMARK    2  A    between atoms: C2_2  and  C5_6 
REMARK    3  A    between atoms: C3_3  and  C4_4 
REMARK    4  A    between atoms: C5_6  and  C6_7 
REMARK    5  A    between atoms: C6_7  and  C7_9 
REMARK    6  A    between atoms: C7_9  and  C8_10 
REMARK    7  A    between atoms: C8_10  and  C10_12 
REMARK    8  A    between atoms: C12_14  and  O3_15 
ROOT
HETATM    1  C10 UNL     1      -0.987  51.885 -11.837  1.00  0.00     0.002 C 
HETATM    2  C11 UNL     1       0.105  50.869 -11.453  1.00  0.00     0.038 C 
HETATM    3  C12 UNL     1      -0.318  50.269 -10.120  1.00  0.00     0.132 C 
HETATM    4  C13 UNL     1      -1.154  51.379  -9.407  1.00  0.00     0.021 C 
HETATM    5  C14 UNL     1      -2.010  50.775  -8.274  1.00  0.00     0.024 C 
HETATM    6  C15 UNL     1      -0.277  52.523  -8.840  1.00  0.00     0.010 C 
HETATM    7  C16 UNL     1      -0.377  53.844  -9.132  1.00  0.00     0.007 C 
HETATM    8  C17 UNL     1      -1.533  54.267  -9.997  1.00  0.00     0.157 C 
HETATM    9  O4  UNL     1      -1.651  55.425 -10.389  1.00  0.00    -0.293 OA
HETATM   10  C18 UNL     1      -2.596  53.259 -10.342  1.00  0.00     0.094 C 
HETATM   11  C19 UNL     1      -2.026  51.869 -10.644  1.00  0.00    -0.019 C 
HETATM   12  C20 UNL     1      -3.242  50.956 -10.925  1.00  0.00     0.017 C 
HETATM   13  C21 UNL     1       0.611  54.956  -8.671  1.00  0.00    -0.007 C 
HETATM   14  C22 UNL     1       1.436  55.345  -9.927  1.00  0.00     0.021 C 
HETATM   15  C23 UNL     1      -0.124  56.226  -8.137  1.00  0.00     0.022 C 
HETATM   16  C24 UNL     1       0.637  57.049  -7.095  1.00  0.00     0.080 C 
HETATM   17  C25 UNL     1       2.132  56.857  -7.186  1.00  0.00     0.135 C 
HETATM   18  O5  UNL     1       2.888  57.821  -7.301  1.00  0.00    -0.297 OA
HETATM   19  C26 UNL     1       2.648  55.421  -7.038  1.00  0.00     0.018 C 
HETATM   20  C27 UNL     1       3.983  55.254  -7.787  1.00  0.00     0.023 C 
HETATM   21  C28 UNL     1       2.934  55.209  -5.535  1.00  0.00     0.023 C 
HETATM   22  C29 UNL     1       1.525  54.437  -7.505  1.00  0.00     0.021 C 
HETATM   23  C30 UNL     1       2.021  53.026  -7.807  1.00  0.00     0.090 C 
HETATM   24  C31 UNL     1       0.793  52.160  -7.845  1.00  0.00     0.157 C 
HETATM   25  O6  UNL     1       0.644  51.262  -7.022  1.00  0.00    -0.293 OA
ENDROOT
BRANCH   1  26
HETATM   26  C8  UNL     1      -1.415  51.747 -13.326  1.00  0.00    -0.007 C 
HETATM   27  C9  UNL     1      -2.857  52.204 -13.567  1.00  0.00     0.011 C 
BRANCH  26  28
HETATM   28  C7  UNL     1      -1.161  50.373 -13.975  1.00  0.00     0.083 C 
BRANCH  28  29
HETATM   29  C6  UNL     1      -0.302  50.502 -15.221  1.00  0.00     0.127 C 
HETATM   30  O2  UNL     1      -0.816  50.792 -16.302  1.00  0.00    -0.298 OA
BRANCH  29  31
HETATM   31  C5  UNL     1       1.198  50.301 -15.050  1.00  0.00     0.082 C 
BRANCH  31  32
HETATM   32  C2  UNL     1       2.059  51.554 -14.800  1.00  0.00    -0.005 C 
HETATM   33  C1  UNL     1       2.535  52.252 -16.076  1.00  0.00     0.011 C 
BRANCH  32  34
HETATM   34  C3  UNL     1       3.199  51.336 -13.794  1.00  0.00     0.074 C 
BRANCH  34  35
HETATM   35  C4  UNL     1       3.665  49.909 -13.673  1.00  0.00     0.231 C 
HETATM   36  O1  UNL     1       4.840  49.590 -13.824  1.00  0.00    -0.307 OA
ENDBRANCH  34  35
ENDBRANCH  32  34
ENDBRANCH  31  32
ENDBRANCH  29  31
ENDBRANCH  28  29
ENDBRANCH  26  28
ENDBRANCH   1  26
BRANCH   3  37
HETATM   37  O3  UNL     1       0.818  49.817  -9.413  1.00  0.00    -0.394 OA
HETATM   38  H20 UNL     1       1.213  49.082  -9.911  1.00  0.00     0.210 HD
ENDBRANCH   3  37
TORSDOF 8
ENDMDL
MODEL 5
REMARK minimizedAffinity -7.36809063
REMARK CNNscore 0.525198221
REMARK CNNaffinity 6.09971285
REMARK  8 active torsions:
REMARK  status: ('A' for Active; 'I' for Inactive)
REMARK    1  A    between atoms: C2_2  and  C3_3 
REMARK    2  A    between atoms: C2_2  and  C5_6 
REMARK    3  A    between atoms: C3_3  and  C4_4 
REMARK    4  A    between atoms: C5_6  and  C6_7 
REMARK    5  A    between atoms: C6_7  and  C7_9 
REMARK    6  A    between atoms: C7_9  and  C8_10 
REMARK    7  A    between atoms: C8_10  and  C10_12 
REMARK    8  A    between atoms: C12_14  and  O3_15 
ROOT
HETATM    1  C10 UNL     1     -10.935  46.838 -26.201  1.00  0.00     0.002 C 
HETATM    2  C11 UNL     1     -10.402  48.128 -26.854  1.00  0.00     0.038 C 
HETATM    3  C12 UNL     1      -9.219  47.714 -27.716  1.00  0.00     0.132 C 
HETATM    4  C13 UNL     1      -8.622  46.445 -27.029  1.00  0.00     0.021 C 
HETATM    5  C14 UNL     1      -7.720  45.665 -28.009  1.00  0.00     0.024 C 
HETATM    6  C15 UNL     1      -7.824  46.777 -25.742  1.00  0.00     0.010 C 
HETATM    7  C16 UNL     1      -8.051  46.287 -24.497  1.00  0.00     0.007 C 
HETATM    8  C17 UNL     1      -9.102  45.220 -24.364  1.00  0.00     0.157 C 
HETATM    9  O4  UNL     1      -9.440  44.785 -23.265  1.00  0.00    -0.293 OA
HETATM   10  C18 UNL     1      -9.712  44.633 -25.609  1.00  0.00     0.094 C 
HETATM   11  C19 UNL     1      -9.976  45.680 -26.695  1.00  0.00    -0.019 C 
HETATM   12  C20 UNL     1     -10.549  44.910 -27.907  1.00  0.00     0.017 C 
HETATM   13  C21 UNL     1      -7.336  46.750 -23.193  1.00  0.00    -0.007 C 
HETATM   14  C22 UNL     1      -8.376  47.594 -22.410  1.00  0.00     0.021 C 
HETATM   15  C23 UNL     1      -6.884  45.550 -22.301  1.00  0.00     0.022 C 
HETATM   16  C24 UNL     1      -5.664  45.802 -21.412  1.00  0.00     0.080 C 
HETATM   17  C25 UNL     1      -5.466  47.267 -21.103  1.00  0.00     0.135 C 
HETATM   18  O5  UNL     1      -5.370  47.661 -19.942  1.00  0.00    -0.297 OA
HETATM   19  C26 UNL     1      -5.304  48.204 -22.306  1.00  0.00     0.018 C 
HETATM   20  C27 UNL     1      -5.780  49.623 -21.943  1.00  0.00     0.023 C 
HETATM   21  C28 UNL     1      -3.790  48.287 -22.598  1.00  0.00     0.023 C 
HETATM   22  C29 UNL     1      -6.044  47.575 -23.532  1.00  0.00     0.021 C 
HETATM   23  C30 UNL     1      -6.325  48.561 -24.662  1.00  0.00     0.090 C 
HETATM   24  C31 UNL     1      -6.659  47.722 -25.864  1.00  0.00     0.157 C 
HETATM   25  O6  UNL     1      -5.937  47.748 -26.856  1.00  0.00    -0.293 OA
ENDROOT
BRANCH   1  26
HETATM   26  C8  UNL     1     -12.485  46.740 -26.285  1.00  0.00    -0.007 C 
HETATM   27  C9  UNL     1     -13.083  47.738 -27.282  1.00  0.00     0.011 C 
BRANCH  26  28
HETATM   28  C7  UNL     1     -13.238  46.791 -24.943  1.00  0.00     0.083 C 
BRANCH  28  29
HETATM   29  C6  UNL     1     -14.702  46.426 -25.118  1.00  0.00     0.127 C 
HETATM   30  O2  UNL     1     -15.022  45.445 -25.790  1.00  0.00    -0.298 OA
BRANCH  29  31
HETATM   31  C5  UNL     1     -15.722  47.297 -24.396  1.00  0.00     0.082 C 
BRANCH  31  32
HETATM   32  C2  UNL     1     -16.477  46.670 -23.207  1.00  0.00    -0.005 C 
HETATM   33  C1  UNL     1     -15.714  45.547 -22.502  1.00  0.00     0.011 C 
BRANCH  32  34
HETATM   34  C3  UNL     1     -17.927  46.280 -23.527  1.00  0.00     0.074 C 
BRANCH  34  35
HETATM   35  C4  UNL     1     -18.570  47.094 -24.619  1.00  0.00     0.231 C 
HETATM   36  O1  UNL     1     -19.696  46.846 -25.042  1.00  0.00    -0.307 OA
ENDBRANCH  34  35
ENDBRANCH  32  34
ENDBRANCH  31  32
ENDBRANCH  29  31
ENDBRANCH  28  29
ENDBRANCH  26  28
ENDBRANCH   1  26
BRANCH   3  37
HETATM   37  O3  UNL     1      -8.328  48.800 -27.864  1.00  0.00    -0.394 OA
HETATM   38  H20 UNL     1      -8.780  49.497 -28.368  1.00  0.00     0.210 HD
ENDBRANCH   3  37
TORSDOF 8
ENDMDL
MODEL 6
REMARK minimizedAffinity -8.27952862
REMARK CNNscore 0.512637258
REMARK CNNaffinity 6.58412218
REMARK  8 active torsions:
REMARK  status: ('A' for Active; 'I' for Inactive)
REMARK    1  A    between atoms: C2_2  and  C3_3 
REMARK    2  A    between atoms: C2_2  and  C5_6 
REMARK    3  A    between atoms: C3_3  and  C4_4 
REMARK    4  A    between atoms: C5_6  and  C6_7 
REMARK    5  A    between atoms: C6_7  and  C7_9 
REMARK    6  A    between atoms: C7_9  and  C8_10 
REMARK    7  A    between atoms: C8_10  and  C10_12 
REMARK    8  A    between atoms: C12_14  and  O3_15 
ROOT
HETATM    1  C10 UNL     1      -2.835  50.362 -22.824  1.00  0.00     0.002 C 
HETATM    2  C11 UNL     1      -3.225  49.284 -23.854  1.00  0.00     0.038 C 
HETATM    3  C12 UNL     1      -4.744  49.301 -23.938  1.00  0.00     0.132 C 
HETATM    4  C13 UNL     1      -5.237  49.778 -22.534  1.00  0.00     0.021 C 
HETATM    5  C14 UNL     1      -6.698  50.268 -22.605  1.00  0.00     0.024 C 
HETATM    6  C15 UNL     1      -5.109  48.682 -21.447  1.00  0.00     0.010 C 
HETATM    7  C16 UNL     1      -4.422  48.770 -20.280  1.00  0.00     0.007 C 
HETATM    8  C17 UNL     1      -3.822  50.107 -19.941  1.00  0.00     0.157 C 
HETATM    9  O4  UNL     1      -3.106  50.257 -18.954  1.00  0.00    -0.293 OA
HETATM   10  C18 UNL     1      -4.153  51.298 -20.800  1.00  0.00     0.094 C 
HETATM   11  C19 UNL     1      -4.200  50.961 -22.295  1.00  0.00    -0.019 C 
HETATM   12  C20 UNL     1      -4.598  52.268 -23.019  1.00  0.00     0.017 C 
HETATM   13  C21 UNL     1      -4.181  47.606 -19.275  1.00  0.00    -0.007 C 
HETATM   14  C22 UNL     1      -2.692  47.201 -19.437  1.00  0.00     0.021 C 
HETATM   15  C23 UNL     1      -4.430  48.033 -17.794  1.00  0.00     0.022 C 
HETATM   16  C24 UNL     1      -4.871  46.918 -16.843  1.00  0.00     0.080 C 
HETATM   17  C25 UNL     1      -4.441  45.550 -17.316  1.00  0.00     0.135 C 
HETATM   18  O5  UNL     1      -3.797  44.801 -16.582  1.00  0.00    -0.297 OA
HETATM   19  C26 UNL     1      -4.922  45.124 -18.707  1.00  0.00     0.018 C 
HETATM   20  C27 UNL     1      -3.936  44.116 -19.327  1.00  0.00     0.023 C 
HETATM   21  C28 UNL     1      -6.264  44.388 -18.502  1.00  0.00     0.023 C 
HETATM   22  C29 UNL     1      -5.152  46.408 -19.571  1.00  0.00     0.021 C 
HETATM   23  C30 UNL     1      -5.226  46.143 -21.071  1.00  0.00     0.090 C 
HETATM   24  C31 UNL     1      -5.830  47.380 -21.676  1.00  0.00     0.157 C 
HETATM   25  O6  UNL     1      -6.918  47.324 -22.242  1.00  0.00    -0.293 OA
ENDROOT
BRANCH   1  26
HETATM   26  C8  UNL     1      -1.665  51.254 -23.329  1.00  0.00    -0.007 C 
HETATM   27  C9  UNL     1      -0.703  51.650 -22.205  1.00  0.00     0.011 C 
BRANCH  26  28
HETATM   28  C7  UNL     1      -2.066  52.484 -24.164  1.00  0.00     0.083 C 
BRANCH  28  29
HETATM   29  C6  UNL     1      -2.141  52.146 -25.643  1.00  0.00     0.127 C 
HETATM   30  O2  UNL     1      -2.944  52.727 -26.373  1.00  0.00    -0.298 OA
BRANCH  29  31
HETATM   31  C5  UNL     1      -1.158  51.105 -26.164  1.00  0.00     0.082 C 
BRANCH  31  32
HETATM   32  C2  UNL     1       0.198  51.611 -26.695  1.00  0.00    -0.005 C 
HETATM   33  C1  UNL     1       1.095  52.237 -25.625  1.00  0.00     0.011 C 
BRANCH  32  34
HETATM   34  C3  UNL     1       0.087  52.487 -27.951  1.00  0.00     0.074 C 
BRANCH  34  35
HETATM   35  C4  UNL     1       0.011  53.967 -27.680  1.00  0.00     0.231 C 
HETATM   36  O1  UNL     1       0.083  54.428 -26.545  1.00  0.00    -0.307 OA
ENDBRANCH  34  35
ENDBRANCH  32  34
ENDBRANCH  31  32
ENDBRANCH  29  31
ENDBRANCH  28  29
ENDBRANCH  26  28
ENDBRANCH   1  26
BRANCH   3  37
HETATM   37  O3  UNL     1      -5.218  48.035 -24.349  1.00  0.00    -0.394 OA
HETATM   38  H20 UNL     1      -4.913  47.879 -25.258  1.00  0.00     0.210 HD
ENDBRANCH   3  37
TORSDOF 8
ENDMDL
MODEL 7
REMARK minimizedAffinity -9.39944839
REMARK CNNscore 0.492949158
REMARK CNNaffinity 7.17921972
REMARK  8 active torsions:
REMARK  status: ('A' for Active; 'I' for Inactive)
REMARK    1  A    between atoms: C2_2  and  C3_3 
REMARK    2  A    between atoms: C2_2  and  C5_6 
REMARK    3  A    between atoms: C3_3  and  C4_4 
REMARK    4  A    between atoms: C5_6  and  C6_7 
REMARK    5  A    between atoms: C6_7  and  C7_9 
REMARK    6  A    between atoms: C7_9  and  C8_10 
REMARK    7  A    between atoms: C8_10  and  C10_12 
REMARK    8  A    between atoms: C12_14  and  O3_15 
ROOT
HETATM    1  C10 UNL     1      -2.776  50.202 -24.619  1.00  0.00     0.002 C 
HETATM    2  C11 UNL     1      -3.876  49.265 -24.084  1.00  0.00     0.038 C 
HETATM    3  C12 UNL     1      -4.945  50.162 -23.476  1.00  0.00     0.132 C 
HETATM    4  C13 UNL     1      -4.193  51.442 -22.992  1.00  0.00     0.021 C 
HETATM    5  C14 UNL     1      -5.182  52.606 -22.772  1.00  0.00     0.024 C 
HETATM    6  C15 UNL     1      -3.373  51.206 -21.699  1.00  0.00     0.010 C 
HETATM    7  C16 UNL     1      -2.042  51.409 -21.532  1.00  0.00     0.007 C 
HETATM    8  C17 UNL     1      -1.300  52.045 -22.675  1.00  0.00     0.157 C 
HETATM    9  O4  UNL     1      -0.079  52.182 -22.651  1.00  0.00    -0.293 OA
HETATM   10  C18 UNL     1      -2.079  52.576 -23.850  1.00  0.00     0.094 C 
HETATM   11  C19 UNL     1      -3.246  51.668 -24.250  1.00  0.00    -0.019 C 
HETATM   12  C20 UNL     1      -3.961  52.377 -25.424  1.00  0.00     0.017 C 
HETATM   13  C21 UNL     1      -1.212  51.021 -20.273  1.00  0.00    -0.007 C 
HETATM   14  C22 UNL     1      -0.373  49.780 -20.678  1.00  0.00     0.021 C 
HETATM   15  C23 UNL     1      -0.245  52.160 -19.820  1.00  0.00     0.022 C 
HETATM   16  C24 UNL     1       0.095  52.193 -18.328  1.00  0.00     0.080 C 
HETATM   17  C25 UNL     1      -0.065  50.843 -17.668  1.00  0.00     0.135 C 
HETATM   18  O5  UNL     1       0.857  50.338 -17.030  1.00  0.00    -0.297 OA
HETATM   19  C26 UNL     1      -1.451  50.195 -17.765  1.00  0.00     0.018 C 
HETATM   20  C27 UNL     1      -1.327  48.661 -17.692  1.00  0.00     0.023 C 
HETATM   21  C28 UNL     1      -2.238  50.652 -16.517  1.00  0.00     0.023 C 
HETATM   22  C29 UNL     1      -2.159  50.719 -19.057  1.00  0.00     0.021 C 
HETATM   23  C30 UNL     1      -3.344  49.870 -19.505  1.00  0.00     0.090 C 
HETATM   24  C31 UNL     1      -4.111  50.719 -20.480  1.00  0.00     0.157 C 
HETATM   25  O6  UNL     1      -5.258  51.073 -20.224  1.00  0.00    -0.293 OA
ENDROOT
BRANCH   1  26
HETATM   26  C8  UNL     1      -2.315  49.802 -26.050  1.00  0.00    -0.007 C 
HETATM   27  C9  UNL     1      -2.604  48.332 -26.369  1.00  0.00     0.011 C 
BRANCH  26  28
HETATM   28  C7  UNL     1      -0.864  50.166 -26.417  1.00  0.00     0.083 C 
BRANCH  28  29
HETATM   29  C6  UNL     1      -0.820  51.219 -27.509  1.00  0.00     0.127 C 
HETATM   30  O2  UNL     1      -1.862  51.725 -27.927  1.00  0.00    -0.298 OA
BRANCH  29  31
HETATM   31  C5  UNL     1       0.556  51.635 -28.013  1.00  0.00     0.082 C 
BRANCH  31  32
HETATM   32  C2  UNL     1       1.532  52.251 -26.990  1.00  0.00    -0.005 C 
HETATM   33  C1  UNL     1       2.523  51.252 -26.391  1.00  0.00     0.011 C 
BRANCH  32  34
HETATM   34  C3  UNL     1       0.848  53.110 -25.918  1.00  0.00     0.074 C 
BRANCH  34  35
HETATM   35  C4  UNL     1       0.133  54.325 -26.448  1.00  0.00     0.231 C 
HETATM   36  O1  UNL     1       0.258  55.433 -25.934  1.00  0.00    -0.307 OA
ENDBRANCH  34  35
ENDBRANCH  32  34
ENDBRANCH  31  32
ENDBRANCH  29  31
ENDBRANCH  28  29
ENDBRANCH  26  28
ENDBRANCH   1  26
BRANCH   3  37
HETATM   37  O3  UNL     1      -5.652  49.458 -22.476  1.00  0.00    -0.394 OA
HETATM   38  H20 UNL     1      -6.138  48.733 -22.902  1.00  0.00     0.210 HD
ENDBRANCH   3  37
TORSDOF 8
ENDMDL
MODEL 8
REMARK minimizedAffinity -7.5652132
REMARK CNNscore 0.479121268
REMARK CNNaffinity 6.35611582
REMARK  8 active torsions:
REMARK  status: ('A' for Active; 'I' for Inactive)
REMARK    1  A    between atoms: C2_2  and  C3_3 
REMARK    2  A    between atoms: C2_2  and  C5_6 
REMARK    3  A    between atoms: C3_3  and  C4_4 
REMARK    4  A    between atoms: C5_6  and  C6_7 
REMARK    5  A    between atoms: C6_7  and  C7_9 
REMARK    6  A    between atoms: C7_9  and  C8_10 
REMARK    7  A    between atoms: C8_10  and  C10_12 
REMARK    8  A    between atoms: C12_14  and  O3_15 
ROOT
HETATM    1  C10 UNL     1      -1.632  51.101 -14.246  1.00  0.00     0.002 C 
HETATM    2  C11 UNL     1      -2.960  50.329 -14.129  1.00  0.00     0.038 C 
HETATM    3  C12 UNL     1      -2.610  48.853 -14.248  1.00  0.00     0.132 C 
HETATM    4  C13 UNL     1      -1.325  48.796 -15.133  1.00  0.00     0.021 C 
HETATM    5  C14 UNL     1      -0.608  47.440 -14.970  1.00  0.00     0.024 C 
HETATM    6  C15 UNL     1      -1.615  49.053 -16.633  1.00  0.00     0.010 C 
HETATM    7  C16 UNL     1      -1.067  50.018 -17.414  1.00  0.00     0.007 C 
HETATM    8  C17 UNL     1       0.027  50.850 -16.803  1.00  0.00     0.157 C 
HETATM    9  O4  UNL     1       0.517  51.805 -17.401  1.00  0.00    -0.293 OA
HETATM   10  C18 UNL     1       0.572  50.467 -15.453  1.00  0.00     0.094 C 
HETATM   11  C19 UNL     1      -0.517  50.002 -14.480  1.00  0.00    -0.019 C 
HETATM   12  C20 UNL     1       0.211  49.605 -13.175  1.00  0.00     0.017 C 
HETATM   13  C21 UNL     1      -1.486  50.355 -18.875  1.00  0.00    -0.007 C 
HETATM   14  C22 UNL     1      -2.273  51.690 -18.799  1.00  0.00     0.021 C 
HETATM   15  C23 UNL     1      -0.258  50.544 -19.821  1.00  0.00     0.022 C 
HETATM   16  C24 UNL     1      -0.496  50.218 -21.297  1.00  0.00     0.080 C 
HETATM   17  C25 UNL     1      -1.950  50.337 -21.689  1.00  0.00     0.135 C 
HETATM   18  O5  UNL     1      -2.294  51.044 -22.635  1.00  0.00    -0.297 OA
HETATM   19  C26 UNL     1      -2.942  49.469 -20.906  1.00  0.00     0.018 C 
HETATM   20  C27 UNL     1      -4.334  50.129 -20.895  1.00  0.00     0.023 C 
HETATM   21  C28 UNL     1      -3.070  48.140 -21.682  1.00  0.00     0.023 C 
HETATM   22  C29 UNL     1      -2.353  49.195 -19.484  1.00  0.00     0.021 C 
HETATM   23  C30 UNL     1      -3.381  48.711 -18.467  1.00  0.00     0.090 C 
HETATM   24  C31 UNL     1      -2.590  48.138 -17.325  1.00  0.00     0.157 C 
HETATM   25  O6  UNL     1      -2.675  46.944 -17.051  1.00  0.00    -0.293 OA
ENDROOT
BRANCH   1  26
HETATM   26  C8  UNL     1      -1.504  52.210 -13.163  1.00  0.00    -0.007 C 
HETATM   27  C9  UNL     1      -0.048  52.598 -12.889  1.00  0.00     0.011 C 
BRANCH  26  28
HETATM   28  C7  UNL     1      -2.259  51.955 -11.845  1.00  0.00     0.083 C 
BRANCH  28  29
HETATM   29  C6  UNL     1      -3.265  53.058 -11.564  1.00  0.00     0.127 C 
HETATM   30  O2  UNL     1      -4.177  53.284 -12.359  1.00  0.00    -0.298 OA
BRANCH  29  31
HETATM   31  C5  UNL     1      -3.108  53.818 -10.253  1.00  0.00     0.082 C 
BRANCH  31  32
HETATM   32  C2  UNL     1      -1.686  53.951  -9.674  1.00  0.00    -0.005 C 
HETATM   33  C1  UNL     1      -1.514  53.330  -8.286  1.00  0.00     0.011 C 
BRANCH  32  34
HETATM   34  C3  UNL     1      -1.112  55.373  -9.753  1.00  0.00     0.074 C 
BRANCH  34  35
HETATM   35  C4  UNL     1      -0.267  55.775  -8.573  1.00  0.00     0.231 C 
HETATM   36  O1  UNL     1      -0.545  56.741  -7.869  1.00  0.00    -0.307 OA
ENDBRANCH  34  35
ENDBRANCH  32  34
ENDBRANCH  31  32
ENDBRANCH  29  31
ENDBRANCH  28  29
ENDBRANCH  26  28
ENDBRANCH   1  26
BRANCH   3  37
HETATM   37  O3  UNL     1      -3.720  48.133 -14.742  1.00  0.00    -0.394 OA
HETATM   38  H20 UNL     1      -4.428  48.176 -14.079  1.00  0.00     0.210 HD
ENDBRANCH   3  37
TORSDOF 8
ENDMDL
MODEL 9
REMARK minimizedAffinity -7.90423059
REMARK CNNscore 0.471813679
REMARK CNNaffinity 6.29654121
REMARK  8 active torsions:
REMARK  status: ('A' for Active; 'I' for Inactive)
REMARK    1  A    between atoms: C2_2  and  C3_3 
REMARK    2  A    between atoms: C2_2  and  C5_6 
REMARK    3  A    between atoms: C3_3  and  C4_4 
REMARK    4  A    between atoms: C5_6  and  C6_7 
REMARK    5  A    between atoms: C6_7  and  C7_9 
REMARK    6  A    between atoms: C7_9  and  C8_10 
REMARK    7  A    between atoms: C8_10  and  C10_12 
REMARK    8  A    between atoms: C12_14  and  O3_15 
ROOT
HETATM    1  C10 UNL     1      -3.433  49.320 -23.303  1.00  0.00     0.002 C 
HETATM    2  C11 UNL     1      -4.188  48.775 -24.531  1.00  0.00     0.038 C 
HETATM    3  C12 UNL     1      -5.620  49.277 -24.410  1.00  0.00     0.132 C 
HETATM    4  C13 UNL     1      -5.882  49.434 -22.878  1.00  0.00     0.021 C 
HETATM    5  C14 UNL     1      -7.103  50.343 -22.623  1.00  0.00     0.024 C 
HETATM    6  C15 UNL     1      -6.086  48.077 -22.160  1.00  0.00     0.010 C 
HETATM    7  C16 UNL     1      -5.370  47.596 -21.113  1.00  0.00     0.007 C 
HETATM    8  C17 UNL     1      -4.353  48.519 -20.499  1.00  0.00     0.157 C 
HETATM    9  O4  UNL     1      -3.596  48.139 -19.609  1.00  0.00    -0.293 OA
HETATM   10  C18 UNL     1      -4.303  49.955 -20.948  1.00  0.00     0.094 C 
HETATM   11  C19 UNL     1      -4.507  50.116 -22.458  1.00  0.00    -0.019 C 
HETATM   12  C20 UNL     1      -4.477  51.637 -22.737  1.00  0.00     0.017 C 
HETATM   13  C21 UNL     1      -5.491  46.167 -20.506  1.00  0.00    -0.007 C 
HETATM   14  C22 UNL     1      -4.224  45.397 -20.964  1.00  0.00     0.021 C 
HETATM   15  C23 UNL     1      -5.538  46.181 -18.945  1.00  0.00     0.022 C 
HETATM   16  C24 UNL     1      -6.290  45.021 -18.289  1.00  0.00     0.080 C 
HETATM   17  C25 UNL     1      -6.348  43.796 -19.172  1.00  0.00     0.135 C 
HETATM   18  O5  UNL     1      -5.962  42.703 -18.761  1.00  0.00    -0.297 OA
HETATM   19  C26 UNL     1      -6.988  43.978 -20.553  1.00  0.00     0.018 C 
HETATM   20  C27 UNL     1      -6.408  42.955 -21.547  1.00  0.00     0.023 C 
HETATM   21  C28 UNL     1      -8.489  43.659 -20.387  1.00  0.00     0.023 C 
HETATM   22  C29 UNL     1      -6.811  45.469 -20.993  1.00  0.00     0.021 C 
HETATM   23  C30 UNL     1      -7.017  45.705 -22.486  1.00  0.00     0.090 C 
HETATM   24  C31 UNL     1      -7.201  47.189 -22.644  1.00  0.00     0.157 C 
HETATM   25  O6  UNL     1      -8.265  47.640 -23.058  1.00  0.00    -0.293 OA
ENDROOT
BRANCH   1  26
HETATM   26  C8  UNL     1      -2.051  49.923 -23.689  1.00  0.00    -0.007 C 
HETATM   27  C9  UNL     1      -1.479  50.827 -22.593  1.00  0.00     0.011 C 
BRANCH  26  28
HETATM   28  C7  UNL     1      -1.978  50.616 -25.062  1.00  0.00     0.083 C 
BRANCH  28  29
HETATM   29  C6  UNL     1      -1.391  52.012 -24.945  1.00  0.00     0.127 C 
HETATM   30  O2  UNL     1      -2.112  52.966 -24.651  1.00  0.00    -0.298 OA
BRANCH  29  31
HETATM   31  C5  UNL     1       0.110  52.150 -25.162  1.00  0.00     0.082 C 
BRANCH  31  32
HETATM   32  C2  UNL     1       0.700  51.550 -26.453  1.00  0.00    -0.005 C 
HETATM   33  C1  UNL     1       2.228  51.468 -26.464  1.00  0.00     0.011 C 
BRANCH  32  34
HETATM   34  C3  UNL     1       0.138  52.168 -27.741  1.00  0.00     0.074 C 
BRANCH  34  35
HETATM   35  C4  UNL     1      -0.378  53.575 -27.589  1.00  0.00     0.231 C 
HETATM   36  O1  UNL     1       0.311  54.476 -27.119  1.00  0.00    -0.307 OA
ENDBRANCH  34  35
ENDBRANCH  32  34
ENDBRANCH  31  32
ENDBRANCH  29  31
ENDBRANCH  28  29
ENDBRANCH  26  28
ENDBRANCH   1  26
BRANCH   3  37
HETATM   37  O3  UNL     1      -6.496  48.402 -25.089  1.00  0.00    -0.394 OA
HETATM   38  H20 UNL     1      -6.289  48.442 -26.037  1.00  0.00     0.210 HD
ENDBRANCH   3  37
TORSDOF 8
ENDMDL
