MODEL 1
REMARK minimizedAffinity -8.0299139
REMARK CNNscore 0.674732864
REMARK CNNaffinity 6.22403955
REMARK  4 active torsions:
REMARK  status: ('A' for Active; 'I' for Inactive)
REMARK    1  A    between atoms: C4_4  and  O1_5 
REMARK    2  A    between atoms: C4_4  and  C5_6 
REMARK    3  A    between atoms: C5_6  and  C6_7 
REMARK    4  A    between atoms: C6_7  and  C8_9 
ROOT
HETATM    1  C8  UNL     1     -11.070  45.805 -27.815  1.00  0.00    -0.001 C 
HETATM    2  C9  UNL     1     -10.971  44.353 -28.359  1.00  0.00     0.007 C 
HETATM    3  C10 UNL     1     -12.321  43.662 -28.023  1.00  0.00     0.015 C 
HETATM    4  C11 UNL     1     -13.245  44.807 -27.552  1.00  0.00    -0.013 C 
HETATM    5  C12 UNL     1     -13.825  45.467 -28.854  1.00  0.00     0.021 C 
HETATM    6  C13 UNL     1     -14.474  44.490 -26.691  1.00  0.00    -0.070 C 
HETATM    7  C14 UNL     1     -15.306  43.487 -27.027  1.00  0.00    -0.022 C 
HETATM    8  C15 UNL     1     -16.702  43.357 -26.500  1.00  0.00     0.034 C 
HETATM    9  C16 UNL     1     -17.234  44.718 -25.994  1.00  0.00     0.013 C 
HETATM   10  C17 UNL     1     -18.767  44.701 -25.654  1.00  0.00     0.018 C 
HETATM   11  C18 UNL     1     -19.569  44.632 -26.981  1.00  0.00     0.023 C 
HETATM   12  C19 UNL     1     -19.239  43.523 -24.788  1.00  0.00     0.023 C 
HETATM   13  C20 UNL     1     -19.170  46.000 -24.938  1.00  0.00     0.135 C 
HETATM   14  O2  UNL     1     -20.248  46.560 -25.149  1.00  0.00    -0.297 OA
HETATM   15  C21 UNL     1     -18.250  46.526 -23.866  1.00  0.00     0.080 C 
HETATM   16  C22 UNL     1     -16.834  46.647 -24.404  1.00  0.00     0.017 C 
HETATM   17  C23 UNL     1     -16.255  45.308 -24.920  1.00  0.00    -0.031 C 
HETATM   18  C24 UNL     1     -16.067  44.358 -23.701  1.00  0.00     0.016 C 
HETATM   19  C25 UNL     1     -14.801  45.487 -25.559  1.00  0.00     0.024 C 
HETATM   20  C26 UNL     1     -14.372  46.917 -25.960  1.00  0.00     0.010 C 
HETATM   21  C27 UNL     1     -12.887  47.040 -26.398  1.00  0.00     0.011 C 
HETATM   22  C28 UNL     1     -12.218  45.698 -26.765  1.00  0.00    -0.029 C 
HETATM   23  C29 UNL     1     -11.694  44.982 -25.480  1.00  0.00     0.016 C 
ENDROOT
BRANCH   1  24
HETATM   24  C6  UNL     1      -9.727  46.536 -27.505  1.00  0.00    -0.008 C 
HETATM   25  C7  UNL     1      -9.104  45.888 -26.254  1.00  0.00     0.010 C 
BRANCH  24  26
HETATM   26  C5  UNL     1      -9.791  48.079 -27.373  1.00  0.00     0.078 C 
BRANCH  26  27
HETATM   27  C4  UNL     1      -9.451  48.669 -25.989  1.00  0.00     0.191 A 
HETATM   28  C3  UNL     1      -8.073  48.333 -25.566  1.00  0.00     0.054 A 
HETATM   29  C2  UNL     1      -8.087  47.584 -24.465  1.00  0.00     0.015 A 
HETATM   30  C1  UNL     1      -6.980  46.996 -23.684  1.00  0.00     0.054 C 
HETATM   31  C30 UNL     1      -9.498  47.407 -24.106  1.00  0.00     0.291 A 
HETATM   32  O3  UNL     1     -10.277  48.091 -24.986  1.00  0.00    -0.276 OA
HETATM   33  O4  UNL     1      -9.904  46.760 -23.158  1.00  0.00    -0.260 OA
BRANCH  27  34
HETATM   34  O1  UNL     1      -9.586  50.076 -26.007  1.00  0.00    -0.362 OA
HETATM   35  H5  UNL     1      -9.201  50.408 -25.180  1.00  0.00     0.213 HD
ENDBRANCH  27  34
ENDBRANCH  26  27
ENDBRANCH  24  26
ENDBRANCH   1  24
TORSDOF 4
ENDMDL
MODEL 2
REMARK minimizedAffinity -8.6868
REMARK CNNscore 0.631392479
REMARK CNNaffinity 6.53367186
REMARK  4 active torsions:
REMARK  status: ('A' for Active; 'I' for Inactive)
REMARK    1  A    between atoms: C4_4  and  O1_5 
REMARK    2  A    between atoms: C4_4  and  C5_6 
REMARK    3  A    between atoms: C5_6  and  C6_7 
REMARK    4  A    between atoms: C6_7  and  C8_9 
ROOT
HETATM    1  C8  UNL     1     -13.340  45.905 -26.729  1.00  0.00    -0.001 C 
HETATM    2  C9  UNL     1     -14.404  45.908 -27.861  1.00  0.00     0.007 C 
HETATM    3  C10 UNL     1     -13.638  46.176 -29.186  1.00  0.00     0.015 C 
HETATM    4  C11 UNL     1     -12.145  46.041 -28.814  1.00  0.00    -0.013 C 
HETATM    5  C12 UNL     1     -11.820  44.504 -28.854  1.00  0.00     0.021 C 
HETATM    6  C13 UNL     1     -11.077  46.692 -29.702  1.00  0.00    -0.070 C 
HETATM    7  C14 UNL     1     -11.116  46.549 -31.039  1.00  0.00    -0.022 C 
HETATM    8  C15 UNL     1      -9.941  46.796 -31.934  1.00  0.00     0.034 C 
HETATM    9  C16 UNL     1      -8.614  46.701 -31.147  1.00  0.00     0.013 C 
HETATM   10  C17 UNL     1      -7.341  46.709 -32.067  1.00  0.00     0.018 C 
HETATM   11  C18 UNL     1      -7.255  45.349 -32.809  1.00  0.00     0.023 C 
HETATM   12  C19 UNL     1      -7.311  47.805 -33.144  1.00  0.00     0.023 C 
HETATM   13  C20 UNL     1      -6.068  46.854 -31.217  1.00  0.00     0.135 C 
HETATM   14  O2  UNL     1      -5.025  46.256 -31.488  1.00  0.00    -0.297 OA
HETATM   15  C21 UNL     1      -6.087  47.851 -30.087  1.00  0.00     0.080 C 
HETATM   16  C22 UNL     1      -7.287  47.601 -29.188  1.00  0.00     0.017 C 
HETATM   17  C23 UNL     1      -8.641  47.690 -29.930  1.00  0.00    -0.031 C 
HETATM   18  C24 UNL     1      -8.859  49.167 -30.371  1.00  0.00     0.016 C 
HETATM   19  C25 UNL     1      -9.875  47.335 -28.978  1.00  0.00     0.024 C 
HETATM   20  C26 UNL     1      -9.565  46.575 -27.667  1.00  0.00     0.010 C 
HETATM   21  C27 UNL     1     -10.779  46.430 -26.709  1.00  0.00     0.011 C 
HETATM   22  C28 UNL     1     -12.150  46.675 -27.377  1.00  0.00    -0.029 C 
HETATM   23  C29 UNL     1     -12.469  48.203 -27.418  1.00  0.00     0.016 C 
ENDROOT
BRANCH   1  24
HETATM   24  C6  UNL     1     -13.844  46.217 -25.286  1.00  0.00    -0.008 C 
HETATM   25  C7  UNL     1     -12.848  45.601 -24.285  1.00  0.00     0.010 C 
BRANCH  24  26
HETATM   26  C5  UNL     1     -15.303  45.811 -24.956  1.00  0.00     0.078 C 
BRANCH  26  27
HETATM   27  C4  UNL     1     -16.161  46.859 -24.217  1.00  0.00     0.191 A 
HETATM   28  C3  UNL     1     -16.762  46.311 -22.980  1.00  0.00     0.054 A 
HETATM   29  C2  UNL     1     -18.091  46.309 -23.062  1.00  0.00     0.015 A 
HETATM   30  C1  UNL     1     -19.116  45.853 -22.104  1.00  0.00     0.054 C 
HETATM   31  C30 UNL     1     -18.422  46.881 -24.373  1.00  0.00     0.291 A 
HETATM   32  O3  UNL     1     -17.277  47.239 -25.011  1.00  0.00    -0.276 OA
HETATM   33  O4  UNL     1     -19.549  47.024 -24.810  1.00  0.00    -0.260 OA
BRANCH  27  34
HETATM   34  O1  UNL     1     -15.376  47.984 -23.874  1.00  0.00    -0.362 OA
HETATM   35  H5  UNL     1     -15.907  48.528 -23.271  1.00  0.00     0.213 HD
ENDBRANCH  27  34
ENDBRANCH  26  27
ENDBRANCH  24  26
ENDBRANCH   1  24
TORSDOF 4
ENDMDL
MODEL 3
REMARK minimizedAffinity -7.32725859
REMARK CNNscore 0.569371521
REMARK CNNaffinity 6.78350639
REMARK  4 active torsions:
REMARK  status: ('A' for Active; 'I' for Inactive)
REMARK    1  A    between atoms: C4_4  and  O1_5 
REMARK    2  A    between atoms: C4_4  and  C5_6 
REMARK    3  A    between atoms: C5_6  and  C6_7 
REMARK    4  A    between atoms: C6_7  and  C8_9 
ROOT
HETATM    1  C8  UNL     1      -1.491  51.892 -10.668  1.00  0.00    -0.001 C 
HETATM    2  C9  UNL     1      -0.743  50.598 -11.090  1.00  0.00     0.007 C 
HETATM    3  C10 UNL     1       0.764  50.844 -10.806  1.00  0.00     0.015 C 
HETATM    4  C11 UNL     1       0.802  52.149  -9.980  1.00  0.00    -0.013 C 
HETATM    5  C12 UNL     1       0.516  51.736  -8.492  1.00  0.00     0.021 C 
HETATM    6  C13 UNL     1       2.094  52.974  -9.918  1.00  0.00    -0.070 C 
HETATM    7  C14 UNL     1       3.277  52.379  -9.681  1.00  0.00    -0.022 C 
HETATM    8  C15 UNL     1       4.496  53.114  -9.217  1.00  0.00     0.034 C 
HETATM    9  C16 UNL     1       4.116  54.455  -8.550  1.00  0.00     0.013 C 
HETATM   10  C17 UNL     1       5.322  55.157  -7.829  1.00  0.00     0.018 C 
HETATM   11  C18 UNL     1       5.664  54.362  -6.542  1.00  0.00     0.023 C 
HETATM   12  C19 UNL     1       6.618  55.253  -8.650  1.00  0.00     0.023 C 
HETATM   13  C20 UNL     1       4.934  56.582  -7.403  1.00  0.00     0.135 C 
HETATM   14  O2  UNL     1       5.314  57.077  -6.339  1.00  0.00    -0.297 OA
HETATM   15  C21 UNL     1       4.155  57.422  -8.382  1.00  0.00     0.080 C 
HETATM   16  C22 UNL     1       2.924  56.667  -8.857  1.00  0.00     0.017 C 
HETATM   17  C23 UNL     1       3.254  55.317  -9.536  1.00  0.00    -0.031 C 
HETATM   18  C24 UNL     1       3.996  55.613 -10.872  1.00  0.00     0.016 C 
HETATM   19  C25 UNL     1       1.936  54.510  -9.943  1.00  0.00     0.024 C 
HETATM   20  C26 UNL     1       0.610  54.926  -9.264  1.00  0.00     0.010 C 
HETATM   21  C27 UNL     1      -0.652  54.227  -9.842  1.00  0.00     0.011 C 
HETATM   22  C28 UNL     1      -0.353  52.959 -10.672  1.00  0.00    -0.029 C 
HETATM   23  C29 UNL     1       0.007  53.343 -12.142  1.00  0.00     0.016 C 
ENDROOT
BRANCH   1  24
HETATM   24  C6  UNL     1      -2.877  52.156 -11.332  1.00  0.00    -0.008 C 
HETATM   25  C7  UNL     1      -3.643  53.170 -10.461  1.00  0.00     0.010 C 
BRANCH  24  26
HETATM   26  C5  UNL     1      -3.744  50.911 -11.649  1.00  0.00     0.078 C 
BRANCH  26  27
HETATM   27  C4  UNL     1      -4.427  50.222 -10.449  1.00  0.00     0.191 A 
HETATM   28  C3  UNL     1      -4.521  48.756 -10.631  1.00  0.00     0.054 A 
HETATM   29  C2  UNL     1      -5.794  48.367 -10.681  1.00  0.00     0.015 A 
HETATM   30  C1  UNL     1      -6.387  47.028 -10.862  1.00  0.00     0.054 C 
HETATM   31  C30 UNL     1      -6.601  49.581 -10.516  1.00  0.00     0.291 A 
HETATM   32  O3  UNL     1      -5.778  50.648 -10.334  1.00  0.00    -0.276 OA
HETATM   33  O4  UNL     1      -7.818  49.621 -10.525  1.00  0.00    -0.260 OA
BRANCH  27  34
HETATM   34  O1  UNL     1      -3.710  50.482  -9.259  1.00  0.00    -0.362 OA
HETATM   35  H5  UNL     1      -4.074  49.896  -8.575  1.00  0.00     0.213 HD
ENDBRANCH  27  34
ENDBRANCH  26  27
ENDBRANCH  24  26
ENDBRANCH   1  24
TORSDOF 4
ENDMDL
MODEL 4
REMARK minimizedAffinity -7.57879877
REMARK CNNscore 0.537841201
REMARK CNNaffinity 6.1451335
REMARK  4 active torsions:
REMARK  status: ('A' for Active; 'I' for Inactive)
REMARK    1  A    between atoms: C4_4  and  O1_5 
REMARK    2  A    between atoms: C4_4  and  C5_6 
REMARK    3  A    between atoms: C5_6  and  C6_7 
REMARK    4  A    between atoms: C6_7  and  C8_9 
ROOT
HETATM    1  C8  UNL     1     -10.620  44.905 -28.031  1.00  0.00    -0.001 C 
HETATM    2  C9  UNL     1     -10.693  43.390 -28.367  1.00  0.00     0.007 C 
HETATM    3  C10 UNL     1     -12.088  42.898 -27.893  1.00  0.00     0.015 C 
HETATM    4  C11 UNL     1     -12.869  44.189 -27.559  1.00  0.00    -0.013 C 
HETATM    5  C12 UNL     1     -13.441  44.721 -28.922  1.00  0.00     0.021 C 
HETATM    6  C13 UNL     1     -14.082  44.124 -26.622  1.00  0.00    -0.070 C 
HETATM    7  C14 UNL     1     -15.025  43.179 -26.786  1.00  0.00    -0.022 C 
HETATM    8  C15 UNL     1     -16.401  43.271 -26.201  1.00  0.00     0.034 C 
HETATM    9  C16 UNL     1     -16.769  44.737 -25.875  1.00  0.00     0.013 C 
HETATM   10  C17 UNL     1     -18.279  44.929 -25.487  1.00  0.00     0.018 C 
HETATM   11  C18 UNL     1     -19.145  44.764 -26.764  1.00  0.00     0.023 C 
HETATM   12  C19 UNL     1     -18.826  43.938 -24.448  1.00  0.00     0.023 C 
HETATM   13  C20 UNL     1     -18.516  46.349 -24.949  1.00  0.00     0.135 C 
HETATM   14  O2  UNL     1     -19.540  46.986 -25.202  1.00  0.00    -0.297 OA
HETATM   15  C21 UNL     1     -17.498  46.917 -23.993  1.00  0.00     0.080 C 
HETATM   16  C22 UNL     1     -16.103  46.813 -24.588  1.00  0.00     0.017 C 
HETATM   17  C23 UNL     1     -15.687  45.362 -24.928  1.00  0.00    -0.031 C 
HETATM   18  C24 UNL     1     -15.539  44.573 -23.594  1.00  0.00     0.016 C 
HETATM   19  C25 UNL     1     -14.254  45.296 -25.632  1.00  0.00     0.024 C 
HETATM   20  C26 UNL     1     -13.703  46.605 -26.246  1.00  0.00     0.010 C 
HETATM   21  C27 UNL     1     -12.235  46.509 -26.745  1.00  0.00     0.011 C 
HETATM   22  C28 UNL     1     -11.722  45.065 -26.940  1.00  0.00    -0.029 C 
HETATM   23  C29 UNL     1     -11.213  44.481 -25.584  1.00  0.00     0.016 C 
ENDROOT
BRANCH   1  24
HETATM   24  C6  UNL     1      -9.197  45.525 -27.871  1.00  0.00    -0.008 C 
HETATM   25  C7  UNL     1      -8.290  44.481 -27.194  1.00  0.00     0.010 C 
BRANCH  24  26
HETATM   26  C5  UNL     1      -9.115  46.898 -27.156  1.00  0.00     0.078 C 
BRANCH  26  27
HETATM   27  C4  UNL     1      -8.781  48.118 -28.040  1.00  0.00     0.191 A 
HETATM   28  C3  UNL     1      -9.525  48.096 -29.320  1.00  0.00     0.054 A 
HETATM   29  C2  UNL     1      -8.687  48.003 -30.350  1.00  0.00     0.015 A 
HETATM   30  C1  UNL     1      -8.947  47.933 -31.802  1.00  0.00     0.054 C 
HETATM   31  C30 UNL     1      -7.335  47.975 -29.781  1.00  0.00     0.291 A 
HETATM   32  O3  UNL     1      -7.414  48.092 -28.428  1.00  0.00    -0.276 OA
HETATM   33  O4  UNL     1      -6.306  47.878 -30.423  1.00  0.00    -0.260 OA
BRANCH  27  34
HETATM   34  O1  UNL     1      -9.092  49.318 -27.360  1.00  0.00    -0.362 OA
HETATM   35  H5  UNL     1      -9.028  50.037 -28.010  1.00  0.00     0.213 HD
ENDBRANCH  27  34
ENDBRANCH  26  27
ENDBRANCH  24  26
ENDBRANCH   1  24
TORSDOF 4
ENDMDL
MODEL 5
REMARK minimizedAffinity -7.4587431
REMARK CNNscore 0.48182863
REMARK CNNaffinity 5.77282953
REMARK  4 active torsions:
REMARK  status: ('A' for Active; 'I' for Inactive)
REMARK    1  A    between atoms: C4_4  and  O1_5 
REMARK    2  A    between atoms: C4_4  and  C5_6 
REMARK    3  A    between atoms: C5_6  and  C6_7 
REMARK    4  A    between atoms: C6_7  and  C8_9 
ROOT
HETATM    1  C8  UNL     1     -10.900  46.294 -28.296  1.00  0.00    -0.001 C 
HETATM    2  C9  UNL     1     -10.019  46.143 -27.025  1.00  0.00     0.007 C 
HETATM    3  C10 UNL     1     -10.971  45.714 -25.875  1.00  0.00     0.015 C 
HETATM    4  C11 UNL     1     -12.303  45.363 -26.575  1.00  0.00    -0.013 C 
HETATM    5  C12 UNL     1     -12.151  43.889 -27.096  1.00  0.00     0.021 C 
HETATM    6  C13 UNL     1     -13.609  45.364 -25.771  1.00  0.00    -0.070 C 
HETATM    7  C14 UNL     1     -13.676  44.758 -24.571  1.00  0.00    -0.022 C 
HETATM    8  C15 UNL     1     -14.963  44.366 -23.912  1.00  0.00     0.034 C 
HETATM    9  C16 UNL     1     -16.103  44.244 -24.947  1.00  0.00     0.013 C 
HETATM   10  C17 UNL     1     -17.413  43.605 -24.360  1.00  0.00     0.018 C 
HETATM   11  C18 UNL     1     -17.166  42.091 -24.126  1.00  0.00     0.023 C 
HETATM   12  C19 UNL     1     -17.891  44.190 -23.022  1.00  0.00     0.023 C 
HETATM   13  C20 UNL     1     -18.568  43.735 -25.366  1.00  0.00     0.135 C 
HETATM   14  O2  UNL     1     -19.405  42.844 -25.525  1.00  0.00    -0.297 OA
HETATM   15  C21 UNL     1     -18.726  45.047 -26.090  1.00  0.00     0.080 C 
HETATM   16  C22 UNL     1     -17.416  45.444 -26.749  1.00  0.00     0.017 C 
HETATM   17  C23 UNL     1     -16.242  45.583 -25.751  1.00  0.00    -0.031 C 
HETATM   18  C24 UNL     1     -16.531  46.802 -24.828  1.00  0.00     0.016 C 
HETATM   19  C25 UNL     1     -14.862  45.913 -26.486  1.00  0.00     0.024 C 
HETATM   20  C26 UNL     1     -14.781  45.632 -28.005  1.00  0.00     0.010 C 
HETATM   21  C27 UNL     1     -13.482  46.148 -28.683  1.00  0.00     0.011 C 
HETATM   22  C28 UNL     1     -12.332  46.459 -27.700  1.00  0.00    -0.029 C 
HETATM   23  C29 UNL     1     -12.495  47.895 -27.109  1.00  0.00     0.016 C 
ENDROOT
BRANCH   1  24
HETATM   24  C6  UNL     1     -10.359  47.224 -29.425  1.00  0.00    -0.008 C 
HETATM   25  C7  UNL     1     -11.317  47.128 -30.627  1.00  0.00     0.010 C 
BRANCH  24  26
HETATM   26  C5  UNL     1      -8.885  47.008 -29.855  1.00  0.00     0.078 C 
BRANCH  26  27
HETATM   27  C4  UNL     1      -7.982  48.259 -29.878  1.00  0.00     0.191 A 
HETATM   28  C3  UNL     1      -7.319  48.440 -31.189  1.00  0.00     0.054 A 
HETATM   29  C2  UNL     1      -5.996  48.349 -31.064  1.00  0.00     0.015 A 
HETATM   30  C1  UNL     1      -4.923  48.444 -32.073  1.00  0.00     0.054 C 
HETATM   31  C30 UNL     1      -5.732  48.116 -29.640  1.00  0.00     0.291 A 
HETATM   32  O3  UNL     1      -6.909  48.114 -28.958  1.00  0.00    -0.276 OA
HETATM   33  O4  UNL     1      -4.630  47.963 -29.147  1.00  0.00    -0.260 OA
BRANCH  27  34
HETATM   34  O1  UNL     1      -8.741  49.418 -29.595  1.00  0.00    -0.362 OA
HETATM   35  H5  UNL     1      -8.174  50.182 -29.788  1.00  0.00     0.213 HD
ENDBRANCH  27  34
ENDBRANCH  26  27
ENDBRANCH  24  26
ENDBRANCH   1  24
TORSDOF 4
ENDMDL
MODEL 6
REMARK minimizedAffinity -7.67091846
REMARK CNNscore 0.381070584
REMARK CNNaffinity 6.21794176
REMARK  4 active torsions:
REMARK  status: ('A' for Active; 'I' for Inactive)
REMARK    1  A    between atoms: C4_4  and  O1_5 
REMARK    2  A    between atoms: C4_4  and  C5_6 
REMARK    3  A    between atoms: C5_6  and  C6_7 
REMARK    4  A    between atoms: C6_7  and  C8_9 
ROOT
HETATM    1  C8  UNL     1       4.663  53.961  -9.612  1.00  0.00    -0.001 C 
HETATM    2  C9  UNL     1       5.036  52.500  -9.238  1.00  0.00     0.007 C 
HETATM    3  C10 UNL     1       3.721  51.675  -9.312  1.00  0.00     0.015 C 
HETATM    4  C11 UNL     1       2.701  52.618  -9.990  1.00  0.00    -0.013 C 
HETATM    5  C12 UNL     1       2.950  52.496 -11.536  1.00  0.00     0.021 C 
HETATM    6  C13 UNL     1       1.199  52.369  -9.811  1.00  0.00    -0.070 C 
HETATM    7  C14 UNL     1       0.686  51.134  -9.963  1.00  0.00    -0.022 C 
HETATM    8  C15 UNL     1      -0.769  50.864 -10.200  1.00  0.00     0.034 C 
HETATM    9  C16 UNL     1      -1.480  52.114 -10.766  1.00  0.00     0.013 C 
HETATM   10  C17 UNL     1      -2.944  51.828 -11.261  1.00  0.00     0.018 C 
HETATM   11  C18 UNL     1      -2.873  51.002 -12.572  1.00  0.00     0.023 C 
HETATM   12  C19 UNL     1      -3.828  51.036 -10.285  1.00  0.00     0.023 C 
HETATM   13  C20 UNL     1      -3.666  53.146 -11.583  1.00  0.00     0.135 C 
HETATM   14  O2  UNL     1      -4.440  53.256 -12.536  1.00  0.00    -0.297 OA
HETATM   15  C21 UNL     1      -3.493  54.295 -10.623  1.00  0.00     0.080 C 
HETATM   16  C22 UNL     1      -2.016  54.558 -10.379  1.00  0.00     0.017 C 
HETATM   17  C23 UNL     1      -1.260  53.335  -9.808  1.00  0.00    -0.031 C 
HETATM   18  C24 UNL     1      -1.790  53.065  -8.370  1.00  0.00     0.016 C 
HETATM   19  C25 UNL     1       0.305  53.617  -9.648  1.00  0.00     0.024 C 
HETATM   20  C26 UNL     1       0.897  54.810 -10.435  1.00  0.00     0.010 C 
HETATM   21  C27 UNL     1       2.376  55.134 -10.087  1.00  0.00     0.011 C 
HETATM   22  C28 UNL     1       3.125  53.994  -9.362  1.00  0.00    -0.029 C 
HETATM   23  C29 UNL     1       2.839  54.046  -7.828  1.00  0.00     0.016 C 
ENDROOT
BRANCH   1  24
HETATM   24  C6  UNL     1       5.613  55.086  -9.096  1.00  0.00    -0.008 C 
HETATM   25  C7  UNL     1       7.036  54.506  -8.994  1.00  0.00     0.010 C 
BRANCH  24  26
HETATM   26  C5  UNL     1       5.196  55.800  -7.785  1.00  0.00     0.078 C 
BRANCH  26  27
HETATM   27  C4  UNL     1       5.956  55.393  -6.505  1.00  0.00     0.191 A 
HETATM   28  C3  UNL     1       5.416  56.066  -5.302  1.00  0.00     0.054 A 
HETATM   29  C2  UNL     1       6.333  56.859  -4.753  1.00  0.00     0.015 A 
HETATM   30  C1  UNL     1       6.267  57.736  -3.567  1.00  0.00     0.054 C 
HETATM   31  C30 UNL     1       7.539  56.726  -5.579  1.00  0.00     0.291 A 
HETATM   32  O3  UNL     1       7.308  55.826  -6.571  1.00  0.00    -0.276 OA
HETATM   33  O4  UNL     1       8.585  57.319  -5.393  1.00  0.00    -0.260 OA
BRANCH  27  34
HETATM   34  O1  UNL     1       5.880  53.995  -6.310  1.00  0.00    -0.362 OA
HETATM   35  H5  UNL     1       6.218  53.814  -5.419  1.00  0.00     0.213 HD
ENDBRANCH  27  34
ENDBRANCH  26  27
ENDBRANCH  24  26
ENDBRANCH   1  24
TORSDOF 4
ENDMDL
MODEL 7
REMARK minimizedAffinity -7.48649502
REMARK CNNscore 0.368174344
REMARK CNNaffinity 6.43581533
REMARK  4 active torsions:
REMARK  status: ('A' for Active; 'I' for Inactive)
REMARK    1  A    between atoms: C4_4  and  O1_5 
REMARK    2  A    between atoms: C4_4  and  C5_6 
REMARK    3  A    between atoms: C5_6  and  C6_7 
REMARK    4  A    between atoms: C6_7  and  C8_9 
ROOT
HETATM    1  C8  UNL     1       4.479  56.304  -8.186  1.00  0.00    -0.001 C 
HETATM    2  C9  UNL     1       5.776  55.583  -8.648  1.00  0.00     0.007 C 
HETATM    3  C10 UNL     1       5.329  54.422  -9.578  1.00  0.00     0.015 C 
HETATM    4  C11 UNL     1       3.829  54.682  -9.842  1.00  0.00    -0.013 C 
HETATM    5  C12 UNL     1       3.764  55.735 -11.005  1.00  0.00     0.021 C 
HETATM    6  C13 UNL     1       2.925  53.531 -10.301  1.00  0.00    -0.070 C 
HETATM    7  C14 UNL     1       3.315  52.707 -11.291  1.00  0.00    -0.022 C 
HETATM    8  C15 UNL     1       2.373  51.834 -12.062  1.00  0.00     0.034 C 
HETATM    9  C16 UNL     1       0.924  52.364 -11.970  1.00  0.00     0.013 C 
HETATM   10  C17 UNL     1      -0.069  51.637 -12.947  1.00  0.00     0.018 C 
HETATM   11  C18 UNL     1       0.240  52.092 -14.398  1.00  0.00     0.023 C 
HETATM   12  C19 UNL     1      -0.000  50.102 -12.938  1.00  0.00     0.023 C 
HETATM   13  C20 UNL     1      -1.519  52.042 -12.635  1.00  0.00     0.135 C 
HETATM   14  O2  UNL     1      -2.358  52.217 -13.520  1.00  0.00    -0.297 OA
HETATM   15  C21 UNL     1      -1.932  52.114 -11.187  1.00  0.00     0.080 C 
HETATM   16  C22 UNL     1      -0.967  52.994 -10.409  1.00  0.00     0.017 C 
HETATM   17  C23 UNL     1       0.498  52.501 -10.467  1.00  0.00    -0.031 C 
HETATM   18  C24 UNL     1       0.588  51.151  -9.699  1.00  0.00     0.016 C 
HETATM   19  C25 UNL     1       1.498  53.496  -9.715  1.00  0.00     0.024 C 
HETATM   20  C26 UNL     1       0.995  54.931  -9.434  1.00  0.00     0.010 C 
HETATM   21  C27 UNL     1       1.943  55.777  -8.540  1.00  0.00     0.011 C 
HETATM   22  C28 UNL     1       3.382  55.225  -8.437  1.00  0.00    -0.029 C 
HETATM   23  C29 UNL     1       3.463  54.122  -7.335  1.00  0.00     0.016 C 
ENDROOT
BRANCH   1  24
HETATM   24  C6  UNL     1       4.557  57.114  -6.855  1.00  0.00    -0.008 C 
HETATM   25  C7  UNL     1       3.361  58.084  -6.812  1.00  0.00     0.010 C 
BRANCH  24  26
HETATM   26  C5  UNL     1       5.892  57.847  -6.565  1.00  0.00     0.078 C 
BRANCH  26  27
HETATM   27  C4  UNL     1       6.669  57.396  -5.311  1.00  0.00     0.191 A 
HETATM   28  C3  UNL     1       7.593  58.445  -4.824  1.00  0.00     0.054 A 
HETATM   29  C2  UNL     1       8.856  58.032  -4.897  1.00  0.00     0.015 A 
HETATM   30  C1  UNL     1      10.117  58.716  -4.546  1.00  0.00     0.054 C 
HETATM   31  C30 UNL     1       8.812  56.665  -5.429  1.00  0.00     0.291 A 
HETATM   32  O3  UNL     1       7.518  56.297  -5.620  1.00  0.00    -0.276 OA
HETATM   33  O4  UNL     1       9.785  55.968  -5.651  1.00  0.00    -0.260 OA
BRANCH  27  34
HETATM   34  O1  UNL     1       5.773  57.066  -4.268  1.00  0.00    -0.362 OA
HETATM   35  H5  UNL     1       6.303  56.957  -3.463  1.00  0.00     0.213 HD
ENDBRANCH  27  34
ENDBRANCH  26  27
ENDBRANCH  24  26
ENDBRANCH   1  24
TORSDOF 4
ENDMDL
MODEL 8
REMARK minimizedAffinity -8.33859062
REMARK CNNscore 0.346523672
REMARK CNNaffinity 5.74895525
REMARK  4 active torsions:
REMARK  status: ('A' for Active; 'I' for Inactive)
REMARK    1  A    between atoms: C4_4  and  O1_5 
REMARK    2  A    between atoms: C4_4  and  C5_6 
REMARK    3  A    between atoms: C5_6  and  C6_7 
REMARK    4  A    between atoms: C6_7  and  C8_9 
ROOT
HETATM    1  C8  UNL     1     -10.733  46.337 -28.286  1.00  0.00    -0.001 C 
HETATM    2  C9  UNL     1     -10.609  44.913 -28.895  1.00  0.00     0.007 C 
HETATM    3  C10 UNL     1     -11.918  44.160 -28.530  1.00  0.00     0.015 C 
HETATM    4  C11 UNL     1     -12.859  45.251 -27.972  1.00  0.00    -0.013 C 
HETATM    5  C12 UNL     1     -13.519  45.942 -29.219  1.00  0.00     0.021 C 
HETATM    6  C13 UNL     1     -14.036  44.855 -27.072  1.00  0.00    -0.070 C 
HETATM    7  C14 UNL     1     -14.848  43.838 -27.414  1.00  0.00    -0.022 C 
HETATM    8  C15 UNL     1     -16.213  43.636 -26.833  1.00  0.00     0.034 C 
HETATM    9  C16 UNL     1     -16.768  44.954 -26.247  1.00  0.00     0.013 C 
HETATM   10  C17 UNL     1     -18.283  44.869 -25.842  1.00  0.00     0.018 C 
HETATM   11  C18 UNL     1     -19.141  44.825 -27.135  1.00  0.00     0.023 C 
HETATM   12  C19 UNL     1     -18.676  43.640 -25.007  1.00  0.00     0.023 C 
HETATM   13  C20 UNL     1     -18.698  46.122 -25.055  1.00  0.00     0.135 C 
HETATM   14  O2  UNL     1     -19.802  46.651 -25.195  1.00  0.00    -0.297 OA
HETATM   15  C21 UNL     1     -17.749  46.637 -24.003  1.00  0.00     0.080 C 
HETATM   16  C22 UNL     1     -16.363  46.830 -24.596  1.00  0.00     0.017 C 
HETATM   17  C23 UNL     1     -15.763  45.536 -25.193  1.00  0.00    -0.031 C 
HETATM   18  C24 UNL     1     -15.488  44.544 -24.025  1.00  0.00     0.016 C 
HETATM   19  C25 UNL     1     -14.346  45.793 -25.886  1.00  0.00     0.024 C 
HETATM   20  C26 UNL     1     -13.985  47.253 -26.244  1.00  0.00     0.010 C 
HETATM   21  C27 UNL     1     -12.525  47.447 -26.741  1.00  0.00     0.011 C 
HETATM   22  C28 UNL     1     -11.828  46.146 -27.193  1.00  0.00    -0.029 C 
HETATM   23  C29 UNL     1     -11.223  45.398 -25.963  1.00  0.00     0.016 C 
ENDROOT
BRANCH   1  24
HETATM   24  C6  UNL     1      -9.404  47.103 -28.004  1.00  0.00    -0.008 C 
HETATM   25  C7  UNL     1      -9.709  48.251 -27.024  1.00  0.00     0.010 C 
BRANCH  24  26
HETATM   26  C5  UNL     1      -8.616  47.607 -29.241  1.00  0.00     0.078 C 
BRANCH  26  27
HETATM   27  C4  UNL     1      -7.208  47.013 -29.452  1.00  0.00     0.191 A 
HETATM   28  C3  UNL     1      -6.343  47.203 -28.266  1.00  0.00     0.054 A 
HETATM   29  C2  UNL     1      -5.298  47.972 -28.563  1.00  0.00     0.015 A 
HETATM   30  C1  UNL     1      -4.182  48.450 -27.723  1.00  0.00     0.054 C 
HETATM   31  C30 UNL     1      -5.429  48.313 -29.984  1.00  0.00     0.291 A 
HETATM   32  O3  UNL     1      -6.530  47.701 -30.495  1.00  0.00    -0.276 OA
HETATM   33  O4  UNL     1      -4.661  49.021 -30.609  1.00  0.00    -0.260 OA
BRANCH  27  34
HETATM   34  O1  UNL     1      -7.294  45.629 -29.729  1.00  0.00    -0.362 OA
HETATM   35  H5  UNL     1      -6.392  45.274 -29.683  1.00  0.00     0.213 HD
ENDBRANCH  27  34
ENDBRANCH  26  27
ENDBRANCH  24  26
ENDBRANCH   1  24
TORSDOF 4
ENDMDL
MODEL 9
REMARK minimizedAffinity -7.30403805
REMARK CNNscore 0.310256124
REMARK CNNaffinity 6.03066444
REMARK  4 active torsions:
REMARK  status: ('A' for Active; 'I' for Inactive)
REMARK    1  A    between atoms: C4_4  and  O1_5 
REMARK    2  A    between atoms: C4_4  and  C5_6 
REMARK    3  A    between atoms: C5_6  and  C6_7 
REMARK    4  A    between atoms: C6_7  and  C8_9 
ROOT
HETATM    1  C8  UNL     1      -8.999  47.417 -24.562  1.00  0.00    -0.001 C 
HETATM    2  C9  UNL     1      -8.833  45.896 -24.294  1.00  0.00     0.007 C 
HETATM    3  C10 UNL     1      -7.639  45.748 -23.310  1.00  0.00     0.015 C 
HETATM    4  C11 UNL     1      -7.341  47.186 -22.832  1.00  0.00    -0.013 C 
HETATM    5  C12 UNL     1      -8.354  47.482 -21.669  1.00  0.00     0.021 C 
HETATM    6  C13 UNL     1      -5.963  47.524 -22.249  1.00  0.00    -0.070 C 
HETATM    7  C14 UNL     1      -5.394  46.726 -21.327  1.00  0.00    -0.022 C 
HETATM    8  C15 UNL     1      -4.276  47.160 -20.430  1.00  0.00     0.034 C 
HETATM    9  C16 UNL     1      -4.228  48.701 -20.310  1.00  0.00     0.013 C 
HETATM   10  C17 UNL     1      -3.238  49.209 -19.200  1.00  0.00     0.018 C 
HETATM   11  C18 UNL     1      -3.850  48.899 -17.809  1.00  0.00     0.023 C 
HETATM   12  C19 UNL     1      -1.839  48.574 -19.222  1.00  0.00     0.023 C 
HETATM   13  C20 UNL     1      -3.062  50.733 -19.299  1.00  0.00     0.135 C 
HETATM   14  O2  UNL     1      -2.960  51.449 -18.301  1.00  0.00    -0.297 OA
HETATM   15  C21 UNL     1      -2.900  51.334 -20.672  1.00  0.00     0.080 C 
HETATM   16  C22 UNL     1      -4.032  50.882 -21.580  1.00  0.00     0.017 C 
HETATM   17  C23 UNL     1      -4.119  49.345 -21.735  1.00  0.00    -0.031 C 
HETATM   18  C24 UNL     1      -2.859  48.863 -22.511  1.00  0.00     0.016 C 
HETATM   19  C25 UNL     1      -5.372  48.900 -22.622  1.00  0.00     0.024 C 
HETATM   20  C26 UNL     1      -6.503  49.935 -22.825  1.00  0.00     0.010 C 
HETATM   21  C27 UNL     1      -7.592  49.501 -23.845  1.00  0.00     0.011 C 
HETATM   22  C28 UNL     1      -7.606  47.988 -24.156  1.00  0.00    -0.029 C 
HETATM   23  C29 UNL     1      -6.554  47.651 -25.261  1.00  0.00     0.016 C 
ENDROOT
BRANCH   1  24
HETATM   24  C6  UNL     1      -9.710  47.828 -25.888  1.00  0.00    -0.008 C 
HETATM   25  C7  UNL     1      -9.679  49.364 -25.995  1.00  0.00     0.010 C 
BRANCH  24  26
HETATM   26  C5  UNL     1     -11.140  47.272 -26.110  1.00  0.00     0.078 C 
BRANCH  26  27
HETATM   27  C4  UNL     1     -11.372  46.459 -27.401  1.00  0.00     0.191 A 
HETATM   28  C3  UNL     1     -12.693  46.744 -28.005  1.00  0.00     0.054 A 
HETATM   29  C2  UNL     1     -13.453  45.651 -28.014  1.00  0.00     0.015 A 
HETATM   30  C1  UNL     1     -14.833  45.439 -28.493  1.00  0.00     0.054 C 
HETATM   31  C30 UNL     1     -12.643  44.582 -27.420  1.00  0.00     0.291 A 
HETATM   32  O3  UNL     1     -11.411  45.068 -27.112  1.00  0.00    -0.276 OA
HETATM   33  O4  UNL     1     -13.014  43.435 -27.245  1.00  0.00    -0.260 OA
BRANCH  27  34
HETATM   34  O1  UNL     1     -10.369  46.751 -28.354  1.00  0.00    -0.362 OA
HETATM   35  H5  UNL     1     -10.652  46.355 -29.193  1.00  0.00     0.213 HD
ENDBRANCH  27  34
ENDBRANCH  26  27
ENDBRANCH  24  26
ENDBRANCH   1  24
TORSDOF 4
ENDMDL
