MODEL 1
REMARK minimizedAffinity -9.8818121
REMARK CNNscore 0.531652331
REMARK CNNaffinity 7.29343843
REMARK  13 active torsions:
REMARK  status: ('A' for Active; 'I' for Inactive)
REMARK    1  A    between atoms: C3_3  and  C4_4 
REMARK    2  A    between atoms: C4_4  and  N1_5 
REMARK    3  A    between atoms: N1_5  and  C5_6 
REMARK    4  A    between atoms: C5_6  and  C6_7 
REMARK    5  A    between atoms: C6_7  and  O1_9 
REMARK    6  A    between atoms: C8_10  and  C9_11 
REMARK    7  A    between atoms: C9_11  and  O2_12 
REMARK    8  A    between atoms: C9_11  and  C10_13 
REMARK    9  A    between atoms: C10_13  and  O3_15 
REMARK   10  A    between atoms: C10_13  and  C12_16 
REMARK   11  A    between atoms: C19_24  and  C20_25 
REMARK   12  A    between atoms: C42_50  and  C43_51 
REMARK   13  A    between atoms: C43_51  and  O8_52 
ROOT
HETATM    1  C12 UNL     1      -3.570   8.661  15.248  1.00  0.00     0.034 C 
HETATM    2  C13 UNL     1      -3.336   7.697  16.448  1.00  0.00     0.012 C 
HETATM    3  C14 UNL     1      -1.830   7.740  16.765  1.00  0.00     0.044 C 
HETATM    4  C15 UNL     1      -1.339   9.042  16.112  1.00  0.00     0.093 C 
HETATM    5  O4  UNL     1      -1.820  10.236  16.776  1.00  0.00    -0.363 OA
HETATM    6  C16 UNL     1      -1.980  10.291  18.186  1.00  0.00     0.263 C 
HETATM    7  C17 UNL     1      -0.834  10.920  18.849  1.00  0.00    -0.080 C 
HETATM    8  C18 UNL     1       0.046  11.476  19.450  1.00  0.00    -0.093 C 
HETATM    9  C19 UNL     1       1.098  12.199  20.204  1.00  0.00     0.121 C 
HETATM   10  C26 UNL     1       2.003  13.074  19.300  1.00  0.00     0.190 C 
HETATM   11  O5  UNL     1       2.971  12.378  18.505  1.00  0.00    -0.384 OA
HETATM   12  C27 UNL     1       2.475  11.796  17.303  1.00  0.00     0.122 C 
HETATM   13  C28 UNL     1       2.224  12.844  16.213  1.00  0.00     0.033 C 
HETATM   14  C29 UNL     1       2.312  12.281  14.785  1.00  0.00     0.013 C 
HETATM   15  C30 UNL     1       1.999  10.758  14.679  1.00  0.00    -0.026 C 
HETATM   16  C31 UNL     1       2.326  10.324  13.224  1.00  0.00     0.016 C 
HETATM   17  C32 UNL     1       3.004   9.995  15.600  1.00  0.00     0.071 C 
HETATM   18  C33 UNL     1       3.497  10.776  16.826  1.00  0.00     0.045 C 
HETATM   19  C34 UNL     1       2.519   8.628  16.032  1.00  0.00     0.154 C 
HETATM   20  O6  UNL     1       3.298   7.704  16.257  1.00  0.00    -0.293 OA
HETATM   21  C35 UNL     1       1.083   8.405  16.263  1.00  0.00     0.057 C 
HETATM   22  C36 UNL     1       0.144   9.256  15.832  1.00  0.00    -0.036 C 
HETATM   23  C37 UNL     1       0.460  10.519  15.031  1.00  0.00     0.026 C 
HETATM   24  C38 UNL     1      -0.470  10.656  13.785  1.00  0.00     0.011 C 
HETATM   25  C39 UNL     1      -1.953  10.324  14.019  1.00  0.00     0.014 C 
HETATM   26  C40 UNL     1      -2.118   8.962  14.733  1.00  0.00    -0.002 C 
HETATM   27  C41 UNL     1      -1.592   7.831  13.809  1.00  0.00     0.019 C 
ENDROOT
BRANCH   1  28
HETATM   28  C10 UNL     1      -4.748   8.279  14.281  1.00  0.00     0.087 C 
HETATM   29  C11 UNL     1      -4.438   8.463  12.784  1.00  0.00     0.049 C 
BRANCH  28  30
HETATM   30  C9  UNL     1      -5.171   6.789  14.558  1.00  0.00     0.181 C 
BRANCH  30  31
HETATM   31  C8  UNL     1      -6.247   6.198  13.622  1.00  0.00     0.160 C 
HETATM   32  C3  UNL     1      -7.734   6.269  13.991  1.00  0.00     0.051 C 
HETATM   33  C2  UNL     1      -8.312   5.210  13.029  1.00  0.00     0.021 C 
HETATM   34  C1  UNL     1      -8.728   5.829  11.691  1.00  0.00     0.013 C 
HETATM   35  C42 UNL     1      -7.164   4.206  12.837  1.00  0.00     0.149 C 
HETATM   36  O7  UNL     1      -5.988   4.779  13.459  1.00  0.00    -0.375 OA
BRANCH  32  37
HETATM   37  C4  UNL     1      -8.035   5.917  15.468  1.00  0.00     0.277 C 
BRANCH  37  38
HETATM   38  N1  UNL     1      -9.236   6.550  16.028  1.00  0.00     0.086 N 
HETATM   39  H8  UNL     1      -9.048   6.842  16.987  1.00  0.00     0.315 HD
BRANCH  38  40
HETATM   40  C5  UNL     1      -9.788   7.654  15.250  1.00  0.00     0.300 C 
BRANCH  40  41
HETATM   41  C6  UNL     1      -9.534   9.025  15.907  1.00  0.00     0.142 C 
HETATM   42  C7  UNL     1     -10.808   9.845  16.053  1.00  0.00     0.041 C 
BRANCH  41  43
HETATM   43  O1  UNL     1      -8.619   9.777  15.108  1.00  0.00    -0.394 OA
HETATM   44  H15 UNL     1      -7.753   9.340  15.170  1.00  0.00     0.210 HD
ENDBRANCH  41  43
ENDBRANCH  40  41
ENDBRANCH  38  40
ENDBRANCH  37  38
ENDBRANCH  32  37
BRANCH  35  45
HETATM   45  C43 UNL     1      -7.426   2.838  13.472  1.00  0.00     0.196 C 
BRANCH  45  46
HETATM   46  O8  UNL     1      -8.238   2.054  12.595  1.00  0.00    -0.398 OA
HETATM   47  H61 UNL     1      -7.843   2.159  11.709  1.00  0.00     0.209 HD
ENDBRANCH  45  46
ENDBRANCH  35  45
ENDBRANCH  30  31
BRANCH  30  48
HETATM   48  O2  UNL     1      -4.020   5.926  14.467  1.00  0.00    -0.390 OA
HETATM   49  H18 UNL     1      -4.382   5.016  14.500  1.00  0.00     0.210 HD
ENDBRANCH  30  48
ENDBRANCH  28  30
BRANCH  28  50
HETATM   50  O3  UNL     1      -5.872   9.114  14.583  1.00  0.00    -0.387 OA
HETATM   51  H22 UNL     1      -5.713   9.988  14.188  1.00  0.00     0.210 HD
ENDBRANCH  28  50
ENDBRANCH   1  28
BRANCH   9  52
HETATM   52  C20 UNL     1       1.871  11.292  21.151  1.00  0.00    -0.040 A 
HETATM   53  C21 UNL     1       1.733   9.895  21.111  1.00  0.00     0.008 A 
HETATM   54  C22 UNL     1       2.444   9.080  21.993  1.00  0.00     0.001 A 
HETATM   55  C23 UNL     1       3.304   9.647  22.930  1.00  0.00     0.000 A 
HETATM   56  C24 UNL     1       3.458  11.031  22.981  1.00  0.00     0.001 A 
HETATM   57  C25 UNL     1       2.748  11.848  22.098  1.00  0.00     0.008 A 
ENDBRANCH   9  52
TORSDOF 13
ENDMDL
MODEL 2
REMARK minimizedAffinity -8.97857857
REMARK CNNscore 0.428827673
REMARK CNNaffinity 7.22386408
REMARK  13 active torsions:
REMARK  status: ('A' for Active; 'I' for Inactive)
REMARK    1  A    between atoms: C3_3  and  C4_4 
REMARK    2  A    between atoms: C4_4  and  N1_5 
REMARK    3  A    between atoms: N1_5  and  C5_6 
REMARK    4  A    between atoms: C5_6  and  C6_7 
REMARK    5  A    between atoms: C6_7  and  O1_9 
REMARK    6  A    between atoms: C8_10  and  C9_11 
REMARK    7  A    between atoms: C9_11  and  O2_12 
REMARK    8  A    between atoms: C9_11  and  C10_13 
REMARK    9  A    between atoms: C10_13  and  O3_15 
REMARK   10  A    between atoms: C10_13  and  C12_16 
REMARK   11  A    between atoms: C19_24  and  C20_25 
REMARK   12  A    between atoms: C42_50  and  C43_51 
REMARK   13  A    between atoms: C43_51  and  O8_52 
ROOT
HETATM    1  C12 UNL     1      -2.461   7.426  14.079  1.00  0.00     0.034 C 
HETATM    2  C13 UNL     1      -2.122   8.145  12.740  1.00  0.00     0.012 C 
HETATM    3  C14 UNL     1      -1.920   9.634  13.076  1.00  0.00     0.044 C 
HETATM    4  C15 UNL     1      -1.656   9.652  14.590  1.00  0.00     0.093 C 
HETATM    5  O4  UNL     1      -0.375   9.085  14.957  1.00  0.00    -0.363 OA
HETATM    6  C16 UNL     1       0.776   9.252  14.142  1.00  0.00     0.263 C 
HETATM    7  C17 UNL     1       1.629  10.350  14.606  1.00  0.00    -0.080 C 
HETATM    8  C18 UNL     1       2.401  11.199  14.966  1.00  0.00    -0.093 C 
HETATM    9  C19 UNL     1       3.388  12.208  15.418  1.00  0.00     0.121 C 
HETATM   10  C26 UNL     1       3.172  12.655  16.886  1.00  0.00     0.190 C 
HETATM   11  O5  UNL     1       2.071  13.540  17.126  1.00  0.00    -0.384 OA
HETATM   12  C27 UNL     1       0.791  12.920  17.215  1.00  0.00     0.122 C 
HETATM   13  C28 UNL     1       0.592  12.191  18.548  1.00  0.00     0.033 C 
HETATM   14  C29 UNL     1      -0.882  12.065  18.967  1.00  0.00     0.013 C 
HETATM   15  C30 UNL     1      -1.888  12.087  17.777  1.00  0.00    -0.026 C 
HETATM   16  C31 UNL     1      -3.316  12.153  18.386  1.00  0.00     0.016 C 
HETATM   17  C32 UNL     1      -1.683  13.425  16.997  1.00  0.00     0.071 C 
HETATM   18  C33 UNL     1      -0.261  14.003  17.045  1.00  0.00     0.045 C 
HETATM   19  C34 UNL     1      -2.161  13.376  15.563  1.00  0.00     0.154 C 
HETATM   20  O6  UNL     1      -2.591  14.373  14.987  1.00  0.00    -0.293 OA
HETATM   21  C35 UNL     1      -2.048  12.122  14.801  1.00  0.00     0.057 C 
HETATM   22  C36 UNL     1      -1.816  10.942  15.388  1.00  0.00    -0.036 C 
HETATM   23  C37 UNL     1      -1.683  10.768  16.901  1.00  0.00     0.026 C 
HETATM   24  C38 UNL     1      -2.534   9.565  17.417  1.00  0.00     0.011 C 
HETATM   25  C39 UNL     1      -2.482   8.293  16.556  1.00  0.00     0.014 C 
HETATM   26  C40 UNL     1      -2.751   8.611  15.067  1.00  0.00    -0.002 C 
HETATM   27  C41 UNL     1      -4.200   9.146  14.910  1.00  0.00     0.019 C 
ENDROOT
BRANCH   1  28
HETATM   28  C10 UNL     1      -3.399   6.170  13.965  1.00  0.00     0.087 C 
HETATM   29  C11 UNL     1      -2.918   4.933  14.745  1.00  0.00     0.049 C 
BRANCH  28  30
HETATM   30  C9  UNL     1      -4.845   6.572  14.442  1.00  0.00     0.181 C 
BRANCH  30  31
HETATM   31  C8  UNL     1      -6.016   6.065  13.574  1.00  0.00     0.160 C 
HETATM   32  C3  UNL     1      -7.470   6.282  14.012  1.00  0.00     0.051 C 
HETATM   33  C2  UNL     1      -8.191   5.263  13.105  1.00  0.00     0.021 C 
HETATM   34  C1  UNL     1      -8.615   5.890  11.774  1.00  0.00     0.013 C 
HETATM   35  C42 UNL     1      -7.152   4.152  12.883  1.00  0.00     0.149 C 
HETATM   36  O7  UNL     1      -5.898   4.626  13.434  1.00  0.00    -0.375 OA
BRANCH  32  37
HETATM   37  C4  UNL     1      -7.728   5.989  15.510  1.00  0.00     0.277 C 
BRANCH  37  38
HETATM   38  N1  UNL     1      -9.062   6.363  15.998  1.00  0.00     0.086 N 
HETATM   39  H8  UNL     1      -9.099   6.236  17.010  1.00  0.00     0.315 HD
BRANCH  38  40
HETATM   40  C5  UNL     1      -9.519   7.697  15.626  1.00  0.00     0.300 C 
BRANCH  40  41
HETATM   41  C6  UNL     1     -10.792   7.664  14.757  1.00  0.00     0.142 C 
HETATM   42  C7  UNL     1     -11.871   8.607  15.271  1.00  0.00     0.041 C 
BRANCH  41  43
HETATM   43  O1  UNL     1     -11.334   6.342  14.752  1.00  0.00    -0.394 OA
HETATM   44  H15 UNL     1     -10.716   5.777  14.257  1.00  0.00     0.210 HD
ENDBRANCH  41  43
ENDBRANCH  40  41
ENDBRANCH  38  40
ENDBRANCH  37  38
ENDBRANCH  32  37
BRANCH  35  45
HETATM   45  C43 UNL     1      -7.507   2.828  13.563  1.00  0.00     0.196 C 
BRANCH  45  46
HETATM   46  O8  UNL     1      -8.212   1.994  12.642  1.00  0.00    -0.398 OA
HETATM   47  H61 UNL     1      -7.708   2.042  11.807  1.00  0.00     0.209 HD
ENDBRANCH  45  46
ENDBRANCH  35  45
ENDBRANCH  30  31
BRANCH  30  48
HETATM   48  O2  UNL     1      -5.075   6.084  15.779  1.00  0.00    -0.390 OA
HETATM   49  H18 UNL     1      -6.028   6.238  15.944  1.00  0.00     0.210 HD
ENDBRANCH  30  48
ENDBRANCH  28  30
BRANCH  28  50
HETATM   50  O3  UNL     1      -3.485   5.791  12.586  1.00  0.00    -0.387 OA
HETATM   51  H22 UNL     1      -2.671   5.314  12.354  1.00  0.00     0.210 HD
ENDBRANCH  28  50
ENDBRANCH   1  28
BRANCH   9  52
HETATM   52  C20 UNL     1       3.537  13.365  14.440  1.00  0.00    -0.040 A 
HETATM   53  C21 UNL     1       3.561  14.699  14.876  1.00  0.00     0.008 A 
HETATM   54  C22 UNL     1       3.690  15.748  13.964  1.00  0.00     0.001 A 
HETATM   55  C23 UNL     1       3.796  15.481  12.602  1.00  0.00     0.000 A 
HETATM   56  C24 UNL     1       3.779  14.162  12.151  1.00  0.00     0.001 A 
HETATM   57  C25 UNL     1       3.651  13.111  13.063  1.00  0.00     0.008 A 
ENDBRANCH   9  52
TORSDOF 13
ENDMDL
MODEL 3
REMARK minimizedAffinity -8.01928234
REMARK CNNscore 0.41637364
REMARK CNNaffinity 7.11248446
REMARK  13 active torsions:
REMARK  status: ('A' for Active; 'I' for Inactive)
REMARK    1  A    between atoms: C3_3  and  C4_4 
REMARK    2  A    between atoms: C4_4  and  N1_5 
REMARK    3  A    between atoms: N1_5  and  C5_6 
REMARK    4  A    between atoms: C5_6  and  C6_7 
REMARK    5  A    between atoms: C6_7  and  O1_9 
REMARK    6  A    between atoms: C8_10  and  C9_11 
REMARK    7  A    between atoms: C9_11  and  O2_12 
REMARK    8  A    between atoms: C9_11  and  C10_13 
REMARK    9  A    between atoms: C10_13  and  O3_15 
REMARK   10  A    between atoms: C10_13  and  C12_16 
REMARK   11  A    between atoms: C19_24  and  C20_25 
REMARK   12  A    between atoms: C42_50  and  C43_51 
REMARK   13  A    between atoms: C43_51  and  O8_52 
ROOT
HETATM    1  C12 UNL     1      -9.085  -9.659   1.478  1.00  0.00     0.034 C 
HETATM    2  C13 UNL     1     -10.102 -10.080   2.579  1.00  0.00     0.012 C 
HETATM    3  C14 UNL     1      -9.348 -11.007   3.549  1.00  0.00     0.044 C 
HETATM    4  C15 UNL     1      -7.863 -10.707   3.288  1.00  0.00     0.093 C 
HETATM    5  O4  UNL     1      -7.453  -9.395   3.746  1.00  0.00    -0.363 OA
HETATM    6  C16 UNL     1      -7.987  -8.817   4.928  1.00  0.00     0.263 C 
HETATM    7  C17 UNL     1      -7.107  -9.008   6.084  1.00  0.00    -0.080 C 
HETATM    8  C18 UNL     1      -6.406  -9.080   7.059  1.00  0.00    -0.093 C 
HETATM    9  C19 UNL     1      -5.539  -9.116   8.261  1.00  0.00     0.121 C 
HETATM   10  C26 UNL     1      -4.063  -9.458   7.935  1.00  0.00     0.190 C 
HETATM   11  O5  UNL     1      -3.781 -10.827   7.620  1.00  0.00    -0.384 OA
HETATM   12  C27 UNL     1      -4.080 -11.224   6.284  1.00  0.00     0.122 C 
HETATM   13  C28 UNL     1      -3.046 -10.703   5.280  1.00  0.00     0.033 C 
HETATM   14  C29 UNL     1      -2.931 -11.564   4.011  1.00  0.00     0.013 C 
HETATM   15  C30 UNL     1      -4.223 -12.364   3.664  1.00  0.00    -0.026 C 
HETATM   16  C31 UNL     1      -3.868 -13.318   2.490  1.00  0.00     0.016 C 
HETATM   17  C32 UNL     1      -4.566 -13.279   4.883  1.00  0.00     0.071 C 
HETATM   18  C33 UNL     1      -4.125 -12.743   6.252  1.00  0.00     0.045 C 
HETATM   19  C34 UNL     1      -6.019 -13.694   4.945  1.00  0.00     0.154 C 
HETATM   20  O6  UNL     1      -6.368 -14.767   5.432  1.00  0.00    -0.293 OA
HETATM   21  C35 UNL     1      -7.062 -12.765   4.479  1.00  0.00     0.057 C 
HETATM   22  C36 UNL     1      -6.785 -11.690   3.731  1.00  0.00    -0.036 C 
HETATM   23  C37 UNL     1      -5.375 -11.337   3.257  1.00  0.00     0.026 C 
HETATM   24  C38 UNL     1      -5.354 -10.979   1.738  1.00  0.00     0.011 C 
HETATM   25  C39 UNL     1      -6.505 -10.087   1.246  1.00  0.00     0.014 C 
HETATM   26  C40 UNL     1      -7.876 -10.635   1.705  1.00  0.00    -0.002 C 
HETATM   27  C41 UNL     1      -8.124 -12.017   1.042  1.00  0.00     0.019 C 
ENDROOT
BRANCH   1  28
HETATM   28  C10 UNL     1      -9.690  -9.378   0.055  1.00  0.00     0.087 C 
HETATM   29  C11 UNL     1     -11.027  -8.615   0.062  1.00  0.00     0.049 C 
BRANCH  28  30
HETATM   30  C9  UNL     1      -8.631  -8.589  -0.801  1.00  0.00     0.181 C 
BRANCH  30  31
HETATM   31  C8  UNL     1      -8.620  -8.882  -2.316  1.00  0.00     0.160 C 
HETATM   32  C3  UNL     1      -7.997  -7.889  -3.305  1.00  0.00     0.051 C 
HETATM   33  C2  UNL     1      -8.610  -8.390  -4.629  1.00  0.00     0.021 C 
HETATM   34  C1  UNL     1      -7.723  -9.444  -5.300  1.00  0.00     0.013 C 
HETATM   35  C42 UNL     1      -9.963  -8.992  -4.217  1.00  0.00     0.149 C 
HETATM   36  O7  UNL     1      -9.992  -9.021  -2.769  1.00  0.00    -0.375 OA
BRANCH  32  37
HETATM   37  C4  UNL     1      -8.368  -6.411  -3.033  1.00  0.00     0.277 C 
BRANCH  37  38
HETATM   38  N1  UNL     1      -8.485  -5.566  -4.229  1.00  0.00     0.086 N 
HETATM   39  H8  UNL     1      -8.321  -6.134  -5.060  1.00  0.00     0.315 HD
BRANCH  38  40
HETATM   40  C5  UNL     1      -9.729  -4.814  -4.352  1.00  0.00     0.300 C 
BRANCH  40  41
HETATM   41  C6  UNL     1      -9.776  -3.958  -5.633  1.00  0.00     0.142 C 
HETATM   42  C7  UNL     1     -10.469  -4.673  -6.785  1.00  0.00     0.041 C 
BRANCH  41  43
HETATM   43  O1  UNL     1      -8.446  -3.645  -6.049  1.00  0.00    -0.394 OA
HETATM   44  H15 UNL     1      -8.073  -3.034  -5.391  1.00  0.00     0.210 HD
ENDBRANCH  41  43
ENDBRANCH  40  41
ENDBRANCH  38  40
ENDBRANCH  37  38
ENDBRANCH  32  37
BRANCH  35  45
HETATM   45  C43 UNL     1     -11.172  -8.191  -4.708  1.00  0.00     0.196 C 
BRANCH  45  46
HETATM   46  O8  UNL     1     -11.707  -7.427  -3.626  1.00  0.00    -0.398 OA
HETATM   47  H61 UNL     1     -10.936  -7.011  -3.194  1.00  0.00     0.209 HD
ENDBRANCH  45  46
ENDBRANCH  35  45
ENDBRANCH  30  31
BRANCH  30  48
HETATM   48  O2  UNL     1      -8.837  -7.169  -0.652  1.00  0.00    -0.390 OA
HETATM   49  H18 UNL     1      -8.250  -6.757  -1.319  1.00  0.00     0.210 HD
ENDBRANCH  30  48
ENDBRANCH  28  30
BRANCH  28  50
HETATM   50  O3  UNL     1      -9.925 -10.633  -0.593  1.00  0.00    -0.387 OA
HETATM   51  H22 UNL     1     -10.740 -11.015  -0.225  1.00  0.00     0.210 HD
ENDBRANCH  28  50
ENDBRANCH   1  28
BRANCH   9  52
HETATM   52  C20 UNL     1      -6.128  -9.954   9.386  1.00  0.00    -0.040 A 
HETATM   53  C21 UNL     1      -5.348 -10.382  10.472  1.00  0.00     0.008 A 
HETATM   54  C22 UNL     1      -5.904 -11.157  11.492  1.00  0.00     0.001 A 
HETATM   55  C23 UNL     1      -7.247 -11.518  11.443  1.00  0.00     0.000 A 
HETATM   56  C24 UNL     1      -8.039 -11.097  10.375  1.00  0.00     0.001 A 
HETATM   57  C25 UNL     1      -7.484 -10.320   9.355  1.00  0.00     0.008 A 
ENDBRANCH   9  52
TORSDOF 13
ENDMDL
MODEL 4
REMARK minimizedAffinity -7.97298527
REMARK CNNscore 0.362355471
REMARK CNNaffinity 7.23576736
REMARK  13 active torsions:
REMARK  status: ('A' for Active; 'I' for Inactive)
REMARK    1  A    between atoms: C3_3  and  C4_4 
REMARK    2  A    between atoms: C4_4  and  N1_5 
REMARK    3  A    between atoms: N1_5  and  C5_6 
REMARK    4  A    between atoms: C5_6  and  C6_7 
REMARK    5  A    between atoms: C6_7  and  O1_9 
REMARK    6  A    between atoms: C8_10  and  C9_11 
REMARK    7  A    between atoms: C9_11  and  O2_12 
REMARK    8  A    between atoms: C9_11  and  C10_13 
REMARK    9  A    between atoms: C10_13  and  O3_15 
REMARK   10  A    between atoms: C10_13  and  C12_16 
REMARK   11  A    between atoms: C19_24  and  C20_25 
REMARK   12  A    between atoms: C42_50  and  C43_51 
REMARK   13  A    between atoms: C43_51  and  O8_52 
ROOT
HETATM    1  C12 UNL     1      -9.609  -7.649  -3.785  1.00  0.00     0.034 C 
HETATM    2  C13 UNL     1     -10.940  -8.381  -3.443  1.00  0.00     0.012 C 
HETATM    3  C14 UNL     1     -10.556  -9.669  -2.691  1.00  0.00     0.044 C 
HETATM    4  C15 UNL     1      -9.125  -9.410  -2.194  1.00  0.00     0.093 C 
HETATM    5  O4  UNL     1      -9.052  -8.415  -1.144  1.00  0.00    -0.363 OA
HETATM    6  C16 UNL     1     -10.064  -8.300  -0.154  1.00  0.00     0.263 C 
HETATM    7  C17 UNL     1      -9.707  -8.994   1.087  1.00  0.00    -0.080 C 
HETATM    8  C18 UNL     1      -9.452  -9.493   2.151  1.00  0.00    -0.093 C 
HETATM    9  C19 UNL     1      -9.138 -10.061   3.483  1.00  0.00     0.121 C 
HETATM   10  C26 UNL     1      -7.631 -10.365   3.675  1.00  0.00     0.190 C 
HETATM   11  O5  UNL     1      -7.124 -11.523   3.000  1.00  0.00    -0.384 OA
HETATM   12  C27 UNL     1      -6.827 -11.347   1.617  1.00  0.00     0.122 C 
HETATM   13  C28 UNL     1      -5.529 -10.561   1.400  1.00  0.00     0.033 C 
HETATM   14  C29 UNL     1      -4.839 -10.870   0.060  1.00  0.00     0.013 C 
HETATM   15  C30 UNL     1      -5.806 -11.367  -1.056  1.00  0.00    -0.026 C 
HETATM   16  C31 UNL     1      -4.927 -11.816  -2.256  1.00  0.00     0.016 C 
HETATM   17  C32 UNL     1      -6.524 -12.652  -0.534  1.00  0.00     0.071 C 
HETATM   18  C33 UNL     1      -6.719 -12.726   0.987  1.00  0.00     0.045 C 
HETATM   19  C34 UNL     1      -7.838 -12.942  -1.227  1.00  0.00     0.154 C 
HETATM   20  O6  UNL     1      -8.254 -14.089  -1.377  1.00  0.00    -0.293 OA
HETATM   21  C35 UNL     1      -8.686 -11.825  -1.676  1.00  0.00     0.057 C 
HETATM   22  C36 UNL     1      -8.231 -10.570  -1.771  1.00  0.00    -0.036 C 
HETATM   23  C37 UNL     1      -6.787 -10.174  -1.461  1.00  0.00     0.026 C 
HETATM   24  C38 UNL     1      -6.192  -9.258  -2.577  1.00  0.00     0.011 C 
HETATM   25  C39 UNL     1      -7.126  -8.157  -3.105  1.00  0.00     0.014 C 
HETATM   26  C40 UNL     1      -8.510  -8.730  -3.487  1.00  0.00    -0.002 C 
HETATM   27  C41 UNL     1      -8.347  -9.722  -4.669  1.00  0.00     0.019 C 
ENDROOT
BRANCH   1  28
HETATM   28  C10 UNL     1      -9.617  -6.792  -5.102  1.00  0.00     0.087 C 
HETATM   29  C11 UNL     1     -10.891  -6.933  -5.956  1.00  0.00     0.049 C 
BRANCH  28  30
HETATM   30  C9  UNL     1      -9.393  -5.280  -4.726  1.00  0.00     0.181 C 
BRANCH  30  31
HETATM   31  C8  UNL     1     -10.009  -4.239  -5.685  1.00  0.00     0.160 C 
HETATM   32  C3  UNL     1      -9.165  -3.083  -6.238  1.00  0.00     0.051 C 
HETATM   33  C2  UNL     1     -10.278  -2.137  -6.736  1.00  0.00     0.021 C 
HETATM   34  C1  UNL     1     -10.649  -2.418  -8.196  1.00  0.00     0.013 C 
HETATM   35  C42 UNL     1     -11.465  -2.423  -5.802  1.00  0.00     0.149 C 
HETATM   36  O7  UNL     1     -11.111  -3.581  -5.006  1.00  0.00    -0.375 OA
BRANCH  32  37
HETATM   37  C4  UNL     1      -8.268  -2.395  -5.181  1.00  0.00     0.277 C 
BRANCH  37  38
HETATM   38  N1  UNL     1      -6.940  -1.989  -5.659  1.00  0.00     0.086 N 
HETATM   39  H8  UNL     1      -6.262  -2.716  -5.432  1.00  0.00     0.315 HD
BRANCH  38  40
HETATM   40  C5  UNL     1      -6.861  -1.630  -7.071  1.00  0.00     0.300 C 
BRANCH  40  41
HETATM   41  C6  UNL     1      -6.662  -0.116  -7.285  1.00  0.00     0.142 C 
HETATM   42  C7  UNL     1      -7.982   0.632  -7.408  1.00  0.00     0.041 C 
BRANCH  41  43
HETATM   43  O1  UNL     1      -5.921   0.105  -8.486  1.00  0.00    -0.394 OA
HETATM   44  H15 UNL     1      -5.016  -0.215  -8.331  1.00  0.00     0.210 HD
ENDBRANCH  41  43
ENDBRANCH  40  41
ENDBRANCH  38  40
ENDBRANCH  37  38
ENDBRANCH  32  37
BRANCH  35  45
HETATM   45  C43 UNL     1     -11.798  -1.270  -4.853  1.00  0.00     0.196 C 
BRANCH  45  46
HETATM   46  O8  UNL     1     -11.132  -1.473  -3.605  1.00  0.00    -0.398 OA
HETATM   47  H61 UNL     1     -10.216  -1.722  -3.836  1.00  0.00     0.209 HD
ENDBRANCH  45  46
ENDBRANCH  35  45
ENDBRANCH  30  31
BRANCH  30  48
HETATM   48  O2  UNL     1      -9.934  -5.013  -3.417  1.00  0.00    -0.390 OA
HETATM   49  H18 UNL     1      -9.894  -4.039  -3.320  1.00  0.00     0.210 HD
ENDBRANCH  30  48
ENDBRANCH  28  30
BRANCH  28  50
HETATM   50  O3  UNL     1      -8.516  -7.205  -5.919  1.00  0.00    -0.387 OA
HETATM   51  H22 UNL     1      -8.760  -8.039  -6.355  1.00  0.00     0.210 HD
ENDBRANCH  28  50
ENDBRANCH   1  28
BRANCH   9  52
HETATM   52  C20 UNL     1     -10.050 -11.219   3.858  1.00  0.00    -0.040 A 
HETATM   53  C21 UNL     1      -9.589 -12.302   4.624  1.00  0.00     0.008 A 
HETATM   54  C22 UNL     1     -10.439 -13.361   4.952  1.00  0.00     0.001 A 
HETATM   55  C23 UNL     1     -11.762 -13.355   4.519  1.00  0.00     0.000 A 
HETATM   56  C24 UNL     1     -12.239 -12.285   3.763  1.00  0.00     0.001 A 
HETATM   57  C25 UNL     1     -11.391 -11.225   3.436  1.00  0.00     0.008 A 
ENDBRANCH   9  52
TORSDOF 13
ENDMDL
MODEL 5
REMARK minimizedAffinity -8.13137054
REMARK CNNscore 0.245145112
REMARK CNNaffinity 7.45109034
REMARK  13 active torsions:
REMARK  status: ('A' for Active; 'I' for Inactive)
REMARK    1  A    between atoms: C3_3  and  C4_4 
REMARK    2  A    between atoms: C4_4  and  N1_5 
REMARK    3  A    between atoms: N1_5  and  C5_6 
REMARK    4  A    between atoms: C5_6  and  C6_7 
REMARK    5  A    between atoms: C6_7  and  O1_9 
REMARK    6  A    between atoms: C8_10  and  C9_11 
REMARK    7  A    between atoms: C9_11  and  O2_12 
REMARK    8  A    between atoms: C9_11  and  C10_13 
REMARK    9  A    between atoms: C10_13  and  O3_15 
REMARK   10  A    between atoms: C10_13  and  C12_16 
REMARK   11  A    between atoms: C19_24  and  C20_25 
REMARK   12  A    between atoms: C42_50  and  C43_51 
REMARK   13  A    between atoms: C43_51  and  O8_52 
ROOT
HETATM    1  C12 UNL     1     -11.449   9.203  14.660  1.00  0.00     0.034 C 
HETATM    2  C13 UNL     1     -11.403   9.229  13.104  1.00  0.00     0.012 C 
HETATM    3  C14 UNL     1     -12.755   8.685  12.611  1.00  0.00     0.044 C 
HETATM    4  C15 UNL     1     -13.691   8.830  13.821  1.00  0.00     0.093 C 
HETATM    5  O4  UNL     1     -14.017  10.205  14.135  1.00  0.00    -0.363 OA
HETATM    6  C16 UNL     1     -14.192  11.181  13.117  1.00  0.00     0.263 C 
HETATM    7  C17 UNL     1     -15.604  11.387  12.784  1.00  0.00    -0.080 C 
HETATM    8  C18 UNL     1     -16.745  11.645  12.504  1.00  0.00    -0.093 C 
HETATM    9  C19 UNL     1     -18.143  12.012  12.175  1.00  0.00     0.121 C 
HETATM   10  C26 UNL     1     -19.163  11.534  13.240  1.00  0.00     0.190 C 
HETATM   11  O5  UNL     1     -19.471  10.135  13.243  1.00  0.00    -0.384 OA
HETATM   12  C27 UNL     1     -18.521   9.298  13.899  1.00  0.00     0.122 C 
HETATM   13  C28 UNL     1     -18.618   9.399  15.425  1.00  0.00     0.033 C 
HETATM   14  C29 UNL     1     -18.123   8.140  16.158  1.00  0.00     0.013 C 
HETATM   15  C30 UNL     1     -17.075   7.308  15.360  1.00  0.00    -0.026 C 
HETATM   16  C31 UNL     1     -16.843   5.989  16.149  1.00  0.00     0.016 C 
HETATM   17  C32 UNL     1     -17.723   6.895  13.999  1.00  0.00     0.071 C 
HETATM   18  C33 UNL     1     -18.774   7.869  13.449  1.00  0.00     0.045 C 
HETATM   19  C34 UNL     1     -16.716   6.572  12.917  1.00  0.00     0.154 C 
HETATM   20  O6  UNL     1     -16.954   5.752  12.033  1.00  0.00    -0.293 OA
HETATM   21  C35 UNL     1     -15.441   7.305  12.868  1.00  0.00     0.057 C 
HETATM   22  C36 UNL     1     -14.991   8.037  13.894  1.00  0.00    -0.036 C 
HETATM   23  C37 UNL     1     -15.731   8.157  15.227  1.00  0.00     0.026 C 
HETATM   24  C38 UNL     1     -14.767   7.952  16.438  1.00  0.00     0.011 C 
HETATM   25  C39 UNL     1     -13.399   8.645  16.327  1.00  0.00     0.014 C 
HETATM   26  C40 UNL     1     -12.721   8.335  14.973  1.00  0.00    -0.002 C 
HETATM   27  C41 UNL     1     -12.412   6.816  14.889  1.00  0.00     0.019 C 
ENDROOT
BRANCH   1  28
HETATM   28  C10 UNL     1     -10.073   8.977  15.385  1.00  0.00     0.087 C 
HETATM   29  C11 UNL     1     -10.152   8.940  16.922  1.00  0.00     0.049 C 
BRANCH  28  30
HETATM   30  C9  UNL     1      -9.431   7.643  14.852  1.00  0.00     0.181 C 
BRANCH  30  31
HETATM   31  C8  UNL     1      -7.927   7.698  14.507  1.00  0.00     0.160 C 
HETATM   32  C3  UNL     1      -7.337   6.792  13.419  1.00  0.00     0.051 C 
HETATM   33  C2  UNL     1      -5.835   6.891  13.756  1.00  0.00     0.021 C 
HETATM   34  C1  UNL     1      -5.161   8.045  13.006  1.00  0.00     0.013 C 
HETATM   35  C42 UNL     1      -5.802   7.130  15.274  1.00  0.00     0.149 C 
HETATM   36  O7  UNL     1      -7.168   7.364  15.698  1.00  0.00    -0.375 OA
BRANCH  32  37
HETATM   37  C4  UNL     1      -7.835   5.328  13.478  1.00  0.00     0.277 C 
BRANCH  37  38
HETATM   38  N1  UNL     1      -7.480   4.500  12.317  1.00  0.00     0.086 N 
HETATM   39  H8  UNL     1      -7.351   5.100  11.502  1.00  0.00     0.315 HD
BRANCH  38  40
HETATM   40  C5  UNL     1      -6.333   3.618  12.499  1.00  0.00     0.300 C 
BRANCH  40  41
HETATM   41  C6  UNL     1      -6.729   2.128  12.504  1.00  0.00     0.142 C 
HETATM   42  C7  UNL     1      -6.195   1.381  11.290  1.00  0.00     0.041 C 
BRANCH  41  43
HETATM   43  O1  UNL     1      -8.153   2.011  12.499  1.00  0.00    -0.394 OA
HETATM   44  H15 UNL     1      -8.472   2.326  13.361  1.00  0.00     0.210 HD
ENDBRANCH  41  43
ENDBRANCH  40  41
ENDBRANCH  38  40
ENDBRANCH  37  38
ENDBRANCH  32  37
BRANCH  35  45
HETATM   45  C43 UNL     1      -5.246   5.949  16.074  1.00  0.00     0.196 C 
BRANCH  45  46
HETATM   46  O8  UNL     1      -3.860   6.169  16.345  1.00  0.00    -0.398 OA
HETATM   47  H61 UNL     1      -3.797   7.094  16.652  1.00  0.00     0.209 HD
ENDBRANCH  45  46
ENDBRANCH  35  45
ENDBRANCH  30  31
BRANCH  30  48
HETATM   48  O2  UNL     1      -9.597   6.593  15.826  1.00  0.00    -0.390 OA
HETATM   49  H18 UNL     1      -9.050   5.851  15.494  1.00  0.00     0.210 HD
ENDBRANCH  30  48
ENDBRANCH  28  30
BRANCH  28  50
HETATM   50  O3  UNL     1      -9.195  10.054  15.035  1.00  0.00    -0.387 OA
HETATM   51  H22 UNL     1      -9.446  10.831  15.562  1.00  0.00     0.210 HD
ENDBRANCH  28  50
ENDBRANCH   1  28
BRANCH   9  52
HETATM   52  C20 UNL     1     -18.528  11.646  10.749  1.00  0.00    -0.040 A 
HETATM   53  C21 UNL     1     -18.866  12.626   9.803  1.00  0.00     0.008 A 
HETATM   54  C22 UNL     1     -19.225  12.270   8.501  1.00  0.00     0.001 A 
HETATM   55  C23 UNL     1     -19.253  10.930   8.125  1.00  0.00     0.000 A 
HETATM   56  C24 UNL     1     -18.914   9.944   9.050  1.00  0.00     0.001 A 
HETATM   57  C25 UNL     1     -18.553  10.298  10.352  1.00  0.00     0.008 A 
ENDBRANCH   9  52
TORSDOF 13
ENDMDL
MODEL 6
REMARK minimizedAffinity -8.32948875
REMARK CNNscore 0.244707331
REMARK CNNaffinity 6.41727257
REMARK  13 active torsions:
REMARK  status: ('A' for Active; 'I' for Inactive)
REMARK    1  A    between atoms: C3_3  and  C4_4 
REMARK    2  A    between atoms: C4_4  and  N1_5 
REMARK    3  A    between atoms: N1_5  and  C5_6 
REMARK    4  A    between atoms: C5_6  and  C6_7 
REMARK    5  A    between atoms: C6_7  and  O1_9 
REMARK    6  A    between atoms: C8_10  and  C9_11 
REMARK    7  A    between atoms: C9_11  and  O2_12 
REMARK    8  A    between atoms: C9_11  and  C10_13 
REMARK    9  A    between atoms: C10_13  and  O3_15 
REMARK   10  A    between atoms: C10_13  and  C12_16 
REMARK   11  A    between atoms: C19_24  and  C20_25 
REMARK   12  A    between atoms: C42_50  and  C43_51 
REMARK   13  A    between atoms: C43_51  and  O8_52 
ROOT
HETATM    1  C12 UNL     1       2.815  11.894  20.950  1.00  0.00     0.034 C 
HETATM    2  C13 UNL     1       2.847  11.414  22.431  1.00  0.00     0.012 C 
HETATM    3  C14 UNL     1       4.167  11.926  23.035  1.00  0.00     0.044 C 
HETATM    4  C15 UNL     1       4.602  13.061  22.095  1.00  0.00     0.093 C 
HETATM    5  O4  UNL     1       3.758  14.234  22.179  1.00  0.00    -0.363 OA
HETATM    6  C16 UNL     1       3.188  14.656  23.410  1.00  0.00     0.263 C 
HETATM    7  C17 UNL     1       3.970  15.719  24.047  1.00  0.00    -0.080 C 
HETATM    8  C18 UNL     1       4.533  16.630  24.595  1.00  0.00    -0.093 C 
HETATM    9  C19 UNL     1       5.184  17.782  25.262  1.00  0.00     0.121 C 
HETATM   10  C26 UNL     1       6.154  18.555  24.333  1.00  0.00     0.190 C 
HETATM   11  O5  UNL     1       7.413  17.927  24.063  1.00  0.00    -0.384 OA
HETATM   12  C27 UNL     1       7.392  16.914  23.060  1.00  0.00     0.122 C 
HETATM   13  C28 UNL     1       7.298  17.500  21.647  1.00  0.00     0.033 C 
HETATM   14  C29 UNL     1       7.889  16.587  20.561  1.00  0.00     0.013 C 
HETATM   15  C30 UNL     1       7.878  15.072  20.926  1.00  0.00    -0.026 C 
HETATM   16  C31 UNL     1       8.682  14.330  19.822  1.00  0.00     0.016 C 
HETATM   17  C32 UNL     1       8.685  14.890  22.251  1.00  0.00     0.071 C 
HETATM   18  C33 UNL     1       8.663  16.092  23.205  1.00  0.00     0.045 C 
HETATM   19  C34 UNL     1       8.330  13.632  23.014  1.00  0.00     0.154 C 
HETATM   20  O6  UNL     1       9.153  13.042  23.711  1.00  0.00    -0.293 OA
HETATM   21  C35 UNL     1       6.947  13.130  22.986  1.00  0.00     0.057 C 
HETATM   22  C36 UNL     1       6.046  13.552  22.091  1.00  0.00    -0.036 C 
HETATM   23  C37 UNL     1       6.366  14.565  20.991  1.00  0.00     0.026 C 
HETATM   24  C38 UNL     1       5.829  14.092  19.603  1.00  0.00     0.011 C 
HETATM   25  C39 UNL     1       4.419  13.479  19.607  1.00  0.00     0.014 C 
HETATM   26  C40 UNL     1       4.283  12.389  20.695  1.00  0.00    -0.002 C 
HETATM   27  C41 UNL     1       5.236  11.210  20.362  1.00  0.00     0.019 C 
ENDROOT
BRANCH   1  28
HETATM   28  C10 UNL     1       2.050  10.962  19.942  1.00  0.00     0.087 C 
HETATM   29  C11 UNL     1       0.548  10.791  20.236  1.00  0.00     0.049 C 
BRANCH  28  30
HETATM   30  C9  UNL     1       2.247  11.521  18.484  1.00  0.00     0.181 C 
BRANCH  30  31
HETATM   31  C8  UNL     1       2.834  10.537  17.449  1.00  0.00     0.160 C 
HETATM   32  C3  UNL     1       3.004  10.949  15.982  1.00  0.00     0.051 C 
HETATM   33  C2  UNL     1       3.180   9.566  15.321  1.00  0.00     0.021 C 
HETATM   34  C1  UNL     1       4.653   9.151  15.260  1.00  0.00     0.013 C 
HETATM   35  C42 UNL     1       2.377   8.612  16.219  1.00  0.00     0.149 C 
HETATM   36  O7  UNL     1       1.980   9.364  17.392  1.00  0.00    -0.375 OA
BRANCH  32  37
HETATM   37  C4  UNL     1       1.789  11.707  15.394  1.00  0.00     0.277 C 
BRANCH  37  38
HETATM   38  N1  UNL     1       0.888  10.895  14.565  1.00  0.00     0.086 N 
HETATM   39  H8  UNL     1       1.129   9.910  14.671  1.00  0.00     0.315 HD
BRANCH  38  40
HETATM   40  C5  UNL     1      -0.537  11.108  14.789  1.00  0.00     0.300 C 
BRANCH  40  41
HETATM   41  C6  UNL     1      -0.893  12.600  14.950  1.00  0.00     0.142 C 
HETATM   42  C7  UNL     1      -1.991  12.827  15.979  1.00  0.00     0.041 C 
BRANCH  41  43
HETATM   43  O1  UNL     1      -1.350  13.121  13.701  1.00  0.00    -0.394 OA
HETATM   44  H15 UNL     1      -0.587  13.141  13.099  1.00  0.00     0.210 HD
ENDBRANCH  41  43
ENDBRANCH  40  41
ENDBRANCH  38  40
ENDBRANCH  37  38
ENDBRANCH  32  37
BRANCH  35  45
HETATM   45  C43 UNL     1       1.115   8.053  15.556  1.00  0.00     0.196 C 
BRANCH  45  46
HETATM   46  O8  UNL     1       1.412   6.792  14.954  1.00  0.00    -0.398 OA
HETATM   47  H61 UNL     1       1.922   6.297  15.624  1.00  0.00     0.209 HD
ENDBRANCH  45  46
ENDBRANCH  35  45
ENDBRANCH  30  31
BRANCH  30  48
HETATM   48  O2  UNL     1       0.986  11.978  17.957  1.00  0.00    -0.390 OA
HETATM   49  H18 UNL     1       1.160  12.166  17.011  1.00  0.00     0.210 HD
ENDBRANCH  30  48
ENDBRANCH  28  30
BRANCH  28  50
HETATM   50  O3  UNL     1       2.639   9.658  19.993  1.00  0.00    -0.387 OA
HETATM   51  H22 UNL     1       2.313   9.211  20.792  1.00  0.00     0.210 HD
ENDBRANCH  28  50
ENDBRANCH   1  28
BRANCH   9  52
HETATM   52  C20 UNL     1       5.788  17.416  26.610  1.00  0.00    -0.040 A 
HETATM   53  C21 UNL     1       7.175  17.429  26.824  1.00  0.00     0.008 A 
HETATM   54  C22 UNL     1       7.712  17.083  28.066  1.00  0.00     0.001 A 
HETATM   55  C23 UNL     1       6.871  16.718  29.114  1.00  0.00     0.000 A 
HETATM   56  C24 UNL     1       5.490  16.706  28.921  1.00  0.00     0.001 A 
HETATM   57  C25 UNL     1       4.952  17.053  27.680  1.00  0.00     0.008 A 
ENDBRANCH   9  52
TORSDOF 13
ENDMDL
MODEL 7
REMARK minimizedAffinity -8.06209278
REMARK CNNscore 0.240421966
REMARK CNNaffinity 6.75180435
REMARK  13 active torsions:
REMARK  status: ('A' for Active; 'I' for Inactive)
REMARK    1  A    between atoms: C3_3  and  C4_4 
REMARK    2  A    between atoms: C4_4  and  N1_5 
REMARK    3  A    between atoms: N1_5  and  C5_6 
REMARK    4  A    between atoms: C5_6  and  C6_7 
REMARK    5  A    between atoms: C6_7  and  O1_9 
REMARK    6  A    between atoms: C8_10  and  C9_11 
REMARK    7  A    between atoms: C9_11  and  O2_12 
REMARK    8  A    between atoms: C9_11  and  C10_13 
REMARK    9  A    between atoms: C10_13  and  O3_15 
REMARK   10  A    between atoms: C10_13  and  C12_16 
REMARK   11  A    between atoms: C19_24  and  C20_25 
REMARK   12  A    between atoms: C42_50  and  C43_51 
REMARK   13  A    between atoms: C43_51  and  O8_52 
ROOT
HETATM    1  C12 UNL     1      -5.141 -10.550   5.424  1.00  0.00     0.034 C 
HETATM    2  C13 UNL     1      -4.475 -11.874   4.946  1.00  0.00     0.012 C 
HETATM    3  C14 UNL     1      -5.346 -12.421   3.801  1.00  0.00     0.044 C 
HETATM    4  C15 UNL     1      -6.160 -11.206   3.327  1.00  0.00     0.093 C 
HETATM    5  O4  UNL     1      -5.361 -10.208   2.647  1.00  0.00    -0.363 OA
HETATM    6  C16 UNL     1      -4.272 -10.568   1.809  1.00  0.00     0.263 C 
HETATM    7  C17 UNL     1      -4.647 -10.592   0.393  1.00  0.00    -0.080 C 
HETATM    8  C18 UNL     1      -4.872 -10.574  -0.788  1.00  0.00    -0.093 C 
HETATM    9  C19 UNL     1      -5.116 -10.515  -2.249  1.00  0.00     0.121 C 
HETATM   10  C26 UNL     1      -6.400  -9.730  -2.620  1.00  0.00     0.190 C 
HETATM   11  O5  UNL     1      -7.645 -10.399  -2.382  1.00  0.00    -0.384 OA
HETATM   12  C27 UNL     1      -8.113 -10.365  -1.036  1.00  0.00     0.122 C 
HETATM   13  C28 UNL     1      -8.691  -8.997  -0.659  1.00  0.00     0.033 C 
HETATM   14  C29 UNL     1      -9.737  -9.059   0.467  1.00  0.00     0.013 C 
HETATM   15  C30 UNL     1      -9.574 -10.279   1.423  1.00  0.00    -0.026 C 
HETATM   16  C31 UNL     1     -10.813 -10.295   2.360  1.00  0.00     0.016 C 
HETATM   17  C32 UNL     1      -9.660 -11.580   0.562  1.00  0.00     0.071 C 
HETATM   18  C33 UNL     1      -9.174 -11.443  -0.888  1.00  0.00     0.045 C 
HETATM   19  C34 UNL     1      -9.003 -12.782   1.204  1.00  0.00     0.154 C 
HETATM   20  O6  UNL     1      -9.405 -13.926   1.005  1.00  0.00    -0.293 OA
HETATM   21  C35 UNL     1      -7.803 -12.597   2.037  1.00  0.00     0.057 C 
HETATM   22  C36 UNL     1      -7.427 -11.399   2.501  1.00  0.00    -0.036 C 
HETATM   23  C37 UNL     1      -8.217 -10.115   2.247  1.00  0.00     0.026 C 
HETATM   24  C38 UNL     1      -8.406  -9.289   3.558  1.00  0.00     0.011 C 
HETATM   25  C39 UNL     1      -7.169  -9.187   4.466  1.00  0.00     0.014 C 
HETATM   26  C40 UNL     1      -6.549 -10.578   4.729  1.00  0.00    -0.002 C 
HETATM   27  C41 UNL     1      -7.560 -11.451   5.520  1.00  0.00     0.019 C 
ENDROOT
BRANCH   1  28
HETATM   28  C10 UNL     1      -4.954 -10.197   6.943  1.00  0.00     0.087 C 
HETATM   29  C11 UNL     1      -3.717  -9.336   7.258  1.00  0.00     0.049 C 
BRANCH  28  30
HETATM   30  C9  UNL     1      -6.253  -9.472   7.459  1.00  0.00     0.181 C 
BRANCH  30  31
HETATM   31  C8  UNL     1      -6.780  -9.916   8.841  1.00  0.00     0.160 C 
HETATM   32  C3  UNL     1      -8.233  -9.644   9.251  1.00  0.00     0.051 C 
HETATM   33  C2  UNL     1      -8.135  -9.850  10.778  1.00  0.00     0.021 C 
HETATM   34  C1  UNL     1      -8.412 -11.304  11.172  1.00  0.00     0.013 C 
HETATM   35  C42 UNL     1      -6.691  -9.452  11.122  1.00  0.00     0.149 C 
HETATM   36  O7  UNL     1      -5.992  -9.260   9.868  1.00  0.00    -0.375 OA
BRANCH  32  37
HETATM   37  C4  UNL     1      -8.732  -8.221   8.902  1.00  0.00     0.277 C 
BRANCH  37  38
HETATM   38  N1  UNL     1     -10.176  -8.008   9.070  1.00  0.00     0.086 N 
HETATM   39  H8  UNL     1     -10.396  -7.030   8.883  1.00  0.00     0.315 HD
BRANCH  38  40
HETATM   40  C5  UNL     1     -11.038  -8.892   8.293  1.00  0.00     0.300 C 
BRANCH  40  41
HETATM   41  C6  UNL     1     -11.791  -8.146   7.173  1.00  0.00     0.142 C 
HETATM   42  C7  UNL     1     -11.078  -8.241   5.831  1.00  0.00     0.041 C 
BRANCH  41  43
HETATM   43  O1  UNL     1     -11.904  -6.763   7.511  1.00  0.00    -0.394 OA
HETATM   44  H15 UNL     1     -12.514  -6.698   8.265  1.00  0.00     0.210 HD
ENDBRANCH  41  43
ENDBRANCH  40  41
ENDBRANCH  38  40
ENDBRANCH  37  38
ENDBRANCH  32  37
BRANCH  35  45
HETATM   45  C43 UNL     1      -6.582  -8.161  11.937  1.00  0.00     0.196 C 
BRANCH  45  46
HETATM   46  O8  UNL     1      -6.366  -8.483  13.312  1.00  0.00    -0.398 OA
HETATM   47  H61 UNL     1      -5.672  -9.170  13.314  1.00  0.00     0.209 HD
ENDBRANCH  45  46
ENDBRANCH  35  45
ENDBRANCH  30  31
BRANCH  30  48
HETATM   48  O2  UNL     1      -6.026  -8.051   7.536  1.00  0.00    -0.390 OA
HETATM   49  H18 UNL     1      -6.812  -7.694   7.999  1.00  0.00     0.210 HD
ENDBRANCH  30  48
ENDBRANCH  28  30
BRANCH  28  50
HETATM   50  O3  UNL     1      -4.815 -11.418   7.679  1.00  0.00    -0.387 OA
HETATM   51  H22 UNL     1      -3.908 -11.744   7.553  1.00  0.00     0.210 HD
ENDBRANCH  28  50
ENDBRANCH   1  28
BRANCH   9  52
HETATM   52  C20 UNL     1      -5.015 -11.877  -2.919  1.00  0.00    -0.040 A 
HETATM   53  C21 UNL     1      -4.025 -12.158  -3.874  1.00  0.00     0.008 A 
HETATM   54  C22 UNL     1      -3.953 -13.411  -4.484  1.00  0.00     0.001 A 
HETATM   55  C23 UNL     1      -4.870 -14.405  -4.150  1.00  0.00     0.000 A 
HETATM   56  C24 UNL     1      -5.856 -14.146  -3.200  1.00  0.00     0.001 A 
HETATM   57  C25 UNL     1      -5.928 -12.893  -2.588  1.00  0.00     0.008 A 
ENDBRANCH   9  52
TORSDOF 13
ENDMDL
MODEL 8
REMARK minimizedAffinity -7.65934944
REMARK CNNscore 0.237559006
REMARK CNNaffinity 6.36880875
REMARK  13 active torsions:
REMARK  status: ('A' for Active; 'I' for Inactive)
REMARK    1  A    between atoms: C3_3  and  C4_4 
REMARK    2  A    between atoms: C4_4  and  N1_5 
REMARK    3  A    between atoms: N1_5  and  C5_6 
REMARK    4  A    between atoms: C5_6  and  C6_7 
REMARK    5  A    between atoms: C6_7  and  O1_9 
REMARK    6  A    between atoms: C8_10  and  C9_11 
REMARK    7  A    between atoms: C9_11  and  O2_12 
REMARK    8  A    between atoms: C9_11  and  C10_13 
REMARK    9  A    between atoms: C10_13  and  O3_15 
REMARK   10  A    between atoms: C10_13  and  C12_16 
REMARK   11  A    between atoms: C19_24  and  C20_25 
REMARK   12  A    between atoms: C42_50  and  C43_51 
REMARK   13  A    between atoms: C43_51  and  O8_52 
ROOT
HETATM    1  C12 UNL     1       2.840  11.923  20.945  1.00  0.00     0.034 C 
HETATM    2  C13 UNL     1       2.867  11.434  22.423  1.00  0.00     0.012 C 
HETATM    3  C14 UNL     1       4.192  11.930  23.030  1.00  0.00     0.044 C 
HETATM    4  C15 UNL     1       4.639  13.066  22.096  1.00  0.00     0.093 C 
HETATM    5  O4  UNL     1       3.806  14.247  22.187  1.00  0.00    -0.363 OA
HETATM    6  C16 UNL     1       3.240  14.668  23.421  1.00  0.00     0.263 C 
HETATM    7  C17 UNL     1       4.034  15.719  24.064  1.00  0.00    -0.080 C 
HETATM    8  C18 UNL     1       4.605  16.621  24.616  1.00  0.00    -0.093 C 
HETATM    9  C19 UNL     1       5.268  17.763  25.290  1.00  0.00     0.121 C 
HETATM   10  C26 UNL     1       6.245  18.532  24.364  1.00  0.00     0.190 C 
HETATM   11  O5  UNL     1       7.498  17.893  24.091  1.00  0.00    -0.384 OA
HETATM   12  C27 UNL     1       7.467  16.886  23.083  1.00  0.00     0.122 C 
HETATM   13  C28 UNL     1       7.378  17.481  21.673  1.00  0.00     0.033 C 
HETATM   14  C29 UNL     1       7.960  16.567  20.581  1.00  0.00     0.013 C 
HETATM   15  C30 UNL     1       7.935  15.051  20.938  1.00  0.00    -0.026 C 
HETATM   16  C31 UNL     1       8.731  14.307  19.830  1.00  0.00     0.016 C 
HETATM   17  C32 UNL     1       8.739  14.853  22.262  1.00  0.00     0.071 C 
HETATM   18  C33 UNL     1       8.729  16.051  23.223  1.00  0.00     0.045 C 
HETATM   19  C34 UNL     1       8.373  13.595  23.018  1.00  0.00     0.154 C 
HETATM   20  O6  UNL     1       9.189  12.993  23.712  1.00  0.00    -0.293 OA
HETATM   21  C35 UNL     1       6.984  13.106  22.988  1.00  0.00     0.057 C 
HETATM   22  C36 UNL     1       6.088  13.543  22.095  1.00  0.00    -0.036 C 
HETATM   23  C37 UNL     1       6.418  14.558  21.001  1.00  0.00     0.026 C 
HETATM   24  C38 UNL     1       5.876  14.099  19.610  1.00  0.00     0.011 C 
HETATM   25  C39 UNL     1       4.459  13.500  19.611  1.00  0.00     0.014 C 
HETATM   26  C40 UNL     1       4.313  12.406  20.693  1.00  0.00    -0.002 C 
HETATM   27  C41 UNL     1       5.254  11.218  20.353  1.00  0.00     0.019 C 
ENDROOT
BRANCH   1  28
HETATM   28  C10 UNL     1       2.065  11.005  19.933  1.00  0.00     0.087 C 
HETATM   29  C11 UNL     1       0.623  10.661  20.347  1.00  0.00     0.049 C 
BRANCH  28  30
HETATM   30  C9  UNL     1       2.063  11.697  18.519  1.00  0.00     0.181 C 
BRANCH  30  31
HETATM   31  C8  UNL     1       1.526  10.850  17.345  1.00  0.00     0.160 C 
HETATM   32  C3  UNL     1       2.308  10.748  16.029  1.00  0.00     0.051 C 
HETATM   33  C2  UNL     1       1.208  10.208  15.091  1.00  0.00     0.021 C 
HETATM   34  C1  UNL     1       1.185   8.676  15.069  1.00  0.00     0.013 C 
HETATM   35  C42 UNL     1      -0.098  10.769  15.677  1.00  0.00     0.149 C 
HETATM   36  O7  UNL     1       0.233  11.377  16.950  1.00  0.00    -0.375 OA
BRANCH  32  37
HETATM   37  C4  UNL     1       2.872  12.097  15.523  1.00  0.00     0.277 C 
BRANCH  37  38
HETATM   38  N1  UNL     1       4.305  12.093  15.201  1.00  0.00     0.086 N 
HETATM   39  H8  UNL     1       4.678  11.153  15.331  1.00  0.00     0.315 HD
BRANCH  38  40
HETATM   40  C5  UNL     1       4.657  12.612  13.883  1.00  0.00     0.300 C 
BRANCH  40  41
HETATM   41  C6  UNL     1       5.332  11.550  12.992  1.00  0.00     0.142 C 
HETATM   42  C7  UNL     1       6.728  11.186  13.478  1.00  0.00     0.041 C 
BRANCH  41  43
HETATM   43  O1  UNL     1       5.450  12.049  11.659  1.00  0.00    -0.394 OA
HETATM   44  H15 UNL     1       4.552  12.105  11.290  1.00  0.00     0.210 HD
ENDBRANCH  41  43
ENDBRANCH  40  41
ENDBRANCH  38  40
ENDBRANCH  37  38
ENDBRANCH  32  37
BRANCH  35  45
HETATM   45  C43 UNL     1      -0.766  11.827  14.796  1.00  0.00     0.196 C 
BRANCH  45  46
HETATM   46  O8  UNL     1      -1.341  11.199  13.650  1.00  0.00    -0.398 OA
HETATM   47  H61 UNL     1      -1.817  10.418  13.991  1.00  0.00     0.209 HD
ENDBRANCH  45  46
ENDBRANCH  35  45
ENDBRANCH  30  31
BRANCH  30  48
HETATM   48  O2  UNL     1       1.271  12.901  18.561  1.00  0.00    -0.390 OA
HETATM   49  H18 UNL     1       1.194  13.186  17.628  1.00  0.00     0.210 HD
ENDBRANCH  30  48
ENDBRANCH  28  30
BRANCH  28  50
HETATM   50  O3  UNL     1       2.774   9.766  19.811  1.00  0.00    -0.387 OA
HETATM   51  H22 UNL     1       2.572   9.225  20.592  1.00  0.00     0.210 HD
ENDBRANCH  28  50
ENDBRANCH   1  28
BRANCH   9  52
HETATM   52  C20 UNL     1       5.868  17.384  26.636  1.00  0.00    -0.040 A 
HETATM   53  C21 UNL     1       5.068  17.204  27.775  1.00  0.00     0.008 A 
HETATM   54  C22 UNL     1       5.637  16.864  29.004  1.00  0.00     0.001 A 
HETATM   55  C23 UNL     1       7.016  16.701  29.114  1.00  0.00     0.000 A 
HETATM   56  C24 UNL     1       7.825  16.870  27.992  1.00  0.00     0.001 A 
HETATM   57  C25 UNL     1       7.257  17.209  26.762  1.00  0.00     0.008 A 
ENDBRANCH   9  52
TORSDOF 13
ENDMDL
MODEL 9
REMARK minimizedAffinity -7.93639326
REMARK CNNscore 0.223776981
REMARK CNNaffinity 6.17886209
REMARK  13 active torsions:
REMARK  status: ('A' for Active; 'I' for Inactive)
REMARK    1  A    between atoms: C3_3  and  C4_4 
REMARK    2  A    between atoms: C4_4  and  N1_5 
REMARK    3  A    between atoms: N1_5  and  C5_6 
REMARK    4  A    between atoms: C5_6  and  C6_7 
REMARK    5  A    between atoms: C6_7  and  O1_9 
REMARK    6  A    between atoms: C8_10  and  C9_11 
REMARK    7  A    between atoms: C9_11  and  O2_12 
REMARK    8  A    between atoms: C9_11  and  C10_13 
REMARK    9  A    between atoms: C10_13  and  O3_15 
REMARK   10  A    between atoms: C10_13  and  C12_16 
REMARK   11  A    between atoms: C19_24  and  C20_25 
REMARK   12  A    between atoms: C42_50  and  C43_51 
REMARK   13  A    between atoms: C43_51  and  O8_52 
ROOT
HETATM    1  C12 UNL     1       2.890  12.232  21.056  1.00  0.00     0.034 C 
HETATM    2  C13 UNL     1       2.938  11.710  22.522  1.00  0.00     0.012 C 
HETATM    3  C14 UNL     1       4.295  12.147  23.104  1.00  0.00     0.044 C 
HETATM    4  C15 UNL     1       4.758  13.286  22.182  1.00  0.00     0.093 C 
HETATM    5  O4  UNL     1       3.969  14.493  22.320  1.00  0.00    -0.363 OA
HETATM    6  C16 UNL     1       3.451  14.906  23.576  1.00  0.00     0.263 C 
HETATM    7  C17 UNL     1       4.297  15.915  24.219  1.00  0.00    -0.080 C 
HETATM    8  C18 UNL     1       4.914  16.785  24.775  1.00  0.00    -0.093 C 
HETATM    9  C19 UNL     1       5.634  17.888  25.454  1.00  0.00     0.121 C 
HETATM   10  C26 UNL     1       6.614  18.642  24.519  1.00  0.00     0.190 C 
HETATM   11  O5  UNL     1       7.836  17.966  24.199  1.00  0.00    -0.384 OA
HETATM   12  C27 UNL     1       7.743  16.983  23.171  1.00  0.00     0.122 C 
HETATM   13  C28 UNL     1       7.639  17.611  21.777  1.00  0.00     0.033 C 
HETATM   14  C29 UNL     1       8.160  16.702  20.652  1.00  0.00     0.013 C 
HETATM   15  C30 UNL     1       8.090  15.179  20.977  1.00  0.00    -0.026 C 
HETATM   16  C31 UNL     1       8.830  14.433  19.833  1.00  0.00     0.016 C 
HETATM   17  C32 UNL     1       8.921  14.926  22.275  1.00  0.00     0.071 C 
HETATM   18  C33 UNL     1       8.978  16.102  23.261  1.00  0.00     0.045 C 
HETATM   19  C34 UNL     1       8.530  13.665  23.014  1.00  0.00     0.154 C 
HETATM   20  O6  UNL     1       9.343  13.020  23.674  1.00  0.00    -0.293 OA
HETATM   21  C35 UNL     1       7.125  13.225  23.011  1.00  0.00     0.057 C 
HETATM   22  C36 UNL     1       6.221  13.712  22.152  1.00  0.00    -0.036 C 
HETATM   23  C37 UNL     1       6.559  14.739  21.070  1.00  0.00     0.026 C 
HETATM   24  C38 UNL     1       5.965  14.329  19.686  1.00  0.00     0.011 C 
HETATM   25  C39 UNL     1       4.529  13.780  19.712  1.00  0.00     0.014 C 
HETATM   26  C40 UNL     1       4.372  12.668  20.775  1.00  0.00    -0.002 C 
HETATM   27  C41 UNL     1       5.261  11.456  20.385  1.00  0.00     0.019 C 
ENDROOT
BRANCH   1  28
HETATM   28  C10 UNL     1       2.057  11.363  20.046  1.00  0.00     0.087 C 
HETATM   29  C11 UNL     1       1.252  10.219  20.690  1.00  0.00     0.049 C 
BRANCH  28  30
HETATM   30  C9  UNL     1       1.090  12.308  19.240  1.00  0.00     0.181 C 
BRANCH  30  31
HETATM   31  C8  UNL     1      -0.375  11.837  19.113  1.00  0.00     0.160 C 
HETATM   32  C3  UNL     1      -0.821  10.969  17.930  1.00  0.00     0.051 C 
HETATM   33  C2  UNL     1      -2.352  11.145  18.015  1.00  0.00     0.021 C 
HETATM   34  C1  UNL     1      -2.997  10.076  18.902  1.00  0.00     0.013 C 
HETATM   35  C42 UNL     1      -2.539  12.546  18.620  1.00  0.00     0.149 C 
HETATM   36  O7  UNL     1      -1.230  13.008  19.037  1.00  0.00    -0.375 OA
BRANCH  32  37
HETATM   37  C4  UNL     1      -0.272  11.436  16.561  1.00  0.00     0.277 C 
BRANCH  37  38
HETATM   38  N1  UNL     1       0.116  10.356  15.643  1.00  0.00     0.086 N 
HETATM   39  H8  UNL     1       0.767  10.722  14.949  1.00  0.00     0.315 HD
BRANCH  38  40
HETATM   40  C5  UNL     1       0.650   9.154  16.274  1.00  0.00     0.300 C 
BRANCH  40  41
HETATM   41  C6  UNL     1      -0.040   7.869  15.773  1.00  0.00     0.142 C 
HETATM   42  C7  UNL     1      -1.536   7.866  16.055  1.00  0.00     0.041 C 
BRANCH  41  43
HETATM   43  O1  UNL     1       0.530   6.734  16.426  1.00  0.00    -0.394 OA
HETATM   44  H15 UNL     1       1.439   6.637  16.096  1.00  0.00     0.210 HD
ENDBRANCH  41  43
ENDBRANCH  40  41
ENDBRANCH  38  40
ENDBRANCH  37  38
ENDBRANCH  32  37
BRANCH  35  45
HETATM   45  C43 UNL     1      -3.121  13.569  17.641  1.00  0.00     0.196 C 
BRANCH  45  46
HETATM   46  O8  UNL     1      -3.313  12.953  16.367  1.00  0.00    -0.398 OA
HETATM   47  H61 UNL     1      -3.741  12.096  16.553  1.00  0.00     0.209 HD
ENDBRANCH  45  46
ENDBRANCH  35  45
ENDBRANCH  30  31
BRANCH  30  48
HETATM   48  O2  UNL     1       1.057  13.614  19.849  1.00  0.00    -0.390 OA
HETATM   49  H18 UNL     1       0.333  14.089  19.392  1.00  0.00     0.210 HD
ENDBRANCH  30  48
ENDBRANCH  28  30
BRANCH  28  50
HETATM   50  O3  UNL     1       2.962  10.765  19.110  1.00  0.00    -0.387 OA
HETATM   51  H22 UNL     1       3.389  10.008  19.545  1.00  0.00     0.210 HD
ENDBRANCH  28  50
ENDBRANCH   1  28
BRANCH   9  52
HETATM   52  C20 UNL     1       6.256  17.460  26.776  1.00  0.00    -0.040 A 
HETATM   53  C21 UNL     1       7.605  17.082  26.867  1.00  0.00     0.008 A 
HETATM   54  C22 UNL     1       8.155  16.684  28.087  1.00  0.00     0.001 A 
HETATM   55  C23 UNL     1       7.367  16.656  29.234  1.00  0.00     0.000 A 
HETATM   56  C24 UNL     1       6.027  17.034  29.163  1.00  0.00     0.001 A 
HETATM   57  C25 UNL     1       5.475  17.434  27.944  1.00  0.00     0.008 A 
ENDBRANCH   9  52
TORSDOF 13
ENDMDL
