MODEL 1
REMARK minimizedAffinity -6.34661818
REMARK CNNscore 0.367817461
REMARK CNNaffinity 6.238379
REMARK  5 active torsions:
REMARK  status: ('A' for Active; 'I' for Inactive)
REMARK    1  A    between atoms: C4_4  and  C5_5 
REMARK    2  A    between atoms: C5_5  and  C6_6 
REMARK    3  A    between atoms: C6_6  and  C7_7 
REMARK    4  A    between atoms: C7_7  and  C9_9 
REMARK    5  A    between atoms: C26_29  and  O4_30 
ROOT
HETATM    1  C9  UNL     1      -1.160   8.777  13.013  1.00  0.00    -0.001 C 
HETATM    2  C10 UNL     1      -2.444   8.705  13.897  1.00  0.00     0.007 C 
HETATM    3  C11 UNL     1      -2.113   9.327  15.264  1.00  0.00     0.024 C 
HETATM    4  C12 UNL     1      -0.724   9.892  15.091  1.00  0.00     0.092 C 
HETATM    5  C13 UNL     1      -0.754  11.337  14.533  1.00  0.00     0.272 C 
HETATM    6  O1  UNL     1      -1.619  11.856  13.849  1.00  0.00    -0.264 OA
HETATM    7  O2  UNL     1       0.402  11.982  14.930  1.00  0.00    -0.305 OA
HETATM    8  C14 UNL     1       1.197  11.072  15.730  1.00  0.00     0.113 C 
HETATM    9  C15 UNL     1       2.091  10.277  14.727  1.00  0.00     0.043 C 
HETATM   10  C16 UNL     1       1.284   9.619  13.572  1.00  0.00     0.014 C 
HETATM   11  C17 UNL     1      -0.020   8.940  14.071  1.00  0.00    -0.020 C 
HETATM   12  C18 UNL     1       0.348   7.566  14.689  1.00  0.00     0.017 C 
HETATM   13  C19 UNL     1       0.135  10.159  16.264  1.00  0.00     0.137 A 
HETATM   14  O3  UNL     1       0.421   9.168  17.233  1.00  0.00    -0.364 OA
HETATM   15  C20 UNL     1      -0.387  10.278  17.678  1.00  0.00     0.162 A 
HETATM   16  C21 UNL     1       0.278  11.214  18.643  1.00  0.00     0.041 C 
HETATM   17  C22 UNL     1       0.931  12.399  17.895  1.00  0.00     0.009 C 
HETATM   18  C23 UNL     1       1.381  13.639  18.783  1.00  0.00    -0.017 C 
HETATM   19  C24 UNL     1       0.554  14.873  18.315  1.00  0.00     0.018 C 
HETATM   20  C25 UNL     1       1.052  13.457  20.285  1.00  0.00     0.018 C 
HETATM   21  C26 UNL     1       2.880  14.026  18.638  1.00  0.00     0.126 C 
HETATM   22  C27 UNL     1       3.454  13.964  17.221  1.00  0.00     0.033 C 
HETATM   23  C28 UNL     1       2.670  13.109  16.228  1.00  0.00     0.015 C 
HETATM   24  C29 UNL     1       1.979  11.871  16.844  1.00  0.00    -0.004 C 
HETATM   25  C30 UNL     1       3.048  10.940  17.472  1.00  0.00     0.019 C 
ENDROOT
BRANCH   1  26
HETATM   26  C7  UNL     1      -1.090   7.611  11.983  1.00  0.00    -0.014 C 
HETATM   27  C8  UNL     1      -1.430   6.262  12.629  1.00  0.00     0.010 C 
BRANCH  26  28
HETATM   28  C6  UNL     1       0.320   7.521  11.327  1.00  0.00     0.008 C 
BRANCH  28  29
HETATM   29  C5  UNL     1       0.556   8.549  10.208  1.00  0.00     0.028 C 
BRANCH  29  30
HETATM   30  C4  UNL     1       0.725   7.937   8.846  1.00  0.00    -0.025 C 
HETATM   31  C2  UNL     1       1.854   7.820   8.119  1.00  0.00    -0.091 C 
HETATM   32  C1  UNL     1       3.217   8.293   8.543  1.00  0.00     0.042 C 
HETATM   33  C3  UNL     1       1.819   7.189   6.752  1.00  0.00     0.042 C 
ENDBRANCH  29  30
ENDBRANCH  28  29
ENDBRANCH  26  28
ENDBRANCH   1  26
BRANCH  21  34
HETATM   34  O4  UNL     1       3.686  13.227  19.506  1.00  0.00    -0.395 OA
HETATM   35  H39 UNL     1       4.588  13.591  19.492  1.00  0.00     0.210 HD
ENDBRANCH  21  34
TORSDOF 5
ENDMDL
MODEL 2
REMARK minimizedAffinity -7.06247616
REMARK CNNscore 0.314713508
REMARK CNNaffinity 5.93552256
REMARK  5 active torsions:
REMARK  status: ('A' for Active; 'I' for Inactive)
REMARK    1  A    between atoms: C4_4  and  C5_5 
REMARK    2  A    between atoms: C5_5  and  C6_6 
REMARK    3  A    between atoms: C6_6  and  C7_7 
REMARK    4  A    between atoms: C7_7  and  C9_9 
REMARK    5  A    between atoms: C26_29  and  O4_30 
ROOT
HETATM    1  C9  UNL     1     -13.544   7.238  24.152  1.00  0.00    -0.001 C 
HETATM    2  C10 UNL     1     -13.358   6.782  22.672  1.00  0.00     0.007 C 
HETATM    3  C11 UNL     1     -12.865   7.994  21.862  1.00  0.00     0.024 C 
HETATM    4  C12 UNL     1     -12.616   9.061  22.900  1.00  0.00     0.092 C 
HETATM    5  C13 UNL     1     -11.184   8.974  23.485  1.00  0.00     0.272 C 
HETATM    6  O1  UNL     1     -10.466   7.991  23.561  1.00  0.00    -0.264 OA
HETATM    7  O2  UNL     1     -10.822  10.226  23.942  1.00  0.00    -0.305 OA
HETATM    8  C14 UNL     1     -11.909  11.152  23.688  1.00  0.00     0.113 C 
HETATM    9  C15 UNL     1     -12.851  11.068  24.930  1.00  0.00     0.043 C 
HETATM   10  C16 UNL     1     -13.280   9.615  25.281  1.00  0.00     0.014 C 
HETATM   11  C17 UNL     1     -13.669   8.791  24.024  1.00  0.00    -0.020 C 
HETATM   12  C18 UNL     1     -15.108   9.187  23.603  1.00  0.00     0.017 C 
HETATM   13  C19 UNL     1     -12.581  10.489  22.523  1.00  0.00     0.137 A 
HETATM   14  O3  UNL     1     -13.639  11.112  21.819  1.00  0.00    -0.364 OA
HETATM   15  C20 UNL     1     -12.392  10.979  21.105  1.00  0.00     0.162 A 
HETATM   16  C21 UNL     1     -11.655  12.261  20.850  1.00  0.00     0.041 C 
HETATM   17  C22 UNL     1     -10.622  12.530  21.967  1.00  0.00     0.009 C 
HETATM   18  C23 UNL     1      -9.539  13.658  21.677  1.00  0.00    -0.017 C 
HETATM   19  C24 UNL     1      -8.140  12.975  21.685  1.00  0.00     0.018 C 
HETATM   20  C25 UNL     1      -9.690  14.292  20.273  1.00  0.00     0.018 C 
HETATM   21  C26 UNL     1      -9.489  14.792  22.739  1.00  0.00     0.126 C 
HETATM   22  C27 UNL     1      -9.634  14.351  24.198  1.00  0.00     0.033 C 
HETATM   23  C28 UNL     1     -10.264  12.977  24.412  1.00  0.00     0.015 C 
HETATM   24  C29 UNL     1     -11.336  12.587  23.370  1.00  0.00    -0.004 C 
HETATM   25  C30 UNL     1     -12.499  13.612  23.415  1.00  0.00     0.019 C 
ENDROOT
BRANCH   1  26
HETATM   26  C7  UNL     1     -14.665   6.435  24.877  1.00  0.00    -0.014 C 
HETATM   27  C8  UNL     1     -15.109   7.127  26.172  1.00  0.00     0.010 C 
BRANCH  26  28
HETATM   28  C6  UNL     1     -14.200   4.986  25.207  1.00  0.00     0.008 C 
BRANCH  28  29
HETATM   29  C5  UNL     1     -13.893   4.131  23.967  1.00  0.00     0.028 C 
BRANCH  29  30
HETATM   30  C4  UNL     1     -12.705   3.225  24.129  1.00  0.00    -0.025 C 
HETATM   31  C2  UNL     1     -12.661   1.999  24.688  1.00  0.00    -0.091 C 
HETATM   32  C1  UNL     1     -13.835   1.269  25.279  1.00  0.00     0.042 C 
HETATM   33  C3  UNL     1     -11.358   1.249  24.778  1.00  0.00     0.042 C 
ENDBRANCH  29  30
ENDBRANCH  28  29
ENDBRANCH  26  28
ENDBRANCH   1  26
BRANCH  21  34
HETATM   34  O4  UNL     1     -10.472  15.788  22.451  1.00  0.00    -0.395 OA
HETATM   35  H39 UNL     1     -10.315  16.541  23.048  1.00  0.00     0.210 HD
ENDBRANCH  21  34
TORSDOF 5
ENDMDL
MODEL 3
REMARK minimizedAffinity -8.60958672
REMARK CNNscore 0.306178451
REMARK CNNaffinity 6.23546743
REMARK  5 active torsions:
REMARK  status: ('A' for Active; 'I' for Inactive)
REMARK    1  A    between atoms: C4_4  and  C5_5 
REMARK    2  A    between atoms: C5_5  and  C6_6 
REMARK    3  A    between atoms: C6_6  and  C7_7 
REMARK    4  A    between atoms: C7_7  and  C9_9 
REMARK    5  A    between atoms: C26_29  and  O4_30 
ROOT
HETATM    1  C9  UNL     1      -0.543  11.303  17.026  1.00  0.00    -0.001 C 
HETATM    2  C10 UNL     1       0.313  12.449  16.403  1.00  0.00     0.007 C 
HETATM    3  C11 UNL     1       1.033  11.884  15.167  1.00  0.00     0.024 C 
HETATM    4  C12 UNL     1       0.458  10.498  15.000  1.00  0.00     0.092 C 
HETATM    5  C13 UNL     1      -0.833  10.508  14.143  1.00  0.00     0.272 C 
HETATM    6  O1  UNL     1      -1.622  11.425  13.991  1.00  0.00    -0.264 OA
HETATM    7  O2  UNL     1      -0.976   9.266  13.555  1.00  0.00    -0.305 OA
HETATM    8  C14 UNL     1       0.141   8.429  13.948  1.00  0.00     0.113 C 
HETATM    9  C15 UNL     1      -0.278   7.745  15.287  1.00  0.00     0.043 C 
HETATM   10  C16 UNL     1      -0.768   8.752  16.366  1.00  0.00     0.014 C 
HETATM   11  C17 UNL     1       0.131  10.015  16.451  1.00  0.00    -0.020 C 
HETATM   12  C18 UNL     1       1.403   9.658  17.264  1.00  0.00     0.017 C 
HETATM   13  C19 UNL     1       1.186   9.464  14.237  1.00  0.00     0.137 A 
HETATM   14  O3  UNL     1       2.525   9.111  14.527  1.00  0.00    -0.364 OA
HETATM   15  C20 UNL     1       2.302   9.769  13.263  1.00  0.00     0.162 A 
HETATM   16  C21 UNL     1       2.488   8.910  12.047  1.00  0.00     0.041 C 
HETATM   17  C22 UNL     1       1.143   8.291  11.603  1.00  0.00     0.009 C 
HETATM   18  C23 UNL     1       1.106   7.634  10.155  1.00  0.00    -0.017 C 
HETATM   19  C24 UNL     1       0.073   8.433   9.307  1.00  0.00     0.018 C 
HETATM   20  C25 UNL     1       2.453   7.756   9.403  1.00  0.00     0.018 C 
HETATM   21  C26 UNL     1       0.648   6.149  10.132  1.00  0.00     0.126 C 
HETATM   22  C27 UNL     1      -0.507   5.789  11.069  1.00  0.00     0.033 C 
HETATM   23  C28 UNL     1      -0.754   6.764  12.218  1.00  0.00     0.015 C 
HETATM   24  C29 UNL     1       0.518   7.443  12.774  1.00  0.00    -0.004 C 
HETATM   25  C30 UNL     1       1.486   6.361  13.321  1.00  0.00     0.019 C 
ENDROOT
BRANCH   1  26
HETATM   26  C7  UNL     1      -0.705  11.462  18.567  1.00  0.00    -0.014 C 
HETATM   27  C8  UNL     1      -1.554  12.688  18.925  1.00  0.00     0.010 C 
BRANCH  26  28
HETATM   28  C6  UNL     1       0.680  11.577  19.271  1.00  0.00     0.008 C 
BRANCH  28  29
HETATM   29  C5  UNL     1       0.819  10.698  20.525  1.00  0.00     0.028 C 
BRANCH  29  30
HETATM   30  C4  UNL     1       2.208  10.668  21.097  1.00  0.00    -0.025 C 
HETATM   31  C2  UNL     1       2.765   9.728  21.886  1.00  0.00    -0.091 C 
HETATM   32  C1  UNL     1       2.082   8.478  22.366  1.00  0.00     0.042 C 
HETATM   33  C3  UNL     1       4.179   9.887  22.380  1.00  0.00     0.042 C 
ENDBRANCH  29  30
ENDBRANCH  28  29
ENDBRANCH  26  28
ENDBRANCH   1  26
BRANCH  21  34
HETATM   34  O4  UNL     1       1.754   5.284  10.399  1.00  0.00    -0.395 OA
HETATM   35  H39 UNL     1       1.461   4.370  10.236  1.00  0.00     0.210 HD
ENDBRANCH  21  34
TORSDOF 5
ENDMDL
MODEL 4
REMARK minimizedAffinity -6.53363895
REMARK CNNscore 0.304516047
REMARK CNNaffinity 6.05070925
REMARK  5 active torsions:
REMARK  status: ('A' for Active; 'I' for Inactive)
REMARK    1  A    between atoms: C4_4  and  C5_5 
REMARK    2  A    between atoms: C5_5  and  C6_6 
REMARK    3  A    between atoms: C6_6  and  C7_7 
REMARK    4  A    between atoms: C7_7  and  C9_9 
REMARK    5  A    between atoms: C26_29  and  O4_30 
ROOT
HETATM    1  C9  UNL     1     -14.550   7.697  24.608  1.00  0.00    -0.001 C 
HETATM    2  C10 UNL     1     -13.879   8.694  25.602  1.00  0.00     0.007 C 
HETATM    3  C11 UNL     1     -12.931   9.600  24.797  1.00  0.00     0.024 C 
HETATM    4  C12 UNL     1     -13.195   9.232  23.358  1.00  0.00     0.092 C 
HETATM    5  C13 UNL     1     -14.360  10.056  22.756  1.00  0.00     0.272 C 
HETATM    6  O1  UNL     1     -15.297  10.567  23.346  1.00  0.00    -0.264 OA
HETATM    7  O2  UNL     1     -14.186  10.122  21.387  1.00  0.00    -0.305 OA
HETATM    8  C14 UNL     1     -12.973   9.411  21.032  1.00  0.00     0.113 C 
HETATM    9  C15 UNL     1     -13.388   7.922  20.819  1.00  0.00     0.043 C 
HETATM   10  C16 UNL     1     -14.185   7.326  22.015  1.00  0.00     0.014 C 
HETATM   11  C17 UNL     1     -13.573   7.715  23.387  1.00  0.00    -0.020 C 
HETATM   12  C18 UNL     1     -12.350   6.798  23.656  1.00  0.00     0.017 C 
HETATM   13  C19 UNL     1     -12.195   9.520  22.309  1.00  0.00     0.137 A 
HETATM   14  O3  UNL     1     -10.852   9.086  22.403  1.00  0.00    -0.364 OA
HETATM   15  C20 UNL     1     -11.065  10.511  22.475  1.00  0.00     0.162 A 
HETATM   16  C21 UNL     1     -10.580  11.296  21.292  1.00  0.00     0.041 C 
HETATM   17  C22 UNL     1     -11.717  11.497  20.264  1.00  0.00     0.009 C 
HETATM   18  C23 UNL     1     -11.465  12.579  19.127  1.00  0.00    -0.017 C 
HETATM   19  C24 UNL     1     -12.539  13.694  19.297  1.00  0.00     0.018 C 
HETATM   20  C25 UNL     1     -10.096  13.289  19.264  1.00  0.00     0.018 C 
HETATM   21  C26 UNL     1     -11.609  12.037  17.677  1.00  0.00     0.126 C 
HETATM   22  C27 UNL     1     -12.763  11.060  17.439  1.00  0.00     0.033 C 
HETATM   23  C28 UNL     1     -13.323  10.383  18.688  1.00  0.00     0.015 C 
HETATM   24  C29 UNL     1     -12.281  10.104  19.794  1.00  0.00    -0.004 C 
HETATM   25  C30 UNL     1     -11.181   9.160  19.243  1.00  0.00     0.019 C 
ENDROOT
BRANCH   1  26
HETATM   26  C7  UNL     1     -14.905   6.340  25.286  1.00  0.00    -0.014 C 
HETATM   27  C8  UNL     1     -14.320   6.244  26.700  1.00  0.00     0.010 C 
BRANCH  26  28
HETATM   28  C6  UNL     1     -14.396   5.136  24.439  1.00  0.00     0.008 C 
BRANCH  28  29
HETATM   29  C5  UNL     1     -14.225   3.836  25.242  1.00  0.00     0.028 C 
BRANCH  29  30
HETATM   30  C4  UNL     1     -13.122   2.949  24.737  1.00  0.00    -0.025 C 
HETATM   31  C2  UNL     1     -12.350   2.097  25.440  1.00  0.00    -0.091 C 
HETATM   32  C1  UNL     1     -12.442   1.857  26.921  1.00  0.00     0.042 C 
HETATM   33  C3  UNL     1     -11.272   1.301  24.752  1.00  0.00     0.042 C 
ENDBRANCH  29  30
ENDBRANCH  28  29
ENDBRANCH  26  28
ENDBRANCH   1  26
BRANCH  21  34
HETATM   34  O4  UNL     1     -10.387  11.433  17.249  1.00  0.00    -0.395 OA
HETATM   35  H39 UNL     1     -10.471  11.236  16.299  1.00  0.00     0.210 HD
ENDBRANCH  21  34
TORSDOF 5
ENDMDL
MODEL 5
REMARK minimizedAffinity -7.31688643
REMARK CNNscore 0.303189009
REMARK CNNaffinity 6.43407297
REMARK  5 active torsions:
REMARK  status: ('A' for Active; 'I' for Inactive)
REMARK    1  A    between atoms: C4_4  and  C5_5 
REMARK    2  A    between atoms: C5_5  and  C6_6 
REMARK    3  A    between atoms: C6_6  and  C7_7 
REMARK    4  A    between atoms: C7_7  and  C9_9 
REMARK    5  A    between atoms: C26_29  and  O4_30 
ROOT
HETATM    1  C9  UNL     1      -2.673  13.010  17.011  1.00  0.00    -0.001 C 
HETATM    2  C10 UNL     1      -1.118  13.099  17.087  1.00  0.00     0.007 C 
HETATM    3  C11 UNL     1      -0.544  11.741  16.646  1.00  0.00     0.024 C 
HETATM    4  C12 UNL     1      -1.747  10.964  16.169  1.00  0.00     0.092 C 
HETATM    5  C13 UNL     1      -2.049  11.229  14.673  1.00  0.00     0.272 C 
HETATM    6  O1  UNL     1      -1.773  12.220  14.019  1.00  0.00    -0.264 OA
HETATM    7  O2  UNL     1      -2.720  10.134  14.163  1.00  0.00    -0.305 OA
HETATM    8  C14 UNL     1      -2.873   9.146  15.213  1.00  0.00     0.113 C 
HETATM    9  C15 UNL     1      -4.199   9.501  15.955  1.00  0.00     0.043 C 
HETATM   10  C16 UNL     1      -4.267  10.984  16.420  1.00  0.00     0.014 C 
HETATM   11  C17 UNL     1      -2.935  11.469  17.052  1.00  0.00    -0.020 C 
HETATM   12  C18 UNL     1      -2.864  10.943  18.510  1.00  0.00     0.017 C 
HETATM   13  C19 UNL     1      -1.714   9.489  16.099  1.00  0.00     0.137 A 
HETATM   14  O3  UNL     1      -1.361   8.685  17.210  1.00  0.00    -0.364 OA
HETATM   15  C20 UNL     1      -0.438   8.676  16.100  1.00  0.00     0.162 A 
HETATM   16  C21 UNL     1      -0.371   7.391  15.328  1.00  0.00     0.041 C 
HETATM   17  C22 UNL     1      -1.333   7.427  14.119  1.00  0.00     0.009 C 
HETATM   18  C23 UNL     1      -1.140   6.293  13.022  1.00  0.00    -0.017 C 
HETATM   19  C24 UNL     1      -0.756   6.995  11.686  1.00  0.00     0.018 C 
HETATM   20  C25 UNL     1       0.032   5.335  13.346  1.00  0.00     0.018 C 
HETATM   21  C26 UNL     1      -2.414   5.451  12.733  1.00  0.00     0.126 C 
HETATM   22  C27 UNL     1      -3.733   6.227  12.679  1.00  0.00     0.033 C 
HETATM   23  C28 UNL     1      -3.721   7.595  13.358  1.00  0.00     0.015 C 
HETATM   24  C29 UNL     1      -2.809   7.692  14.602  1.00  0.00    -0.004 C 
HETATM   25  C30 UNL     1      -3.285   6.677  15.674  1.00  0.00     0.019 C 
ENDROOT
BRANCH   1  26
HETATM   26  C7  UNL     1      -3.366  13.933  18.058  1.00  0.00    -0.014 C 
HETATM   27  C8  UNL     1      -2.397  14.357  19.168  1.00  0.00     0.010 C 
BRANCH  26  28
HETATM   28  C6  UNL     1      -4.601  13.232  18.698  1.00  0.00     0.008 C 
BRANCH  28  29
HETATM   29  C5  UNL     1      -5.227  14.013  19.866  1.00  0.00     0.028 C 
BRANCH  29  30
HETATM   30  C4  UNL     1      -6.676  13.696  20.103  1.00  0.00    -0.025 C 
HETATM   31  C2  UNL     1      -7.275  13.346  21.259  1.00  0.00    -0.091 C 
HETATM   32  C1  UNL     1      -6.586  13.199  22.587  1.00  0.00     0.042 C 
HETATM   33  C3  UNL     1      -8.750  13.045  21.293  1.00  0.00     0.042 C 
ENDBRANCH  29  30
ENDBRANCH  28  29
ENDBRANCH  26  28
ENDBRANCH   1  26
BRANCH  21  34
HETATM   34  O4  UNL     1      -2.534   4.389  13.681  1.00  0.00    -0.395 OA
HETATM   35  H39 UNL     1      -3.256   3.807  13.384  1.00  0.00     0.210 HD
ENDBRANCH  21  34
TORSDOF 5
ENDMDL
MODEL 6
REMARK minimizedAffinity -6.39697647
REMARK CNNscore 0.208703876
REMARK CNNaffinity 5.69034576
REMARK  5 active torsions:
REMARK  status: ('A' for Active; 'I' for Inactive)
REMARK    1  A    between atoms: C4_4  and  C5_5 
REMARK    2  A    between atoms: C5_5  and  C6_6 
REMARK    3  A    between atoms: C6_6  and  C7_7 
REMARK    4  A    between atoms: C7_7  and  C9_9 
REMARK    5  A    between atoms: C26_29  and  O4_30 
ROOT
HETATM    1  C9  UNL     1     -14.423   7.882  23.484  1.00  0.00    -0.001 C 
HETATM    2  C10 UNL     1     -15.635   8.805  23.821  1.00  0.00     0.007 C 
HETATM    3  C11 UNL     1     -15.119  10.252  23.902  1.00  0.00     0.024 C 
HETATM    4  C12 UNL     1     -13.682  10.163  23.451  1.00  0.00     0.092 C 
HETATM    5  C13 UNL     1     -13.551  10.290  21.913  1.00  0.00     0.272 C 
HETATM    6  O1  UNL     1     -14.384  10.013  21.066  1.00  0.00    -0.264 OA
HETATM    7  O2  UNL     1     -12.290  10.773  21.621  1.00  0.00    -0.305 OA
HETATM    8  C14 UNL     1     -11.572  10.995  22.861  1.00  0.00     0.113 C 
HETATM    9  C15 UNL     1     -10.876   9.642  23.208  1.00  0.00     0.043 C 
HETATM   10  C16 UNL     1     -11.851   8.429  23.208  1.00  0.00     0.014 C 
HETATM   11  C17 UNL     1     -13.196   8.750  23.913  1.00  0.00    -0.020 C 
HETATM   12  C18 UNL     1     -12.979   8.664  25.447  1.00  0.00     0.017 C 
HETATM   13  C19 UNL     1     -12.709  11.214  23.813  1.00  0.00     0.137 A 
HETATM   14  O3  UNL     1     -12.493  11.617  25.152  1.00  0.00    -0.364 OA
HETATM   15  C20 UNL     1     -13.103  12.596  24.285  1.00  0.00     0.162 A 
HETATM   16  C21 UNL     1     -12.243  13.776  23.939  1.00  0.00     0.041 C 
HETATM   17  C22 UNL     1     -11.488  13.534  22.612  1.00  0.00     0.009 C 
HETATM   18  C23 UNL     1     -10.805  14.804  21.942  1.00  0.00    -0.017 C 
HETATM   19  C24 UNL     1     -11.483  15.023  20.558  1.00  0.00     0.018 C 
HETATM   20  C25 UNL     1     -11.043  16.109  22.739  1.00  0.00     0.018 C 
HETATM   21  C26 UNL     1      -9.281  14.648  21.672  1.00  0.00     0.126 C 
HETATM   22  C27 UNL     1      -8.828  13.282  21.153  1.00  0.00     0.033 C 
HETATM   23  C28 UNL     1      -9.796  12.127  21.402  1.00  0.00     0.015 C 
HETATM   24  C29 UNL     1     -10.606  12.234  22.714  1.00  0.00    -0.004 C 
HETATM   25  C30 UNL     1      -9.634  12.256  23.922  1.00  0.00     0.019 C 
ENDROOT
BRANCH   1  26
HETATM   26  C7  UNL     1     -14.594   6.450  24.074  1.00  0.00    -0.014 C 
HETATM   27  C8  UNL     1     -14.963   6.491  25.562  1.00  0.00     0.010 C 
BRANCH  26  28
HETATM   28  C6  UNL     1     -13.297   5.607  23.893  1.00  0.00     0.008 C 
BRANCH  28  29
HETATM   29  C5  UNL     1     -13.546   4.096  23.758  1.00  0.00     0.028 C 
BRANCH  29  30
HETATM   30  C4  UNL     1     -13.426   3.340  25.051  1.00  0.00    -0.025 C 
HETATM   31  C2  UNL     1     -12.531   2.387  25.379  1.00  0.00    -0.091 C 
HETATM   32  C1  UNL     1     -11.437   1.873  24.484  1.00  0.00     0.042 C 
HETATM   33  C3  UNL     1     -12.584   1.725  26.731  1.00  0.00     0.042 C 
ENDBRANCH  29  30
ENDBRANCH  28  29
ENDBRANCH  26  28
ENDBRANCH   1  26
BRANCH  21  34
HETATM   34  O4  UNL     1      -8.533  14.976  22.844  1.00  0.00    -0.395 OA
HETATM   35  H39 UNL     1      -7.592  15.005  22.597  1.00  0.00     0.210 HD
ENDBRANCH  21  34
TORSDOF 5
ENDMDL
MODEL 7
REMARK minimizedAffinity -7.92035961
REMARK CNNscore 0.205789119
REMARK CNNaffinity 6.28496218
REMARK  5 active torsions:
REMARK  status: ('A' for Active; 'I' for Inactive)
REMARK    1  A    between atoms: C4_4  and  C5_5 
REMARK    2  A    between atoms: C5_5  and  C6_6 
REMARK    3  A    between atoms: C6_6  and  C7_7 
REMARK    4  A    between atoms: C7_7  and  C9_9 
REMARK    5  A    between atoms: C26_29  and  O4_30 
ROOT
HETATM    1  C9  UNL     1      -2.094   8.699  15.277  1.00  0.00    -0.001 C 
HETATM    2  C10 UNL     1      -1.670   7.449  16.108  1.00  0.00     0.007 C 
HETATM    3  C11 UNL     1      -0.846   6.528  15.192  1.00  0.00     0.024 C 
HETATM    4  C12 UNL     1      -0.666   7.327  13.923  1.00  0.00     0.092 C 
HETATM    5  C13 UNL     1       0.582   8.242  13.989  1.00  0.00     0.272 C 
HETATM    6  O1  UNL     1       1.115   8.708  14.982  1.00  0.00    -0.264 OA
HETATM    7  O2  UNL     1       1.019   8.476  12.700  1.00  0.00    -0.305 OA
HETATM    8  C14 UNL     1       0.157   7.767  11.775  1.00  0.00     0.113 C 
HETATM    9  C15 UNL     1      -1.026   8.732  11.454  1.00  0.00     0.043 C 
HETATM   10  C16 UNL     1      -1.728   9.290  12.726  1.00  0.00     0.014 C 
HETATM   11  C17 UNL     1      -1.960   8.197  13.803  1.00  0.00    -0.020 C 
HETATM   12  C18 UNL     1      -3.205   7.365  13.397  1.00  0.00     0.017 C 
HETATM   13  C19 UNL     1      -0.344   6.656  12.647  1.00  0.00     0.137 A 
HETATM   14  O3  UNL     1      -1.128   5.597  12.130  1.00  0.00    -0.364 OA
HETATM   15  C20 UNL     1       0.208   5.251  12.552  1.00  0.00     0.162 A 
HETATM   16  C21 UNL     1       1.162   4.897  11.450  1.00  0.00     0.041 C 
HETATM   17  C22 UNL     1       1.966   6.138  11.001  1.00  0.00     0.009 C 
HETATM   18  C23 UNL     1       3.238   5.869  10.087  1.00  0.00    -0.017 C 
HETATM   19  C24 UNL     1       4.489   6.367  10.869  1.00  0.00     0.018 C 
HETATM   20  C25 UNL     1       3.481   4.364   9.819  1.00  0.00     0.018 C 
HETATM   21  C26 UNL     1       3.230   6.628   8.729  1.00  0.00     0.126 C 
HETATM   22  C27 UNL     1       2.719   8.070   8.771  1.00  0.00     0.033 C 
HETATM   23  C28 UNL     1       1.863   8.432   9.983  1.00  0.00     0.015 C 
HETATM   24  C29 UNL     1       0.989   7.279  10.525  1.00  0.00    -0.004 C 
HETATM   25  C30 UNL     1       0.005   6.811   9.421  1.00  0.00     0.019 C 
ENDROOT
BRANCH   1  26
HETATM   26  C7  UNL     1      -3.448   9.296  15.764  1.00  0.00    -0.014 C 
HETATM   27  C8  UNL     1      -4.495   9.314  14.643  1.00  0.00     0.010 C 
BRANCH  26  28
HETATM   28  C6  UNL     1      -3.262  10.743  16.312  1.00  0.00     0.008 C 
BRANCH  28  29
HETATM   29  C5  UNL     1      -3.210  10.829  17.846  1.00  0.00     0.028 C 
BRANCH  29  30
HETATM   30  C4  UNL     1      -2.537  12.068  18.364  1.00  0.00    -0.025 C 
HETATM   31  C2  UNL     1      -1.329  12.176  18.953  1.00  0.00    -0.091 C 
HETATM   32  C1  UNL     1      -0.383  11.038  19.217  1.00  0.00     0.042 C 
HETATM   33  C3  UNL     1      -0.831  13.516  19.428  1.00  0.00     0.042 C 
ENDBRANCH  29  30
ENDBRANCH  28  29
ENDBRANCH  26  28
ENDBRANCH   1  26
BRANCH  21  34
HETATM   34  O4  UNL     1       2.486   5.895   7.755  1.00  0.00    -0.395 OA
HETATM   35  H39 UNL     1       2.623   6.325   6.892  1.00  0.00     0.210 HD
ENDBRANCH  21  34
TORSDOF 5
ENDMDL
MODEL 8
REMARK minimizedAffinity -6.94757414
REMARK CNNscore 0.204412162
REMARK CNNaffinity 5.51865244
REMARK  5 active torsions:
REMARK  status: ('A' for Active; 'I' for Inactive)
REMARK    1  A    between atoms: C4_4  and  C5_5 
REMARK    2  A    between atoms: C5_5  and  C6_6 
REMARK    3  A    between atoms: C6_6  and  C7_7 
REMARK    4  A    between atoms: C7_7  and  C9_9 
REMARK    5  A    between atoms: C26_29  and  O4_30 
ROOT
HETATM    1  C9  UNL     1      -0.486  10.383  17.455  1.00  0.00    -0.001 C 
HETATM    2  C10 UNL     1       0.093  10.923  16.111  1.00  0.00     0.007 C 
HETATM    3  C11 UNL     1       1.334  11.772  16.437  1.00  0.00     0.024 C 
HETATM    4  C12 UNL     1       1.547  11.570  17.917  1.00  0.00     0.092 C 
HETATM    5  C13 UNL     1       2.422  10.326  18.210  1.00  0.00     0.272 C 
HETATM    6  O1  UNL     1       2.560   9.330  17.521  1.00  0.00    -0.264 OA
HETATM    7  O2  UNL     1       3.046  10.509  19.429  1.00  0.00    -0.305 OA
HETATM    8  C14 UNL     1       2.660  11.800  19.966  1.00  0.00     0.113 C 
HETATM    9  C15 UNL     1       1.346  11.560  20.774  1.00  0.00     0.043 C 
HETATM   10  C16 UNL     1       0.247  10.821  19.958  1.00  0.00     0.014 C 
HETATM   11  C17 UNL     1       0.115  11.368  18.511  1.00  0.00    -0.020 C 
HETATM   12  C18 UNL     1      -0.707  12.683  18.557  1.00  0.00     0.017 C 
HETATM   13  C19 UNL     1       2.328  12.544  18.708  1.00  0.00     0.137 A 
HETATM   14  O3  UNL     1       2.027  13.927  18.716  1.00  0.00    -0.364 OA
HETATM   15  C20 UNL     1       3.277  13.552  18.099  1.00  0.00     0.162 A 
HETATM   16  C21 UNL     1       4.512  13.959  18.845  1.00  0.00     0.041 C 
HETATM   17  C22 UNL     1       4.993  12.820  19.773  1.00  0.00     0.009 C 
HETATM   18  C23 UNL     1       6.458  12.962  20.374  1.00  0.00    -0.017 C 
HETATM   19  C24 UNL     1       7.299  11.766  19.839  1.00  0.00     0.018 C 
HETATM   20  C25 UNL     1       7.187  14.239  19.890  1.00  0.00     0.018 C 
HETATM   21  C26 UNL     1       6.529  12.899  21.926  1.00  0.00     0.126 C 
HETATM   22  C27 UNL     1       5.619  11.867  22.596  1.00  0.00     0.033 C 
HETATM   23  C28 UNL     1       4.447  11.372  21.751  1.00  0.00     0.015 C 
HETATM   24  C29 UNL     1       3.854  12.424  20.787  1.00  0.00    -0.004 C 
HETATM   25  C30 UNL     1       3.324  13.632  21.602  1.00  0.00     0.019 C 
ENDROOT
BRANCH   1  26
HETATM   26  C7  UNL     1      -2.029  10.176  17.390  1.00  0.00    -0.014 C 
HETATM   27  C8  UNL     1      -2.664  10.209  18.786  1.00  0.00     0.010 C 
BRANCH  26  28
HETATM   28  C6  UNL     1      -2.388   8.828  16.698  1.00  0.00     0.008 C 
BRANCH  28  29
HETATM   29  C5  UNL     1      -2.983   8.987  15.289  1.00  0.00     0.028 C 
BRANCH  29  30
HETATM   30  C4  UNL     1      -3.005   7.715  14.490  1.00  0.00    -0.025 C 
HETATM   31  C2  UNL     1      -3.929   7.307  13.598  1.00  0.00    -0.091 C 
HETATM   32  C1  UNL     1      -5.165   8.071  13.212  1.00  0.00     0.042 C 
HETATM   33  C3  UNL     1      -3.785   5.977  12.906  1.00  0.00     0.042 C 
ENDBRANCH  29  30
ENDBRANCH  28  29
ENDBRANCH  26  28
ENDBRANCH   1  26
BRANCH  21  34
HETATM   34  O4  UNL     1       6.270  14.187  22.488  1.00  0.00    -0.395 OA
HETATM   35  H39 UNL     1       6.462  14.138  23.441  1.00  0.00     0.210 HD
ENDBRANCH  21  34
TORSDOF 5
ENDMDL
MODEL 9
REMARK minimizedAffinity -6.65061617
REMARK CNNscore 0.190088525
REMARK CNNaffinity 5.60629511
REMARK  5 active torsions:
REMARK  status: ('A' for Active; 'I' for Inactive)
REMARK    1  A    between atoms: C4_4  and  C5_5 
REMARK    2  A    between atoms: C5_5  and  C6_6 
REMARK    3  A    between atoms: C6_6  and  C7_7 
REMARK    4  A    between atoms: C7_7  and  C9_9 
REMARK    5  A    between atoms: C26_29  and  O4_30 
ROOT
HETATM    1  C9  UNL     1      -1.004  11.788  17.536  1.00  0.00    -0.001 C 
HETATM    2  C10 UNL     1      -1.521  11.021  18.792  1.00  0.00     0.007 C 
HETATM    3  C11 UNL     1      -0.324  10.786  19.730  1.00  0.00     0.024 C 
HETATM    4  C12 UNL     1       0.807  11.556  19.092  1.00  0.00     0.092 C 
HETATM    5  C13 UNL     1       0.836  13.032  19.561  1.00  0.00     0.272 C 
HETATM    6  O1  UNL     1      -0.097  13.707  19.962  1.00  0.00    -0.264 OA
HETATM    7  O2  UNL     1       2.129  13.502  19.442  1.00  0.00    -0.305 OA
HETATM    8  C14 UNL     1       2.973  12.435  18.941  1.00  0.00     0.113 C 
HETATM    9  C15 UNL     1       2.896  12.513  17.384  1.00  0.00     0.043 C 
HETATM   10  C16 UNL     1       1.439  12.524  16.839  1.00  0.00     0.014 C 
HETATM   11  C17 UNL     1       0.531  11.488  17.555  1.00  0.00    -0.020 C 
HETATM   12  C18 UNL     1       0.818  10.087  16.956  1.00  0.00     0.017 C 
HETATM   13  C19 UNL     1       2.213  11.229  19.405  1.00  0.00     0.137 A 
HETATM   14  O3  UNL     1       2.735   9.920  19.268  1.00  0.00    -0.364 OA
HETATM   15  C20 UNL     1       2.642  10.429  20.615  1.00  0.00     0.162 A 
HETATM   16  C21 UNL     1       3.951  10.729  21.283  1.00  0.00     0.041 C 
HETATM   17  C22 UNL     1       4.338  12.213  21.087  1.00  0.00     0.009 C 
HETATM   18  C23 UNL     1       5.513  12.768  22.004  1.00  0.00    -0.017 C 
HETATM   19  C24 UNL     1       4.917  13.898  22.893  1.00  0.00     0.018 C 
HETATM   20  C25 UNL     1       6.065  11.706  22.985  1.00  0.00     0.018 C 
HETATM   21  C26 UNL     1       6.701  13.396  21.220  1.00  0.00     0.126 C 
HETATM   22  C27 UNL     1       6.326  14.251  20.008  1.00  0.00     0.033 C 
HETATM   23  C28 UNL     1       4.928  14.014  19.439  1.00  0.00     0.015 C 
HETATM   24  C29 UNL     1       4.423  12.558  19.552  1.00  0.00    -0.004 C 
HETATM   25  C30 UNL     1       5.377  11.616  18.773  1.00  0.00     0.019 C 
ENDROOT
BRANCH   1  26
HETATM   26  C7  UNL     1      -1.835  11.456  16.261  1.00  0.00    -0.014 C 
HETATM   27  C8  UNL     1      -2.059  12.699  15.391  1.00  0.00     0.010 C 
BRANCH  26  28
HETATM   28  C6  UNL     1      -3.215  10.837  16.632  1.00  0.00     0.008 C 
BRANCH  28  29
HETATM   29  C5  UNL     1      -3.978  10.248  15.434  1.00  0.00     0.028 C 
BRANCH  29  30
HETATM   30  C4  UNL     1      -4.116   8.753  15.475  1.00  0.00    -0.025 C 
HETATM   31  C2  UNL     1      -5.224   8.012  15.273  1.00  0.00    -0.091 C 
HETATM   32  C1  UNL     1      -6.590   8.555  14.957  1.00  0.00     0.042 C 
HETATM   33  C3  UNL     1      -5.166   6.510  15.377  1.00  0.00     0.042 C 
ENDBRANCH  29  30
ENDBRANCH  28  29
ENDBRANCH  26  28
ENDBRANCH   1  26
BRANCH  21  34
HETATM   34  O4  UNL     1       7.619  12.380  20.812  1.00  0.00    -0.395 OA
HETATM   35  H39 UNL     1       8.410  12.822  20.455  1.00  0.00     0.210 HD
ENDBRANCH  21  34
TORSDOF 5
ENDMDL
