MODEL 1
REMARK minimizedAffinity -8.54699802
REMARK  7 active torsions:
REMARK  status: ('A' for Active; 'I' for Inactive)
REMARK    1  A    between atoms: C3_3  and  C5_5 
REMARK    2  A    between atoms: C6_6  and  C7_7 
REMARK    3  A    between atoms: C8_8  and  C9_9 
REMARK    4  A    between atoms: C10_10  and  C12_12 
REMARK    5  A    between atoms: C12_12  and  C13_14 
REMARK    6  A    between atoms: C13_14  and  C15_16 
REMARK    7  A    between atoms: C15_16  and  O2_17 
ROOT
HETATM    1  C5  UNL     1      -3.305   3.225  12.127  1.00  0.00     0.058 C 
HETATM    2  C6  UNL     1      -2.465   4.524  12.435  1.00  0.00     0.024 C 
HETATM    3  C16 UNL     1      -3.320   5.629  13.180  1.00  0.00     0.003 C 
HETATM    4  C17 UNL     1      -2.605   6.059  14.478  1.00  0.00     0.041 C 
HETATM    5  C18 UNL     1      -3.409   7.014  15.302  1.00  0.00     0.157 A 
HETATM    6  O3  UNL     1      -4.361   6.353  16.161  1.00  0.00    -0.370 OA
HETATM    7  C19 UNL     1      -4.901   7.168  15.117  1.00  0.00     0.084 A 
HETATM    8  C20 UNL     1      -5.576   8.407  15.612  1.00  0.00     0.049 C 
HETATM    9  C21 UNL     1      -5.591   6.412  14.020  1.00  0.00     0.048 C 
HETATM   10  C22 UNL     1      -4.782   5.216  13.487  1.00  0.00     0.025 C 
HETATM   11  C23 UNL     1      -5.416   4.670  12.237  1.00  0.00     0.162 A 
HETATM   12  O4  UNL     1      -5.792   3.292  12.276  1.00  0.00    -0.368 OA
HETATM   13  C24 UNL     1      -4.633   3.622  11.483  1.00  0.00     0.092 A 
HETATM   14  C25 UNL     1      -4.854   3.541  10.007  1.00  0.00     0.049 C 
ENDROOT
BRANCH   2  15
HETATM   15  C7  UNL     1      -1.690   5.226  11.323  1.00  0.00    -0.021 C 
HETATM   16  C8  UNL     1      -0.390   5.548  11.281  1.00  0.00    -0.003 C 
BRANCH  16  17
HETATM   17  C9  UNL     1       0.209   6.250  10.166  1.00  0.00     0.010 C 
HETATM   18  C10 UNL     1       0.892   7.406  10.246  1.00  0.00    -0.016 C 
HETATM   19  C11 UNL     1       1.273   8.163  11.478  1.00  0.00     0.052 C 
BRANCH  18  20
HETATM   20  C12 UNL     1       1.385   7.938   8.939  1.00  0.00     0.161 C 
HETATM   21  O1  UNL     1       0.831   8.923   8.444  1.00  0.00    -0.292 OA
BRANCH  20  22
HETATM   22  C13 UNL     1       2.534   7.243   8.212  1.00  0.00     0.080 C 
HETATM   23  C14 UNL     1       2.095   6.819   6.814  1.00  0.00     0.020 C 
BRANCH  22  24
HETATM   24  C15 UNL     1       3.139   6.075   8.987  1.00  0.00     0.176 C 
BRANCH  24  25
HETATM   25  O2  UNL     1       3.294   4.937   8.144  1.00  0.00    -0.400 OA
HETATM   26  H22 UNL     1       2.405   4.628   7.897  1.00  0.00     0.209 HD
ENDBRANCH  24  25
ENDBRANCH  22  24
ENDBRANCH  20  22
ENDBRANCH  18  20
ENDBRANCH  16  17
ENDBRANCH   2  15
BRANCH   1  27
HETATM   27  C3  UNL     1      -2.614   1.962  11.578  1.00  0.00    -0.080 C 
HETATM   28  C2  UNL     1      -1.361   1.937  11.076  1.00  0.00    -0.028 C 
HETATM   29  C1  UNL     1      -0.620   0.759  10.521  1.00  0.00     0.036 C 
HETATM   30  C4  UNL     1      -3.417   0.690  11.765  1.00  0.00     0.043 C 
ENDBRANCH   1  27
TORSDOF 7
ENDMDL
MODEL 2
REMARK minimizedAffinity -8.02348709
REMARK  7 active torsions:
REMARK  status: ('A' for Active; 'I' for Inactive)
REMARK    1  A    between atoms: C3_3  and  C5_5 
REMARK    2  A    between atoms: C6_6  and  C7_7 
REMARK    3  A    between atoms: C8_8  and  C9_9 
REMARK    4  A    between atoms: C10_10  and  C12_12 
REMARK    5  A    between atoms: C12_12  and  C13_14 
REMARK    6  A    between atoms: C13_14  and  C15_16 
REMARK    7  A    between atoms: C15_16  and  O2_17 
ROOT
HETATM    1  C5  UNL     1       2.711   7.808  10.055  1.00  0.00     0.058 C 
HETATM    2  C6  UNL     1       2.021   8.216  11.414  1.00  0.00     0.024 C 
HETATM    3  C16 UNL     1       3.068   8.395  12.588  1.00  0.00     0.003 C 
HETATM    4  C17 UNL     1       2.900   9.786  13.232  1.00  0.00     0.041 C 
HETATM    5  C18 UNL     1       3.935  10.080  14.272  1.00  0.00     0.157 A 
HETATM    6  O3  UNL     1       5.162  10.593  13.715  1.00  0.00    -0.370 OA
HETATM    7  C19 UNL     1       5.235   9.312  14.344  1.00  0.00     0.084 A 
HETATM    8  C20 UNL     1       6.016   9.312  15.620  1.00  0.00     0.049 C 
HETATM    9  C21 UNL     1       5.466   8.162  13.408  1.00  0.00     0.048 C 
HETATM   10  C22 UNL     1       4.546   8.172  12.175  1.00  0.00     0.025 C 
HETATM   11  C23 UNL     1       4.661   6.873  11.425  1.00  0.00     0.162 A 
HETATM   12  O4  UNL     1       5.058   6.972  10.056  1.00  0.00    -0.368 OA
HETATM   13  C24 UNL     1       3.675   6.649  10.304  1.00  0.00     0.092 A 
HETATM   14  C25 UNL     1       3.309   5.233   9.994  1.00  0.00     0.049 C 
ENDROOT
BRANCH   2  15
HETATM   15  C7  UNL     1       0.858   7.396  11.966  1.00  0.00    -0.021 C 
HETATM   16  C8  UNL     1      -0.436   7.732  12.057  1.00  0.00    -0.003 C 
BRANCH  16  17
HETATM   17  C9  UNL     1      -1.434   6.861  12.641  1.00  0.00     0.010 C 
HETATM   18  C10 UNL     1      -1.723   5.615  12.224  1.00  0.00    -0.016 C 
HETATM   19  C11 UNL     1      -1.034   4.820  11.163  1.00  0.00     0.052 C 
BRANCH  18  20
HETATM   20  C12 UNL     1      -2.818   4.937  12.982  1.00  0.00     0.161 C 
HETATM   21  O1  UNL     1      -2.778   4.927  14.215  1.00  0.00    -0.292 OA
BRANCH  20  22
HETATM   22  C13 UNL     1      -3.949   4.234  12.235  1.00  0.00     0.080 C 
HETATM   23  C14 UNL     1      -5.284   4.504  12.921  1.00  0.00     0.020 C 
BRANCH  22  24
HETATM   24  C15 UNL     1      -3.718   2.738  12.031  1.00  0.00     0.176 C 
BRANCH  24  25
HETATM   25  O2  UNL     1      -4.465   2.260  10.917  1.00  0.00    -0.400 OA
HETATM   26  H22 UNL     1      -5.410   2.329  11.141  1.00  0.00     0.209 HD
ENDBRANCH  24  25
ENDBRANCH  22  24
ENDBRANCH  20  22
ENDBRANCH  18  20
ENDBRANCH  16  17
ENDBRANCH   2  15
BRANCH   1  27
HETATM   27  C3  UNL     1       1.894   7.769   8.748  1.00  0.00    -0.080 C 
HETATM   28  C2  UNL     1       2.318   7.196   7.602  1.00  0.00    -0.028 C 
HETATM   29  C1  UNL     1       1.592   7.119   6.294  1.00  0.00     0.036 C 
HETATM   30  C4  UNL     1       0.490   8.323   8.883  1.00  0.00     0.043 C 
ENDBRANCH   1  27
TORSDOF 7
ENDMDL
MODEL 3
REMARK minimizedAffinity -7.95843124
REMARK  7 active torsions:
REMARK  status: ('A' for Active; 'I' for Inactive)
REMARK    1  A    between atoms: C3_3  and  C5_5 
REMARK    2  A    between atoms: C6_6  and  C7_7 
REMARK    3  A    between atoms: C8_8  and  C9_9 
REMARK    4  A    between atoms: C10_10  and  C12_12 
REMARK    5  A    between atoms: C12_12  and  C13_14 
REMARK    6  A    between atoms: C13_14  and  C15_16 
REMARK    7  A    between atoms: C15_16  and  O2_17 
ROOT
HETATM    1  C5  UNL     1      -0.826   7.793  12.777  1.00  0.00     0.058 C 
HETATM    2  C6  UNL     1      -2.371   7.902  13.077  1.00  0.00     0.024 C 
HETATM    3  C16 UNL     1      -2.661   8.423  14.544  1.00  0.00     0.003 C 
HETATM    4  C17 UNL     1      -3.595   9.650  14.489  1.00  0.00     0.041 C 
HETATM    5  C18 UNL     1      -3.820  10.276  15.829  1.00  0.00     0.157 A 
HETATM    6  O3  UNL     1      -2.781  11.205  16.198  1.00  0.00    -0.370 OA
HETATM    7  C19 UNL     1      -2.892  10.023  16.994  1.00  0.00     0.084 A 
HETATM    8  C20 UNL     1      -3.377  10.281  18.386  1.00  0.00     0.049 C 
HETATM    9  C21 UNL     1      -1.760   9.050  16.840  1.00  0.00     0.048 C 
HETATM   10  C22 UNL     1      -1.395   8.751  15.375  1.00  0.00     0.025 C 
HETATM   11  C23 UNL     1      -0.437   7.594  15.299  1.00  0.00     0.162 A 
HETATM   12  O4  UNL     1       0.810   7.854  14.655  1.00  0.00    -0.368 OA
HETATM   13  C24 UNL     1      -0.138   7.052  13.922  1.00  0.00     0.092 A 
HETATM   14  C25 UNL     1       0.224   5.605  13.827  1.00  0.00     0.049 C 
ENDROOT
BRANCH   2  15
HETATM   15  C7  UNL     1      -3.292   6.710  12.830  1.00  0.00    -0.021 C 
HETATM   16  C8  UNL     1      -3.557   5.673  13.638  1.00  0.00    -0.003 C 
BRANCH  16  17
HETATM   17  C9  UNL     1      -4.433   4.585  13.257  1.00  0.00     0.010 C 
HETATM   18  C10 UNL     1      -5.767   4.673  13.106  1.00  0.00    -0.016 C 
HETATM   19  C11 UNL     1      -6.621   5.896  13.190  1.00  0.00     0.052 C 
BRANCH  18  20
HETATM   20  C12 UNL     1      -6.442   3.393  12.733  1.00  0.00     0.161 C 
HETATM   21  O1  UNL     1      -7.196   2.853  13.546  1.00  0.00    -0.292 OA
BRANCH  20  22
HETATM   22  C13 UNL     1      -6.169   2.747  11.377  1.00  0.00     0.080 C 
HETATM   23  C14 UNL     1      -6.050   1.234  11.527  1.00  0.00     0.020 C 
BRANCH  22  24
HETATM   24  C15 UNL     1      -4.963   3.333  10.645  1.00  0.00     0.176 C 
BRANCH  24  25
HETATM   25  O2  UNL     1      -5.130   3.227   9.234  1.00  0.00    -0.400 OA
HETATM   26  H22 UNL     1      -5.115   2.282   9.004  1.00  0.00     0.209 HD
ENDBRANCH  24  25
ENDBRANCH  22  24
ENDBRANCH  20  22
ENDBRANCH  18  20
ENDBRANCH  16  17
ENDBRANCH   2  15
BRANCH   1  27
HETATM   27  C3  UNL     1      -0.330   7.487  11.350  1.00  0.00    -0.080 C 
HETATM   28  C2  UNL     1       0.195   8.406  10.513  1.00  0.00    -0.028 C 
HETATM   29  C1  UNL     1       0.694   8.193   9.116  1.00  0.00     0.036 C 
HETATM   30  C4  UNL     1      -0.360   6.015  10.991  1.00  0.00     0.043 C 
ENDBRANCH   1  27
TORSDOF 7
ENDMDL
MODEL 4
REMARK minimizedAffinity -7.88603497
REMARK  7 active torsions:
REMARK  status: ('A' for Active; 'I' for Inactive)
REMARK    1  A    between atoms: C3_3  and  C5_5 
REMARK    2  A    between atoms: C6_6  and  C7_7 
REMARK    3  A    between atoms: C8_8  and  C9_9 
REMARK    4  A    between atoms: C10_10  and  C12_12 
REMARK    5  A    between atoms: C12_12  and  C13_14 
REMARK    6  A    between atoms: C13_14  and  C15_16 
REMARK    7  A    between atoms: C15_16  and  O2_17 
ROOT
HETATM    1  C5  UNL     1      -1.053   7.837  13.108  1.00  0.00     0.058 C 
HETATM    2  C6  UNL     1      -2.577   8.193  13.310  1.00  0.00     0.024 C 
HETATM    3  C16 UNL     1      -2.879   8.734  14.766  1.00  0.00     0.003 C 
HETATM    4  C17 UNL     1      -3.595  10.097  14.681  1.00  0.00     0.041 C 
HETATM    5  C18 UNL     1      -3.808  10.733  16.019  1.00  0.00     0.157 A 
HETATM    6  O3  UNL     1      -2.660  11.474  16.479  1.00  0.00    -0.370 OA
HETATM    7  C19 UNL     1      -3.015  10.316  17.236  1.00  0.00     0.084 A 
HETATM    8  C20 UNL     1      -3.547  10.629  18.599  1.00  0.00     0.049 C 
HETATM    9  C21 UNL     1      -2.049   9.173  17.132  1.00  0.00     0.048 C 
HETATM   10  C22 UNL     1      -1.636   8.839  15.687  1.00  0.00     0.025 C 
HETATM   11  C23 UNL     1      -0.876   7.541  15.645  1.00  0.00     0.162 A 
HETATM   12  O4  UNL     1       0.438   7.603  15.091  1.00  0.00    -0.368 OA
HETATM   13  C24 UNL     1      -0.575   6.978  14.278  1.00  0.00     0.092 A 
HETATM   14  C25 UNL     1      -0.446   5.492  14.170  1.00  0.00     0.049 C 
ENDROOT
BRANCH   2  15
HETATM   15  C7  UNL     1      -3.660   7.171  12.973  1.00  0.00    -0.021 C 
HETATM   16  C8  UNL     1      -4.217   6.247  13.768  1.00  0.00    -0.003 C 
BRANCH  16  17
HETATM   17  C9  UNL     1      -5.219   5.312  13.302  1.00  0.00     0.010 C 
HETATM   18  C10 UNL     1      -4.970   4.160  12.653  1.00  0.00    -0.016 C 
HETATM   19  C11 UNL     1      -3.642   3.539  12.362  1.00  0.00     0.052 C 
BRANCH  18  20
HETATM   20  C12 UNL     1      -6.186   3.388  12.255  1.00  0.00     0.161 C 
HETATM   21  O1  UNL     1      -6.083   2.507  11.397  1.00  0.00    -0.292 OA
BRANCH  20  22
HETATM   22  C13 UNL     1      -7.541   3.715  12.876  1.00  0.00     0.080 C 
HETATM   23  C14 UNL     1      -8.061   5.046  12.342  1.00  0.00     0.020 C 
BRANCH  22  24
HETATM   24  C15 UNL     1      -7.544   3.686  14.403  1.00  0.00     0.176 C 
BRANCH  24  25
HETATM   25  O2  UNL     1      -8.238   4.815  14.927  1.00  0.00    -0.400 OA
HETATM   26  H22 UNL     1      -7.724   5.610  14.702  1.00  0.00     0.209 HD
ENDBRANCH  24  25
ENDBRANCH  22  24
ENDBRANCH  20  22
ENDBRANCH  18  20
ENDBRANCH  16  17
ENDBRANCH   2  15
BRANCH   1  27
HETATM   27  C3  UNL     1      -0.516   7.474  11.710  1.00  0.00    -0.080 C 
HETATM   28  C2  UNL     1       0.131   8.335  10.896  1.00  0.00    -0.028 C 
HETATM   29  C1  UNL     1       0.678   8.065   9.528  1.00  0.00     0.036 C 
HETATM   30  C4  UNL     1      -0.660   6.008  11.357  1.00  0.00     0.043 C 
ENDBRANCH   1  27
TORSDOF 7
ENDMDL
MODEL 5
REMARK minimizedAffinity -7.73487186
REMARK  7 active torsions:
REMARK  status: ('A' for Active; 'I' for Inactive)
REMARK    1  A    between atoms: C3_3  and  C5_5 
REMARK    2  A    between atoms: C6_6  and  C7_7 
REMARK    3  A    between atoms: C8_8  and  C9_9 
REMARK    4  A    between atoms: C10_10  and  C12_12 
REMARK    5  A    between atoms: C12_12  and  C13_14 
REMARK    6  A    between atoms: C13_14  and  C15_16 
REMARK    7  A    between atoms: C15_16  and  O2_17 
ROOT
HETATM    1  C5  UNL     1      -1.620   7.086  14.275  1.00  0.00     0.058 C 
HETATM    2  C6  UNL     1      -0.099   6.960  13.877  1.00  0.00     0.024 C 
HETATM    3  C16 UNL     1       0.785   8.108  14.514  1.00  0.00     0.003 C 
HETATM    4  C17 UNL     1       1.963   7.490  15.295  1.00  0.00     0.041 C 
HETATM    5  C18 UNL     1       2.778   8.508  16.030  1.00  0.00     0.157 A 
HETATM    6  O3  UNL     1       2.227   8.846  17.319  1.00  0.00    -0.370 OA
HETATM    7  C19 UNL     1       2.243   9.887  16.340  1.00  0.00     0.084 A 
HETATM    8  C20 UNL     1       3.202  10.991  16.653  1.00  0.00     0.049 C 
HETATM    9  C21 UNL     1       0.892  10.288  15.825  1.00  0.00     0.048 C 
HETATM   10  C22 UNL     1       0.005   9.098  15.418  1.00  0.00     0.025 C 
HETATM   11  C23 UNL     1      -1.217   9.581  14.685  1.00  0.00     0.162 A 
HETATM   12  O4  UNL     1      -2.475   9.212  15.254  1.00  0.00    -0.368 OA
HETATM   13  C24 UNL     1      -2.086   8.524  14.048  1.00  0.00     0.092 A 
HETATM   14  C25 UNL     1      -2.861   8.924  12.834  1.00  0.00     0.049 C 
ENDROOT
BRANCH   2  15
HETATM   15  C7  UNL     1       0.308   6.837  12.411  1.00  0.00    -0.021 C 
HETATM   16  C8  UNL     1       1.072   5.902  11.829  1.00  0.00    -0.003 C 
BRANCH  16  17
HETATM   17  C9  UNL     1       1.408   5.929  10.421  1.00  0.00     0.010 C 
HETATM   18  C10 UNL     1       2.613   6.244   9.912  1.00  0.00    -0.016 C 
HETATM   19  C11 UNL     1       3.877   6.530  10.656  1.00  0.00     0.052 C 
BRANCH  18  20
HETATM   20  C12 UNL     1       2.689   6.223   8.419  1.00  0.00     0.161 C 
HETATM   21  O1  UNL     1       3.133   5.221   7.854  1.00  0.00    -0.292 OA
BRANCH  20  22
HETATM   22  C13 UNL     1       2.258   7.445   7.611  1.00  0.00     0.080 C 
HETATM   23  C14 UNL     1       3.148   8.638   7.941  1.00  0.00     0.020 C 
BRANCH  22  24
HETATM   24  C15 UNL     1       0.779   7.793   7.759  1.00  0.00     0.176 C 
BRANCH  24  25
HETATM   25  O2  UNL     1       0.603   8.874   8.670  1.00  0.00    -0.400 OA
HETATM   26  H22 UNL     1       0.867   8.563   9.553  1.00  0.00     0.209 HD
ENDBRANCH  24  25
ENDBRANCH  22  24
ENDBRANCH  20  22
ENDBRANCH  18  20
ENDBRANCH  16  17
ENDBRANCH   2  15
BRANCH   1  27
HETATM   27  C3  UNL     1      -2.615   5.965  13.915  1.00  0.00    -0.080 C 
HETATM   28  C2  UNL     1      -2.474   5.130  12.864  1.00  0.00    -0.028 C 
HETATM   29  C1  UNL     1      -3.392   4.023  12.444  1.00  0.00     0.036 C 
HETATM   30  C4  UNL     1      -3.728   5.781  14.928  1.00  0.00     0.043 C 
ENDBRANCH   1  27
TORSDOF 7
ENDMDL
MODEL 6
REMARK minimizedAffinity -7.66255808
REMARK  7 active torsions:
REMARK  status: ('A' for Active; 'I' for Inactive)
REMARK    1  A    between atoms: C3_3  and  C5_5 
REMARK    2  A    between atoms: C6_6  and  C7_7 
REMARK    3  A    between atoms: C8_8  and  C9_9 
REMARK    4  A    between atoms: C10_10  and  C12_12 
REMARK    5  A    between atoms: C12_12  and  C13_14 
REMARK    6  A    between atoms: C13_14  and  C15_16 
REMARK    7  A    between atoms: C15_16  and  O2_17 
ROOT
HETATM    1  C5  UNL     1       2.209   6.183   9.062  1.00  0.00     0.058 C 
HETATM    2  C6  UNL     1       2.589   6.055  10.587  1.00  0.00     0.024 C 
HETATM    3  C16 UNL     1       1.575   6.828  11.525  1.00  0.00     0.003 C 
HETATM    4  C17 UNL     1       1.025   5.872  12.604  1.00  0.00     0.041 C 
HETATM    5  C18 UNL     1      -0.034   6.497  13.457  1.00  0.00     0.157 A 
HETATM    6  O3  UNL     1      -1.347   6.428  12.864  1.00  0.00    -0.370 OA
HETATM    7  C19 UNL     1      -0.785   7.733  13.019  1.00  0.00     0.084 A 
HETATM    8  C20 UNL     1      -1.481   8.569  14.046  1.00  0.00     0.049 C 
HETATM    9  C21 UNL     1      -0.405   8.413  11.736  1.00  0.00     0.048 C 
HETATM   10  C22 UNL     1       0.406   7.522  10.779  1.00  0.00     0.025 C 
HETATM   11  C23 UNL     1       0.959   8.340   9.643  1.00  0.00     0.162 A 
HETATM   12  O4  UNL     1       0.582   7.923   8.331  1.00  0.00    -0.368 OA
HETATM   13  C24 UNL     1       1.941   7.650   8.728  1.00  0.00     0.092 A 
HETATM   14  C25 UNL     1       2.963   8.510   8.057  1.00  0.00     0.049 C 
ENDROOT
BRANCH   2  15
HETATM   15  C7  UNL     1       3.998   6.398  11.064  1.00  0.00    -0.021 C 
HETATM   16  C8  UNL     1       4.369   7.159  12.104  1.00  0.00    -0.003 C 
BRANCH  16  17
HETATM   17  C9  UNL     1       5.755   7.430  12.422  1.00  0.00     0.010 C 
HETATM   18  C10 UNL     1       6.230   7.737  13.643  1.00  0.00    -0.016 C 
HETATM   19  C11 UNL     1       5.483   7.767  14.937  1.00  0.00     0.052 C 
BRANCH  18  20
HETATM   20  C12 UNL     1       7.700   7.999  13.697  1.00  0.00     0.161 C 
HETATM   21  O1  UNL     1       8.412   7.622  12.764  1.00  0.00    -0.292 OA
BRANCH  20  22
HETATM   22  C13 UNL     1       8.313   8.691  14.912  1.00  0.00     0.080 C 
HETATM   23  C14 UNL     1       9.157   9.883  14.472  1.00  0.00     0.020 C 
BRANCH  22  24
HETATM   24  C15 UNL     1       9.101   7.754  15.825  1.00  0.00     0.176 C 
BRANCH  24  25
HETATM   25  O2  UNL     1       9.694   8.478  16.899  1.00  0.00    -0.400 OA
HETATM   26  H22 UNL     1      10.367   9.070  16.522  1.00  0.00     0.209 HD
ENDBRANCH  24  25
ENDBRANCH  22  24
ENDBRANCH  20  22
ENDBRANCH  18  20
ENDBRANCH  16  17
ENDBRANCH   2  15
BRANCH   1  27
HETATM   27  C3  UNL     1       2.956   5.351   8.000  1.00  0.00    -0.080 C 
HETATM   28  C2  UNL     1       3.746   4.293   8.280  1.00  0.00    -0.028 C 
HETATM   29  C1  UNL     1       4.507   3.438   7.313  1.00  0.00     0.036 C 
HETATM   30  C4  UNL     1       2.630   5.740   6.573  1.00  0.00     0.043 C 
ENDBRANCH   1  27
TORSDOF 7
ENDMDL
MODEL 7
REMARK minimizedAffinity -7.57472754
REMARK  7 active torsions:
REMARK  status: ('A' for Active; 'I' for Inactive)
REMARK    1  A    between atoms: C3_3  and  C5_5 
REMARK    2  A    between atoms: C6_6  and  C7_7 
REMARK    3  A    between atoms: C8_8  and  C9_9 
REMARK    4  A    between atoms: C10_10  and  C12_12 
REMARK    5  A    between atoms: C12_12  and  C13_14 
REMARK    6  A    between atoms: C13_14  and  C15_16 
REMARK    7  A    between atoms: C15_16  and  O2_17 
ROOT
HETATM    1  C5  UNL     1      -1.373   7.966  14.052  1.00  0.00     0.058 C 
HETATM    2  C6  UNL     1      -1.037   6.504  13.565  1.00  0.00     0.024 C 
HETATM    3  C16 UNL     1      -0.218   6.496  12.210  1.00  0.00     0.003 C 
HETATM    4  C17 UNL     1       1.072   5.669  12.382  1.00  0.00     0.041 C 
HETATM    5  C18 UNL     1       1.963   5.713  11.180  1.00  0.00     0.157 A 
HETATM    6  O3  UNL     1       2.822   6.871  11.159  1.00  0.00    -0.370 OA
HETATM    7  C19 UNL     1       1.833   6.793  10.130  1.00  0.00     0.084 A 
HETATM    8  C20 UNL     1       2.402   6.560   8.767  1.00  0.00     0.049 C 
HETATM    9  C21 UNL     1       0.728   7.802  10.241  1.00  0.00     0.048 C 
HETATM   10  C22 UNL     1       0.118   7.902  11.650  1.00  0.00     0.025 C 
HETATM   11  C23 UNL     1      -1.133   8.737  11.622  1.00  0.00     0.162 A 
HETATM   12  O4  UNL     1      -1.140   9.882  12.476  1.00  0.00    -0.368 OA
HETATM   13  C24 UNL     1      -1.955   8.767  12.888  1.00  0.00     0.092 A 
HETATM   14  C25 UNL     1      -3.426   8.989  12.736  1.00  0.00     0.049 C 
ENDROOT
BRANCH   2  15
HETATM   15  C7  UNL     1      -2.144   5.461  13.431  1.00  0.00    -0.021 C 
HETATM   16  C8  UNL     1      -2.602   4.863  12.322  1.00  0.00    -0.003 C 
BRANCH  16  17
HETATM   17  C9  UNL     1      -3.691   3.909  12.338  1.00  0.00     0.010 C 
HETATM   18  C10 UNL     1      -4.315   3.418  11.253  1.00  0.00    -0.016 C 
HETATM   19  C11 UNL     1      -3.977   3.651   9.816  1.00  0.00     0.052 C 
BRANCH  18  20
HETATM   20  C12 UNL     1      -5.429   2.465  11.546  1.00  0.00     0.161 C 
HETATM   21  O1  UNL     1      -5.213   1.253  11.489  1.00  0.00    -0.292 OA
BRANCH  20  22
HETATM   22  C13 UNL     1      -6.825   2.992  11.872  1.00  0.00     0.080 C 
HETATM   23  C14 UNL     1      -6.744   4.433  12.366  1.00  0.00     0.020 C 
BRANCH  22  24
HETATM   24  C15 UNL     1      -7.606   2.111  12.844  1.00  0.00     0.176 C 
BRANCH  24  25
HETATM   25  O2  UNL     1      -7.209   0.749  12.720  1.00  0.00    -0.400 OA
HETATM   26  H22 UNL     1      -7.483   0.438  11.840  1.00  0.00     0.209 HD
ENDBRANCH  24  25
ENDBRANCH  22  24
ENDBRANCH  20  22
ENDBRANCH  18  20
ENDBRANCH  16  17
ENDBRANCH   2  15
BRANCH   1  27
HETATM   27  C3  UNL     1      -1.997   8.200  15.441  1.00  0.00    -0.080 C 
HETATM   28  C2  UNL     1      -1.782   9.297  16.198  1.00  0.00    -0.028 C 
HETATM   29  C1  UNL     1      -2.344   9.599  17.554  1.00  0.00     0.036 C 
HETATM   30  C4  UNL     1      -2.996   7.138  15.854  1.00  0.00     0.043 C 
ENDBRANCH   1  27
TORSDOF 7
ENDMDL
MODEL 8
REMARK minimizedAffinity -7.50774384
REMARK  7 active torsions:
REMARK  status: ('A' for Active; 'I' for Inactive)
REMARK    1  A    between atoms: C3_3  and  C5_5 
REMARK    2  A    between atoms: C6_6  and  C7_7 
REMARK    3  A    between atoms: C8_8  and  C9_9 
REMARK    4  A    between atoms: C10_10  and  C12_12 
REMARK    5  A    between atoms: C12_12  and  C13_14 
REMARK    6  A    between atoms: C13_14  and  C15_16 
REMARK    7  A    between atoms: C15_16  and  O2_17 
ROOT
HETATM    1  C5  UNL     1      -0.064   8.691  12.759  1.00  0.00     0.058 C 
HETATM    2  C6  UNL     1      -1.464   9.275  13.191  1.00  0.00     0.024 C 
HETATM    3  C16 UNL     1      -1.469   9.774  14.693  1.00  0.00     0.003 C 
HETATM    4  C17 UNL     1      -1.952  11.237  14.758  1.00  0.00     0.041 C 
HETATM    5  C18 UNL     1      -1.869  11.822  16.133  1.00  0.00     0.157 A 
HETATM    6  O3  UNL     1      -0.561  12.343  16.445  1.00  0.00    -0.370 OA
HETATM    7  C19 UNL     1      -0.997  11.215  17.207  1.00  0.00     0.084 A 
HETATM    8  C20 UNL     1      -1.276  11.532  18.642  1.00  0.00     0.049 C 
HETATM    9  C21 UNL     1      -0.258   9.940  16.926  1.00  0.00     0.048 C 
HETATM   10  C22 UNL     1      -0.111   9.627  15.427  1.00  0.00     0.025 C 
HETATM   11  C23 UNL     1       0.409   8.228  15.232  1.00  0.00     0.162 A 
HETATM   12  O4  UNL     1       1.627   8.110  14.494  1.00  0.00    -0.368 OA
HETATM   13  C24 UNL     1       0.421   7.702  13.817  1.00  0.00     0.092 A 
HETATM   14  C25 UNL     1       0.284   6.224  13.643  1.00  0.00     0.049 C 
ENDROOT
BRANCH   2  15
HETATM   15  C7  UNL     1      -2.739   8.460  12.982  1.00  0.00    -0.021 C 
HETATM   16  C8  UNL     1      -3.385   7.676  13.856  1.00  0.00    -0.003 C 
BRANCH  16  17
HETATM   17  C9  UNL     1      -4.575   6.928  13.507  1.00  0.00     0.010 C 
HETATM   18  C10 UNL     1      -4.634   5.597  13.320  1.00  0.00    -0.016 C 
HETATM   19  C11 UNL     1      -3.546   4.593  13.523  1.00  0.00     0.052 C 
BRANCH  18  20
HETATM   20  C12 UNL     1      -5.981   5.075  12.939  1.00  0.00     0.161 C 
HETATM   21  O1  UNL     1      -6.918   5.867  12.809  1.00  0.00    -0.292 OA
BRANCH  20  22
HETATM   22  C13 UNL     1      -6.199   3.576  12.751  1.00  0.00     0.080 C 
HETATM   23  C14 UNL     1      -5.760   3.148  11.354  1.00  0.00     0.020 C 
BRANCH  22  24
HETATM   24  C15 UNL     1      -7.624   3.116  13.053  1.00  0.00     0.176 C 
BRANCH  24  25
HETATM   25  O2  UNL     1      -7.785   1.735  12.742  1.00  0.00    -0.400 OA
HETATM   26  H22 UNL     1      -7.699   1.636  11.778  1.00  0.00     0.209 HD
ENDBRANCH  24  25
ENDBRANCH  22  24
ENDBRANCH  20  22
ENDBRANCH  18  20
ENDBRANCH  16  17
ENDBRANCH   2  15
BRANCH   1  27
HETATM   27  C3  UNL     1       0.207   8.327  11.286  1.00  0.00    -0.080 C 
HETATM   28  C2  UNL     1      -0.522   8.779  10.243  1.00  0.00    -0.028 C 
HETATM   29  C1  UNL     1      -0.329   8.470   8.790  1.00  0.00     0.036 C 
HETATM   30  C4  UNL     1       1.461   7.503  11.077  1.00  0.00     0.043 C 
ENDBRANCH   1  27
TORSDOF 7
ENDMDL
MODEL 9
REMARK minimizedAffinity -7.37758064
REMARK  7 active torsions:
REMARK  status: ('A' for Active; 'I' for Inactive)
REMARK    1  A    between atoms: C3_3  and  C5_5 
REMARK    2  A    between atoms: C6_6  and  C7_7 
REMARK    3  A    between atoms: C8_8  and  C9_9 
REMARK    4  A    between atoms: C10_10  and  C12_12 
REMARK    5  A    between atoms: C12_12  and  C13_14 
REMARK    6  A    between atoms: C13_14  and  C15_16 
REMARK    7  A    between atoms: C15_16  and  O2_17 
ROOT
HETATM    1  C5  UNL     1      -1.625   9.337  14.817  1.00  0.00     0.058 C 
HETATM    2  C6  UNL     1      -2.256   8.792  13.478  1.00  0.00     0.024 C 
HETATM    3  C16 UNL     1      -3.475   7.817  13.743  1.00  0.00     0.003 C 
HETATM    4  C17 UNL     1      -4.715   8.304  12.966  1.00  0.00     0.041 C 
HETATM    5  C18 UNL     1      -5.944   7.502  13.260  1.00  0.00     0.157 A 
HETATM    6  O3  UNL     1      -6.634   7.945  14.446  1.00  0.00    -0.370 OA
HETATM    7  C19 UNL     1      -6.057   6.638  14.494  1.00  0.00     0.084 A 
HETATM    8  C20 UNL     1      -7.068   5.536  14.526  1.00  0.00     0.049 C 
HETATM    9  C21 UNL     1      -4.877   6.503  15.412  1.00  0.00     0.048 C 
HETATM   10  C22 UNL     1      -3.827   7.614  15.239  1.00  0.00     0.025 C 
HETATM   11  C23 UNL     1      -2.575   7.276  16.002  1.00  0.00     0.162 A 
HETATM   12  O4  UNL     1      -2.163   8.228  16.983  1.00  0.00    -0.368 OA
HETATM   13  C24 UNL     1      -1.381   8.170  15.773  1.00  0.00     0.092 A 
HETATM   14  C25 UNL     1      -0.029   7.554  15.943  1.00  0.00     0.049 C 
ENDROOT
BRANCH   2  15
HETATM   15  C7  UNL     1      -1.375   8.137  12.418  1.00  0.00    -0.021 C 
HETATM   16  C8  UNL     1      -0.204   8.562  11.922  1.00  0.00    -0.003 C 
BRANCH  16  17
HETATM   17  C9  UNL     1       0.513   7.851  10.885  1.00  0.00     0.010 C 
HETATM   18  C10 UNL     1       1.642   7.142  11.061  1.00  0.00    -0.016 C 
HETATM   19  C11 UNL     1       2.345   6.841  12.345  1.00  0.00     0.052 C 
BRANCH  18  20
HETATM   20  C12 UNL     1       2.198   6.525   9.818  1.00  0.00     0.161 C 
HETATM   21  O1  UNL     1       1.895   5.363   9.537  1.00  0.00    -0.292 OA
BRANCH  20  22
HETATM   22  C13 UNL     1       3.158   7.315   8.932  1.00  0.00     0.080 C 
HETATM   23  C14 UNL     1       4.079   8.178   9.788  1.00  0.00     0.020 C 
BRANCH  22  24
HETATM   24  C15 UNL     1       2.463   8.141   7.852  1.00  0.00     0.176 C 
BRANCH  24  25
HETATM   25  O2  UNL     1       3.223   9.305   7.540  1.00  0.00    -0.400 OA
HETATM   26  H22 UNL     1       3.219   9.881   8.324  1.00  0.00     0.209 HD
ENDBRANCH  24  25
ENDBRANCH  22  24
ENDBRANCH  20  22
ENDBRANCH  18  20
ENDBRANCH  16  17
ENDBRANCH   2  15
BRANCH   1  27
HETATM   27  C3  UNL     1      -0.553  10.444  14.779  1.00  0.00    -0.080 C 
HETATM   28  C2  UNL     1       0.778  10.216  14.786  1.00  0.00    -0.028 C 
HETATM   29  C1  UNL     1       1.880  11.230  14.756  1.00  0.00     0.036 C 
HETATM   30  C4  UNL     1      -1.116  11.839  14.601  1.00  0.00     0.043 C 
ENDBRANCH   1  27
TORSDOF 7
ENDMDL
