MODEL 1
REMARK minimizedAffinity -7.17854548
REMARK CNNscore 0.305457473
REMARK CNNaffinity 6.48461294
REMARK  13 active torsions:
REMARK  status: ('A' for Active; 'I' for Inactive)
REMARK    1  A    between atoms: C2_2  and  C3_3 
REMARK    2  A    between atoms: C2_2  and  C9_9 
REMARK    3  A    between atoms: C3_3  and  C4_4 
REMARK    4  A    between atoms: C4_4  and  C5_5 
REMARK    5  A    between atoms: C18_18  and  O1_19 
REMARK    6  A    between atoms: C19_20  and  C21_22 
REMARK    7  A    between atoms: C21_22  and  O3_24 
REMARK    8  A    between atoms: C30_33  and  O4_34 
REMARK    9  A    between atoms: O4_34  and  C31_35 
REMARK   10  A    between atoms: C32_37  and  C33_38 
REMARK   11  A    between atoms: C33_38  and  O6_39 
REMARK   12  A    between atoms: C34_40  and  O7_41 
REMARK   13  A    between atoms: C35_42  and  O8_43 
ROOT
HETATM    1  C9  UNL     1      -0.980  12.333  17.754  1.00  0.00     0.047 C 
HETATM    2  C10 UNL     1      -1.474  11.374  16.651  1.00  0.00     0.005 C 
HETATM    3  C11 UNL     1      -1.616  11.929  15.242  1.00  0.00     0.006 C 
HETATM    4  C12 UNL     1      -2.069  10.833  14.260  1.00  0.00     0.006 C 
HETATM    5  C13 UNL     1      -1.200   9.544  14.315  1.00  0.00     0.003 C 
HETATM    6  C14 UNL     1      -1.496   8.499  13.162  1.00  0.00    -0.035 C 
HETATM    7  C15 UNL     1      -2.988   8.067  13.125  1.00  0.00     0.016 C 
HETATM    8  C16 UNL     1      -1.242   9.200  11.787  1.00  0.00     0.012 C 
HETATM    9  C17 UNL     1      -0.867   8.226  10.688  1.00  0.00     0.034 C 
HETATM   10  C18 UNL     1       0.467   7.529  10.952  1.00  0.00     0.137 C 
HETATM   11  C19 UNL     1       0.748   7.197  12.465  1.00  0.00     0.072 C 
HETATM   12  C20 UNL     1       1.439   5.806  12.539  1.00  0.00     0.030 C 
HETATM   13  C22 UNL     1      -0.602   7.197  13.292  1.00  0.00     0.015 C 
HETATM   14  C23 UNL     1      -0.490   6.704  14.755  1.00  0.00     0.007 C 
HETATM   15  C24 UNL     1      -0.123   7.770  15.786  1.00  0.00     0.011 C 
HETATM   16  C25 UNL     1      -1.071   8.989  15.794  1.00  0.00    -0.032 C 
HETATM   17  C26 UNL     1      -2.442   8.498  16.348  1.00  0.00     0.016 C 
HETATM   18  C27 UNL     1      -0.488  10.177  16.705  1.00  0.00    -0.030 C 
HETATM   19  C28 UNL     1       0.966  10.578  16.277  1.00  0.00     0.016 C 
HETATM   20  C29 UNL     1      -0.447   9.954  18.238  1.00  0.00     0.043 C 
HETATM   21  C30 UNL     1      -0.450  11.369  18.866  1.00  0.00     0.134 C 
ENDROOT
BRANCH  21  22
HETATM   22  O4  UNL     1       0.896  11.712  19.203  1.00  0.00    -0.353 OA
BRANCH  22  23
HETATM   23  C31 UNL     1       1.699  10.594  19.547  1.00  0.00     0.292 C 
HETATM   24  O5  UNL     1       3.073  10.870  19.224  1.00  0.00    -0.348 OA
HETATM   25  C32 UNL     1       3.560  11.784  20.248  1.00  0.00     0.179 C 
HETATM   26  C34 UNL     1       2.667  11.563  21.481  1.00  0.00     0.182 C 
HETATM   27  C35 UNL     1       1.744  10.423  21.059  1.00  0.00     0.204 C 
BRANCH  25  28
HETATM   28  C33 UNL     1       5.056  11.575  20.490  1.00  0.00     0.198 C 
BRANCH  28  29
HETATM   29  O6  UNL     1       5.657  10.961  19.348  1.00  0.00    -0.398 OA
HETATM   30  H52 UNL     1       6.597  10.818  19.564  1.00  0.00     0.209 HD
ENDBRANCH  28  29
ENDBRANCH  25  28
BRANCH  26  31
HETATM   31  O7  UNL     1       3.373  11.237  22.678  1.00  0.00    -0.390 OA
HETATM   32  H54 UNL     1       3.212  10.282  22.833  1.00  0.00     0.210 HD
ENDBRANCH  26  31
BRANCH  27  33
HETATM   33  O8  UNL     1       2.357   9.174  21.437  1.00  0.00    -0.388 OA
HETATM   34  H56 UNL     1       3.062   8.995  20.780  1.00  0.00     0.210 HD
ENDBRANCH  27  33
ENDBRANCH  22  23
ENDBRANCH  21  22
BRANCH   1  35
HETATM   35  C2  UNL     1      -2.019  13.333  18.249  1.00  0.00    -0.082 C 
HETATM   36  C1  UNL     1      -1.819  14.664  18.226  1.00  0.00     0.015 C 
BRANCH  35  37
HETATM   37  C3  UNL     1      -3.337  12.761  18.736  1.00  0.00     0.037 C 
BRANCH  37  38
HETATM   38  C4  UNL     1      -4.308  13.830  19.252  1.00  0.00     0.031 C 
BRANCH  38  39
HETATM   39  C5  UNL     1      -5.199  13.273  20.334  1.00  0.00    -0.024 C 
HETATM   40  C6  UNL     1      -5.491  13.821  21.530  1.00  0.00    -0.091 C 
HETATM   41  C7  UNL     1      -4.995  15.154  22.022  1.00  0.00     0.042 C 
HETATM   42  C8  UNL     1      -6.389  13.102  22.502  1.00  0.00     0.042 C 
ENDBRANCH  38  39
ENDBRANCH  37  38
ENDBRANCH  35  37
ENDBRANCH   1  35
BRANCH  11  43
HETATM   43  C21 UNL     1       1.747   8.245  12.969  1.00  0.00     0.151 C 
HETATM   44  O2  UNL     1       2.482   8.150  13.940  1.00  0.00    -0.649 OA
BRANCH  43  45
HETATM   45  O3  UNL     1       1.790   9.379  12.243  1.00  0.00    -0.776 OA
HETATM   46  H33 UNL     1       2.457   9.932  12.699  1.00  0.00     0.167 HD
ENDBRANCH  43  45
ENDBRANCH  11  43
BRANCH  10  47
HETATM   47  O1  UNL     1       0.476   6.351  10.135  1.00  0.00    -0.394 OA
HETATM   48  H29 UNL     1       0.396   6.637   9.207  1.00  0.00     0.210 HD
ENDBRANCH  10  47
TORSDOF 13
ENDMDL
MODEL 2
REMARK minimizedAffinity -9.20905876
REMARK CNNscore 0.299684078
REMARK CNNaffinity 6.78627729
REMARK  13 active torsions:
REMARK  status: ('A' for Active; 'I' for Inactive)
REMARK    1  A    between atoms: C2_2  and  C3_3 
REMARK    2  A    between atoms: C2_2  and  C9_9 
REMARK    3  A    between atoms: C3_3  and  C4_4 
REMARK    4  A    between atoms: C4_4  and  C5_5 
REMARK    5  A    between atoms: C18_18  and  O1_19 
REMARK    6  A    between atoms: C19_20  and  C21_22 
REMARK    7  A    between atoms: C21_22  and  O3_24 
REMARK    8  A    between atoms: C30_33  and  O4_34 
REMARK    9  A    between atoms: O4_34  and  C31_35 
REMARK   10  A    between atoms: C32_37  and  C33_38 
REMARK   11  A    between atoms: C33_38  and  O6_39 
REMARK   12  A    between atoms: C34_40  and  O7_41 
REMARK   13  A    between atoms: C35_42  and  O8_43 
ROOT
HETATM    1  C9  UNL     1      -2.860   7.731  14.062  1.00  0.00     0.047 C 
HETATM    2  C10 UNL     1      -2.612   8.848  15.098  1.00  0.00     0.005 C 
HETATM    3  C11 UNL     1      -2.570   8.453  16.566  1.00  0.00     0.006 C 
HETATM    4  C12 UNL     1      -2.266   9.672  17.457  1.00  0.00     0.006 C 
HETATM    5  C13 UNL     1      -1.011  10.477  17.011  1.00  0.00     0.003 C 
HETATM    6  C14 UNL     1      -0.543  11.590  18.036  1.00  0.00    -0.035 C 
HETATM    7  C15 UNL     1      -1.672  12.608  18.359  1.00  0.00     0.016 C 
HETATM    8  C16 UNL     1      -0.219  10.896  19.400  1.00  0.00     0.012 C 
HETATM    9  C17 UNL     1       0.795  11.662  20.226  1.00  0.00     0.034 C 
HETATM   10  C18 UNL     1       2.167  11.726  19.558  1.00  0.00     0.137 C 
HETATM   11  C19 UNL     1       2.130  11.857  17.990  1.00  0.00     0.072 C 
HETATM   12  C20 UNL     1       3.263  12.828  17.553  1.00  0.00     0.030 C 
HETATM   13  C22 UNL     1       0.719  12.393  17.512  1.00  0.00     0.015 C 
HETATM   14  C23 UNL     1       0.610  12.741  16.008  1.00  0.00     0.007 C 
HETATM   15  C24 UNL     1       0.230  11.584  15.086  1.00  0.00     0.011 C 
HETATM   16  C25 UNL     1      -1.085  10.874  15.479  1.00  0.00    -0.032 C 
HETATM   17  C26 UNL     1      -2.246  11.873  15.197  1.00  0.00     0.016 C 
HETATM   18  C27 UNL     1      -1.291   9.519  14.640  1.00  0.00    -0.030 C 
HETATM   19  C28 UNL     1      -0.056   8.562  14.769  1.00  0.00     0.016 C 
HETATM   20  C29 UNL     1      -1.587   9.650  13.124  1.00  0.00     0.043 C 
HETATM   21  C30 UNL     1      -2.319   8.344  12.728  1.00  0.00     0.134 C 
ENDROOT
BRANCH  21  22
HETATM   22  O4  UNL     1      -1.366   7.458  12.138  1.00  0.00    -0.353 OA
BRANCH  22  23
HETATM   23  C31 UNL     1      -1.015   6.364  12.969  1.00  0.00     0.292 C 
HETATM   24  O5  UNL     1      -1.754   5.198  12.569  1.00  0.00    -0.348 OA
HETATM   25  C32 UNL     1      -1.133   4.719  11.341  1.00  0.00     0.179 C 
HETATM   26  C34 UNL     1       0.314   5.241  11.360  1.00  0.00     0.182 C 
HETATM   27  C35 UNL     1       0.426   5.946  12.709  1.00  0.00     0.204 C 
BRANCH  25  28
HETATM   28  C33 UNL     1      -1.268   3.200  11.224  1.00  0.00     0.198 C 
BRANCH  28  29
HETATM   29  O6  UNL     1      -1.981   2.861  10.032  1.00  0.00    -0.398 OA
HETATM   30  H52 UNL     1      -2.071   1.890  10.022  1.00  0.00     0.209 HD
ENDBRANCH  28  29
ENDBRANCH  25  28
BRANCH  26  31
HETATM   31  O7  UNL     1       1.314   4.231  11.224  1.00  0.00    -0.390 OA
HETATM   32  H54 UNL     1       1.716   4.129  12.112  1.00  0.00     0.210 HD
ENDBRANCH  26  31
BRANCH  27  33
HETATM   33  O8  UNL     1       0.891   4.994  13.687  1.00  0.00    -0.388 OA
HETATM   34  H56 UNL     1       0.124   4.431  13.919  1.00  0.00     0.210 HD
ENDBRANCH  27  33
ENDBRANCH  22  23
ENDBRANCH  21  22
BRANCH   1  35
HETATM   35  C2  UNL     1      -4.300   7.241  13.976  1.00  0.00    -0.082 C 
HETATM   36  C1  UNL     1      -5.341   8.069  13.769  1.00  0.00     0.015 C 
BRANCH  35  37
HETATM   37  C3  UNL     1      -4.519   5.744  14.090  1.00  0.00     0.037 C 
BRANCH  37  38
HETATM   38  C4  UNL     1      -4.729   5.058  12.735  1.00  0.00     0.031 C 
BRANCH  38  39
HETATM   39  C5  UNL     1      -5.675   3.890  12.862  1.00  0.00    -0.024 C 
HETATM   40  C6  UNL     1      -7.021   3.906  12.814  1.00  0.00    -0.091 C 
HETATM   41  C7  UNL     1      -7.870   5.127  12.585  1.00  0.00     0.042 C 
HETATM   42  C8  UNL     1      -7.808   2.633  12.987  1.00  0.00     0.042 C 
ENDBRANCH  38  39
ENDBRANCH  37  38
ENDBRANCH  35  37
ENDBRANCH   1  35
BRANCH  11  43
HETATM   43  C21 UNL     1       2.455  10.470  17.424  1.00  0.00     0.151 C 
HETATM   44  O2  UNL     1       2.178   9.390  17.926  1.00  0.00    -0.649 OA
BRANCH  43  45
HETATM   45  O3  UNL     1       3.119  10.479  16.252  1.00  0.00    -0.776 OA
HETATM   46  H33 UNL     1       3.252   9.532  16.043  1.00  0.00     0.167 HD
ENDBRANCH  43  45
ENDBRANCH  11  43
BRANCH  10  47
HETATM   47  O1  UNL     1       2.863  12.822  20.169  1.00  0.00    -0.394 OA
HETATM   48  H29 UNL     1       2.935  12.628  21.121  1.00  0.00     0.210 HD
ENDBRANCH  10  47
TORSDOF 13
ENDMDL
MODEL 3
REMARK minimizedAffinity -7.45322943
REMARK CNNscore 0.278597832
REMARK CNNaffinity 6.89315796
REMARK  13 active torsions:
REMARK  status: ('A' for Active; 'I' for Inactive)
REMARK    1  A    between atoms: C2_2  and  C3_3 
REMARK    2  A    between atoms: C2_2  and  C9_9 
REMARK    3  A    between atoms: C3_3  and  C4_4 
REMARK    4  A    between atoms: C4_4  and  C5_5 
REMARK    5  A    between atoms: C18_18  and  O1_19 
REMARK    6  A    between atoms: C19_20  and  C21_22 
REMARK    7  A    between atoms: C21_22  and  O3_24 
REMARK    8  A    between atoms: C30_33  and  O4_34 
REMARK    9  A    between atoms: O4_34  and  C31_35 
REMARK   10  A    between atoms: C32_37  and  C33_38 
REMARK   11  A    between atoms: C33_38  and  O6_39 
REMARK   12  A    between atoms: C34_40  and  O7_41 
REMARK   13  A    between atoms: C35_42  and  O8_43 
ROOT
HETATM    1  C9  UNL     1      -2.525   6.447  14.545  1.00  0.00     0.047 C 
HETATM    2  C10 UNL     1      -1.669   7.712  14.765  1.00  0.00     0.005 C 
HETATM    3  C11 UNL     1      -1.156   7.983  16.171  1.00  0.00     0.006 C 
HETATM    4  C12 UNL     1      -0.284   9.252  16.205  1.00  0.00     0.006 C 
HETATM    5  C13 UNL     1       0.847   9.263  15.137  1.00  0.00     0.003 C 
HETATM    6  C14 UNL     1       1.896  10.439  15.299  1.00  0.00    -0.035 C 
HETATM    7  C15 UNL     1       1.221  11.838  15.294  1.00  0.00     0.016 C 
HETATM    8  C16 UNL     1       2.559  10.313  16.711  1.00  0.00     0.012 C 
HETATM    9  C17 UNL     1       3.949  10.914  16.766  1.00  0.00     0.034 C 
HETATM   10  C18 UNL     1       4.943  10.176  15.870  1.00  0.00     0.137 C 
HETATM   11  C19 UNL     1       4.340   9.643  14.517  1.00  0.00     0.072 C 
HETATM   12  C20 UNL     1       5.401   9.842  13.398  1.00  0.00     0.030 C 
HETATM   13  C22 UNL     1       3.003  10.414  14.165  1.00  0.00     0.015 C 
HETATM   14  C23 UNL     1       2.406  10.114  12.769  1.00  0.00     0.007 C 
HETATM   15  C24 UNL     1       1.466   8.913  12.695  1.00  0.00     0.011 C 
HETATM   16  C25 UNL     1       0.282   8.980  13.684  1.00  0.00    -0.032 C 
HETATM   17  C26 UNL     1      -0.657  10.122  13.196  1.00  0.00     0.016 C 
HETATM   18  C27 UNL     1      -0.512   7.584  13.740  1.00  0.00    -0.030 C 
HETATM   19  C28 UNL     1       0.444   6.384  14.062  1.00  0.00     0.016 C 
HETATM   20  C29 UNL     1      -1.328   7.169  12.490  1.00  0.00     0.043 C 
HETATM   21  C30 UNL     1      -2.416   6.196  13.005  1.00  0.00     0.134 C 
ENDROOT
BRANCH  21  22
HETATM   22  O4  UNL     1      -1.972   4.859  12.761  1.00  0.00    -0.353 OA
BRANCH  22  23
HETATM   23  C31 UNL     1      -1.839   4.545  11.384  1.00  0.00     0.292 C 
HETATM   24  O5  UNL     1      -0.517   4.887  10.937  1.00  0.00    -0.348 OA
HETATM   25  C32 UNL     1       0.373   3.858  11.460  1.00  0.00     0.179 C 
HETATM   26  C34 UNL     1      -0.501   2.614  11.693  1.00  0.00     0.182 C 
HETATM   27  C35 UNL     1      -1.876   3.036  11.182  1.00  0.00     0.204 C 
BRANCH  25  28
HETATM   28  C33 UNL     1       1.561   3.644  10.521  1.00  0.00     0.198 C 
BRANCH  28  29
HETATM   29  O6  UNL     1       2.491   4.722  10.652  1.00  0.00    -0.398 OA
HETATM   30  H52 UNL     1       3.208   4.558  10.012  1.00  0.00     0.209 HD
ENDBRANCH  28  29
ENDBRANCH  25  28
BRANCH  26  31
HETATM   31  O7  UNL     1      -0.048   1.434  11.031  1.00  0.00    -0.390 OA
HETATM   32  H54 UNL     1      -0.666   1.290  10.284  1.00  0.00     0.210 HD
ENDBRANCH  26  31
BRANCH  27  33
HETATM   33  O8  UNL     1      -1.973   2.687   9.787  1.00  0.00    -0.388 OA
HETATM   34  H56 UNL     1      -1.459   3.358   9.291  1.00  0.00     0.210 HD
ENDBRANCH  27  33
ENDBRANCH  22  23
ENDBRANCH  21  22
BRANCH   1  35
HETATM   35  C2  UNL     1      -3.958   6.543  15.055  1.00  0.00    -0.082 C 
HETATM   36  C1  UNL     1      -4.470   7.670  15.583  1.00  0.00     0.015 C 
BRANCH  35  37
HETATM   37  C3  UNL     1      -4.822   5.305  14.898  1.00  0.00     0.037 C 
BRANCH  37  38
HETATM   38  C4  UNL     1      -5.801   5.394  13.722  1.00  0.00     0.031 C 
BRANCH  38  39
HETATM   39  C5  UNL     1      -5.516   4.321  12.700  1.00  0.00    -0.024 C 
HETATM   40  C6  UNL     1      -6.247   3.224  12.425  1.00  0.00    -0.091 C 
HETATM   41  C7  UNL     1      -7.551   2.858  13.083  1.00  0.00     0.042 C 
HETATM   42  C8  UNL     1      -5.789   2.241  11.380  1.00  0.00     0.042 C 
ENDBRANCH  38  39
ENDBRANCH  37  38
ENDBRANCH  35  37
ENDBRANCH   1  35
BRANCH  11  43
HETATM   43  C21 UNL     1       4.121   8.136  14.696  1.00  0.00     0.151 C 
HETATM   44  O2  UNL     1       3.801   7.335  13.831  1.00  0.00    -0.649 OA
BRANCH  43  45
HETATM   45  O3  UNL     1       4.306   7.683  15.951  1.00  0.00    -0.776 OA
HETATM   46  H33 UNL     1       4.121   6.724  15.890  1.00  0.00     0.167 HD
ENDBRANCH  43  45
ENDBRANCH  11  43
BRANCH  10  47
HETATM   47  O1  UNL     1       6.035  11.079  15.650  1.00  0.00    -0.394 OA
HETATM   48  H29 UNL     1       6.421  11.290  16.519  1.00  0.00     0.210 HD
ENDBRANCH  10  47
TORSDOF 13
ENDMDL
MODEL 4
REMARK minimizedAffinity -6.44588947
REMARK CNNscore 0.252079874
REMARK CNNaffinity 5.72002268
REMARK  13 active torsions:
REMARK  status: ('A' for Active; 'I' for Inactive)
REMARK    1  A    between atoms: C2_2  and  C3_3 
REMARK    2  A    between atoms: C2_2  and  C9_9 
REMARK    3  A    between atoms: C3_3  and  C4_4 
REMARK    4  A    between atoms: C4_4  and  C5_5 
REMARK    5  A    between atoms: C18_18  and  O1_19 
REMARK    6  A    between atoms: C19_20  and  C21_22 
REMARK    7  A    between atoms: C21_22  and  O3_24 
REMARK    8  A    between atoms: C30_33  and  O4_34 
REMARK    9  A    between atoms: O4_34  and  C31_35 
REMARK   10  A    between atoms: C32_37  and  C33_38 
REMARK   11  A    between atoms: C33_38  and  O6_39 
REMARK   12  A    between atoms: C34_40  and  O7_41 
REMARK   13  A    between atoms: C35_42  and  O8_43 
ROOT
HETATM    1  C9  UNL     1     -16.193   4.904  14.853  1.00  0.00     0.047 C 
HETATM    2  C10 UNL     1     -16.137   3.422  14.422  1.00  0.00     0.005 C 
HETATM    3  C11 UNL     1     -14.903   2.621  14.806  1.00  0.00     0.006 C 
HETATM    4  C12 UNL     1     -15.030   1.157  14.344  1.00  0.00     0.006 C 
HETATM    5  C13 UNL     1     -16.356   0.474  14.786  1.00  0.00     0.003 C 
HETATM    6  C14 UNL     1     -16.411  -1.088  14.528  1.00  0.00    -0.035 C 
HETATM    7  C15 UNL     1     -16.162  -1.450  13.039  1.00  0.00     0.016 C 
HETATM    8  C16 UNL     1     -15.233  -1.756  15.311  1.00  0.00     0.012 C 
HETATM    9  C17 UNL     1     -15.513  -3.199  15.681  1.00  0.00     0.034 C 
HETATM   10  C18 UNL     1     -16.677  -3.339  16.660  1.00  0.00     0.137 C 
HETATM   11  C19 UNL     1     -17.850  -2.313  16.437  1.00  0.00     0.072 C 
HETATM   12  C20 UNL     1     -19.197  -3.051  16.682  1.00  0.00     0.030 C 
HETATM   13  C22 UNL     1     -17.796  -1.719  14.972  1.00  0.00     0.015 C 
HETATM   14  C23 UNL     1     -19.000  -0.837  14.562  1.00  0.00     0.007 C 
HETATM   15  C24 UNL     1     -18.890   0.643  14.923  1.00  0.00     0.011 C 
HETATM   16  C25 UNL     1     -17.622   1.331  14.372  1.00  0.00    -0.032 C 
HETATM   17  C26 UNL     1     -17.783   1.414  12.825  1.00  0.00     0.016 C 
HETATM   18  C27 UNL     1     -17.436   2.800  14.998  1.00  0.00    -0.030 C 
HETATM   19  C28 UNL     1     -17.442   2.768  16.565  1.00  0.00     0.016 C 
HETATM   20  C29 UNL     1     -18.448   3.895  14.578  1.00  0.00     0.043 C 
HETATM   21  C30 UNL     1     -17.719   5.243  14.795  1.00  0.00     0.134 C 
ENDROOT
BRANCH  21  22
HETATM   22  O4  UNL     1     -18.143   5.784  16.048  1.00  0.00    -0.353 OA
BRANCH  22  23
HETATM   23  C31 UNL     1     -17.088   6.348  16.811  1.00  0.00     0.292 C 
HETATM   24  O5  UNL     1     -17.146   7.782  16.728  1.00  0.00    -0.348 OA
HETATM   25  C32 UNL     1     -18.251   8.199  17.581  1.00  0.00     0.179 C 
HETATM   26  C34 UNL     1     -18.443   7.076  18.614  1.00  0.00     0.182 C 
HETATM   27  C35 UNL     1     -17.319   6.094  18.295  1.00  0.00     0.204 C 
BRANCH  25  28
HETATM   28  C33 UNL     1     -17.981   9.582  18.175  1.00  0.00     0.198 C 
BRANCH  28  29
HETATM   29  O6  UNL     1     -16.736   9.580  18.879  1.00  0.00    -0.398 OA
HETATM   30  H52 UNL     1     -16.627  10.467  19.267  1.00  0.00     0.209 HD
ENDBRANCH  28  29
ENDBRANCH  25  28
BRANCH  26  31
HETATM   31  O7  UNL     1     -18.383   7.501  19.976  1.00  0.00    -0.390 OA
HETATM   32  H54 UNL     1     -17.521   7.184  20.318  1.00  0.00     0.210 HD
ENDBRANCH  26  31
BRANCH  27  33
HETATM   33  O8  UNL     1     -16.165   6.448  19.083  1.00  0.00    -0.388 OA
HETATM   34  H56 UNL     1     -15.757   7.228  18.652  1.00  0.00     0.210 HD
ENDBRANCH  27  33
ENDBRANCH  22  23
ENDBRANCH  21  22
BRANCH   1  35
HETATM   35  C2  UNL     1     -15.320   5.846  14.032  1.00  0.00    -0.082 C 
HETATM   36  C1  UNL     1     -15.801   6.587  13.016  1.00  0.00     0.015 C 
BRANCH  35  37
HETATM   37  C3  UNL     1     -13.863   5.955  14.441  1.00  0.00     0.037 C 
BRANCH  37  38
HETATM   38  C4  UNL     1     -13.061   6.932  13.573  1.00  0.00     0.031 C 
BRANCH  38  39
HETATM   39  C5  UNL     1     -12.007   7.638  14.388  1.00  0.00    -0.024 C 
HETATM   40  C6  UNL     1     -10.671   7.473  14.335  1.00  0.00    -0.091 C 
HETATM   41  C7  UNL     1      -9.944   6.547  13.398  1.00  0.00     0.042 C 
HETATM   42  C8  UNL     1      -9.767   8.254  15.252  1.00  0.00     0.042 C 
ENDBRANCH  38  39
ENDBRANCH  37  38
ENDBRANCH  35  37
ENDBRANCH   1  35
BRANCH  11  43
HETATM   43  C21 UNL     1     -17.703  -1.234  17.516  1.00  0.00     0.151 C 
HETATM   44  O2  UNL     1     -18.524  -0.379  17.815  1.00  0.00    -0.649 OA
BRANCH  43  45
HETATM   45  O3  UNL     1     -16.533  -1.257  18.183  1.00  0.00    -0.776 OA
HETATM   46  H33 UNL     1     -16.600  -0.512  18.814  1.00  0.00     0.167 HD
ENDBRANCH  43  45
ENDBRANCH  11  43
BRANCH  10  47
HETATM   47  O1  UNL     1     -17.127  -4.697  16.561  1.00  0.00    -0.394 OA
HETATM   48  H29 UNL     1     -16.380  -5.272  16.806  1.00  0.00     0.210 HD
ENDBRANCH  10  47
TORSDOF 13
ENDMDL
MODEL 5
REMARK minimizedAffinity -9.36851788
REMARK CNNscore 0.246698186
REMARK CNNaffinity 6.22191477
REMARK  13 active torsions:
REMARK  status: ('A' for Active; 'I' for Inactive)
REMARK    1  A    between atoms: C2_2  and  C3_3 
REMARK    2  A    between atoms: C2_2  and  C9_9 
REMARK    3  A    between atoms: C3_3  and  C4_4 
REMARK    4  A    between atoms: C4_4  and  C5_5 
REMARK    5  A    between atoms: C18_18  and  O1_19 
REMARK    6  A    between atoms: C19_20  and  C21_22 
REMARK    7  A    between atoms: C21_22  and  O3_24 
REMARK    8  A    between atoms: C30_33  and  O4_34 
REMARK    9  A    between atoms: O4_34  and  C31_35 
REMARK   10  A    between atoms: C32_37  and  C33_38 
REMARK   11  A    between atoms: C33_38  and  O6_39 
REMARK   12  A    between atoms: C34_40  and  O7_41 
REMARK   13  A    between atoms: C35_42  and  O8_43 
ROOT
HETATM    1  C9  UNL     1      -2.308   7.644  13.797  1.00  0.00     0.047 C 
HETATM    2  C10 UNL     1      -2.193   8.759  14.859  1.00  0.00     0.005 C 
HETATM    3  C11 UNL     1      -2.265   8.351  16.322  1.00  0.00     0.006 C 
HETATM    4  C12 UNL     1      -2.086   9.572  17.244  1.00  0.00     0.006 C 
HETATM    5  C13 UNL     1      -0.826  10.425  16.916  1.00  0.00     0.003 C 
HETATM    6  C14 UNL     1      -0.490  11.544  17.985  1.00  0.00    -0.035 C 
HETATM    7  C15 UNL     1      -1.679  12.517  18.215  1.00  0.00     0.016 C 
HETATM    8  C16 UNL     1      -0.262  10.848  19.368  1.00  0.00     0.012 C 
HETATM    9  C17 UNL     1       0.647  11.642  20.285  1.00  0.00     0.034 C 
HETATM   10  C18 UNL     1       2.069  11.762  19.740  1.00  0.00     0.137 C 
HETATM   11  C19 UNL     1       2.165  11.907  18.175  1.00  0.00     0.072 C 
HETATM   12  C20 UNL     1       3.296  12.921  17.847  1.00  0.00     0.030 C 
HETATM   13  C22 UNL     1       0.783  12.396  17.579  1.00  0.00     0.015 C 
HETATM   14  C23 UNL     1       0.793  12.755  16.074  1.00  0.00     0.007 C 
HETATM   15  C24 UNL     1       0.537  11.594  15.115  1.00  0.00     0.011 C 
HETATM   16  C25 UNL     1      -0.780  10.835  15.386  1.00  0.00    -0.032 C 
HETATM   17  C26 UNL     1      -1.947  11.794  15.009  1.00  0.00     0.016 C 
HETATM   18  C27 UNL     1      -0.862   9.481  14.523  1.00  0.00    -0.030 C 
HETATM   19  C28 UNL     1       0.391   8.568  14.753  1.00  0.00     0.016 C 
HETATM   20  C29 UNL     1      -1.029   9.617  12.988  1.00  0.00     0.043 C 
HETATM   21  C30 UNL     1      -1.676   8.289  12.520  1.00  0.00     0.134 C 
ENDROOT
BRANCH  21  22
HETATM   22  O4  UNL     1      -0.643   7.444  12.010  1.00  0.00    -0.353 OA
BRANCH  22  23
HETATM   23  C31 UNL     1       0.285   8.118  11.176  1.00  0.00     0.292 C 
HETATM   24  O5  UNL     1       1.605   8.004  11.732  1.00  0.00    -0.348 OA
HETATM   25  C32 UNL     1       2.049   6.643  11.460  1.00  0.00     0.179 C 
HETATM   26  C34 UNL     1       1.246   6.166  10.238  1.00  0.00     0.182 C 
HETATM   27  C35 UNL     1       0.423   7.390   9.846  1.00  0.00     0.204 C 
BRANCH  25  28
HETATM   28  C33 UNL     1       3.569   6.595  11.291  1.00  0.00     0.198 C 
BRANCH  28  29
HETATM   29  O6  UNL     1       4.210   7.025  12.495  1.00  0.00    -0.398 OA
HETATM   30  H52 UNL     1       5.170   7.010  12.325  1.00  0.00     0.209 HD
ENDBRANCH  28  29
ENDBRANCH  25  28
BRANCH  26  31
HETATM   31  O7  UNL     1       2.041   5.710   9.143  1.00  0.00    -0.390 OA
HETATM   32  H54 UNL     1       1.986   6.410   8.460  1.00  0.00     0.210 HD
ENDBRANCH  26  31
BRANCH  27  33
HETATM   33  O8  UNL     1       1.177   8.162   8.890  1.00  0.00    -0.388 OA
HETATM   34  H56 UNL     1       1.862   8.647   9.396  1.00  0.00     0.210 HD
ENDBRANCH  27  33
ENDBRANCH  22  23
ENDBRANCH  21  22
BRANCH   1  35
HETATM   35  C2  UNL     1      -3.717   7.104  13.582  1.00  0.00    -0.082 C 
HETATM   36  C1  UNL     1      -4.752   7.887  13.223  1.00  0.00     0.015 C 
BRANCH  35  37
HETATM   37  C3  UNL     1      -3.906   5.607  13.747  1.00  0.00     0.037 C 
BRANCH  37  38
HETATM   38  C4  UNL     1      -5.303   5.125  13.340  1.00  0.00     0.031 C 
BRANCH  38  39
HETATM   39  C5  UNL     1      -5.217   3.909  12.452  1.00  0.00    -0.024 C 
HETATM   40  C6  UNL     1      -6.153   2.960  12.254  1.00  0.00    -0.091 C 
HETATM   41  C7  UNL     1      -7.524   2.946  12.875  1.00  0.00     0.042 C 
HETATM   42  C8  UNL     1      -5.879   1.794  11.342  1.00  0.00     0.042 C 
ENDBRANCH  38  39
ENDBRANCH  37  38
ENDBRANCH  35  37
ENDBRANCH   1  35
BRANCH  11  43
HETATM   43  C21 UNL     1       2.588  10.538  17.631  1.00  0.00     0.151 C 
HETATM   44  O2  UNL     1       2.212   9.444  18.025  1.00  0.00    -0.649 OA
BRANCH  43  45
HETATM   45  O3  UNL     1       3.471  10.582  16.615  1.00  0.00    -0.776 OA
HETATM   46  H33 UNL     1       3.638   9.642  16.400  1.00  0.00     0.167 HD
ENDBRANCH  43  45
ENDBRANCH  11  43
BRANCH  10  47
HETATM   47  O1  UNL     1       2.669  12.875  20.417  1.00  0.00    -0.394 OA
HETATM   48  H29 UNL     1       2.664  12.675  21.371  1.00  0.00     0.210 HD
ENDBRANCH  10  47
TORSDOF 13
ENDMDL
MODEL 6
REMARK minimizedAffinity -9.10970211
REMARK CNNscore 0.235610023
REMARK CNNaffinity 6.39096594
REMARK  13 active torsions:
REMARK  status: ('A' for Active; 'I' for Inactive)
REMARK    1  A    between atoms: C2_2  and  C3_3 
REMARK    2  A    between atoms: C2_2  and  C9_9 
REMARK    3  A    between atoms: C3_3  and  C4_4 
REMARK    4  A    between atoms: C4_4  and  C5_5 
REMARK    5  A    between atoms: C18_18  and  O1_19 
REMARK    6  A    between atoms: C19_20  and  C21_22 
REMARK    7  A    between atoms: C21_22  and  O3_24 
REMARK    8  A    between atoms: C30_33  and  O4_34 
REMARK    9  A    between atoms: O4_34  and  C31_35 
REMARK   10  A    between atoms: C32_37  and  C33_38 
REMARK   11  A    between atoms: C33_38  and  O6_39 
REMARK   12  A    between atoms: C34_40  and  O7_41 
REMARK   13  A    between atoms: C35_42  and  O8_43 
ROOT
HETATM    1  C9  UNL     1      -1.940   7.466  14.191  1.00  0.00     0.047 C 
HETATM    2  C10 UNL     1      -1.855   8.700  15.113  1.00  0.00     0.005 C 
HETATM    3  C11 UNL     1      -2.038   8.481  16.607  1.00  0.00     0.006 C 
HETATM    4  C12 UNL     1      -1.876   9.801  17.382  1.00  0.00     0.006 C 
HETATM    5  C13 UNL     1      -0.568  10.573  17.040  1.00  0.00     0.003 C 
HETATM    6  C14 UNL     1      -0.264  11.807  17.985  1.00  0.00    -0.035 C 
HETATM    7  C15 UNL     1      -1.430  12.833  18.010  1.00  0.00     0.016 C 
HETATM    8  C16 UNL     1      -0.152  11.283  19.455  1.00  0.00     0.012 C 
HETATM    9  C17 UNL     1       0.723  12.160  20.329  1.00  0.00     0.034 C 
HETATM   10  C18 UNL     1       2.182  12.173  19.873  1.00  0.00     0.137 C 
HETATM   11  C19 UNL     1       2.384  12.119  18.313  1.00  0.00     0.072 C 
HETATM   12  C20 UNL     1       3.570  13.054  17.941  1.00  0.00     0.030 C 
HETATM   13  C22 UNL     1       1.062  12.567  17.567  1.00  0.00     0.015 C 
HETATM   14  C23 UNL     1       1.184  12.735  16.033  1.00  0.00     0.007 C 
HETATM   15  C24 UNL     1       0.951  11.471  15.208  1.00  0.00     0.011 C 
HETATM   16  C25 UNL     1      -0.408  10.787  15.478  1.00  0.00    -0.032 C 
HETATM   17  C26 UNL     1      -1.513  11.723  14.907  1.00  0.00     0.016 C 
HETATM   18  C27 UNL     1      -0.481   9.339  14.784  1.00  0.00    -0.030 C 
HETATM   19  C28 UNL     1       0.721   8.428  15.211  1.00  0.00     0.016 C 
HETATM   20  C29 UNL     1      -0.542   9.287  13.236  1.00  0.00     0.043 C 
HETATM   21  C30 UNL     1      -1.203   7.929  12.891  1.00  0.00     0.134 C 
ENDROOT
BRANCH  21  22
HETATM   22  O4  UNL     1      -0.170   6.999  12.561  1.00  0.00    -0.353 OA
BRANCH  22  23
HETATM   23  C31 UNL     1      -0.493   6.151  11.471  1.00  0.00     0.292 C 
HETATM   24  O5  UNL     1       0.076   6.680  10.262  1.00  0.00    -0.348 OA
HETATM   25  C32 UNL     1       1.503   6.392  10.319  1.00  0.00     0.179 C 
HETATM   26  C34 UNL     1       1.659   5.183  11.257  1.00  0.00     0.182 C 
HETATM   27  C35 UNL     1       0.222   4.814  11.615  1.00  0.00     0.204 C 
BRANCH  25  28
HETATM   28  C33 UNL     1       2.070   6.193   8.913  1.00  0.00     0.198 C 
BRANCH  28  29
HETATM   29  O6  UNL     1       3.487   6.015   8.975  1.00  0.00    -0.398 OA
HETATM   30  H52 UNL     1       3.803   5.929   8.057  1.00  0.00     0.209 HD
ENDBRANCH  28  29
ENDBRANCH  25  28
BRANCH  26  31
HETATM   31  O7  UNL     1       2.348   4.070  10.687  1.00  0.00    -0.390 OA
HETATM   32  H54 UNL     1       1.663   3.392  10.509  1.00  0.00     0.210 HD
ENDBRANCH  26  31
BRANCH  27  33
HETATM   33  O8  UNL     1      -0.255   3.848  10.656  1.00  0.00    -0.388 OA
HETATM   34  H56 UNL     1      -0.467   4.343   9.838  1.00  0.00     0.210 HD
ENDBRANCH  27  33
ENDBRANCH  22  23
ENDBRANCH  21  22
BRANCH   1  35
HETATM   35  C2  UNL     1      -3.350   6.941  13.946  1.00  0.00    -0.082 C 
HETATM   36  C1  UNL     1      -4.411   7.752  13.776  1.00  0.00     0.015 C 
BRANCH  35  37
HETATM   37  C3  UNL     1      -3.510   5.435  13.853  1.00  0.00     0.037 C 
BRANCH  37  38
HETATM   38  C4  UNL     1      -4.247   4.981  12.587  1.00  0.00     0.031 C 
BRANCH  38  39
HETATM   39  C5  UNL     1      -5.619   4.453  12.921  1.00  0.00    -0.024 C 
HETATM   40  C6  UNL     1      -6.210   3.332  12.462  1.00  0.00    -0.091 C 
HETATM   41  C7  UNL     1      -5.581   2.339  11.522  1.00  0.00     0.042 C 
HETATM   42  C8  UNL     1      -7.609   2.975  12.890  1.00  0.00     0.042 C 
ENDBRANCH  38  39
ENDBRANCH  37  38
ENDBRANCH  35  37
ENDBRANCH   1  35
BRANCH  11  43
HETATM   43  C21 UNL     1       2.794  10.682  17.971  1.00  0.00     0.151 C 
HETATM   44  O2  UNL     1       2.341   9.655  18.457  1.00  0.00    -0.649 OA
BRANCH  43  45
HETATM   45  O3  UNL     1       3.759  10.576  17.038  1.00  0.00    -0.776 OA
HETATM   46  H33 UNL     1       3.904   9.612  16.949  1.00  0.00     0.167 HD
ENDBRANCH  43  45
ENDBRANCH  11  43
BRANCH  10  47
HETATM   47  O1  UNL     1       2.774  13.345  20.449  1.00  0.00    -0.394 OA
HETATM   48  H29 UNL     1       2.700  13.266  21.417  1.00  0.00     0.210 HD
ENDBRANCH  10  47
TORSDOF 13
ENDMDL
MODEL 7
REMARK minimizedAffinity -9.04118156
REMARK CNNscore 0.231875703
REMARK CNNaffinity 6.41664076
REMARK  13 active torsions:
REMARK  status: ('A' for Active; 'I' for Inactive)
REMARK    1  A    between atoms: C2_2  and  C3_3 
REMARK    2  A    between atoms: C2_2  and  C9_9 
REMARK    3  A    between atoms: C3_3  and  C4_4 
REMARK    4  A    between atoms: C4_4  and  C5_5 
REMARK    5  A    between atoms: C18_18  and  O1_19 
REMARK    6  A    between atoms: C19_20  and  C21_22 
REMARK    7  A    between atoms: C21_22  and  O3_24 
REMARK    8  A    between atoms: C30_33  and  O4_34 
REMARK    9  A    between atoms: O4_34  and  C31_35 
REMARK   10  A    between atoms: C32_37  and  C33_38 
REMARK   11  A    between atoms: C33_38  and  O6_39 
REMARK   12  A    between atoms: C34_40  and  O7_41 
REMARK   13  A    between atoms: C35_42  and  O8_43 
ROOT
HETATM    1  C9  UNL     1      -0.665   6.475  12.866  1.00  0.00     0.047 C 
HETATM    2  C10 UNL     1      -1.313   7.383  13.934  1.00  0.00     0.005 C 
HETATM    3  C11 UNL     1      -0.989   7.101  15.392  1.00  0.00     0.006 C 
HETATM    4  C12 UNL     1      -1.674   8.124  16.317  1.00  0.00     0.006 C 
HETATM    5  C13 UNL     1      -1.414   9.605  15.916  1.00  0.00     0.003 C 
HETATM    6  C14 UNL     1      -1.910  10.672  16.976  1.00  0.00    -0.035 C 
HETATM    7  C15 UNL     1      -3.421  10.525  17.301  1.00  0.00     0.016 C 
HETATM    8  C16 UNL     1      -1.175  10.397  18.330  1.00  0.00     0.012 C 
HETATM    9  C17 UNL     1      -1.045  11.635  19.194  1.00  0.00     0.034 C 
HETATM   10  C18 UNL     1      -0.163  12.707  18.554  1.00  0.00     0.137 C 
HETATM   11  C19 UNL     1      -0.291  12.816  16.989  1.00  0.00     0.072 C 
HETATM   12  C20 UNL     1      -0.235  14.320  16.598  1.00  0.00     0.030 C 
HETATM   13  C22 UNL     1      -1.644  12.159  16.496  1.00  0.00     0.015 C 
HETATM   14  C23 UNL     1      -1.979  12.361  14.999  1.00  0.00     0.007 C 
HETATM   15  C24 UNL     1      -1.392  11.325  14.043  1.00  0.00     0.011 C 
HETATM   16  C25 UNL     1      -1.762   9.867  14.393  1.00  0.00    -0.032 C 
HETATM   17  C26 UNL     1      -3.285   9.702  14.111  1.00  0.00     0.016 C 
HETATM   18  C27 UNL     1      -0.911   8.822  13.517  1.00  0.00    -0.030 C 
HETATM   19  C28 UNL     1       0.631   9.075  13.648  1.00  0.00     0.016 C 
HETATM   20  C29 UNL     1      -1.214   8.740  12.000  1.00  0.00     0.043 C 
HETATM   21  C30 UNL     1      -0.754   7.329  11.558  1.00  0.00     0.134 C 
ENDROOT
BRANCH  21  22
HETATM   22  O4  UNL     1       0.542   7.445  10.966  1.00  0.00    -0.353 OA
BRANCH  22  23
HETATM   23  C31 UNL     1       1.540   6.686  11.628  1.00  0.00     0.292 C 
HETATM   24  O5  UNL     1       1.806   5.485  10.883  1.00  0.00    -0.348 OA
HETATM   25  C32 UNL     1       2.597   5.886   9.727  1.00  0.00     0.179 C 
HETATM   26  C34 UNL     1       3.292   7.202  10.117  1.00  0.00     0.182 C 
HETATM   27  C35 UNL     1       2.878   7.412  11.571  1.00  0.00     0.204 C 
BRANCH  25  28
HETATM   28  C33 UNL     1       3.542   4.760   9.303  1.00  0.00     0.198 C 
BRANCH  28  29
HETATM   29  O6  UNL     1       3.166   3.537   9.941  1.00  0.00    -0.398 OA
HETATM   30  H52 UNL     1       3.815   2.863   9.668  1.00  0.00     0.209 HD
ENDBRANCH  28  29
ENDBRANCH  25  28
BRANCH  26  31
HETATM   31  O7  UNL     1       4.713   7.188   9.985  1.00  0.00    -0.390 OA
HETATM   32  H54 UNL     1       5.068   7.144  10.898  1.00  0.00     0.210 HD
ENDBRANCH  26  31
BRANCH  27  33
HETATM   33  O8  UNL     1       3.860   6.788  12.422  1.00  0.00    -0.388 OA
HETATM   34  H56 UNL     1       3.687   5.824  12.395  1.00  0.00     0.210 HD
ENDBRANCH  27  33
ENDBRANCH  22  23
ENDBRANCH  21  22
BRANCH   1  35
HETATM   35  C2  UNL     1      -1.284   5.088  12.741  1.00  0.00    -0.082 C 
HETATM   36  C1  UNL     1      -0.585   4.012  12.334  1.00  0.00     0.015 C 
BRANCH  35  37
HETATM   37  C3  UNL     1      -2.741   4.952  13.144  1.00  0.00     0.037 C 
BRANCH  37  38
HETATM   38  C4  UNL     1      -3.599   4.248  12.087  1.00  0.00     0.031 C 
BRANCH  38  39
HETATM   39  C5  UNL     1      -5.010   4.050  12.582  1.00  0.00    -0.024 C 
HETATM   40  C6  UNL     1      -5.877   3.076  12.244  1.00  0.00    -0.091 C 
HETATM   41  C7  UNL     1      -5.586   1.940  11.300  1.00  0.00     0.042 C 
HETATM   42  C8  UNL     1      -7.266   3.052  12.825  1.00  0.00     0.042 C 
ENDBRANCH  38  39
ENDBRANCH  37  38
ENDBRANCH  35  37
ENDBRANCH   1  35
BRANCH  11  43
HETATM   43  C21 UNL     1       0.946  12.131  16.397  1.00  0.00     0.151 C 
HETATM   44  O2  UNL     1       1.517  11.143  16.836  1.00  0.00    -0.649 OA
BRANCH  43  45
HETATM   45  O3  UNL     1       1.430  12.705  15.279  1.00  0.00    -0.776 OA
HETATM   46  H33 UNL     1       2.208  12.159  15.045  1.00  0.00     0.167 HD
ENDBRANCH  43  45
ENDBRANCH  11  43
BRANCH  10  47
HETATM   47  O1  UNL     1      -0.492  13.942  19.205  1.00  0.00    -0.394 OA
HETATM   48  H29 UNL     1      -0.298  13.834  20.153  1.00  0.00     0.210 HD
ENDBRANCH  10  47
TORSDOF 13
ENDMDL
MODEL 8
REMARK minimizedAffinity -9.3870306
REMARK CNNscore 0.215858817
REMARK CNNaffinity 6.37512732
REMARK  13 active torsions:
REMARK  status: ('A' for Active; 'I' for Inactive)
REMARK    1  A    between atoms: C2_2  and  C3_3 
REMARK    2  A    between atoms: C2_2  and  C9_9 
REMARK    3  A    between atoms: C3_3  and  C4_4 
REMARK    4  A    between atoms: C4_4  and  C5_5 
REMARK    5  A    between atoms: C18_18  and  O1_19 
REMARK    6  A    between atoms: C19_20  and  C21_22 
REMARK    7  A    between atoms: C21_22  and  O3_24 
REMARK    8  A    between atoms: C30_33  and  O4_34 
REMARK    9  A    between atoms: O4_34  and  C31_35 
REMARK   10  A    between atoms: C32_37  and  C33_38 
REMARK   11  A    between atoms: C33_38  and  O6_39 
REMARK   12  A    between atoms: C34_40  and  O7_41 
REMARK   13  A    between atoms: C35_42  and  O8_43 
ROOT
HETATM    1  C9  UNL     1      -1.142   6.634  13.801  1.00  0.00     0.047 C 
HETATM    2  C10 UNL     1      -1.322   7.912  14.648  1.00  0.00     0.005 C 
HETATM    3  C11 UNL     1      -1.673   7.742  16.118  1.00  0.00     0.006 C 
HETATM    4  C12 UNL     1      -1.767   9.108  16.824  1.00  0.00     0.006 C 
HETATM    5  C13 UNL     1      -0.523  10.015  16.602  1.00  0.00     0.003 C 
HETATM    6  C14 UNL     1      -0.490  11.320  17.499  1.00  0.00    -0.035 C 
HETATM    7  C15 UNL     1      -1.759  12.197  17.313  1.00  0.00     0.016 C 
HETATM    8  C16 UNL     1      -0.513  10.883  19.001  1.00  0.00     0.012 C 
HETATM    9  C17 UNL     1       0.132  11.900  19.921  1.00  0.00     0.034 C 
HETATM   10  C18 UNL     1       1.627  12.069  19.653  1.00  0.00     0.137 C 
HETATM   11  C19 UNL     1       2.038  11.966  18.137  1.00  0.00     0.072 C 
HETATM   12  C20 UNL     1       3.148  13.020  17.860  1.00  0.00     0.030 C 
HETATM   13  C22 UNL     1       0.784  12.216  17.204  1.00  0.00     0.015 C 
HETATM   14  C23 UNL     1       1.088  12.325  15.690  1.00  0.00     0.007 C 
HETATM   15  C24 UNL     1       1.112  11.005  14.923  1.00  0.00     0.011 C 
HETATM   16  C25 UNL     1      -0.183  10.174  15.062  1.00  0.00    -0.032 C 
HETATM   17  C26 UNL     1      -1.303  10.941  14.299  1.00  0.00     0.016 C 
HETATM   18  C27 UNL     1       0.002   8.697  14.455  1.00  0.00    -0.030 C 
HETATM   19  C28 UNL     1       1.234   7.960  15.086  1.00  0.00     0.016 C 
HETATM   20  C29 UNL     1       0.153   8.565  12.919  1.00  0.00     0.043 C 
HETATM   21  C30 UNL     1      -0.298   7.123  12.578  1.00  0.00     0.134 C 
ENDROOT
BRANCH  21  22
HETATM   22  O4  UNL     1       0.870   6.311  12.439  1.00  0.00    -0.353 OA
BRANCH  22  23
HETATM   23  C31 UNL     1       0.980   5.683  11.172  1.00  0.00     0.292 C 
HETATM   24  O5  UNL     1       0.407   6.531  10.163  1.00  0.00    -0.348 OA
HETATM   25  C32 UNL     1       1.365   7.604   9.934  1.00  0.00     0.179 C 
HETATM   26  C34 UNL     1       2.736   7.053  10.363  1.00  0.00     0.182 C 
HETATM   27  C35 UNL     1       2.441   5.606  10.748  1.00  0.00     0.204 C 
BRANCH  25  28
HETATM   28  C33 UNL     1       1.292   8.094   8.487  1.00  0.00     0.198 C 
BRANCH  28  29
HETATM   29  O6  UNL     1       0.234   9.045   8.344  1.00  0.00    -0.398 OA
HETATM   30  H52 UNL     1       0.205   9.298   7.403  1.00  0.00     0.209 HD
ENDBRANCH  28  29
ENDBRANCH  25  28
BRANCH  26  31
HETATM   31  O7  UNL     1       3.747   7.121   9.358  1.00  0.00    -0.390 OA
HETATM   32  H54 UNL     1       3.875   6.202   9.042  1.00  0.00     0.210 HD
ENDBRANCH  26  31
BRANCH  27  33
HETATM   33  O8  UNL     1       2.614   4.777   9.581  1.00  0.00    -0.388 OA
HETATM   34  H56 UNL     1       1.821   4.908   9.021  1.00  0.00     0.210 HD
ENDBRANCH  27  33
ENDBRANCH  22  23
ENDBRANCH  21  22
BRANCH   1  35
HETATM   35  C2  UNL     1      -2.438   5.931  13.415  1.00  0.00    -0.082 C 
HETATM   36  C1  UNL     1      -3.597   6.125  14.072  1.00  0.00     0.015 C 
BRANCH  35  37
HETATM   37  C3  UNL     1      -2.383   5.018  12.204  1.00  0.00     0.037 C 
BRANCH  37  38
HETATM   38  C4  UNL     1      -3.131   3.696  12.408  1.00  0.00     0.031 C 
BRANCH  38  39
HETATM   39  C5  UNL     1      -4.596   3.939  12.675  1.00  0.00    -0.024 C 
HETATM   40  C6  UNL     1      -5.651   3.256  12.190  1.00  0.00    -0.091 C 
HETATM   41  C7  UNL     1      -5.570   2.056  11.284  1.00  0.00     0.042 C 
HETATM   42  C8  UNL     1      -7.055   3.662  12.549  1.00  0.00     0.042 C 
ENDBRANCH  38  39
ENDBRANCH  37  38
ENDBRANCH  35  37
ENDBRANCH   1  35
BRANCH  11  43
HETATM   43  C21 UNL     1       2.652  10.575  17.939  1.00  0.00     0.151 C 
HETATM   44  O2  UNL     1       3.256  10.173  16.956  1.00  0.00    -0.649 OA
BRANCH  43  45
HETATM   45  O3  UNL     1       2.485   9.732  18.977  1.00  0.00    -0.776 OA
HETATM   46  H33 UNL     1       2.919   8.904  18.686  1.00  0.00     0.167 HD
ENDBRANCH  43  45
ENDBRANCH  11  43
BRANCH  10  47
HETATM   47  O1  UNL     1       2.000  13.330  20.224  1.00  0.00    -0.394 OA
HETATM   48  H29 UNL     1       1.808  13.287  21.178  1.00  0.00     0.210 HD
ENDBRANCH  10  47
TORSDOF 13
ENDMDL
MODEL 9
REMARK minimizedAffinity -7.56720638
REMARK CNNscore 0.213889614
REMARK CNNaffinity 6.17876863
REMARK  13 active torsions:
REMARK  status: ('A' for Active; 'I' for Inactive)
REMARK    1  A    between atoms: C2_2  and  C3_3 
REMARK    2  A    between atoms: C2_2  and  C9_9 
REMARK    3  A    between atoms: C3_3  and  C4_4 
REMARK    4  A    between atoms: C4_4  and  C5_5 
REMARK    5  A    between atoms: C18_18  and  O1_19 
REMARK    6  A    between atoms: C19_20  and  C21_22 
REMARK    7  A    between atoms: C21_22  and  O3_24 
REMARK    8  A    between atoms: C30_33  and  O4_34 
REMARK    9  A    between atoms: O4_34  and  C31_35 
REMARK   10  A    between atoms: C32_37  and  C33_38 
REMARK   11  A    between atoms: C33_38  and  O6_39 
REMARK   12  A    between atoms: C34_40  and  O7_41 
REMARK   13  A    between atoms: C35_42  and  O8_43 
ROOT
HETATM    1  C9  UNL     1      -0.741  10.964  16.628  1.00  0.00     0.047 C 
HETATM    2  C10 UNL     1      -0.089  11.869  17.695  1.00  0.00     0.005 C 
HETATM    3  C11 UNL     1      -0.332  11.525  19.157  1.00  0.00     0.006 C 
HETATM    4  C12 UNL     1       0.426  12.494  20.084  1.00  0.00     0.006 C 
HETATM    5  C13 UNL     1       1.937  12.638  19.740  1.00  0.00     0.003 C 
HETATM    6  C14 UNL     1       2.784  13.440  20.811  1.00  0.00    -0.035 C 
HETATM    7  C15 UNL     1       2.215  14.863  21.068  1.00  0.00     0.016 C 
HETATM    8  C16 UNL     1       2.664  12.700  22.185  1.00  0.00     0.012 C 
HETATM    9  C17 UNL     1       3.854  12.943  23.091  1.00  0.00     0.034 C 
HETATM   10  C18 UNL     1       5.151  12.370  22.522  1.00  0.00     0.137 C 
HETATM   11  C19 UNL     1       5.286  12.473  20.958  1.00  0.00     0.072 C 
HETATM   12  C20 UNL     1       6.763  12.821  20.616  1.00  0.00     0.030 C 
HETATM   13  C22 UNL     1       4.305  13.578  20.389  1.00  0.00     0.015 C 
HETATM   14  C23 UNL     1       4.469  13.909  18.886  1.00  0.00     0.007 C 
HETATM   15  C24 UNL     1       3.674  13.030  17.923  1.00  0.00     0.011 C 
HETATM   16  C25 UNL     1       2.157  12.997  18.212  1.00  0.00    -0.032 C 
HETATM   17  C26 UNL     1       1.593  14.406  17.863  1.00  0.00     0.016 C 
HETATM   18  C27 UNL     1       1.421  11.864  17.341  1.00  0.00    -0.030 C 
HETATM   19  C28 UNL     1       2.080  10.456  17.543  1.00  0.00     0.016 C 
HETATM   20  C29 UNL     1       1.322  12.086  15.811  1.00  0.00     0.043 C 
HETATM   21  C30 UNL     1       0.109  11.243  15.345  1.00  0.00     0.134 C 
ENDROOT
BRANCH  21  22
HETATM   22  O4  UNL     1       0.600  10.011  14.810  1.00  0.00    -0.353 OA
BRANCH  22  23
HETATM   23  C31 UNL     1      -0.174   8.881  15.181  1.00  0.00     0.292 C 
HETATM   24  O5  UNL     1      -0.919   8.414  14.044  1.00  0.00    -0.348 OA
HETATM   25  C32 UNL     1       0.033   7.726  13.183  1.00  0.00     0.179 C 
HETATM   26  C34 UNL     1       1.187   7.275  14.094  1.00  0.00     0.182 C 
HETATM   27  C35 UNL     1       0.734   7.699  15.488  1.00  0.00     0.204 C 
BRANCH  25  28
HETATM   28  C33 UNL     1      -0.654   6.600  12.409  1.00  0.00     0.198 C 
BRANCH  28  29
HETATM   29  O6  UNL     1      -1.236   5.663  13.319  1.00  0.00    -0.398 OA
HETATM   30  H52 UNL     1      -1.628   4.950  12.781  1.00  0.00     0.209 HD
ENDBRANCH  28  29
ENDBRANCH  25  28
BRANCH  26  31
HETATM   31  O7  UNL     1       1.472   5.877  14.049  1.00  0.00    -0.390 OA
HETATM   32  H54 UNL     1       1.135   5.507  14.892  1.00  0.00     0.210 HD
ENDBRANCH  26  31
BRANCH  27  33
HETATM   33  O8  UNL     1       0.005   6.607  16.084  1.00  0.00    -0.388 OA
HETATM   34  H56 UNL     1      -0.885   6.604  15.674  1.00  0.00     0.210 HD
ENDBRANCH  27  33
ENDBRANCH  22  23
ENDBRANCH  21  22
BRANCH   1  35
HETATM   35  C2  UNL     1      -2.238  11.174  16.434  1.00  0.00    -0.082 C 
HETATM   36  C1  UNL     1      -2.761  12.337  16.001  1.00  0.00     0.015 C 
BRANCH  35  37
HETATM   37  C3  UNL     1      -3.135   9.981  16.708  1.00  0.00     0.037 C 
BRANCH  37  38
HETATM   38  C4  UNL     1      -4.476  10.049  15.969  1.00  0.00     0.031 C 
BRANCH  38  39
HETATM   39  C5  UNL     1      -4.581   8.955  14.937  1.00  0.00    -0.024 C 
HETATM   40  C6  UNL     1      -5.685   8.292  14.541  1.00  0.00    -0.091 C 
HETATM   41  C7  UNL     1      -7.080   8.544  15.046  1.00  0.00     0.042 C 
HETATM   42  C8  UNL     1      -5.592   7.202  13.506  1.00  0.00     0.042 C 
ENDBRANCH  38  39
ENDBRANCH  37  38
ENDBRANCH  35  37
ENDBRANCH   1  35
BRANCH  11  43
HETATM   43  C21 UNL     1       4.990  11.078  20.396  1.00  0.00     0.151 C 
HETATM   44  O2  UNL     1       4.166  10.279  20.817  1.00  0.00    -0.649 OA
BRANCH  43  45
HETATM   45  O3  UNL     1       5.735  10.727  19.331  1.00  0.00    -0.776 OA
HETATM   46  H33 UNL     1       5.431   9.823  19.111  1.00  0.00     0.167 HD
ENDBRANCH  43  45
ENDBRANCH  11  43
BRANCH  10  47
HETATM   47  O1  UNL     1       6.221  13.045  23.197  1.00  0.00    -0.394 OA
HETATM   48  H29 UNL     1       6.132  12.858  24.149  1.00  0.00     0.210 HD
ENDBRANCH  10  47
TORSDOF 13
ENDMDL
