MODEL 1
REMARK minimizedAffinity -6.39533186
REMARK  6 active torsions:
REMARK  status: ('A' for Active; 'I' for Inactive)
REMARK    1  A    between atoms: N1_2  and  C3_4 
REMARK    2  A    between atoms: C3_4  and  C4_5 
REMARK    3  A    between atoms: C4_5  and  O1_6 
REMARK    4  A    between atoms: O1_6  and  C5_7 
REMARK    5  A    between atoms: C5_7  and  C6_8 
REMARK    6  A    between atoms: C5_7  and  C12_14 
ROOT
HETATM    1  C5  UNL     1      -0.970  51.647 -25.003  1.00  0.00     0.206 C 
ENDROOT
BRANCH   1   2
HETATM    2  O1  UNL     1      -1.893  52.688 -25.344  1.00  0.00    -0.373 OA
BRANCH   2   3
HETATM    3  C4  UNL     1      -3.146  52.213 -25.842  1.00  0.00     0.199 C 
BRANCH   3   4
HETATM    4  C3  UNL     1      -3.378  50.735 -25.470  1.00  0.00     0.297 C 
BRANCH   4   5
HETATM    5  N1  UNL     1      -3.101  49.723 -26.502  1.00  0.00     0.082 N 
HETATM    6  C1  UNL     1      -3.372  50.213 -27.851  1.00  0.00     0.309 C 
HETATM    7  C2  UNL     1      -3.791  48.459 -26.255  1.00  0.00     0.309 C 
ENDBRANCH   4   5
ENDBRANCH   3   4
ENDBRANCH   2   3
ENDBRANCH   1   2
BRANCH   1   8
HETATM    8  C6  UNL     1       0.139  51.662 -26.040  1.00  0.00    -0.024 A 
HETATM    9  C7  UNL     1      -0.167  51.831 -27.401  1.00  0.00     0.010 A 
HETATM   10  C8  UNL     1       0.847  51.842 -28.362  1.00  0.00     0.001 A 
HETATM   11  C9  UNL     1       2.177  51.691 -27.976  1.00  0.00     0.000 A 
HETATM   12  C10 UNL     1       2.497  51.534 -26.629  1.00  0.00     0.001 A 
HETATM   13  C11 UNL     1       1.485  51.523 -25.668  1.00  0.00     0.010 A 
ENDBRANCH   1   8
BRANCH   1  14
HETATM   14  C12 UNL     1      -0.492  51.921 -23.608  1.00  0.00     0.062 A 
HETATM   15  C13 UNL     1       0.270  52.953 -23.090  1.00  0.00     0.048 A 
HETATM   16  C14 UNL     1       0.383  52.680 -21.719  1.00  0.00     0.109 A 
HETATM   17  N2  UNL     1      -0.258  51.564 -21.373  1.00  0.00    -0.310 N 
HETATM   18  N3  UNL     1      -0.771  51.110 -22.533  1.00  0.00    -0.298 N 
ATOM     19  H2  UNL     1      -0.340  51.150 -20.445  1.00  0.00     0.186 HD
HETATM   20  C15 UNL     1      -1.513  49.870 -22.520  1.00  0.00     0.177 C 
ENDBRANCH   1  14
TORSDOF 6
ENDMDL
MODEL 2
REMARK minimizedAffinity -6.39321518
REMARK  6 active torsions:
REMARK  status: ('A' for Active; 'I' for Inactive)
REMARK    1  A    between atoms: N1_2  and  C3_4 
REMARK    2  A    between atoms: C3_4  and  C4_5 
REMARK    3  A    between atoms: C4_5  and  O1_6 
REMARK    4  A    between atoms: O1_6  and  C5_7 
REMARK    5  A    between atoms: C5_7  and  C6_8 
REMARK    6  A    between atoms: C5_7  and  C12_14 
ROOT
HETATM    1  C5  UNL     1      -1.374  51.399 -25.076  1.00  0.00     0.206 C 
ENDROOT
BRANCH   1   2
HETATM    2  O1  UNL     1      -0.802  50.956 -23.839  1.00  0.00    -0.373 OA
BRANCH   2   3
HETATM    3  C4  UNL     1      -1.080  51.815 -22.731  1.00  0.00     0.199 C 
BRANCH   3   4
HETATM    4  C3  UNL     1       0.138  51.938 -21.794  1.00  0.00     0.297 C 
BRANCH   4   5
HETATM    5  N1  UNL     1       0.185  53.096 -20.887  1.00  0.00     0.082 N 
HETATM    6  C1  UNL     1       1.317  53.976 -21.165  1.00  0.00     0.309 C 
HETATM    7  C2  UNL     1       0.151  52.715 -19.478  1.00  0.00     0.309 C 
ENDBRANCH   4   5
ENDBRANCH   3   4
ENDBRANCH   2   3
ENDBRANCH   1   2
BRANCH   1   8
HETATM    8  C6  UNL     1      -0.245  51.519 -26.084  1.00  0.00    -0.024 A 
HETATM    9  C7  UNL     1      -0.525  51.801 -27.432  1.00  0.00     0.010 A 
HETATM   10  C8  UNL     1       0.507  51.910 -28.366  1.00  0.00     0.001 A 
HETATM   11  C9  UNL     1       1.832  51.746 -27.966  1.00  0.00     0.000 A 
HETATM   12  C10 UNL     1       2.127  51.478 -26.631  1.00  0.00     0.001 A 
HETATM   13  C11 UNL     1       1.096  51.369 -25.696  1.00  0.00     0.010 A 
ENDBRANCH   1   8
BRANCH   1  14
HETATM   14  C12 UNL     1      -2.421  50.397 -25.462  1.00  0.00     0.062 A 
HETATM   15  C13 UNL     1      -2.322  49.171 -26.093  1.00  0.00     0.048 A 
HETATM   16  C14 UNL     1      -3.636  48.685 -26.172  1.00  0.00     0.109 A 
HETATM   17  N2  UNL     1      -4.516  49.527 -25.633  1.00  0.00    -0.310 N 
HETATM   18  N3  UNL     1      -3.764  50.565 -25.219  1.00  0.00    -0.298 N 
ATOM     19  H2  UNL     1      -5.526  49.411 -25.551  1.00  0.00     0.186 HD
HETATM   20  C15 UNL     1      -4.425  51.694 -24.605  1.00  0.00     0.177 C 
ENDBRANCH   1  14
TORSDOF 6
ENDMDL
MODEL 3
REMARK minimizedAffinity -6.36175251
REMARK  6 active torsions:
REMARK  status: ('A' for Active; 'I' for Inactive)
REMARK    1  A    between atoms: N1_2  and  C3_4 
REMARK    2  A    between atoms: C3_4  and  C4_5 
REMARK    3  A    between atoms: C4_5  and  O1_6 
REMARK    4  A    between atoms: O1_6  and  C5_7 
REMARK    5  A    between atoms: C5_7  and  C6_8 
REMARK    6  A    between atoms: C5_7  and  C12_14 
ROOT
HETATM    1  C5  UNL     1      -0.200  52.339 -24.902  1.00  0.00     0.206 C 
ENDROOT
BRANCH   1   2
HETATM    2  O1  UNL     1      -0.799  51.067 -24.630  1.00  0.00    -0.373 OA
BRANCH   2   3
HETATM    3  C4  UNL     1      -2.102  50.905 -25.194  1.00  0.00     0.199 C 
BRANCH   3   4
HETATM    4  C3  UNL     1      -2.080  49.943 -26.399  1.00  0.00     0.297 C 
BRANCH   4   5
HETATM    5  N1  UNL     1      -2.824  48.680 -26.274  1.00  0.00     0.082 N 
HETATM    6  C1  UNL     1      -3.716  48.443 -27.406  1.00  0.00     0.309 C 
HETATM    7  C2  UNL     1      -3.543  48.568 -25.008  1.00  0.00     0.309 C 
ENDBRANCH   4   5
ENDBRANCH   3   4
ENDBRANCH   2   3
ENDBRANCH   1   2
BRANCH   1   8
HETATM    8  C6  UNL     1       0.372  52.864 -23.598  1.00  0.00    -0.024 A 
HETATM    9  C7  UNL     1       0.267  52.104 -22.421  1.00  0.00     0.010 A 
HETATM   10  C8  UNL     1       0.789  52.580 -21.216  1.00  0.00     0.001 A 
HETATM   11  C9  UNL     1       1.427  53.818 -21.172  1.00  0.00     0.000 A 
HETATM   12  C10 UNL     1       1.549  54.579 -22.333  1.00  0.00     0.001 A 
HETATM   13  C11 UNL     1       1.030  54.104 -23.538  1.00  0.00     0.010 A 
ENDBRANCH   1   8
BRANCH   1  14
HETATM   14  C12 UNL     1       0.832  52.122 -25.968  1.00  0.00     0.062 A 
HETATM   15  C13 UNL     1       2.075  51.516 -25.925  1.00  0.00     0.048 A 
HETATM   16  C14 UNL     1       2.576  51.600 -27.232  1.00  0.00     0.109 A 
HETATM   17  N2  UNL     1       1.725  52.207 -28.059  1.00  0.00    -0.310 N 
HETATM   18  N3  UNL     1       0.679  52.528 -27.273  1.00  0.00    -0.298 N 
ATOM     19  H2  UNL     1       1.839  52.386 -29.057  1.00  0.00     0.186 HD
HETATM   20  C15 UNL     1      -0.430  53.243 -27.860  1.00  0.00     0.177 C 
ENDBRANCH   1  14
TORSDOF 6
ENDMDL
MODEL 4
REMARK minimizedAffinity -6.27242565
REMARK  6 active torsions:
REMARK  status: ('A' for Active; 'I' for Inactive)
REMARK    1  A    between atoms: N1_2  and  C3_4 
REMARK    2  A    between atoms: C3_4  and  C4_5 
REMARK    3  A    between atoms: C4_5  and  O1_6 
REMARK    4  A    between atoms: O1_6  and  C5_7 
REMARK    5  A    between atoms: C5_7  and  C6_8 
REMARK    6  A    between atoms: C5_7  and  C12_14 
ROOT
HETATM    1  C5  UNL     1      -0.561  52.132 -22.155  1.00  0.00     0.206 C 
ENDROOT
BRANCH   1   2
HETATM    2  O1  UNL     1       0.555  52.103 -23.053  1.00  0.00    -0.373 OA
BRANCH   2   3
HETATM    3  C4  UNL     1       0.293  52.699 -24.325  1.00  0.00     0.199 C 
BRANCH   3   4
HETATM    4  C3  UNL     1       0.390  51.664 -25.464  1.00  0.00     0.297 C 
BRANCH   4   5
HETATM    5  N1  UNL     1       1.184  52.027 -26.648  1.00  0.00     0.082 N 
HETATM    6  C1  UNL     1       0.515  51.675 -27.898  1.00  0.00     0.309 C 
HETATM    7  C2  UNL     1       2.540  51.486 -26.609  1.00  0.00     0.309 C 
ENDBRANCH   4   5
ENDBRANCH   3   4
ENDBRANCH   2   3
ENDBRANCH   1   2
BRANCH   1   8
HETATM    8  C6  UNL     1      -1.209  50.760 -22.186  1.00  0.00    -0.024 A 
HETATM    9  C7  UNL     1      -0.714  49.724 -21.376  1.00  0.00     0.010 A 
HETATM   10  C8  UNL     1      -1.302  48.458 -21.401  1.00  0.00     0.001 A 
HETATM   11  C9  UNL     1      -2.396  48.211 -22.229  1.00  0.00     0.000 A 
HETATM   12  C10 UNL     1      -2.905  49.231 -23.029  1.00  0.00     0.001 A 
HETATM   13  C11 UNL     1      -2.319  50.498 -23.005  1.00  0.00     0.010 A 
ENDBRANCH   1   8
BRANCH   1  14
HETATM   14  C12 UNL     1      -0.031  52.517 -20.806  1.00  0.00     0.062 A 
HETATM   15  C13 UNL     1      -0.309  52.028 -19.542  1.00  0.00     0.048 A 
HETATM   16  C14 UNL     1       0.500  52.769 -18.669  1.00  0.00     0.109 A 
HETATM   17  N2  UNL     1       1.247  53.665 -19.313  1.00  0.00    -0.310 N 
HETATM   18  N3  UNL     1       0.902  53.508 -20.606  1.00  0.00    -0.298 N 
ATOM     19  H2  UNL     1       1.923  54.319 -18.919  1.00  0.00     0.186 HD
HETATM   20  C15 UNL     1       1.515  54.368 -21.593  1.00  0.00     0.177 C 
ENDBRANCH   1  14
TORSDOF 6
ENDMDL
MODEL 5
REMARK minimizedAffinity -6.26848316
REMARK  6 active torsions:
REMARK  status: ('A' for Active; 'I' for Inactive)
REMARK    1  A    between atoms: N1_2  and  C3_4 
REMARK    2  A    between atoms: C3_4  and  C4_5 
REMARK    3  A    between atoms: C4_5  and  O1_6 
REMARK    4  A    between atoms: O1_6  and  C5_7 
REMARK    5  A    between atoms: C5_7  and  C6_8 
REMARK    6  A    between atoms: C5_7  and  C12_14 
ROOT
HETATM    1  C5  UNL     1      -0.180  53.456 -25.003  1.00  0.00     0.206 C 
ENDROOT
BRANCH   1   2
HETATM    2  O1  UNL     1      -1.475  52.843 -25.002  1.00  0.00    -0.373 OA
BRANCH   2   3
HETATM    3  C4  UNL     1      -1.459  51.448 -25.312  1.00  0.00     0.199 C 
BRANCH   3   4
HETATM    4  C3  UNL     1      -2.879  50.849 -25.294  1.00  0.00     0.297 C 
BRANCH   4   5
HETATM    5  N1  UNL     1      -3.345  50.165 -26.511  1.00  0.00     0.082 N 
HETATM    6  C1  UNL     1      -2.973  48.753 -26.534  1.00  0.00     0.309 C 
HETATM    7  C2  UNL     1      -2.923  50.838 -27.736  1.00  0.00     0.309 C 
ENDBRANCH   4   5
ENDBRANCH   3   4
ENDBRANCH   2   3
ENDBRANCH   1   2
BRANCH   1   8
HETATM    8  C6  UNL     1       0.359  53.388 -23.586  1.00  0.00    -0.024 A 
HETATM    9  C7  UNL     1       1.196  54.405 -23.097  1.00  0.00     0.010 A 
HETATM   10  C8  UNL     1       1.699  54.348 -21.795  1.00  0.00     0.001 A 
HETATM   11  C9  UNL     1       1.367  53.281 -20.963  1.00  0.00     0.000 A 
HETATM   12  C10 UNL     1       0.528  52.271 -21.429  1.00  0.00     0.001 A 
HETATM   13  C11 UNL     1       0.025  52.326 -22.730  1.00  0.00     0.010 A 
ENDBRANCH   1   8
BRANCH   1  14
HETATM   14  C12 UNL     1       0.658  52.713 -26.002  1.00  0.00     0.062 A 
HETATM   15  C13 UNL     1       1.681  51.798 -25.834  1.00  0.00     0.048 A 
HETATM   16  C14 UNL     1       2.075  51.437 -27.131  1.00  0.00     0.109 A 
HETATM   17  N2  UNL     1       1.362  52.064 -28.066  1.00  0.00    -0.310 N 
HETATM   18  N3  UNL     1       0.516  52.844 -27.363  1.00  0.00    -0.298 N 
ATOM     19  H2  UNL     1       1.438  51.974 -29.079  1.00  0.00     0.186 HD
HETATM   20  C15 UNL     1      -0.394  53.700 -28.088  1.00  0.00     0.177 C 
ENDBRANCH   1  14
TORSDOF 6
ENDMDL
MODEL 6
REMARK minimizedAffinity -6.24123192
REMARK  6 active torsions:
REMARK  status: ('A' for Active; 'I' for Inactive)
REMARK    1  A    between atoms: N1_2  and  C3_4 
REMARK    2  A    between atoms: C3_4  and  C4_5 
REMARK    3  A    between atoms: C4_5  and  O1_6 
REMARK    4  A    between atoms: O1_6  and  C5_7 
REMARK    5  A    between atoms: C5_7  and  C6_8 
REMARK    6  A    between atoms: C5_7  and  C12_14 
ROOT
HETATM    1  C5  UNL     1       6.371  63.214 -34.829  1.00  0.00     0.206 C 
ENDROOT
BRANCH   1   2
HETATM    2  O1  UNL     1       5.624  63.349 -36.044  1.00  0.00    -0.373 OA
BRANCH   2   3
HETATM    3  C4  UNL     1       6.060  64.426 -36.877  1.00  0.00     0.199 C 
BRANCH   3   4
HETATM    4  C3  UNL     1       4.919  65.427 -37.149  1.00  0.00     0.297 C 
BRANCH   4   5
HETATM    5  N1  UNL     1       5.283  66.739 -37.707  1.00  0.00     0.082 N 
HETATM    6  C1  UNL     1       4.152  67.408 -38.344  1.00  0.00     0.309 C 
HETATM    7  C2  UNL     1       6.428  66.672 -38.611  1.00  0.00     0.309 C 
ENDBRANCH   4   5
ENDBRANCH   3   4
ENDBRANCH   2   3
ENDBRANCH   1   2
BRANCH   1   8
HETATM    8  C6  UNL     1       5.465  63.637 -33.686  1.00  0.00    -0.024 A 
HETATM    9  C7  UNL     1       4.549  62.726 -33.133  1.00  0.00     0.010 A 
HETATM   10  C8  UNL     1       3.711  63.109 -32.084  1.00  0.00     0.001 A 
HETATM   11  C9  UNL     1       3.780  64.402 -31.569  1.00  0.00     0.000 A 
HETATM   12  C10 UNL     1       4.691  65.312 -32.099  1.00  0.00     0.001 A 
HETATM   13  C11 UNL     1       5.530  64.932 -33.147  1.00  0.00     0.010 A 
ENDBRANCH   1   8
BRANCH   1  14
HETATM   14  C12 UNL     1       6.819  61.786 -34.744  1.00  0.00     0.062 A 
HETATM   15  C13 UNL     1       6.174  60.605 -35.066  1.00  0.00     0.048 A 
HETATM   16  C14 UNL     1       7.098  59.587 -34.787  1.00  0.00     0.109 A 
HETATM   17  N2  UNL     1       8.251  60.067 -34.325  1.00  0.00    -0.310 N 
HETATM   18  N3  UNL     1       8.060  61.401 -34.293  1.00  0.00    -0.298 N 
ATOM     19  H2  UNL     1       9.086  59.546 -34.058  1.00  0.00     0.186 HD
HETATM   20  C15 UNL     1       9.129  62.239 -33.798  1.00  0.00     0.177 C 
ENDBRANCH   1  14
TORSDOF 6
ENDMDL
MODEL 7
REMARK minimizedAffinity -6.20845556
REMARK  6 active torsions:
REMARK  status: ('A' for Active; 'I' for Inactive)
REMARK    1  A    between atoms: N1_2  and  C3_4 
REMARK    2  A    between atoms: C3_4  and  C4_5 
REMARK    3  A    between atoms: C4_5  and  O1_6 
REMARK    4  A    between atoms: O1_6  and  C5_7 
REMARK    5  A    between atoms: C5_7  and  C6_8 
REMARK    6  A    between atoms: C5_7  and  C12_14 
ROOT
HETATM    1  C5  UNL     1      -1.073  50.737 -25.070  1.00  0.00     0.206 C 
ENDROOT
BRANCH   1   2
HETATM    2  O1  UNL     1      -1.447  51.904 -24.328  1.00  0.00    -0.373 OA
BRANCH   2   3
HETATM    3  C4  UNL     1      -0.923  51.939 -22.998  1.00  0.00     0.199 C 
BRANCH   3   4
HETATM    4  C3  UNL     1       0.483  52.569 -22.961  1.00  0.00     0.297 C 
BRANCH   4   5
HETATM    5  N1  UNL     1       1.073  52.841 -21.641  1.00  0.00     0.082 N 
HETATM    6  C1  UNL     1       0.203  52.425 -20.545  1.00  0.00     0.309 C 
HETATM    7  C2  UNL     1       1.487  54.232 -21.481  1.00  0.00     0.309 C 
ENDBRANCH   4   5
ENDBRANCH   3   4
ENDBRANCH   2   3
ENDBRANCH   1   2
BRANCH   1   8
HETATM    8  C6  UNL     1      -2.336  49.936 -25.329  1.00  0.00    -0.024 A 
HETATM    9  C7  UNL     1      -2.405  49.054 -26.420  1.00  0.00     0.010 A 
HETATM   10  C8  UNL     1      -3.565  48.315 -26.666  1.00  0.00     0.001 A 
HETATM   11  C9  UNL     1      -4.667  48.443 -25.824  1.00  0.00     0.000 A 
HETATM   12  C10 UNL     1      -4.610  49.305 -24.731  1.00  0.00     0.001 A 
HETATM   13  C11 UNL     1      -3.452  50.043 -24.483  1.00  0.00     0.010 A 
ENDBRANCH   1   8
BRANCH   1  14
HETATM   14  C12 UNL     1      -0.394  51.210 -26.321  1.00  0.00     0.062 A 
HETATM   15  C13 UNL     1       0.888  51.003 -26.797  1.00  0.00     0.048 A 
HETATM   16  C14 UNL     1       0.945  51.680 -28.024  1.00  0.00     0.109 A 
HETATM   17  N2  UNL     1      -0.209  52.276 -28.323  1.00  0.00    -0.310 N 
HETATM   18  N3  UNL     1      -1.005  51.992 -27.273  1.00  0.00    -0.298 N 
ATOM     19  H2  UNL     1      -0.437  52.821 -29.154  1.00  0.00     0.186 HD
HETATM   20  C15 UNL     1      -2.347  52.527 -27.260  1.00  0.00     0.177 C 
ENDBRANCH   1  14
TORSDOF 6
ENDMDL
MODEL 8
REMARK minimizedAffinity -6.20520258
REMARK  6 active torsions:
REMARK  status: ('A' for Active; 'I' for Inactive)
REMARK    1  A    between atoms: N1_2  and  C3_4 
REMARK    2  A    between atoms: C3_4  and  C4_5 
REMARK    3  A    between atoms: C4_5  and  O1_6 
REMARK    4  A    between atoms: O1_6  and  C5_7 
REMARK    5  A    between atoms: C5_7  and  C6_8 
REMARK    6  A    between atoms: C5_7  and  C12_14 
ROOT
HETATM    1  C5  UNL     1       6.374  64.632 -33.928  1.00  0.00     0.206 C 
ENDROOT
BRANCH   1   2
HETATM    2  O1  UNL     1       7.675  64.116 -33.623  1.00  0.00    -0.373 OA
BRANCH   2   3
HETATM    3  C4  UNL     1       8.092  63.050 -34.479  1.00  0.00     0.199 C 
BRANCH   3   4
HETATM    4  C3  UNL     1       8.730  61.898 -33.676  1.00  0.00     0.297 C 
BRANCH   4   5
HETATM    5  N1  UNL     1      10.191  61.915 -33.504  1.00  0.00     0.082 N 
HETATM    6  C1  UNL     1      10.590  61.761 -32.108  1.00  0.00     0.309 C 
HETATM    7  C2  UNL     1      10.818  63.091 -34.101  1.00  0.00     0.309 C 
ENDBRANCH   4   5
ENDBRANCH   3   4
ENDBRANCH   2   3
ENDBRANCH   1   2
BRANCH   1   8
HETATM    8  C6  UNL     1       6.409  65.145 -35.356  1.00  0.00    -0.024 A 
HETATM    9  C7  UNL     1       7.614  65.600 -35.916  1.00  0.00     0.010 A 
HETATM   10  C8  UNL     1       7.654  66.077 -37.228  1.00  0.00     0.001 A 
HETATM   11  C9  UNL     1       6.494  66.098 -38.000  1.00  0.00     0.000 A 
HETATM   12  C10 UNL     1       5.294  65.639 -37.463  1.00  0.00     0.001 A 
HETATM   13  C11 UNL     1       5.252  65.162 -36.152  1.00  0.00     0.010 A 
ENDBRANCH   1   8
BRANCH   1  14
HETATM   14  C12 UNL     1       5.395  63.516 -33.713  1.00  0.00     0.062 A 
HETATM   15  C13 UNL     1       5.222  62.314 -34.375  1.00  0.00     0.048 A 
HETATM   16  C14 UNL     1       4.158  61.677 -33.719  1.00  0.00     0.109 A 
HETATM   17  N2  UNL     1       3.682  62.404 -32.710  1.00  0.00    -0.310 N 
HETATM   18  N3  UNL     1       4.435  63.522 -32.729  1.00  0.00    -0.298 N 
ATOM     19  H2  UNL     1       2.923  62.170 -32.070  1.00  0.00     0.186 HD
HETATM   20  C15 UNL     1       4.152  64.560 -31.765  1.00  0.00     0.177 C 
ENDBRANCH   1  14
TORSDOF 6
ENDMDL
MODEL 9
REMARK minimizedAffinity -6.17194462
REMARK  6 active torsions:
REMARK  status: ('A' for Active; 'I' for Inactive)
REMARK    1  A    between atoms: N1_2  and  C3_4 
REMARK    2  A    between atoms: C3_4  and  C4_5 
REMARK    3  A    between atoms: C4_5  and  O1_6 
REMARK    4  A    between atoms: O1_6  and  C5_7 
REMARK    5  A    between atoms: C5_7  and  C6_8 
REMARK    6  A    between atoms: C5_7  and  C12_14 
ROOT
HETATM    1  C5  UNL     1      -0.771  51.490 -23.351  1.00  0.00     0.206 C 
ENDROOT
BRANCH   1   2
HETATM    2  O1  UNL     1      -0.427  52.088 -24.607  1.00  0.00    -0.373 OA
BRANCH   2   3
HETATM    3  C4  UNL     1      -0.141  51.144 -25.641  1.00  0.00     0.199 C 
BRANCH   3   4
HETATM    4  C3  UNL     1      -0.896  51.483 -26.941  1.00  0.00     0.297 C 
BRANCH   4   5
HETATM    5  N1  UNL     1      -0.155  52.199 -27.992  1.00  0.00     0.082 N 
HETATM    6  C1  UNL     1       1.260  51.842 -28.018  1.00  0.00     0.309 C 
HETATM    7  C2  UNL     1      -0.329  53.647 -27.922  1.00  0.00     0.309 C 
ENDBRANCH   4   5
ENDBRANCH   3   4
ENDBRANCH   2   3
ENDBRANCH   1   2
BRANCH   1   8
HETATM    8  C6  UNL     1      -0.130  52.324 -22.257  1.00  0.00    -0.024 A 
HETATM    9  C7  UNL     1       0.836  53.293 -22.578  1.00  0.00     0.010 A 
HETATM   10  C8  UNL     1       1.433  54.062 -21.577  1.00  0.00     0.001 A 
HETATM   11  C9  UNL     1       1.069  53.879 -20.244  1.00  0.00     0.000 A 
HETATM   12  C10 UNL     1       0.104  52.932 -19.911  1.00  0.00     0.001 A 
HETATM   13  C11 UNL     1      -0.494  52.162 -20.910  1.00  0.00     0.010 A 
ENDBRANCH   1   8
BRANCH   1  14
HETATM   14  C12 UNL     1      -2.268  51.448 -23.277  1.00  0.00     0.062 A 
HETATM   15  C13 UNL     1      -3.218  52.442 -23.432  1.00  0.00     0.048 A 
HETATM   16  C14 UNL     1      -4.455  51.804 -23.265  1.00  0.00     0.109 A 
HETATM   17  N2  UNL     1      -4.322  50.501 -23.026  1.00  0.00    -0.310 N 
HETATM   18  N3  UNL     1      -2.988  50.304 -23.024  1.00  0.00    -0.298 N 
ATOM     19  H2  UNL     1      -5.058  49.810 -22.879  1.00  0.00     0.186 HD
HETATM   20  C15 UNL     1      -2.487  48.976 -22.754  1.00  0.00     0.177 C 
ENDBRANCH   1  14
TORSDOF 6
ENDMDL
