MODEL 1
REMARK minimizedAffinity -9.5927124
REMARK CNNscore 0.45224452
REMARK CNNaffinity 7.02185011
REMARK  9 active torsions:
REMARK  status: ('A' for Active; 'I' for Inactive)
REMARK    1  A    between atoms: C2_2  and  C4_4 
REMARK    2  A    between atoms: C4_4  and  O1_5 
REMARK    3  A    between atoms: C4_4  and  C5_7 
REMARK    4  A    between atoms: O1_5  and  O2_6 
REMARK    5  A    between atoms: C5_7  and  O3_8 
REMARK    6  A    between atoms: C5_7  and  C6_9 
REMARK    7  A    between atoms: C6_9  and  C7_10 
REMARK    8  A    between atoms: C7_10  and  C9_12 
REMARK    9  A    between atoms: C20_23  and  O4_24 
ROOT
HETATM    1  C9  UNL     1       0.716   6.826  13.168  1.00  0.00    -0.002 C 
HETATM    2  C10 UNL     1       0.847   7.660  14.470  1.00  0.00     0.006 C 
HETATM    3  C11 UNL     1      -0.528   7.665  15.161  1.00  0.00     0.011 C 
HETATM    4  C12 UNL     1      -1.353   6.596  14.422  1.00  0.00    -0.032 C 
HETATM    5  C13 UNL     1      -0.998   5.225  15.079  1.00  0.00     0.016 C 
HETATM    6  C14 UNL     1      -2.886   6.830  14.459  1.00  0.00     0.004 C 
HETATM    7  C15 UNL     1      -3.526   6.593  15.835  1.00  0.00     0.006 C 
HETATM    8  C16 UNL     1      -5.017   6.914  15.791  1.00  0.00     0.006 C 
HETATM    9  C17 UNL     1      -5.755   5.884  14.929  1.00  0.00     0.001 C 
HETATM   10  C18 UNL     1      -7.256   6.219  14.715  1.00  0.00     0.015 C 
HETATM   11  C19 UNL     1      -8.016   6.300  16.048  1.00  0.00     0.013 C 
HETATM   12  C20 UNL     1      -7.941   5.187  13.781  1.00  0.00     0.122 C 
HETATM   13  C21 UNL     1      -7.046   4.000  13.423  1.00  0.00     0.033 C 
HETATM   14  C22 UNL     1      -5.696   4.436  12.840  1.00  0.00     0.013 C 
HETATM   15  C23 UNL     1      -5.104   5.643  13.565  1.00  0.00    -0.027 A 
HETATM   16  C24 UNL     1      -4.761   6.821  12.685  1.00  0.00     0.021 A 
HETATM   17  C25 UNL     1      -3.625   6.055  13.340  1.00  0.00    -0.027 A 
HETATM   18  C26 UNL     1      -2.783   5.147  12.445  1.00  0.00     0.011 C 
HETATM   19  C27 UNL     1      -1.357   5.608  12.102  1.00  0.00     0.011 C 
HETATM   20  C28 UNL     1      -0.834   6.777  12.946  1.00  0.00    -0.032 C 
HETATM   21  C29 UNL     1      -1.296   8.101  12.269  1.00  0.00     0.016 C 
ENDROOT
BRANCH   1  22
HETATM   22  C7  UNL     1       1.652   7.330  12.028  1.00  0.00    -0.011 C 
HETATM   23  C8  UNL     1       0.943   8.306  11.093  1.00  0.00     0.010 C 
BRANCH  22  24
HETATM   24  C6  UNL     1       2.369   6.192  11.234  1.00  0.00     0.039 C 
BRANCH  24  25
HETATM   25  C5  UNL     1       3.163   6.513   9.950  1.00  0.00     0.154 C 
BRANCH  25  26
HETATM   26  C4  UNL     1       2.521   6.071   8.602  1.00  0.00     0.216 C 
BRANCH  26  27
HETATM   27  C2  UNL     1       2.374   7.191   7.578  1.00  0.00    -0.059 C 
HETATM   28  C1  UNL     1       1.731   7.031   6.406  1.00  0.00     0.016 C 
HETATM   29  C3  UNL     1       2.942   8.531   7.958  1.00  0.00     0.045 C 
ENDBRANCH  26  27
BRANCH  26  30
HETATM   30  O1  UNL     1       3.390   5.070   8.002  1.00  0.00    -0.231 OA
BRANCH  30  31
HETATM   31  O2  UNL     1       3.297   3.870   8.821  1.00  0.00    -0.250 OA
HETATM   32  H7  UNL     1       2.866   3.313   8.145  1.00  0.00     0.253 HD
ENDBRANCH  30  31
ENDBRANCH  26  30
ENDBRANCH  25  26
BRANCH  25  33
HETATM   33  O3  UNL     1       4.494   6.001  10.069  1.00  0.00    -0.393 OA
HETATM   34  H9  UNL     1       4.861   5.999   9.159  1.00  0.00     0.210 HD
ENDBRANCH  25  33
ENDBRANCH  24  25
ENDBRANCH  22  24
ENDBRANCH   1  22
BRANCH  12  35
HETATM   35  O4  UNL     1      -8.338   5.857  12.579  1.00  0.00    -0.395 OA
HETATM   36  H35 UNL     1      -8.822   5.214  12.033  1.00  0.00     0.210 HD
ENDBRANCH  12  35
TORSDOF 9
ENDMDL
MODEL 2
REMARK minimizedAffinity -8.81392765
REMARK CNNscore 0.439212084
REMARK CNNaffinity 7.00417471
REMARK  9 active torsions:
REMARK  status: ('A' for Active; 'I' for Inactive)
REMARK    1  A    between atoms: C2_2  and  C4_4 
REMARK    2  A    between atoms: C4_4  and  O1_5 
REMARK    3  A    between atoms: C4_4  and  C5_7 
REMARK    4  A    between atoms: O1_5  and  O2_6 
REMARK    5  A    between atoms: C5_7  and  O3_8 
REMARK    6  A    between atoms: C5_7  and  C6_9 
REMARK    7  A    between atoms: C6_9  and  C7_10 
REMARK    8  A    between atoms: C7_10  and  C9_12 
REMARK    9  A    between atoms: C20_23  and  O4_24 
ROOT
HETATM    1  C9  UNL     1       0.228   7.750  12.997  1.00  0.00    -0.002 C 
HETATM    2  C10 UNL     1      -0.185   8.758  11.892  1.00  0.00     0.006 C 
HETATM    3  C11 UNL     1      -1.721   8.846  11.892  1.00  0.00     0.011 C 
HETATM    4  C12 UNL     1      -2.165   8.131  13.181  1.00  0.00    -0.032 C 
HETATM    5  C13 UNL     1      -2.078   9.187  14.327  1.00  0.00     0.016 C 
HETATM    6  C14 UNL     1      -3.590   7.521  13.116  1.00  0.00     0.004 C 
HETATM    7  C15 UNL     1      -4.721   8.560  13.120  1.00  0.00     0.006 C 
HETATM    8  C16 UNL     1      -6.076   7.872  12.985  1.00  0.00     0.006 C 
HETATM    9  C17 UNL     1      -6.393   7.072  14.253  1.00  0.00     0.001 C 
HETATM   10  C18 UNL     1      -7.689   6.225  14.142  1.00  0.00     0.015 C 
HETATM   11  C19 UNL     1      -8.919   7.102  13.860  1.00  0.00     0.013 C 
HETATM   12  C20 UNL     1      -7.928   5.381  15.422  1.00  0.00     0.122 C 
HETATM   13  C21 UNL     1      -6.945   5.694  16.551  1.00  0.00     0.033 C 
HETATM   14  C22 UNL     1      -5.482   5.584  16.103  1.00  0.00     0.013 C 
HETATM   15  C23 UNL     1      -5.247   6.164  14.709  1.00  0.00    -0.027 A 
HETATM   16  C24 UNL     1      -4.602   5.224  13.719  1.00  0.00     0.021 A 
HETATM   17  C25 UNL     1      -3.809   6.430  14.193  1.00  0.00    -0.027 A 
HETATM   18  C26 UNL     1      -2.665   6.174  15.174  1.00  0.00     0.011 C 
HETATM   19  C27 UNL     1      -1.228   6.303  14.641  1.00  0.00     0.011 C 
HETATM   20  C28 UNL     1      -1.105   6.971  13.267  1.00  0.00    -0.032 C 
HETATM   21  C29 UNL     1      -1.281   5.868  12.180  1.00  0.00     0.016 C 
ENDROOT
BRANCH   1  22
HETATM   22  C7  UNL     1       1.532   6.970  12.650  1.00  0.00    -0.011 C 
HETATM   23  C8  UNL     1       2.717   7.430  13.496  1.00  0.00     0.010 C 
BRANCH  22  24
HETATM   24  C6  UNL     1       1.885   6.952  11.129  1.00  0.00     0.039 C 
BRANCH  24  25
HETATM   25  C5  UNL     1       2.506   5.696  10.483  1.00  0.00     0.154 C 
BRANCH  25  26
HETATM   26  C4  UNL     1       2.655   5.707   8.933  1.00  0.00     0.216 C 
BRANCH  26  27
HETATM   27  C2  UNL     1       2.699   7.101   8.316  1.00  0.00    -0.059 C 
HETATM   28  C1  UNL     1       1.901   7.476   7.299  1.00  0.00     0.016 C 
HETATM   29  C3  UNL     1       3.656   8.083   8.935  1.00  0.00     0.045 C 
ENDBRANCH  26  27
BRANCH  26  30
HETATM   30  O1  UNL     1       3.917   5.065   8.602  1.00  0.00    -0.231 OA
BRANCH  30  31
HETATM   31  O2  UNL     1       3.617   3.950   7.715  1.00  0.00    -0.250 OA
HETATM   32  H7  UNL     1       4.063   4.316   6.929  1.00  0.00     0.253 HD
ENDBRANCH  30  31
ENDBRANCH  26  30
ENDBRANCH  25  26
BRANCH  25  33
HETATM   33  O3  UNL     1       1.793   4.533  10.915  1.00  0.00    -0.393 OA
HETATM   34  H9  UNL     1       2.050   3.817  10.294  1.00  0.00     0.210 HD
ENDBRANCH  25  33
ENDBRANCH  24  25
ENDBRANCH  22  24
ENDBRANCH   1  22
BRANCH  12  35
HETATM   35  O4  UNL     1      -7.824   3.995  15.077  1.00  0.00    -0.395 OA
HETATM   36  H35 UNL     1      -8.039   3.480  15.873  1.00  0.00     0.210 HD
ENDBRANCH  12  35
TORSDOF 9
ENDMDL
MODEL 3
REMARK minimizedAffinity -7.58933306
REMARK CNNscore 0.418822765
REMARK CNNaffinity 6.97056389
REMARK  9 active torsions:
REMARK  status: ('A' for Active; 'I' for Inactive)
REMARK    1  A    between atoms: C2_2  and  C4_4 
REMARK    2  A    between atoms: C4_4  and  O1_5 
REMARK    3  A    between atoms: C4_4  and  C5_7 
REMARK    4  A    between atoms: O1_5  and  O2_6 
REMARK    5  A    between atoms: C5_7  and  O3_8 
REMARK    6  A    between atoms: C5_7  and  C6_9 
REMARK    7  A    between atoms: C6_9  and  C7_10 
REMARK    8  A    between atoms: C7_10  and  C9_12 
REMARK    9  A    between atoms: C20_23  and  O4_24 
ROOT
HETATM    1  C9  UNL     1       0.495   7.241  13.324  1.00  0.00    -0.002 C 
HETATM    2  C10 UNL     1       0.561   7.982  14.686  1.00  0.00     0.006 C 
HETATM    3  C11 UNL     1      -0.822   7.862  15.350  1.00  0.00     0.011 C 
HETATM    4  C12 UNL     1      -1.576   6.808  14.521  1.00  0.00    -0.032 C 
HETATM    5  C13 UNL     1      -1.155   5.413  15.083  1.00  0.00     0.016 C 
HETATM    6  C14 UNL     1      -3.120   6.957  14.547  1.00  0.00     0.004 C 
HETATM    7  C15 UNL     1      -3.765   6.584  15.891  1.00  0.00     0.006 C 
HETATM    8  C16 UNL     1      -5.271   6.827  15.844  1.00  0.00     0.006 C 
HETATM    9  C17 UNL     1      -5.940   5.825  14.896  1.00  0.00     0.001 C 
HETATM   10  C18 UNL     1      -7.453   6.095  14.680  1.00  0.00     0.015 C 
HETATM   11  C19 UNL     1      -8.235   6.036  16.001  1.00  0.00     0.013 C 
HETATM   12  C20 UNL     1      -8.068   5.099  13.661  1.00  0.00     0.122 C 
HETATM   13  C21 UNL     1      -7.104   3.991  13.233  1.00  0.00     0.033 C 
HETATM   14  C22 UNL     1      -5.772   4.541  12.708  1.00  0.00     0.013 C 
HETATM   15  C23 UNL     1      -5.257   5.721  13.530  1.00  0.00    -0.027 A 
HETATM   16  C24 UNL     1      -4.967   6.978  12.744  1.00  0.00     0.021 A 
HETATM   17  C25 UNL     1      -3.800   6.227  13.362  1.00  0.00    -0.027 A 
HETATM   18  C26 UNL     1      -2.897   5.434  12.418  1.00  0.00     0.011 C 
HETATM   19  C27 UNL     1      -1.494   5.995  12.136  1.00  0.00     0.011 C 
HETATM   20  C28 UNL     1      -1.048   7.125  13.072  1.00  0.00    -0.032 C 
HETATM   21  C29 UNL     1      -1.572   8.469  12.485  1.00  0.00     0.016 C 
ENDROOT
BRANCH   1  22
HETATM   22  C7  UNL     1       1.418   7.877  12.241  1.00  0.00    -0.011 C 
HETATM   23  C8  UNL     1       0.772   7.865  10.858  1.00  0.00     0.010 C 
BRANCH  22  24
HETATM   24  C6  UNL     1       2.864   7.290  12.204  1.00  0.00     0.039 C 
BRANCH  24  25
HETATM   25  C5  UNL     1       4.039   8.059  12.845  1.00  0.00     0.154 C 
BRANCH  25  26
HETATM   26  C4  UNL     1       5.351   8.154  12.011  1.00  0.00     0.216 C 
BRANCH  26  27
HETATM   27  C2  UNL     1       5.615   6.948  11.115  1.00  0.00    -0.059 C 
HETATM   28  C1  UNL     1       6.708   6.172  11.237  1.00  0.00     0.016 C 
HETATM   29  C3  UNL     1       4.557   6.619  10.097  1.00  0.00     0.045 C 
ENDBRANCH  26  27
BRANCH  26  30
HETATM   30  O1  UNL     1       5.237   9.308  11.134  1.00  0.00    -0.231 OA
BRANCH  30  31
HETATM   31  O2  UNL     1       4.953  10.463  11.972  1.00  0.00    -0.250 OA
HETATM   32  H7  UNL     1       5.795  10.927  11.804  1.00  0.00     0.253 HD
ENDBRANCH  30  31
ENDBRANCH  26  30
ENDBRANCH  25  26
BRANCH  25  33
HETATM   33  O3  UNL     1       4.304   7.530  14.148  1.00  0.00    -0.393 OA
HETATM   34  H9  UNL     1       5.194   7.863  14.395  1.00  0.00     0.210 HD
ENDBRANCH  25  33
ENDBRANCH  24  25
ENDBRANCH  22  24
ENDBRANCH   1  22
BRANCH  12  35
HETATM   35  O4  UNL     1      -8.484   5.833  12.504  1.00  0.00    -0.395 OA
HETATM   36  H35 UNL     1      -8.924   5.207  11.904  1.00  0.00     0.210 HD
ENDBRANCH  12  35
TORSDOF 9
ENDMDL
MODEL 4
REMARK minimizedAffinity -7.47257376
REMARK CNNscore 0.343655378
REMARK CNNaffinity 6.7486558
REMARK  9 active torsions:
REMARK  status: ('A' for Active; 'I' for Inactive)
REMARK    1  A    between atoms: C2_2  and  C4_4 
REMARK    2  A    between atoms: C4_4  and  O1_5 
REMARK    3  A    between atoms: C4_4  and  C5_7 
REMARK    4  A    between atoms: O1_5  and  O2_6 
REMARK    5  A    between atoms: C5_7  and  O3_8 
REMARK    6  A    between atoms: C5_7  and  C6_9 
REMARK    7  A    between atoms: C6_9  and  C7_10 
REMARK    8  A    between atoms: C7_10  and  C9_12 
REMARK    9  A    between atoms: C20_23  and  O4_24 
ROOT
HETATM    1  C9  UNL     1      -4.760   6.091  14.230  1.00  0.00    -0.002 C 
HETATM    2  C10 UNL     1      -5.313   4.788  13.592  1.00  0.00     0.006 C 
HETATM    3  C11 UNL     1      -6.843   4.926  13.505  1.00  0.00     0.011 C 
HETATM    4  C12 UNL     1      -7.132   6.407  13.806  1.00  0.00    -0.032 C 
HETATM    5  C13 UNL     1      -6.960   7.177  12.459  1.00  0.00     0.016 C 
HETATM    6  C14 UNL     1      -8.538   6.677  14.405  1.00  0.00     0.004 C 
HETATM    7  C15 UNL     1      -9.692   6.495  13.409  1.00  0.00     0.006 C 
HETATM    8  C16 UNL     1     -11.034   6.713  14.102  1.00  0.00     0.006 C 
HETATM    9  C17 UNL     1     -11.196   8.186  14.492  1.00  0.00     0.001 C 
HETATM   10  C18 UNL     1     -12.472   8.467  15.331  1.00  0.00     0.015 C 
HETATM   11  C19 UNL     1     -13.748   8.072  14.573  1.00  0.00     0.013 C 
HETATM   12  C20 UNL     1     -12.554   9.956  15.759  1.00  0.00     0.122 C 
HETATM   13  C21 UNL     1     -11.470  10.833  15.129  1.00  0.00     0.033 C 
HETATM   14  C22 UNL     1     -10.058  10.284  15.369  1.00  0.00     0.013 C 
HETATM   15  C23 UNL     1      -9.984   8.764  15.227  1.00  0.00    -0.027 A 
HETATM   16  C24 UNL     1      -9.416   8.031  16.419  1.00  0.00     0.021 A 
HETATM   17  C25 UNL     1      -8.614   8.044  15.129  1.00  0.00    -0.027 A 
HETATM   18  C26 UNL     1      -7.369   8.929  15.086  1.00  0.00     0.011 C 
HETATM   19  C27 UNL     1      -5.998   8.232  15.124  1.00  0.00     0.011 C 
HETATM   20  C28 UNL     1      -6.035   6.717  14.892  1.00  0.00    -0.032 C 
HETATM   21  C29 UNL     1      -6.289   6.028  16.265  1.00  0.00     0.016 C 
ENDROOT
BRANCH   1  22
HETATM   22  C7  UNL     1      -3.476   5.852  15.081  1.00  0.00    -0.011 C 
HETATM   23  C8  UNL     1      -2.987   7.133  15.752  1.00  0.00     0.010 C 
BRANCH  22  24
HETATM   24  C6  UNL     1      -2.323   5.130  14.314  1.00  0.00     0.039 C 
BRANCH  24  25
HETATM   25  C5  UNL     1      -2.268   5.160  12.772  1.00  0.00     0.154 C 
BRANCH  25  26
HETATM   26  C4  UNL     1      -1.889   3.828  12.060  1.00  0.00     0.216 C 
BRANCH  26  27
HETATM   27  C2  UNL     1      -3.035   3.176  11.294  1.00  0.00    -0.059 C 
HETATM   28  C1  UNL     1      -3.549   3.696  10.164  1.00  0.00     0.016 C 
HETATM   29  C3  UNL     1      -3.549   1.869  11.834  1.00  0.00     0.045 C 
ENDBRANCH  26  27
BRANCH  26  30
HETATM   30  O1  UNL     1      -0.852   4.125  11.084  1.00  0.00    -0.231 OA
BRANCH  30  31
HETATM   31  O2  UNL     1       0.006   2.952  10.993  1.00  0.00    -0.250 OA
HETATM   32  H7  UNL     1      -0.226   2.721  10.073  1.00  0.00     0.253 HD
ENDBRANCH  30  31
ENDBRANCH  26  30
ENDBRANCH  25  26
BRANCH  25  33
HETATM   33  O3  UNL     1      -1.414   6.225  12.343  1.00  0.00    -0.393 OA
HETATM   34  H9  UNL     1      -1.212   6.042  11.401  1.00  0.00     0.210 HD
ENDBRANCH  25  33
ENDBRANCH  24  25
ENDBRANCH  22  24
ENDBRANCH   1  22
BRANCH  12  35
HETATM   35  O4  UNL     1     -12.446  10.025  17.185  1.00  0.00    -0.395 OA
HETATM   36  H35 UNL     1     -12.563  10.955  17.442  1.00  0.00     0.210 HD
ENDBRANCH  12  35
TORSDOF 9
ENDMDL
MODEL 5
REMARK minimizedAffinity -8.3772707
REMARK CNNscore 0.309267998
REMARK CNNaffinity 6.71622324
REMARK  9 active torsions:
REMARK  status: ('A' for Active; 'I' for Inactive)
REMARK    1  A    between atoms: C2_2  and  C4_4 
REMARK    2  A    between atoms: C4_4  and  O1_5 
REMARK    3  A    between atoms: C4_4  and  C5_7 
REMARK    4  A    between atoms: O1_5  and  O2_6 
REMARK    5  A    between atoms: C5_7  and  O3_8 
REMARK    6  A    between atoms: C5_7  and  C6_9 
REMARK    7  A    between atoms: C6_9  and  C7_10 
REMARK    8  A    between atoms: C7_10  and  C9_12 
REMARK    9  A    between atoms: C20_23  and  O4_24 
ROOT
HETATM    1  C9  UNL     1       0.335   8.269  13.432  1.00  0.00    -0.002 C 
HETATM    2  C10 UNL     1       0.301   9.588  14.249  1.00  0.00     0.006 C 
HETATM    3  C11 UNL     1      -1.121   9.750  14.814  1.00  0.00     0.011 C 
HETATM    4  C12 UNL     1      -1.804   8.391  14.578  1.00  0.00    -0.032 C 
HETATM    5  C13 UNL     1      -1.403   7.476  15.778  1.00  0.00     0.016 C 
HETATM    6  C14 UNL     1      -3.349   8.465  14.449  1.00  0.00     0.004 C 
HETATM    7  C15 UNL     1      -4.076   8.776  15.766  1.00  0.00     0.006 C 
HETATM    8  C16 UNL     1      -5.579   8.896  15.528  1.00  0.00     0.006 C 
HETATM    9  C17 UNL     1      -6.169   7.529  15.168  1.00  0.00     0.001 C 
HETATM   10  C18 UNL     1      -7.669   7.589  14.770  1.00  0.00     0.015 C 
HETATM   11  C19 UNL     1      -8.536   8.156  15.905  1.00  0.00     0.013 C 
HETATM   12  C20 UNL     1      -8.201   6.194  14.348  1.00  0.00     0.122 C 
HETATM   13  C21 UNL     1      -7.196   5.063  14.576  1.00  0.00     0.033 C 
HETATM   14  C22 UNL     1      -5.840   5.341  13.915  1.00  0.00     0.013 C 
HETATM   15  C23 UNL     1      -5.396   6.795  14.070  1.00  0.00    -0.027 A 
HETATM   16  C24 UNL     1      -5.072   7.512  12.781  1.00  0.00     0.021 A 
HETATM   17  C25 UNL     1      -3.938   7.216  13.748  1.00  0.00    -0.027 A 
HETATM   18  C26 UNL     1      -2.964   6.102  13.368  1.00  0.00     0.011 C 
HETATM   19  C27 UNL     1      -1.553   6.512  12.917  1.00  0.00     0.011 C 
HETATM   20  C28 UNL     1      -1.185   7.975  13.192  1.00  0.00    -0.032 C 
HETATM   21  C29 UNL     1      -1.688   8.830  11.990  1.00  0.00     0.016 C 
ENDROOT
BRANCH   1  22
HETATM   22  C7  UNL     1       1.319   8.329  12.224  1.00  0.00    -0.011 C 
HETATM   23  C8  UNL     1       2.476   9.293  12.475  1.00  0.00     0.010 C 
BRANCH  22  24
HETATM   24  C6  UNL     1       0.633   8.601  10.848  1.00  0.00     0.039 C 
BRANCH  24  25
HETATM   25  C5  UNL     1       0.523   7.481   9.792  1.00  0.00     0.154 C 
BRANCH  25  26
HETATM   26  C4  UNL     1       1.849   6.773   9.383  1.00  0.00     0.216 C 
BRANCH  26  27
HETATM   27  C2  UNL     1       2.963   7.723   8.956  1.00  0.00    -0.059 C 
HETATM   28  C1  UNL     1       2.868   8.524   7.878  1.00  0.00     0.016 C 
HETATM   29  C3  UNL     1       4.182   7.772   9.837  1.00  0.00     0.045 C 
ENDBRANCH  26  27
BRANCH  26  30
HETATM   30  O1  UNL     1       2.342   6.047  10.542  1.00  0.00    -0.231 OA
BRANCH  30  31
HETATM   31  O2  UNL     1       1.581   4.809  10.634  1.00  0.00    -0.250 OA
HETATM   32  H7  UNL     1       2.328   4.210  10.448  1.00  0.00     0.253 HD
ENDBRANCH  30  31
ENDBRANCH  26  30
ENDBRANCH  25  26
BRANCH  25  33
HETATM   33  O3  UNL     1      -0.165   7.975   8.639  1.00  0.00    -0.393 OA
HETATM   34  H9  UNL     1       0.019   7.330   7.922  1.00  0.00     0.210 HD
ENDBRANCH  25  33
ENDBRANCH  24  25
ENDBRANCH  22  24
ENDBRANCH   1  22
BRANCH  12  35
HETATM   35  O4  UNL     1      -8.550   6.242  12.960  1.00  0.00    -0.395 OA
HETATM   36  H35 UNL     1      -8.940   5.383  12.727  1.00  0.00     0.210 HD
ENDBRANCH  12  35
TORSDOF 9
ENDMDL
MODEL 6
REMARK minimizedAffinity -7.11209059
REMARK CNNscore 0.305586725
REMARK CNNaffinity 6.46923685
REMARK  9 active torsions:
REMARK  status: ('A' for Active; 'I' for Inactive)
REMARK    1  A    between atoms: C2_2  and  C4_4 
REMARK    2  A    between atoms: C4_4  and  O1_5 
REMARK    3  A    between atoms: C4_4  and  C5_7 
REMARK    4  A    between atoms: O1_5  and  O2_6 
REMARK    5  A    between atoms: C5_7  and  O3_8 
REMARK    6  A    between atoms: C5_7  and  C6_9 
REMARK    7  A    between atoms: C6_9  and  C7_10 
REMARK    8  A    between atoms: C7_10  and  C9_12 
REMARK    9  A    between atoms: C20_23  and  O4_24 
ROOT
HETATM    1  C9  UNL     1       2.152   7.061  10.337  1.00  0.00    -0.002 C 
HETATM    2  C10 UNL     1       2.509   5.629  10.819  1.00  0.00     0.006 C 
HETATM    3  C11 UNL     1       1.390   5.165  11.768  1.00  0.00     0.011 C 
HETATM    4  C12 UNL     1       0.258   6.193  11.590  1.00  0.00    -0.032 C 
HETATM    5  C13 UNL     1      -0.568   5.735  10.347  1.00  0.00     0.016 C 
HETATM    6  C14 UNL     1      -0.667   6.348  12.825  1.00  0.00     0.004 C 
HETATM    7  C15 UNL     1      -1.590   5.147  13.075  1.00  0.00     0.006 C 
HETATM    8  C16 UNL     1      -2.410   5.360  14.345  1.00  0.00     0.006 C 
HETATM    9  C17 UNL     1      -3.426   6.488  14.137  1.00  0.00     0.001 C 
HETATM   10  C18 UNL     1      -4.202   6.865  15.427  1.00  0.00     0.015 C 
HETATM   11  C19 UNL     1      -4.985   5.669  15.990  1.00  0.00     0.013 C 
HETATM   12  C20 UNL     1      -5.167   8.056  15.181  1.00  0.00     0.122 C 
HETATM   13  C21 UNL     1      -5.259   8.474  13.713  1.00  0.00     0.033 C 
HETATM   14  C22 UNL     1      -3.884   8.762  13.097  1.00  0.00     0.013 C 
HETATM   15  C23 UNL     1      -2.819   7.758  13.536  1.00  0.00    -0.027 A 
HETATM   16  C24 UNL     1      -1.582   8.360  14.158  1.00  0.00     0.021 A 
HETATM   17  C25 UNL     1      -1.453   7.682  12.805  1.00  0.00    -0.027 A 
HETATM   18  C26 UNL     1      -1.271   8.584  11.584  1.00  0.00     0.011 C 
HETATM   19  C27 UNL     1       0.119   8.621  10.928  1.00  0.00     0.011 C 
HETATM   20  C28 UNL     1       1.081   7.519  11.386  1.00  0.00    -0.032 C 
HETATM   21  C29 UNL     1       1.807   8.020  12.670  1.00  0.00     0.016 C 
ENDROOT
BRANCH   1  22
HETATM   22  C7  UNL     1       3.409   7.942  10.067  1.00  0.00    -0.011 C 
HETATM   23  C8  UNL     1       3.437   8.479   8.639  1.00  0.00     0.010 C 
BRANCH  22  24
HETATM   24  C6  UNL     1       4.763   7.264  10.452  1.00  0.00     0.039 C 
BRANCH  24  25
HETATM   25  C5  UNL     1       5.984   8.121  10.848  1.00  0.00     0.154 C 
BRANCH  25  26
HETATM   26  C4  UNL     1       6.454   8.026  12.330  1.00  0.00     0.216 C 
BRANCH  26  27
HETATM   27  C2  UNL     1       6.280   9.314  13.128  1.00  0.00    -0.059 C 
HETATM   28  C1  UNL     1       7.302  10.145  13.406  1.00  0.00     0.016 C 
HETATM   29  C3  UNL     1       4.881   9.656  13.560  1.00  0.00     0.045 C 
ENDBRANCH  26  27
BRANCH  26  30
HETATM   30  O1  UNL     1       5.644   7.015  12.989  1.00  0.00    -0.231 OA
BRANCH  30  31
HETATM   31  O2  UNL     1       6.393   6.548  14.147  1.00  0.00    -0.250 OA
HETATM   32  H7  UNL     1       5.779   6.897  14.820  1.00  0.00     0.253 HD
ENDBRANCH  30  31
ENDBRANCH  26  30
ENDBRANCH  25  26
BRANCH  25  33
HETATM   33  O3  UNL     1       5.754   9.483  10.475  1.00  0.00    -0.393 OA
HETATM   34  H9  UNL     1       6.420  10.010  10.967  1.00  0.00     0.210 HD
ENDBRANCH  25  33
ENDBRANCH  24  25
ENDBRANCH  22  24
ENDBRANCH   1  22
BRANCH  12  35
HETATM   35  O4  UNL     1      -4.718   9.171  15.961  1.00  0.00    -0.395 OA
HETATM   36  H35 UNL     1      -5.366   9.886  15.847  1.00  0.00     0.210 HD
ENDBRANCH  12  35
TORSDOF 9
ENDMDL
MODEL 7
REMARK minimizedAffinity -7.65210104
REMARK CNNscore 0.288026959
REMARK CNNaffinity 6.52550507
REMARK  9 active torsions:
REMARK  status: ('A' for Active; 'I' for Inactive)
REMARK    1  A    between atoms: C2_2  and  C4_4 
REMARK    2  A    between atoms: C4_4  and  O1_5 
REMARK    3  A    between atoms: C4_4  and  C5_7 
REMARK    4  A    between atoms: O1_5  and  O2_6 
REMARK    5  A    between atoms: C5_7  and  O3_8 
REMARK    6  A    between atoms: C5_7  and  C6_9 
REMARK    7  A    between atoms: C6_9  and  C7_10 
REMARK    8  A    between atoms: C7_10  and  C9_12 
REMARK    9  A    between atoms: C20_23  and  O4_24 
ROOT
HETATM    1  C9  UNL     1      -1.650   9.700  15.287  1.00  0.00    -0.002 C 
HETATM    2  C10 UNL     1      -0.400   8.943  14.761  1.00  0.00     0.006 C 
HETATM    3  C11 UNL     1      -0.893   7.675  14.042  1.00  0.00     0.011 C 
HETATM    4  C12 UNL     1      -2.413   7.861  13.893  1.00  0.00    -0.032 C 
HETATM    5  C13 UNL     1      -2.634   8.711  12.602  1.00  0.00     0.016 C 
HETATM    6  C14 UNL     1      -3.216   6.536  13.810  1.00  0.00     0.004 C 
HETATM    7  C15 UNL     1      -3.026   5.766  12.495  1.00  0.00     0.006 C 
HETATM    8  C16 UNL     1      -3.796   4.449  12.532  1.00  0.00     0.006 C 
HETATM    9  C17 UNL     1      -5.305   4.717  12.515  1.00  0.00     0.001 C 
HETATM   10  C18 UNL     1      -6.162   3.435  12.696  1.00  0.00     0.015 C 
HETATM   11  C19 UNL     1      -5.887   2.406  11.588  1.00  0.00     0.013 C 
HETATM   12  C20 UNL     1      -7.677   3.766  12.742  1.00  0.00     0.122 C 
HETATM   13  C21 UNL     1      -7.991   5.232  12.435  1.00  0.00     0.033 C 
HETATM   14  C22 UNL     1      -7.204   6.200  13.327  1.00  0.00     0.013 C 
HETATM   15  C23 UNL     1      -5.756   5.761  13.540  1.00  0.00    -0.027 A 
HETATM   16  C24 UNL     1      -5.327   5.624  14.981  1.00  0.00     0.021 A 
HETATM   17  C25 UNL     1      -4.714   6.736  14.148  1.00  0.00    -0.027 A 
HETATM   18  C26 UNL     1      -5.184   8.163  14.428  1.00  0.00     0.011 C 
HETATM   19  C27 UNL     1      -4.208   9.105  15.153  1.00  0.00     0.011 C 
HETATM   20  C28 UNL     1      -2.763   8.598  15.239  1.00  0.00    -0.032 C 
HETATM   21  C29 UNL     1      -2.646   7.698  16.505  1.00  0.00     0.016 C 
ENDROOT
BRANCH   1  22
HETATM   22  C7  UNL     1      -1.375  10.477  16.610  1.00  0.00    -0.011 C 
HETATM   23  C8  UNL     1      -2.601  10.513  17.518  1.00  0.00     0.010 C 
BRANCH  22  24
HETATM   24  C6  UNL     1      -0.772  11.903  16.404  1.00  0.00     0.039 C 
BRANCH  24  25
HETATM   25  C5  UNL     1      -1.692  13.142  16.346  1.00  0.00     0.154 C 
BRANCH  25  26
HETATM   26  C4  UNL     1      -2.991  13.089  17.203  1.00  0.00     0.216 C 
BRANCH  26  27
HETATM   27  C2  UNL     1      -2.921  13.886  18.501  1.00  0.00    -0.059 C 
HETATM   28  C1  UNL     1      -4.009  14.182  19.237  1.00  0.00     0.016 C 
HETATM   29  C3  UNL     1      -1.551  14.294  18.969  1.00  0.00     0.045 C 
ENDBRANCH  26  27
BRANCH  26  30
HETATM   30  O1  UNL     1      -4.067  13.669  16.416  1.00  0.00    -0.231 OA
BRANCH  30  31
HETATM   31  O2  UNL     1      -4.647  12.597  15.619  1.00  0.00    -0.250 OA
HETATM   32  H7  UNL     1      -5.518  12.595  16.060  1.00  0.00     0.253 HD
ENDBRANCH  30  31
ENDBRANCH  26  30
ENDBRANCH  25  26
BRANCH  25  33
HETATM   33  O3  UNL     1      -1.996  13.449  14.982  1.00  0.00    -0.393 OA
HETATM   34  H9  UNL     1      -2.765  14.058  15.012  1.00  0.00     0.210 HD
ENDBRANCH  25  33
ENDBRANCH  24  25
ENDBRANCH  22  24
ENDBRANCH   1  22
BRANCH  12  35
HETATM   35  O4  UNL     1      -8.173   3.441  14.046  1.00  0.00    -0.395 OA
HETATM   36  H35 UNL     1      -9.133   3.593  14.038  1.00  0.00     0.210 HD
ENDBRANCH  12  35
TORSDOF 9
ENDMDL
MODEL 8
REMARK minimizedAffinity -7.8286314
REMARK CNNscore 0.286777377
REMARK CNNaffinity 6.31880188
REMARK  9 active torsions:
REMARK  status: ('A' for Active; 'I' for Inactive)
REMARK    1  A    between atoms: C2_2  and  C4_4 
REMARK    2  A    between atoms: C4_4  and  O1_5 
REMARK    3  A    between atoms: C4_4  and  C5_7 
REMARK    4  A    between atoms: O1_5  and  O2_6 
REMARK    5  A    between atoms: C5_7  and  O3_8 
REMARK    6  A    between atoms: C5_7  and  C6_9 
REMARK    7  A    between atoms: C6_9  and  C7_10 
REMARK    8  A    between atoms: C7_10  and  C9_12 
REMARK    9  A    between atoms: C20_23  and  O4_24 
ROOT
HETATM    1  C9  UNL     1      -1.552   6.165  12.017  1.00  0.00    -0.002 C 
HETATM    2  C10 UNL     1      -2.788   5.445  12.620  1.00  0.00     0.006 C 
HETATM    3  C11 UNL     1      -3.303   6.305  13.788  1.00  0.00     0.011 C 
HETATM    4  C12 UNL     1      -2.559   7.646  13.659  1.00  0.00    -0.032 C 
HETATM    5  C13 UNL     1      -3.366   8.506  12.635  1.00  0.00     0.016 C 
HETATM    6  C14 UNL     1      -2.390   8.417  14.995  1.00  0.00     0.004 C 
HETATM    7  C15 UNL     1      -3.693   9.016  15.545  1.00  0.00     0.006 C 
HETATM    8  C16 UNL     1      -3.442   9.692  16.890  1.00  0.00     0.006 C 
HETATM    9  C17 UNL     1      -2.585  10.948  16.700  1.00  0.00     0.001 C 
HETATM   10  C18 UNL     1      -2.162  11.616  18.036  1.00  0.00     0.015 C 
HETATM   11  C19 UNL     1      -3.382  12.040  18.869  1.00  0.00     0.013 C 
HETATM   12  C20 UNL     1      -1.240  12.839  17.793  1.00  0.00     0.122 C 
HETATM   13  C21 UNL     1      -1.092  13.208  16.316  1.00  0.00     0.033 C 
HETATM   14  C22 UNL     1      -0.644  12.020  15.456  1.00  0.00     0.013 C 
HETATM   15  C23 UNL     1      -1.334  10.715  15.847  1.00  0.00    -0.027 A 
HETATM   16  C24 UNL     1      -0.409   9.569  16.180  1.00  0.00     0.021 A 
HETATM   17  C25 UNL     1      -1.258   9.471  14.925  1.00  0.00    -0.027 A 
HETATM   18  C26 UNL     1      -0.549   9.648  13.583  1.00  0.00     0.011 C 
HETATM   19  C27 UNL     1      -0.346   8.396  12.713  1.00  0.00     0.011 C 
HETATM   20  C28 UNL     1      -1.148   7.165  13.153  1.00  0.00    -0.032 C 
HETATM   21  C29 UNL     1      -0.313   6.408  14.228  1.00  0.00     0.016 C 
ENDROOT
BRANCH   1  22
HETATM   22  C7  UNL     1      -0.497   5.174  11.436  1.00  0.00    -0.011 C 
HETATM   23  C8  UNL     1      -0.014   4.174  12.483  1.00  0.00     0.010 C 
BRANCH  22  24
HETATM   24  C6  UNL     1       0.699   5.865  10.708  1.00  0.00     0.039 C 
BRANCH  24  25
HETATM   25  C5  UNL     1       2.145   5.378  10.942  1.00  0.00     0.154 C 
BRANCH  25  26
HETATM   26  C4  UNL     1       3.286   6.278  10.380  1.00  0.00     0.216 C 
BRANCH  26  27
HETATM   27  C2  UNL     1       3.013   6.845   8.991  1.00  0.00    -0.059 C 
HETATM   28  C1  UNL     1       3.016   8.165   8.726  1.00  0.00     0.016 C 
HETATM   29  C3  UNL     1       2.787   5.847   7.888  1.00  0.00     0.045 C 
ENDBRANCH  26  27
BRANCH  26  30
HETATM   30  O1  UNL     1       3.434   7.417  11.273  1.00  0.00    -0.231 OA
BRANCH  30  31
HETATM   31  O2  UNL     1       4.086   6.937  12.483  1.00  0.00    -0.250 OA
HETATM   32  H7  UNL     1       4.915   7.439  12.363  1.00  0.00     0.253 HD
ENDBRANCH  30  31
ENDBRANCH  26  30
ENDBRANCH  25  26
BRANCH  25  33
HETATM   33  O3  UNL     1       2.282   4.034  10.470  1.00  0.00    -0.393 OA
HETATM   34  H9  UNL     1       3.247   3.872  10.403  1.00  0.00     0.210 HD
ENDBRANCH  25  33
ENDBRANCH  24  25
ENDBRANCH  22  24
ENDBRANCH   1  22
BRANCH  12  35
HETATM   35  O4  UNL     1       0.053  12.548  18.337  1.00  0.00    -0.395 OA
HETATM   36  H35 UNL     1       0.598  13.346  18.235  1.00  0.00     0.210 HD
ENDBRANCH  12  35
TORSDOF 9
ENDMDL
MODEL 9
REMARK minimizedAffinity -7.32297277
REMARK CNNscore 0.25317663
REMARK CNNaffinity 6.18087435
REMARK  9 active torsions:
REMARK  status: ('A' for Active; 'I' for Inactive)
REMARK    1  A    between atoms: C2_2  and  C4_4 
REMARK    2  A    between atoms: C4_4  and  O1_5 
REMARK    3  A    between atoms: C4_4  and  C5_7 
REMARK    4  A    between atoms: O1_5  and  O2_6 
REMARK    5  A    between atoms: C5_7  and  O3_8 
REMARK    6  A    between atoms: C5_7  and  C6_9 
REMARK    7  A    between atoms: C6_9  and  C7_10 
REMARK    8  A    between atoms: C7_10  and  C9_12 
REMARK    9  A    between atoms: C20_23  and  O4_24 
ROOT
HETATM    1  C9  UNL     1      -3.132   7.804  15.169  1.00  0.00    -0.002 C 
HETATM    2  C10 UNL     1      -3.563   6.320  15.033  1.00  0.00     0.006 C 
HETATM    3  C11 UNL     1      -2.535   5.617  14.130  1.00  0.00     0.011 C 
HETATM    4  C12 UNL     1      -1.366   6.610  14.001  1.00  0.00    -0.032 C 
HETATM    5  C13 UNL     1      -0.457   6.392  15.251  1.00  0.00     0.016 C 
HETATM    6  C14 UNL     1      -0.538   6.459  12.698  1.00  0.00     0.004 C 
HETATM    7  C15 UNL     1       0.331   5.193  12.648  1.00  0.00     0.006 C 
HETATM    8  C16 UNL     1       1.053   5.096  11.307  1.00  0.00     0.006 C 
HETATM    9  C17 UNL     1       2.112   6.197  11.195  1.00  0.00     0.001 C 
HETATM   10  C18 UNL     1       2.795   6.259   9.802  1.00  0.00     0.015 C 
HETATM   11  C19 UNL     1       3.499   4.938   9.455  1.00  0.00     0.013 C 
HETATM   12  C20 UNL     1       3.806   7.432   9.716  1.00  0.00     0.122 C 
HETATM   13  C21 UNL     1       4.025   8.148  11.049  1.00  0.00     0.033 C 
HETATM   14  C22 UNL     1       2.711   8.619  11.685  1.00  0.00     0.013 C 
HETATM   15  C23 UNL     1       1.589   7.592  11.550  1.00  0.00    -0.027 A 
HETATM   16  C24 UNL     1       0.323   8.100  10.902  1.00  0.00     0.021 A 
HETATM   17  C25 UNL     1       0.283   7.732  12.375  1.00  0.00    -0.027 A 
HETATM   18  C26 UNL     1       0.222   8.879  13.383  1.00  0.00     0.011 C 
HETATM   19  C27 UNL     1      -1.111   9.115  14.113  1.00  0.00     0.011 C 
HETATM   20  C28 UNL     1      -2.135   7.983  13.973  1.00  0.00    -0.032 C 
HETATM   21  C29 UNL     1      -2.946   8.230  12.665  1.00  0.00     0.016 C 
ENDROOT
BRANCH   1  22
HETATM   22  C7  UNL     1      -4.340   8.775  15.331  1.00  0.00    -0.011 C 
HETATM   23  C8  UNL     1      -5.402   8.553  14.257  1.00  0.00     0.010 C 
BRANCH  22  24
HETATM   24  C6  UNL     1      -3.944  10.282  15.443  1.00  0.00     0.039 C 
BRANCH  24  25
HETATM   25  C5  UNL     1      -3.866  10.972  16.821  1.00  0.00     0.154 C 
BRANCH  25  26
HETATM   26  C4  UNL     1      -2.887  12.177  16.946  1.00  0.00     0.216 C 
BRANCH  26  27
HETATM   27  C2  UNL     1      -2.626  12.630  18.378  1.00  0.00    -0.059 C 
HETATM   28  C1  UNL     1      -1.417  12.543  18.963  1.00  0.00     0.016 C 
HETATM   29  C3  UNL     1      -3.787  13.240  19.115  1.00  0.00     0.045 C 
ENDBRANCH  26  27
BRANCH  26  30
HETATM   30  O1  UNL     1      -1.605  11.767  16.398  1.00  0.00    -0.231 OA
BRANCH  30  31
HETATM   31  O2  UNL     1      -1.319  12.635  15.265  1.00  0.00    -0.250 OA
HETATM   32  H7  UNL     1      -0.548  13.081  15.663  1.00  0.00     0.253 HD
ENDBRANCH  30  31
ENDBRANCH  26  30
ENDBRANCH  25  26
BRANCH  25  33
HETATM   33  O3  UNL     1      -3.598   9.995  17.832  1.00  0.00    -0.393 OA
HETATM   34  H9  UNL     1      -3.307  10.500  18.621  1.00  0.00     0.210 HD
ENDBRANCH  25  33
ENDBRANCH  24  25
ENDBRANCH  22  24
ENDBRANCH   1  22
BRANCH  12  35
HETATM   35  O4  UNL     1       3.327   8.373   8.748  1.00  0.00    -0.395 OA
HETATM   36  H35 UNL     1       4.002   9.068   8.659  1.00  0.00     0.210 HD
ENDBRANCH  12  35
TORSDOF 9
ENDMDL
