MODEL 1
REMARK minimizedAffinity -7.29680395
REMARK CNNscore 0.787548542
REMARK CNNaffinity 6.99143744
REMARK  6 active torsions:
REMARK  status: ('A' for Active; 'I' for Inactive)
REMARK    1  A    between atoms: C2_2  and  C30_32 
REMARK    2  A    between atoms: C3_3  and  C4_4 
REMARK    3  A    between atoms: C4_4  and  C5_5 
REMARK    4  A    between atoms: C5_5  and  C6_6 
REMARK    5  A    between atoms: C6_6  and  C8_8 
REMARK    6  A    between atoms: C30_32  and  O4_34 
ROOT
HETATM    1  C8  UNL     1       4.569  56.561  -8.182  1.00  0.00    -0.002 C 
HETATM    2  C9  UNL     1       5.530  55.560  -8.882  1.00  0.00     0.007 C 
HETATM    3  C10 UNL     1       4.670  54.621  -9.750  1.00  0.00     0.015 C 
HETATM    4  C11 UNL     1       3.272  55.269  -9.785  1.00  0.00    -0.005 C 
HETATM    5  C12 UNL     1       3.292  56.346 -10.913  1.00  0.00     0.021 C 
HETATM    6  C13 UNL     1       2.041  54.419 -10.080  1.00  0.00    -0.000 C 
HETATM    7  C14 UNL     1       0.827  54.730  -9.559  1.00  0.00    -0.060 C 
HETATM    8  C15 UNL     1       0.671  55.937  -8.620  1.00  0.00     0.036 C 
HETATM    9  C16 UNL     1       1.943  56.716  -8.226  1.00  0.00     0.015 C 
HETATM   10  C17 UNL     1       3.193  55.838  -8.313  1.00  0.00    -0.028 C 
HETATM   11  C18 UNL     1       3.090  54.723  -7.223  1.00  0.00     0.016 C 
HETATM   12  C19 UNL     1      -0.458  53.898  -9.829  1.00  0.00    -0.014 C 
HETATM   13  C20 UNL     1      -0.702  53.016  -8.583  1.00  0.00     0.020 C 
HETATM   14  C21 UNL     1      -1.668  54.834 -10.067  1.00  0.00     0.021 C 
HETATM   15  C22 UNL     1      -2.954  54.159 -10.521  1.00  0.00     0.080 C 
HETATM   16  C23 UNL     1      -2.843  52.708 -10.921  1.00  0.00     0.135 C 
HETATM   17  O1  UNL     1      -3.845  51.994 -10.831  1.00  0.00    -0.297 OA
HETATM   18  C24 UNL     1      -1.536  52.185 -11.529  1.00  0.00     0.018 C 
HETATM   19  C25 UNL     1      -1.377  50.705 -11.108  1.00  0.00     0.023 C 
HETATM   20  C26 UNL     1      -1.731  52.218 -13.059  1.00  0.00     0.023 C 
HETATM   21  C27 UNL     1      -0.301  53.070 -11.142  1.00  0.00     0.020 C 
HETATM   22  C28 UNL     1       1.024  52.305 -11.149  1.00  0.00     0.090 C 
HETATM   23  C29 UNL     1       2.189  53.249 -10.999  1.00  0.00     0.157 C 
HETATM   24  O2  UNL     1       3.241  53.034 -11.600  1.00  0.00    -0.293 OA
ENDROOT
BRANCH   1  25
HETATM   25  C6  UNL     1       5.083  56.993  -6.781  1.00  0.00    -0.014 C 
HETATM   26  C7  UNL     1       6.446  56.387  -6.429  1.00  0.00     0.010 C 
BRANCH  25  27
HETATM   27  C5  UNL     1       4.058  56.739  -5.639  1.00  0.00     0.008 C 
BRANCH  27  28
HETATM   28  C4  UNL     1       3.268  57.930  -5.078  1.00  0.00     0.028 C 
BRANCH  28  29
HETATM   29  C3  UNL     1       1.814  57.674  -4.804  1.00  0.00    -0.013 C 
HETATM   30  C2  UNL     1       1.060  58.106  -3.771  1.00  0.00     0.008 C 
HETATM   31  C1  UNL     1      -0.422  57.852  -3.723  1.00  0.00     0.055 C 
BRANCH  30  32
HETATM   32  C30 UNL     1       1.562  58.886  -2.617  1.00  0.00     0.171 C 
HETATM   33  O3  UNL     1       1.708  60.095  -2.594  1.00  0.00    -0.646 OA
BRANCH  32  34
HETATM   34  O4  UNL     1       1.775  58.146  -1.517  1.00  0.00    -0.773 OA
HETATM   35  H44 UNL     1       2.052  58.802  -0.847  1.00  0.00     0.167 HD
ENDBRANCH  32  34
ENDBRANCH  30  32
ENDBRANCH  28  29
ENDBRANCH  27  28
ENDBRANCH  25  27
ENDBRANCH   1  25
TORSDOF 6
ENDMDL
MODEL 2
REMARK minimizedAffinity -7.75109625
REMARK CNNscore 0.772960007
REMARK CNNaffinity 7.07447481
REMARK  6 active torsions:
REMARK  status: ('A' for Active; 'I' for Inactive)
REMARK    1  A    between atoms: C2_2  and  C30_32 
REMARK    2  A    between atoms: C3_3  and  C4_4 
REMARK    3  A    between atoms: C4_4  and  C5_5 
REMARK    4  A    between atoms: C5_5  and  C6_6 
REMARK    5  A    between atoms: C6_6  and  C8_8 
REMARK    6  A    between atoms: C30_32  and  O4_34 
ROOT
HETATM    1  C8  UNL     1       4.955  56.043  -8.256  1.00  0.00    -0.002 C 
HETATM    2  C9  UNL     1       5.820  54.996  -9.013  1.00  0.00     0.007 C 
HETATM    3  C10 UNL     1       4.868  54.149  -9.880  1.00  0.00     0.015 C 
HETATM    4  C11 UNL     1       3.521  54.897  -9.854  1.00  0.00    -0.005 C 
HETATM    5  C12 UNL     1       3.588  56.003 -10.951  1.00  0.00     0.021 C 
HETATM    6  C13 UNL     1       2.224  54.148 -10.135  1.00  0.00    -0.000 C 
HETATM    7  C14 UNL     1       1.051  54.530  -9.568  1.00  0.00    -0.060 C 
HETATM    8  C15 UNL     1       1.011  55.716  -8.591  1.00  0.00     0.036 C 
HETATM    9  C16 UNL     1       2.347  56.389  -8.214  1.00  0.00     0.015 C 
HETATM   10  C17 UNL     1       3.527  55.425  -8.365  1.00  0.00    -0.028 C 
HETATM   11  C18 UNL     1       3.374  54.287  -7.304  1.00  0.00     0.016 C 
HETATM   12  C19 UNL     1      -0.298  53.802  -9.822  1.00  0.00    -0.014 C 
HETATM   13  C20 UNL     1      -0.570  52.903  -8.594  1.00  0.00     0.020 C 
HETATM   14  C21 UNL     1      -1.443  54.830  -9.996  1.00  0.00     0.021 C 
HETATM   15  C22 UNL     1      -2.787  54.264 -10.429  1.00  0.00     0.080 C 
HETATM   16  C23 UNL     1      -2.795  52.822 -10.872  1.00  0.00     0.135 C 
HETATM   17  O1  UNL     1      -3.843  52.179 -10.773  1.00  0.00    -0.297 OA
HETATM   18  C24 UNL     1      -1.548  52.224 -11.536  1.00  0.00     0.018 C 
HETATM   19  C25 UNL     1      -1.485  50.725 -11.162  1.00  0.00     0.023 C 
HETATM   20  C26 UNL     1      -1.783  52.317 -13.057  1.00  0.00     0.023 C 
HETATM   21  C27 UNL     1      -0.240  53.005 -11.162  1.00  0.00     0.020 C 
HETATM   22  C28 UNL     1       1.025  52.146 -11.231  1.00  0.00     0.090 C 
HETATM   23  C29 UNL     1       2.260  52.999 -11.091  1.00  0.00     0.157 C 
HETATM   24  O2  UNL     1       3.275  52.727 -11.729  1.00  0.00    -0.293 OA
ENDROOT
BRANCH   1  25
HETATM   25  C6  UNL     1       5.539  56.393  -6.859  1.00  0.00    -0.014 C 
HETATM   26  C7  UNL     1       5.171  57.806  -6.393  1.00  0.00     0.010 C 
BRANCH  25  27
HETATM   27  C5  UNL     1       7.073  56.162  -6.753  1.00  0.00     0.008 C 
BRANCH  27  28
HETATM   28  C4  UNL     1       7.746  56.285  -5.378  1.00  0.00     0.028 C 
BRANCH  28  29
HETATM   29  C3  UNL     1       8.551  57.533  -5.158  1.00  0.00    -0.013 C 
HETATM   30  C2  UNL     1       9.868  57.650  -4.885  1.00  0.00     0.008 C 
HETATM   31  C1  UNL     1      10.537  58.996  -4.817  1.00  0.00     0.055 C 
BRANCH  30  32
HETATM   32  C30 UNL     1      10.797  56.519  -4.664  1.00  0.00     0.171 C 
HETATM   33  O3  UNL     1      11.168  56.113  -3.577  1.00  0.00    -0.646 OA
BRANCH  32  34
HETATM   34  O4  UNL     1      11.156  55.886  -5.793  1.00  0.00    -0.773 OA
HETATM   35  H44 UNL     1      11.721  55.153  -5.478  1.00  0.00     0.167 HD
ENDBRANCH  32  34
ENDBRANCH  30  32
ENDBRANCH  28  29
ENDBRANCH  27  28
ENDBRANCH  25  27
ENDBRANCH   1  25
TORSDOF 6
ENDMDL
MODEL 3
REMARK minimizedAffinity -8.12569618
REMARK CNNscore 0.494776577
REMARK CNNaffinity 5.74242544
REMARK  6 active torsions:
REMARK  status: ('A' for Active; 'I' for Inactive)
REMARK    1  A    between atoms: C2_2  and  C30_32 
REMARK    2  A    between atoms: C3_3  and  C4_4 
REMARK    3  A    between atoms: C4_4  and  C5_5 
REMARK    4  A    between atoms: C5_5  and  C6_6 
REMARK    5  A    between atoms: C6_6  and  C8_8 
REMARK    6  A    between atoms: C30_32  and  O4_34 
ROOT
HETATM    1  C8  UNL     1       4.821  66.579 -34.946  1.00  0.00    -0.002 C 
HETATM    2  C9  UNL     1       6.080  67.398 -35.349  1.00  0.00     0.007 C 
HETATM    3  C10 UNL     1       5.691  68.287 -36.546  1.00  0.00     0.015 C 
HETATM    4  C11 UNL     1       4.155  68.204 -36.631  1.00  0.00    -0.005 C 
HETATM    5  C12 UNL     1       3.582  69.251 -35.626  1.00  0.00     0.021 C 
HETATM    6  C13 UNL     1       3.443  68.498 -37.946  1.00  0.00    -0.000 C 
HETATM    7  C14 UNL     1       2.269  67.894 -38.264  1.00  0.00    -0.060 C 
HETATM    8  C15 UNL     1       1.644  66.863 -37.312  1.00  0.00     0.036 C 
HETATM    9  C16 UNL     1       2.432  66.479 -36.043  1.00  0.00     0.015 C 
HETATM   10  C17 UNL     1       3.936  66.693 -36.226  1.00  0.00    -0.028 C 
HETATM   11  C18 UNL     1       4.452  65.684 -37.302  1.00  0.00     0.016 C 
HETATM   12  C19 UNL     1       1.504  68.160 -39.591  1.00  0.00    -0.014 C 
HETATM   13  C20 UNL     1       1.799  66.970 -40.533  1.00  0.00     0.020 C 
HETATM   14  C21 UNL     1      -0.018  68.267 -39.325  1.00  0.00     0.021 C 
HETATM   15  C22 UNL     1      -0.872  68.704 -40.506  1.00  0.00     0.080 C 
HETATM   16  C23 UNL     1      -0.129  69.213 -41.717  1.00  0.00     0.135 C 
HETATM   17  O1  UNL     1      -0.672  69.125 -42.822  1.00  0.00    -0.297 OA
HETATM   18  C24 UNL     1       1.219  69.923 -41.539  1.00  0.00     0.018 C 
HETATM   19  C25 UNL     1       2.082  69.620 -42.786  1.00  0.00     0.023 C 
HETATM   20  C26 UNL     1       0.911  71.435 -41.540  1.00  0.00     0.023 C 
HETATM   21  C27 UNL     1       1.925  69.536 -40.193  1.00  0.00     0.020 C 
HETATM   22  C28 UNL     1       3.449  69.665 -40.245  1.00  0.00     0.090 C 
HETATM   23  C29 UNL     1       4.047  69.506 -38.871  1.00  0.00     0.157 C 
HETATM   24  O2  UNL     1       5.026  70.173 -38.542  1.00  0.00    -0.293 OA
ENDROOT
BRANCH   1  25
HETATM   25  C6  UNL     1       5.183  65.178 -34.381  1.00  0.00    -0.014 C 
HETATM   26  C7  UNL     1       4.549  64.901 -33.013  1.00  0.00     0.010 C 
BRANCH  25  27
HETATM   27  C5  UNL     1       6.713  64.901 -34.343  1.00  0.00     0.008 C 
BRANCH  27  28
HETATM   28  C4  UNL     1       7.211  63.470 -34.592  1.00  0.00     0.028 C 
BRANCH  28  29
HETATM   29  C3  UNL     1       8.602  63.352 -35.145  1.00  0.00    -0.013 C 
HETATM   30  C2  UNL     1       9.758  63.137 -34.482  1.00  0.00     0.008 C 
HETATM   31  C1  UNL     1      11.054  62.924 -35.216  1.00  0.00     0.055 C 
BRANCH  30  32
HETATM   32  C30 UNL     1       9.894  63.047 -33.011  1.00  0.00     0.171 C 
HETATM   33  O3  UNL     1      10.205  63.966 -32.274  1.00  0.00    -0.646 OA
BRANCH  32  34
HETATM   34  O4  UNL     1       9.553  61.849 -32.509  1.00  0.00    -0.773 OA
HETATM   35  H44 UNL     1       9.650  61.966 -31.543  1.00  0.00     0.167 HD
ENDBRANCH  32  34
ENDBRANCH  30  32
ENDBRANCH  28  29
ENDBRANCH  27  28
ENDBRANCH  25  27
ENDBRANCH   1  25
TORSDOF 6
ENDMDL
MODEL 4
REMARK minimizedAffinity -7.74518251
REMARK CNNscore 0.48544386
REMARK CNNaffinity 6.15877771
REMARK  6 active torsions:
REMARK  status: ('A' for Active; 'I' for Inactive)
REMARK    1  A    between atoms: C2_2  and  C30_32 
REMARK    2  A    between atoms: C3_3  and  C4_4 
REMARK    3  A    between atoms: C4_4  and  C5_5 
REMARK    4  A    between atoms: C5_5  and  C6_6 
REMARK    5  A    between atoms: C6_6  and  C8_8 
REMARK    6  A    between atoms: C30_32  and  O4_34 
ROOT
HETATM    1  C8  UNL     1     -13.351  45.931 -26.372  1.00  0.00    -0.002 C 
HETATM    2  C9  UNL     1     -14.106  45.423 -27.632  1.00  0.00     0.007 C 
HETATM    3  C10 UNL     1     -13.091  45.365 -28.789  1.00  0.00     0.015 C 
HETATM    4  C11 UNL     1     -11.711  45.545 -28.128  1.00  0.00    -0.005 C 
HETATM    5  C12 UNL     1     -11.259  44.141 -27.619  1.00  0.00     0.021 C 
HETATM    6  C13 UNL     1     -10.532  46.061 -28.944  1.00  0.00    -0.000 C 
HETATM    7  C14 UNL     1      -9.539  46.787 -28.369  1.00  0.00    -0.060 C 
HETATM    8  C15 UNL     1      -9.602  47.140 -26.875  1.00  0.00     0.036 C 
HETATM    9  C16 UNL     1     -10.858  46.722 -26.084  1.00  0.00     0.015 C 
HETATM   10  C17 UNL     1     -12.079  46.584 -26.996  1.00  0.00    -0.028 C 
HETATM   11  C18 UNL     1     -12.444  47.999 -27.551  1.00  0.00     0.016 C 
HETATM   12  C19 UNL     1      -8.316  47.336 -29.156  1.00  0.00    -0.014 C 
HETATM   13  C20 UNL     1      -8.580  48.835 -29.424  1.00  0.00     0.020 C 
HETATM   14  C21 UNL     1      -7.018  47.161 -28.328  1.00  0.00     0.021 C 
HETATM   15  C22 UNL     1      -5.719  47.490 -29.048  1.00  0.00     0.080 C 
HETATM   16  C23 UNL     1      -5.817  47.710 -30.538  1.00  0.00     0.135 C 
HETATM   17  O1  UNL     1      -4.969  48.418 -31.086  1.00  0.00    -0.297 OA
HETATM   18  C24 UNL     1      -6.886  46.965 -31.348  1.00  0.00     0.018 C 
HETATM   19  C25 UNL     1      -7.305  47.874 -32.526  1.00  0.00     0.023 C 
HETATM   20  C26 UNL     1      -6.189  45.723 -31.939  1.00  0.00     0.023 C 
HETATM   21  C27 UNL     1      -8.097  46.510 -30.461  1.00  0.00     0.020 C 
HETATM   22  C28 UNL     1      -9.405  46.368 -31.242  1.00  0.00     0.090 C 
HETATM   23  C29 UNL     1     -10.466  45.712 -30.396  1.00  0.00     0.157 C 
HETATM   24  O2  UNL     1     -11.271  44.935 -30.907  1.00  0.00    -0.293 OA
ENDROOT
BRANCH   1  25
HETATM   25  C6  UNL     1     -14.264  46.766 -25.431  1.00  0.00    -0.014 C 
HETATM   26  C7  UNL     1     -13.760  46.803 -23.984  1.00  0.00     0.010 C 
BRANCH  25  27
HETATM   27  C5  UNL     1     -15.759  46.342 -25.481  1.00  0.00     0.008 C 
BRANCH  27  28
HETATM   28  C4  UNL     1     -16.235  45.203 -24.569  1.00  0.00     0.028 C 
BRANCH  28  29
HETATM   29  C3  UNL     1     -16.903  45.628 -23.293  1.00  0.00    -0.013 C 
HETATM   30  C2  UNL     1     -18.127  46.169 -23.121  1.00  0.00     0.008 C 
HETATM   31  C1  UNL     1     -18.687  46.421 -21.748  1.00  0.00     0.055 C 
BRANCH  30  32
HETATM   32  C30 UNL     1     -19.059  46.535 -24.212  1.00  0.00     0.171 C 
HETATM   33  O3  UNL     1     -19.124  47.627 -24.747  1.00  0.00    -0.646 OA
BRANCH  32  34
HETATM   34  O4  UNL     1     -19.805  45.508 -24.652  1.00  0.00    -0.773 OA
HETATM   35  H44 UNL     1     -20.321  45.896 -25.387  1.00  0.00     0.167 HD
ENDBRANCH  32  34
ENDBRANCH  30  32
ENDBRANCH  28  29
ENDBRANCH  27  28
ENDBRANCH  25  27
ENDBRANCH   1  25
TORSDOF 6
ENDMDL
MODEL 5
REMARK minimizedAffinity -9.31925297
REMARK CNNscore 0.358839452
REMARK CNNaffinity 6.69756174
REMARK  6 active torsions:
REMARK  status: ('A' for Active; 'I' for Inactive)
REMARK    1  A    between atoms: C2_2  and  C30_32 
REMARK    2  A    between atoms: C3_3  and  C4_4 
REMARK    3  A    between atoms: C4_4  and  C5_5 
REMARK    4  A    between atoms: C5_5  and  C6_6 
REMARK    5  A    between atoms: C6_6  and  C8_8 
REMARK    6  A    between atoms: C30_32  and  O4_34 
ROOT
HETATM    1  C8  UNL     1      -2.433  50.390 -21.982  1.00  0.00    -0.002 C 
HETATM    2  C9  UNL     1      -1.960  51.844 -22.263  1.00  0.00     0.007 C 
HETATM    3  C10 UNL     1      -1.035  52.263 -21.105  1.00  0.00     0.015 C 
HETATM    4  C11 UNL     1      -0.740  50.964 -20.331  1.00  0.00    -0.005 C 
HETATM    5  C12 UNL     1       0.442  50.252 -21.060  1.00  0.00     0.021 C 
HETATM    6  C13 UNL     1      -0.316  51.023 -18.868  1.00  0.00    -0.000 C 
HETATM    7  C14 UNL     1      -0.620  50.022 -18.003  1.00  0.00    -0.060 C 
HETATM    8  C15 UNL     1      -1.440  48.811 -18.476  1.00  0.00     0.036 C 
HETATM    9  C16 UNL     1      -1.973  48.817 -19.923  1.00  0.00     0.015 C 
HETATM   10  C17 UNL     1      -2.140  50.242 -20.457  1.00  0.00    -0.028 C 
HETATM   11  C18 UNL     1      -3.273  50.945 -19.642  1.00  0.00     0.016 C 
HETATM   12  C19 UNL     1      -0.211  50.033 -16.504  1.00  0.00    -0.014 C 
HETATM   13  C20 UNL     1      -1.461  50.444 -15.692  1.00  0.00     0.020 C 
HETATM   14  C21 UNL     1       0.275  48.629 -16.065  1.00  0.00     0.021 C 
HETATM   15  C22 UNL     1       0.876  48.538 -14.670  1.00  0.00     0.080 C 
HETATM   16  C23 UNL     1       1.154  49.847 -13.974  1.00  0.00     0.135 C 
HETATM   17  O1  UNL     1       1.173  49.867 -12.741  1.00  0.00    -0.297 OA
HETATM   18  C24 UNL     1       1.516  51.087 -14.802  1.00  0.00     0.018 C 
HETATM   19  C25 UNL     1       0.977  52.329 -14.056  1.00  0.00     0.023 C 
HETATM   20  C26 UNL     1       3.056  51.171 -14.799  1.00  0.00     0.023 C 
HETATM   21  C27 UNL     1       1.003  50.987 -16.281  1.00  0.00     0.020 C 
HETATM   22  C28 UNL     1       0.752  52.349 -16.932  1.00  0.00     0.090 C 
HETATM   23  C29 UNL     1       0.488  52.197 -18.408  1.00  0.00     0.157 C 
HETATM   24  O2  UNL     1       0.903  53.041 -19.201  1.00  0.00    -0.293 OA
ENDROOT
BRANCH   1  25
HETATM   25  C6  UNL     1      -3.865  50.119 -22.521  1.00  0.00    -0.014 C 
HETATM   26  C7  UNL     1      -4.506  48.864 -21.918  1.00  0.00     0.010 C 
BRANCH  25  27
HETATM   27  C5  UNL     1      -3.946  50.085 -24.074  1.00  0.00     0.008 C 
BRANCH  27  28
HETATM   28  C4  UNL     1      -3.270  48.928 -24.824  1.00  0.00     0.028 C 
BRANCH  28  29
HETATM   29  C3  UNL     1      -4.006  48.416 -26.028  1.00  0.00    -0.013 C 
HETATM   30  C2  UNL     1      -3.949  48.857 -27.302  1.00  0.00     0.008 C 
HETATM   31  C1  UNL     1      -4.668  48.139 -28.413  1.00  0.00     0.055 C 
BRANCH  30  32
HETATM   32  C30 UNL     1      -3.174  50.030 -27.766  1.00  0.00     0.171 C 
HETATM   33  O3  UNL     1      -2.184  50.482 -27.218  1.00  0.00    -0.646 OA
BRANCH  32  34
HETATM   34  O4  UNL     1      -3.606  50.536 -28.932  1.00  0.00    -0.773 OA
HETATM   35  H44 UNL     1      -2.975  51.259 -29.119  1.00  0.00     0.167 HD
ENDBRANCH  32  34
ENDBRANCH  30  32
ENDBRANCH  28  29
ENDBRANCH  27  28
ENDBRANCH  25  27
ENDBRANCH   1  25
TORSDOF 6
ENDMDL
MODEL 6
REMARK minimizedAffinity -7.66134262
REMARK CNNscore 0.340087384
REMARK CNNaffinity 5.79607439
REMARK  6 active torsions:
REMARK  status: ('A' for Active; 'I' for Inactive)
REMARK    1  A    between atoms: C2_2  and  C30_32 
REMARK    2  A    between atoms: C3_3  and  C4_4 
REMARK    3  A    between atoms: C4_4  and  C5_5 
REMARK    4  A    between atoms: C5_5  and  C6_6 
REMARK    5  A    between atoms: C6_6  and  C8_8 
REMARK    6  A    between atoms: C30_32  and  O4_34 
ROOT
HETATM    1  C8  UNL     1     -12.185  47.063 -25.385  1.00  0.00    -0.002 C 
HETATM    2  C9  UNL     1     -11.061  46.587 -24.422  1.00  0.00     0.007 C 
HETATM    3  C10 UNL     1      -9.736  46.613 -25.207  1.00  0.00     0.015 C 
HETATM    4  C11 UNL     1     -10.048  47.381 -26.505  1.00  0.00    -0.005 C 
HETATM    5  C12 UNL     1      -9.922  48.902 -26.181  1.00  0.00     0.021 C 
HETATM    6  C13 UNL     1      -9.184  47.175 -27.744  1.00  0.00    -0.000 C 
HETATM    7  C14 UNL     1      -9.700  47.302 -28.994  1.00  0.00    -0.060 C 
HETATM    8  C15 UNL     1     -11.190  47.623 -29.189  1.00  0.00     0.036 C 
HETATM    9  C16 UNL     1     -12.083  47.706 -27.935  1.00  0.00     0.015 C 
HETATM   10  C17 UNL     1     -11.517  46.873 -26.782  1.00  0.00    -0.028 C 
HETATM   11  C18 UNL     1     -11.584  45.364 -27.185  1.00  0.00     0.016 C 
HETATM   12  C19 UNL     1      -8.863  47.103 -30.288  1.00  0.00    -0.014 C 
HETATM   13  C20 UNL     1      -9.191  45.694 -30.833  1.00  0.00     0.020 C 
HETATM   14  C21 UNL     1      -9.227  48.181 -31.339  1.00  0.00     0.021 C 
HETATM   15  C22 UNL     1      -8.357  48.217 -32.586  1.00  0.00     0.080 C 
HETATM   16  C23 UNL     1      -7.104  47.376 -32.553  1.00  0.00     0.135 C 
HETATM   17  O1  UNL     1      -6.632  46.979 -33.621  1.00  0.00    -0.297 OA
HETATM   18  C24 UNL     1      -6.389  47.130 -31.219  1.00  0.00     0.018 C 
HETATM   19  C25 UNL     1      -5.732  45.732 -31.284  1.00  0.00     0.023 C 
HETATM   20  C26 UNL     1      -5.257  48.175 -31.139  1.00  0.00     0.023 C 
HETATM   21  C27 UNL     1      -7.345  47.303 -29.988  1.00  0.00     0.020 C 
HETATM   22  C28 UNL     1      -6.919  46.487 -28.765  1.00  0.00     0.090 C 
HETATM   23  C29 UNL     1      -7.733  46.870 -27.555  1.00  0.00     0.157 C 
HETATM   24  O2  UNL     1      -7.211  46.896 -26.442  1.00  0.00    -0.293 OA
ENDROOT
BRANCH   1  25
HETATM   25  C6  UNL     1     -13.550  46.385 -25.084  1.00  0.00    -0.014 C 
HETATM   26  C7  UNL     1     -14.571  46.564 -26.213  1.00  0.00     0.010 C 
BRANCH  25  27
HETATM   27  C5  UNL     1     -14.162  46.805 -23.718  1.00  0.00     0.008 C 
BRANCH  27  28
HETATM   28  C4  UNL     1     -15.631  47.250 -23.672  1.00  0.00     0.028 C 
BRANCH  28  29
HETATM   29  C3  UNL     1     -16.610  46.213 -23.202  1.00  0.00    -0.013 C 
HETATM   30  C2  UNL     1     -17.818  45.898 -23.716  1.00  0.00     0.008 C 
HETATM   31  C1  UNL     1     -18.616  44.738 -23.187  1.00  0.00     0.055 C 
BRANCH  30  32
HETATM   32  C30 UNL     1     -18.473  46.597 -24.845  1.00  0.00     0.171 C 
HETATM   33  O3  UNL     1     -18.898  47.738 -24.817  1.00  0.00    -0.646 OA
BRANCH  32  34
HETATM   34  O4  UNL     1     -18.492  45.884 -25.983  1.00  0.00    -0.773 OA
HETATM   35  H44 UNL     1     -18.907  46.490 -26.629  1.00  0.00     0.167 HD
ENDBRANCH  32  34
ENDBRANCH  30  32
ENDBRANCH  28  29
ENDBRANCH  27  28
ENDBRANCH  25  27
ENDBRANCH   1  25
TORSDOF 6
ENDMDL
MODEL 7
REMARK minimizedAffinity -9.2467041
REMARK CNNscore 0.322577298
REMARK CNNaffinity 6.68688202
REMARK  6 active torsions:
REMARK  status: ('A' for Active; 'I' for Inactive)
REMARK    1  A    between atoms: C2_2  and  C30_32 
REMARK    2  A    between atoms: C3_3  and  C4_4 
REMARK    3  A    between atoms: C4_4  and  C5_5 
REMARK    4  A    between atoms: C5_5  and  C6_6 
REMARK    5  A    between atoms: C6_6  and  C8_8 
REMARK    6  A    between atoms: C30_32  and  O4_34 
ROOT
HETATM    1  C8  UNL     1      -1.398  50.803 -22.847  1.00  0.00    -0.002 C 
HETATM    2  C9  UNL     1      -0.915  52.277 -22.949  1.00  0.00     0.007 C 
HETATM    3  C10 UNL     1      -0.243  52.639 -21.611  1.00  0.00     0.015 C 
HETATM    4  C11 UNL     1      -0.071  51.300 -20.868  1.00  0.00    -0.005 C 
HETATM    5  C12 UNL     1       1.247  50.650 -21.391  1.00  0.00     0.021 C 
HETATM    6  C13 UNL     1       0.060  51.278 -19.349  1.00  0.00    -0.000 C 
HETATM    7  C14 UNL     1      -0.382  50.223 -18.618  1.00  0.00    -0.060 C 
HETATM    8  C15 UNL     1      -1.064  49.031 -19.308  1.00  0.00     0.036 C 
HETATM    9  C16 UNL     1      -1.306  49.117 -20.829  1.00  0.00     0.015 C 
HETATM   10  C17 UNL     1      -1.402  50.569 -21.305  1.00  0.00    -0.028 C 
HETATM   11  C18 UNL     1      -2.689  51.206 -20.689  1.00  0.00     0.016 C 
HETATM   12  C19 UNL     1      -0.271  50.151 -17.069  1.00  0.00    -0.014 C 
HETATM   13  C20 UNL     1      -1.664  50.495 -16.495  1.00  0.00     0.020 C 
HETATM   14  C21 UNL     1       0.155  48.730 -16.623  1.00  0.00     0.021 C 
HETATM   15  C22 UNL     1       0.476  48.564 -15.145  1.00  0.00     0.080 C 
HETATM   16  C23 UNL     1       0.582  49.833 -14.336  1.00  0.00     0.135 C 
HETATM   17  O1  UNL     1       0.360  49.780 -13.124  1.00  0.00    -0.297 OA
HETATM   18  C24 UNL     1       1.066  51.124 -15.007  1.00  0.00     0.018 C 
HETATM   19  C25 UNL     1       0.362  52.313 -14.313  1.00  0.00     0.023 C 
HETATM   20  C26 UNL     1       2.574  51.229 -14.699  1.00  0.00     0.023 C 
HETATM   21  C27 UNL     1       0.852  51.106 -16.561  1.00  0.00     0.020 C 
HETATM   22  C28 UNL     1       0.699  52.501 -17.172  1.00  0.00     0.090 C 
HETATM   23  C29 UNL     1       0.730  52.433 -18.677  1.00  0.00     0.157 C 
HETATM   24  O2  UNL     1       1.269  53.328 -19.326  1.00  0.00    -0.293 OA
ENDROOT
BRANCH   1  25
HETATM   25  C6  UNL     1      -2.690  50.545 -23.669  1.00  0.00    -0.014 C 
HETATM   26  C7  UNL     1      -3.721  49.697 -22.916  1.00  0.00     0.010 C 
BRANCH  25  27
HETATM   27  C5  UNL     1      -2.419  49.953 -25.081  1.00  0.00     0.008 C 
BRANCH  27  28
HETATM   28  C4  UNL     1      -1.761  50.847 -26.143  1.00  0.00     0.028 C 
BRANCH  28  29
HETATM   29  C3  UNL     1      -0.266  50.749 -26.239  1.00  0.00    -0.013 C 
HETATM   30  C2  UNL     1       0.617  51.684 -26.650  1.00  0.00     0.008 C 
HETATM   31  C1  UNL     1       2.101  51.452 -26.564  1.00  0.00     0.055 C 
BRANCH  30  32
HETATM   32  C30 UNL     1       0.260  53.019 -27.181  1.00  0.00     0.171 C 
HETATM   33  O3  UNL     1       0.399  54.073 -26.588  1.00  0.00    -0.646 OA
BRANCH  32  34
HETATM   34  O4  UNL     1      -0.170  52.997 -28.453  1.00  0.00    -0.773 OA
HETATM   35  H44 UNL     1      -0.316  53.941 -28.664  1.00  0.00     0.167 HD
ENDBRANCH  32  34
ENDBRANCH  30  32
ENDBRANCH  28  29
ENDBRANCH  27  28
ENDBRANCH  25  27
ENDBRANCH   1  25
TORSDOF 6
ENDMDL
MODEL 8
REMARK minimizedAffinity -7.46298313
REMARK CNNscore 0.304357082
REMARK CNNaffinity 5.65758371
REMARK  6 active torsions:
REMARK  status: ('A' for Active; 'I' for Inactive)
REMARK    1  A    between atoms: C2_2  and  C30_32 
REMARK    2  A    between atoms: C3_3  and  C4_4 
REMARK    3  A    between atoms: C4_4  and  C5_5 
REMARK    4  A    between atoms: C5_5  and  C6_6 
REMARK    5  A    between atoms: C6_6  and  C8_8 
REMARK    6  A    between atoms: C30_32  and  O4_34 
ROOT
HETATM    1  C8  UNL     1     -13.041  45.546 -27.090  1.00  0.00    -0.002 C 
HETATM    2  C9  UNL     1     -13.554  44.747 -28.321  1.00  0.00     0.007 C 
HETATM    3  C10 UNL     1     -12.413  44.706 -29.355  1.00  0.00     0.015 C 
HETATM    4  C11 UNL     1     -11.166  45.209 -28.603  1.00  0.00    -0.005 C 
HETATM    5  C12 UNL     1     -10.564  43.987 -27.844  1.00  0.00     0.021 C 
HETATM    6  C13 UNL     1      -9.994  45.803 -29.376  1.00  0.00    -0.000 C 
HETATM    7  C14 UNL     1      -9.201  46.761 -28.830  1.00  0.00    -0.060 C 
HETATM    8  C15 UNL     1      -9.493  47.299 -27.420  1.00  0.00     0.036 C 
HETATM    9  C16 UNL     1     -10.753  46.784 -26.696  1.00  0.00     0.015 C 
HETATM   10  C17 UNL     1     -11.822  46.315 -27.686  1.00  0.00    -0.028 C 
HETATM   11  C18 UNL     1     -12.335  47.556 -28.484  1.00  0.00     0.016 C 
HETATM   12  C19 UNL     1      -7.994  47.397 -29.574  1.00  0.00    -0.014 C 
HETATM   13  C20 UNL     1      -8.455  48.778 -30.095  1.00  0.00     0.020 C 
HETATM   14  C21 UNL     1      -6.792  47.563 -28.611  1.00  0.00     0.021 C 
HETATM   15  C22 UNL     1      -5.484  48.008 -29.249  1.00  0.00     0.080 C 
HETATM   16  C23 UNL     1      -5.438  48.001 -30.757  1.00  0.00     0.135 C 
HETATM   17  O1  UNL     1      -4.653  48.763 -31.327  1.00  0.00    -0.297 OA
HETATM   18  C24 UNL     1      -6.275  46.981 -31.539  1.00  0.00     0.018 C 
HETATM   19  C25 UNL     1      -6.689  47.633 -32.878  1.00  0.00     0.023 C 
HETATM   20  C26 UNL     1      -5.329  45.806 -31.863  1.00  0.00     0.023 C 
HETATM   21  C27 UNL     1      -7.497  46.451 -30.710  1.00  0.00     0.020 C 
HETATM   22  C28 UNL     1      -8.666  45.981 -31.578  1.00  0.00     0.090 C 
HETATM   23  C29 UNL     1      -9.703  45.275 -30.744  1.00  0.00     0.157 C 
HETATM   24  O2  UNL     1     -10.312  44.309 -31.201  1.00  0.00    -0.293 OA
ENDROOT
BRANCH   1  25
HETATM   25  C6  UNL     1     -14.177  46.332 -26.379  1.00  0.00    -0.014 C 
HETATM   26  C7  UNL     1     -13.815  46.748 -24.949  1.00  0.00     0.010 C 
BRANCH  25  27
HETATM   27  C5  UNL     1     -15.549  45.602 -26.408  1.00  0.00     0.008 C 
BRANCH  27  28
HETATM   28  C4  UNL     1     -16.156  45.116 -25.083  1.00  0.00     0.028 C 
BRANCH  28  29
HETATM   29  C3  UNL     1     -17.108  43.960 -25.189  1.00  0.00    -0.013 C 
HETATM   30  C2  UNL     1     -18.334  43.926 -25.750  1.00  0.00     0.008 C 
HETATM   31  C1  UNL     1     -19.103  42.639 -25.876  1.00  0.00     0.055 C 
BRANCH  30  32
HETATM   32  C30 UNL     1     -19.041  45.092 -26.328  1.00  0.00     0.171 C 
HETATM   33  O3  UNL     1     -19.695  45.903 -25.697  1.00  0.00    -0.646 OA
BRANCH  32  34
HETATM   34  O4  UNL     1     -18.835  45.250 -27.646  1.00  0.00    -0.773 OA
HETATM   35  H44 UNL     1     -19.320  46.071 -27.859  1.00  0.00     0.167 HD
ENDBRANCH  32  34
ENDBRANCH  30  32
ENDBRANCH  28  29
ENDBRANCH  27  28
ENDBRANCH  25  27
ENDBRANCH   1  25
TORSDOF 6
ENDMDL
MODEL 9
REMARK minimizedAffinity -8.08634567
REMARK CNNscore 0.262740016
REMARK CNNaffinity 6.36359262
REMARK  6 active torsions:
REMARK  status: ('A' for Active; 'I' for Inactive)
REMARK    1  A    between atoms: C2_2  and  C30_32 
REMARK    2  A    between atoms: C3_3  and  C4_4 
REMARK    3  A    between atoms: C4_4  and  C5_5 
REMARK    4  A    between atoms: C5_5  and  C6_6 
REMARK    5  A    between atoms: C6_6  and  C8_8 
REMARK    6  A    between atoms: C30_32  and  O4_34 
ROOT
HETATM    1  C8  UNL     1      -3.706  49.269 -22.822  1.00  0.00    -0.002 C 
HETATM    2  C9  UNL     1      -4.299  48.581 -24.083  1.00  0.00     0.007 C 
HETATM    3  C10 UNL     1      -5.752  48.186 -23.756  1.00  0.00     0.015 C 
HETATM    4  C11 UNL     1      -6.081  48.909 -22.436  1.00  0.00    -0.005 C 
HETATM    5  C12 UNL     1      -6.525  50.359 -22.805  1.00  0.00     0.021 C 
HETATM    6  C13 UNL     1      -7.188  48.383 -21.529  1.00  0.00    -0.000 C 
HETATM    7  C14 UNL     1      -7.136  48.549 -20.183  1.00  0.00    -0.060 C 
HETATM    8  C15 UNL     1      -5.931  49.247 -19.532  1.00  0.00     0.036 C 
HETATM    9  C16 UNL     1      -4.758  49.664 -20.443  1.00  0.00     0.015 C 
HETATM   10  C17 UNL     1      -4.686  48.799 -21.704  1.00  0.00    -0.028 C 
HETATM   11  C18 UNL     1      -4.324  47.339 -21.280  1.00  0.00     0.016 C 
HETATM   12  C19 UNL     1      -8.237  48.033 -19.215  1.00  0.00    -0.014 C 
HETATM   13  C20 UNL     1      -7.708  46.729 -18.575  1.00  0.00     0.020 C 
HETATM   14  C21 UNL     1      -8.531  49.086 -18.118  1.00  0.00     0.021 C 
HETATM   15  C22 UNL     1      -9.714  48.790 -17.209  1.00  0.00     0.080 C 
HETATM   16  C23 UNL     1     -10.606  47.646 -17.623  1.00  0.00     0.135 C 
HETATM   17  O1  UNL     1     -11.251  47.056 -16.752  1.00  0.00    -0.297 OA
HETATM   18  C24 UNL     1     -10.780  47.317 -19.111  1.00  0.00     0.018 C 
HETATM   19  C25 UNL     1     -11.004  45.793 -19.236  1.00  0.00     0.023 C 
HETATM   20  C26 UNL     1     -12.079  48.019 -19.557  1.00  0.00     0.023 C 
HETATM   21  C27 UNL     1      -9.582  47.836 -19.981  1.00  0.00     0.020 C 
HETATM   22  C28 UNL     1      -9.367  47.031 -21.264  1.00  0.00     0.090 C 
HETATM   23  C29 UNL     1      -8.364  47.711 -22.161  1.00  0.00     0.157 C 
HETATM   24  O2  UNL     1      -8.506  47.679 -23.382  1.00  0.00    -0.293 OA
ENDROOT
BRANCH   1  25
HETATM   25  C6  UNL     1      -2.181  49.011 -22.670  1.00  0.00    -0.014 C 
HETATM   26  C7  UNL     1      -1.855  47.942 -21.620  1.00  0.00     0.010 C 
BRANCH  25  27
HETATM   27  C5  UNL     1      -1.357  50.303 -22.410  1.00  0.00     0.008 C 
BRANCH  27  28
HETATM   28  C4  UNL     1      -0.242  50.270 -21.354  1.00  0.00     0.028 C 
BRANCH  28  29
HETATM   29  C3  UNL     1      -0.301  51.351 -20.313  1.00  0.00    -0.013 C 
HETATM   30  C2  UNL     1       0.177  52.611 -20.378  1.00  0.00     0.008 C 
HETATM   31  C1  UNL     1      -0.081  53.605 -19.278  1.00  0.00     0.055 C 
BRANCH  30  32
HETATM   32  C30 UNL     1       0.953  53.173 -21.508  1.00  0.00     0.171 C 
HETATM   33  O3  UNL     1       0.716  52.985 -22.687  1.00  0.00    -0.646 OA
BRANCH  32  34
HETATM   34  O4  UNL     1       1.931  54.012 -21.127  1.00  0.00    -0.773 OA
HETATM   35  H44 UNL     1       2.308  54.325 -21.973  1.00  0.00     0.167 HD
ENDBRANCH  32  34
ENDBRANCH  30  32
ENDBRANCH  28  29
ENDBRANCH  27  28
ENDBRANCH  25  27
ENDBRANCH   1  25
TORSDOF 6
ENDMDL
