MODEL 1
REMARK minimizedAffinity -7.81017685
REMARK CNNscore 0.800390184
REMARK CNNaffinity 6.68852568
REMARK  13 active torsions:
REMARK  status: ('A' for Active; 'I' for Inactive)
REMARK    1  A    between atoms: C2_2  and  C3_3 
REMARK    2  A    between atoms: C2_2  and  C4_5 
REMARK    3  A    between atoms: C3_3  and  O1_4 
REMARK    4  A    between atoms: C4_5  and  C5_6 
REMARK    5  A    between atoms: C5_6  and  C6_7 
REMARK    6  A    between atoms: C6_7  and  O2_8 
REMARK    7  A    between atoms: C6_7  and  C7_9 
REMARK    8  A    between atoms: C7_9  and  C9_11 
REMARK    9  A    between atoms: C10_12  and  O3_13 
REMARK   10  A    between atoms: O3_13  and  C11_14 
REMARK   11  A    between atoms: C13_17  and  O5_18 
REMARK   12  A    between atoms: C14_19  and  O6_20 
REMARK   13  A    between atoms: C15_21  and  O7_22 
ROOT
HETATM    1  C9  UNL     1       4.933  52.877  -9.889  1.00  0.00     0.029 C 
HETATM    2  C10 UNL     1       5.471  52.037  -8.652  1.00  0.00     0.130 C 
HETATM    3  C16 UNL     1       5.475  52.983  -7.429  1.00  0.00     0.038 C 
HETATM    4  C17 UNL     1       4.693  54.192  -7.914  1.00  0.00     0.001 C 
HETATM    5  C18 UNL     1       4.755  55.495  -7.120  1.00  0.00    -0.004 C 
HETATM    6  C19 UNL     1       4.624  55.283  -5.610  1.00  0.00     0.010 C 
HETATM    7  C20 UNL     1       4.213  56.567  -4.910  1.00  0.00     0.035 C 
HETATM    8  C21 UNL     1       2.805  56.846  -5.342  1.00  0.00    -0.068 C 
HETATM    9  C22 UNL     1       1.803  56.759  -4.448  1.00  0.00     0.053 C 
HETATM   10  C23 UNL     1       0.384  56.877  -4.854  1.00  0.00     0.149 C 
HETATM   11  O8  UNL     1      -0.485  56.937  -3.987  1.00  0.00    -0.293 OA
HETATM   12  C24 UNL     1       0.052  56.939  -6.326  1.00  0.00     0.084 C 
HETATM   13  C25 UNL     1       1.209  56.468  -7.208  1.00  0.00     0.022 C 
HETATM   14  C26 UNL     1       2.583  57.091  -6.833  1.00  0.00    -0.016 C 
HETATM   15  C27 UNL     1       2.513  58.628  -7.045  1.00  0.00     0.020 C 
HETATM   16  C28 UNL     1       3.772  56.549  -7.744  1.00  0.00     0.002 C 
HETATM   17  C29 UNL     1       3.312  56.143  -9.180  1.00  0.00     0.007 C 
HETATM   18  C30 UNL     1       4.452  55.576 -10.030  1.00  0.00     0.010 C 
HETATM   19  C31 UNL     1       5.153  54.359  -9.383  1.00  0.00    -0.034 C 
HETATM   20  C32 UNL     1       6.678  54.686  -9.529  1.00  0.00     0.016 C 
ENDROOT
BRANCH   2  21
HETATM   21  O3  UNL     1       6.818  51.630  -8.892  1.00  0.00    -0.353 OA
BRANCH  21  22
HETATM   22  C11 UNL     1       7.010  50.216  -8.870  1.00  0.00     0.291 C 
HETATM   23  O4  UNL     1       7.938  49.912  -7.819  1.00  0.00    -0.356 OA
HETATM   24  C12 UNL     1       8.256  48.521  -7.735  1.00  0.00     0.205 C 
HETATM   25  C13 UNL     1       8.959  48.079  -9.015  1.00  0.00     0.173 C 
HETATM   26  C14 UNL     1       8.045  48.339 -10.213  1.00  0.00     0.182 C 
HETATM   27  C15 UNL     1       7.561  49.793 -10.248  1.00  0.00     0.204 C 
BRANCH  25  28
HETATM   28  O5  UNL     1      10.178  48.818  -9.210  1.00  0.00    -0.391 OA
HETATM   29  H24 UNL     1      10.118  49.628  -8.659  1.00  0.00     0.210 HD
ENDBRANCH  25  28
BRANCH  26  30
HETATM   30  O6  UNL     1       8.740  48.056 -11.438  1.00  0.00    -0.390 OA
HETATM   31  H26 UNL     1       9.678  48.294 -11.271  1.00  0.00     0.210 HD
ENDBRANCH  26  30
BRANCH  27  32
HETATM   32  O7  UNL     1       6.557  49.902 -11.277  1.00  0.00    -0.388 OA
HETATM   33  H28 UNL     1       6.975  49.521 -12.073  1.00  0.00     0.210 HD
ENDBRANCH  27  32
ENDBRANCH  21  22
ENDBRANCH   2  21
BRANCH   1  34
HETATM   34  C7  UNL     1       3.487  52.380 -10.281  1.00  0.00     0.017 C 
HETATM   35  C8  UNL     1       3.385  50.839 -10.121  1.00  0.00     0.013 C 
BRANCH  34  36
HETATM   36  C6  UNL     1       2.985  52.765 -11.701  1.00  0.00     0.122 C 
BRANCH  36  37
HETATM   37  C5  UNL     1       2.579  51.574 -12.585  1.00  0.00     0.032 C 
BRANCH  37  38
HETATM   38  C4  UNL     1       3.589  51.330 -13.717  1.00  0.00     0.009 C 
BRANCH  38  39
HETATM   39  C2  UNL     1       2.978  51.529 -15.119  1.00  0.00     0.005 C 
HETATM   40  C1  UNL     1       3.855  52.428 -15.997  1.00  0.00     0.012 C 
BRANCH  39  41
HETATM   41  C3  UNL     1       1.556  52.102 -15.023  1.00  0.00     0.168 C 
BRANCH  41  42
HETATM   42  O1  UNL     1       1.362  53.195 -15.907  1.00  0.00    -0.400 OA
HETATM   43  H7  UNL     1       1.899  53.939 -15.589  1.00  0.00     0.209 HD
ENDBRANCH  41  42
ENDBRANCH  39  41
ENDBRANCH  38  39
ENDBRANCH  37  38
ENDBRANCH  36  37
BRANCH  36  44
HETATM   44  O2  UNL     1       1.892  53.687 -11.597  1.00  0.00    -0.395 OA
HETATM   45  H13 UNL     1       1.068  53.182 -11.489  1.00  0.00     0.210 HD
ENDBRANCH  36  44
ENDBRANCH  34  36
ENDBRANCH   1  34
TORSDOF 13
ENDMDL
MODEL 2
REMARK minimizedAffinity -8.8268013
REMARK CNNscore 0.705245614
REMARK CNNaffinity 7.18748331
REMARK  13 active torsions:
REMARK  status: ('A' for Active; 'I' for Inactive)
REMARK    1  A    between atoms: C2_2  and  C3_3 
REMARK    2  A    between atoms: C2_2  and  C4_5 
REMARK    3  A    between atoms: C3_3  and  O1_4 
REMARK    4  A    between atoms: C4_5  and  C5_6 
REMARK    5  A    between atoms: C5_6  and  C6_7 
REMARK    6  A    between atoms: C6_7  and  O2_8 
REMARK    7  A    between atoms: C6_7  and  C7_9 
REMARK    8  A    between atoms: C7_9  and  C9_11 
REMARK    9  A    between atoms: C10_12  and  O3_13 
REMARK   10  A    between atoms: O3_13  and  C11_14 
REMARK   11  A    between atoms: C13_17  and  O5_18 
REMARK   12  A    between atoms: C14_19  and  O6_20 
REMARK   13  A    between atoms: C15_21  and  O7_22 
ROOT
HETATM    1  C9  UNL     1      -5.380  48.766 -24.177  1.00  0.00     0.029 C 
HETATM    2  C10 UNL     1      -6.446  49.841 -23.692  1.00  0.00     0.130 C 
HETATM    3  C16 UNL     1      -5.962  50.374 -22.325  1.00  0.00     0.038 C 
HETATM    4  C17 UNL     1      -4.546  49.833 -22.214  1.00  0.00     0.001 C 
HETATM    5  C18 UNL     1      -3.838  49.852 -20.861  1.00  0.00    -0.004 C 
HETATM    6  C19 UNL     1      -4.018  51.173 -20.110  1.00  0.00     0.010 C 
HETATM    7  C20 UNL     1      -2.953  51.346 -19.041  1.00  0.00     0.035 C 
HETATM    8  C21 UNL     1      -1.658  51.539 -19.772  1.00  0.00    -0.068 C 
HETATM    9  C22 UNL     1      -1.033  52.730 -19.720  1.00  0.00     0.053 C 
HETATM   10  C23 UNL     1       0.165  53.019 -20.541  1.00  0.00     0.149 C 
HETATM   11  O8  UNL     1       0.784  54.064 -20.353  1.00  0.00    -0.293 OA
HETATM   12  C24 UNL     1       0.599  52.006 -21.573  1.00  0.00     0.084 C 
HETATM   13  C25 UNL     1      -0.501  50.995 -21.901  1.00  0.00     0.022 C 
HETATM   14  C26 UNL     1      -1.188  50.381 -20.649  1.00  0.00    -0.016 C 
HETATM   15  C27 UNL     1      -0.133  49.581 -19.838  1.00  0.00     0.020 C 
HETATM   16  C28 UNL     1      -2.355  49.364 -21.027  1.00  0.00     0.002 C 
HETATM   17  C29 UNL     1      -2.125  48.642 -22.392  1.00  0.00     0.007 C 
HETATM   18  C30 UNL     1      -3.276  47.705 -22.768  1.00  0.00     0.010 C 
HETATM   19  C31 UNL     1      -4.650  48.412 -22.819  1.00  0.00    -0.034 C 
HETATM   20  C32 UNL     1      -5.592  47.454 -22.014  1.00  0.00     0.016 C 
ENDROOT
BRANCH   2  21
HETATM   21  O3  UNL     1      -7.710  49.211 -23.493  1.00  0.00    -0.353 OA
BRANCH  21  22
HETATM   22  C11 UNL     1      -8.098  48.336 -24.552  1.00  0.00     0.291 C 
HETATM   23  O4  UNL     1      -8.611  49.139 -25.625  1.00  0.00    -0.356 OA
HETATM   24  C12 UNL     1      -9.086  48.366 -26.728  1.00  0.00     0.205 C 
HETATM   25  C13 UNL     1     -10.270  47.512 -26.281  1.00  0.00     0.173 C 
HETATM   26  C14 UNL     1      -9.831  46.591 -25.143  1.00  0.00     0.182 C 
HETATM   27  C15 UNL     1      -9.175  47.377 -24.002  1.00  0.00     0.204 C 
BRANCH  25  28
HETATM   28  O5  UNL     1     -11.345  48.340 -25.802  1.00  0.00    -0.391 OA
HETATM   29  H24 UNL     1     -10.962  49.218 -25.587  1.00  0.00     0.210 HD
ENDBRANCH  25  28
BRANCH  26  30
HETATM   30  O6  UNL     1     -10.963  45.878 -24.617  1.00  0.00    -0.390 OA
HETATM   31  H26 UNL     1     -11.724  46.492 -24.702  1.00  0.00     0.210 HD
ENDBRANCH  26  30
BRANCH  27  32
HETATM   32  O7  UNL     1      -8.615  46.427 -23.073  1.00  0.00    -0.388 OA
HETATM   33  H28 UNL     1      -9.350  45.817 -22.868  1.00  0.00     0.210 HD
ENDBRANCH  27  32
ENDBRANCH  21  22
ENDBRANCH   2  21
BRANCH   1  34
HETATM   34  C7  UNL     1      -4.555  49.345 -25.393  1.00  0.00     0.017 C 
HETATM   35  C8  UNL     1      -3.846  48.196 -26.158  1.00  0.00     0.013 C 
BRANCH  34  36
HETATM   36  C6  UNL     1      -3.505  50.440 -25.057  1.00  0.00     0.122 C 
BRANCH  36  37
HETATM   37  C5  UNL     1      -2.080  50.138 -25.551  1.00  0.00     0.032 C 
BRANCH  37  38
HETATM   38  C4  UNL     1      -1.796  50.788 -26.915  1.00  0.00     0.009 C 
BRANCH  38  39
HETATM   39  C2  UNL     1      -0.496  51.618 -26.924  1.00  0.00     0.005 C 
HETATM   40  C1  UNL     1       0.160  51.658 -25.540  1.00  0.00     0.012 C 
BRANCH  39  41
HETATM   41  C3  UNL     1      -0.758  53.044 -27.430  1.00  0.00     0.168 C 
BRANCH  41  42
HETATM   42  O1  UNL     1      -2.120  53.419 -27.287  1.00  0.00    -0.400 OA
HETATM   43  H7  UNL     1      -2.645  52.888 -27.907  1.00  0.00     0.209 HD
ENDBRANCH  41  42
ENDBRANCH  39  41
ENDBRANCH  38  39
ENDBRANCH  37  38
ENDBRANCH  36  37
BRANCH  36  44
HETATM   44  O2  UNL     1      -3.939  51.705 -25.572  1.00  0.00    -0.395 OA
HETATM   45  H13 UNL     1      -3.655  51.777 -26.499  1.00  0.00     0.210 HD
ENDBRANCH  36  44
ENDBRANCH  34  36
ENDBRANCH   1  34
TORSDOF 13
ENDMDL
MODEL 3
REMARK minimizedAffinity -8.62222958
REMARK CNNscore 0.659985483
REMARK CNNaffinity 6.9316082
REMARK  13 active torsions:
REMARK  status: ('A' for Active; 'I' for Inactive)
REMARK    1  A    between atoms: C2_2  and  C3_3 
REMARK    2  A    between atoms: C2_2  and  C4_5 
REMARK    3  A    between atoms: C3_3  and  O1_4 
REMARK    4  A    between atoms: C4_5  and  C5_6 
REMARK    5  A    between atoms: C5_6  and  C6_7 
REMARK    6  A    between atoms: C6_7  and  O2_8 
REMARK    7  A    between atoms: C6_7  and  C7_9 
REMARK    8  A    between atoms: C7_9  and  C9_11 
REMARK    9  A    between atoms: C10_12  and  O3_13 
REMARK   10  A    between atoms: O3_13  and  C11_14 
REMARK   11  A    between atoms: C13_17  and  O5_18 
REMARK   12  A    between atoms: C14_19  and  O6_20 
REMARK   13  A    between atoms: C15_21  and  O7_22 
ROOT
HETATM    1  C9  UNL     1      -9.320  45.269 -32.385  1.00  0.00     0.029 C 
HETATM    2  C10 UNL     1      -8.080  46.253 -32.513  1.00  0.00     0.130 C 
HETATM    3  C16 UNL     1      -7.951  46.628 -34.007  1.00  0.00     0.038 C 
HETATM    4  C17 UNL     1      -9.243  46.109 -34.616  1.00  0.00     0.001 C 
HETATM    5  C18 UNL     1      -9.360  45.979 -36.132  1.00  0.00    -0.004 C 
HETATM    6  C19 UNL     1      -8.811  47.196 -36.881  1.00  0.00     0.010 C 
HETATM    7  C20 UNL     1      -9.358  47.262 -38.297  1.00  0.00     0.035 C 
HETATM    8  C21 UNL     1     -10.819  47.569 -38.165  1.00  0.00    -0.068 C 
HETATM    9  C22 UNL     1     -11.291  48.758 -38.583  1.00  0.00     0.053 C 
HETATM   10  C23 UNL     1     -12.693  49.170 -38.339  1.00  0.00     0.149 C 
HETATM   11  O8  UNL     1     -13.116  50.198 -38.864  1.00  0.00    -0.293 OA
HETATM   12  C24 UNL     1     -13.564  48.299 -37.467  1.00  0.00     0.084 C 
HETATM   13  C25 UNL     1     -12.753  47.312 -36.627  1.00  0.00     0.022 C 
HETATM   14  C26 UNL     1     -11.672  46.536 -37.433  1.00  0.00    -0.016 C 
HETATM   15  C27 UNL     1     -12.376  45.667 -38.511  1.00  0.00     0.020 C 
HETATM   16  C28 UNL     1     -10.819  45.547 -36.521  1.00  0.00     0.002 C 
HETATM   17  C29 UNL     1     -11.614  45.000 -35.294  1.00  0.00     0.007 C 
HETATM   18  C30 UNL     1     -10.770  44.091 -34.398  1.00  0.00     0.010 C 
HETATM   19  C31 UNL     1      -9.481  44.769 -33.877  1.00  0.00    -0.034 C 
HETATM   20  C32 UNL     1      -8.366  43.701 -34.139  1.00  0.00     0.016 C 
ENDROOT
BRANCH   2  21
HETATM   21  O3  UNL     1      -6.884  45.577 -32.128  1.00  0.00    -0.353 OA
BRANCH  21  22
HETATM   22  C11 UNL     1      -6.356  46.000 -30.871  1.00  0.00     0.291 C 
HETATM   23  O4  UNL     1      -7.446  46.105 -29.945  1.00  0.00    -0.356 OA
HETATM   24  C12 UNL     1      -7.046  46.578 -28.658  1.00  0.00     0.205 C 
HETATM   25  C13 UNL     1      -6.503  47.999 -28.781  1.00  0.00     0.173 C 
HETATM   26  C14 UNL     1      -5.310  48.005 -29.738  1.00  0.00     0.182 C 
HETATM   27  C15 UNL     1      -5.664  47.363 -31.084  1.00  0.00     0.204 C 
BRANCH  25  28
HETATM   28  O5  UNL     1      -7.507  48.886 -29.306  1.00  0.00    -0.391 OA
HETATM   29  H24 UNL     1      -8.186  48.329 -29.744  1.00  0.00     0.210 HD
ENDBRANCH  25  28
BRANCH  26  30
HETATM   30  O6  UNL     1      -4.871  49.353 -29.974  1.00  0.00    -0.390 OA
HETATM   31  H26 UNL     1      -5.681  49.905 -29.940  1.00  0.00     0.210 HD
ENDBRANCH  26  30
BRANCH  27  32
HETATM   32  O7  UNL     1      -4.446  47.228 -31.845  1.00  0.00    -0.388 OA
HETATM   33  H28 UNL     1      -4.046  48.118 -31.834  1.00  0.00     0.210 HD
ENDBRANCH  27  32
ENDBRANCH  21  22
ENDBRANCH   2  21
BRANCH   1  34
HETATM   34  C7  UNL     1     -10.515  46.008 -31.663  1.00  0.00     0.017 C 
HETATM   35  C8  UNL     1     -10.119  47.471 -31.328  1.00  0.00     0.013 C 
BRANCH  34  36
HETATM   36  C6  UNL     1     -11.067  45.335 -30.376  1.00  0.00     0.122 C 
BRANCH  36  37
HETATM   37  C5  UNL     1     -12.206  46.105 -29.686  1.00  0.00     0.032 C 
BRANCH  37  38
HETATM   38  C4  UNL     1     -12.492  45.563 -28.276  1.00  0.00     0.009 C 
BRANCH  38  39
HETATM   39  C2  UNL     1     -12.635  46.681 -27.222  1.00  0.00     0.005 C 
HETATM   40  C1  UNL     1     -14.019  46.665 -26.564  1.00  0.00     0.012 C 
BRANCH  39  41
HETATM   41  C3  UNL     1     -12.355  48.058 -27.840  1.00  0.00     0.168 C 
BRANCH  41  42
HETATM   42  O1  UNL     1     -11.986  49.017 -26.861  1.00  0.00    -0.400 OA
HETATM   43  H7  UNL     1     -12.765  49.200 -26.310  1.00  0.00     0.209 HD
ENDBRANCH  41  42
ENDBRANCH  39  41
ENDBRANCH  38  39
ENDBRANCH  37  38
ENDBRANCH  36  37
BRANCH  36  44
HETATM   44  O2  UNL     1     -11.493  43.999 -30.670  1.00  0.00    -0.395 OA
HETATM   45  H13 UNL     1     -12.408  44.029 -30.996  1.00  0.00     0.210 HD
ENDBRANCH  36  44
ENDBRANCH  34  36
ENDBRANCH   1  34
TORSDOF 13
ENDMDL
MODEL 4
REMARK minimizedAffinity -7.76404619
REMARK CNNscore 0.657777071
REMARK CNNaffinity 6.99522352
REMARK  13 active torsions:
REMARK  status: ('A' for Active; 'I' for Inactive)
REMARK    1  A    between atoms: C2_2  and  C3_3 
REMARK    2  A    between atoms: C2_2  and  C4_5 
REMARK    3  A    between atoms: C3_3  and  O1_4 
REMARK    4  A    between atoms: C4_5  and  C5_6 
REMARK    5  A    between atoms: C5_6  and  C6_7 
REMARK    6  A    between atoms: C6_7  and  O2_8 
REMARK    7  A    between atoms: C6_7  and  C7_9 
REMARK    8  A    between atoms: C7_9  and  C9_11 
REMARK    9  A    between atoms: C10_12  and  O3_13 
REMARK   10  A    between atoms: O3_13  and  C11_14 
REMARK   11  A    between atoms: C13_17  and  O5_18 
REMARK   12  A    between atoms: C14_19  and  O6_20 
REMARK   13  A    between atoms: C15_21  and  O7_22 
ROOT
HETATM    1  C9  UNL     1      -1.285  53.139  -9.347  1.00  0.00     0.029 C 
HETATM    2  C10 UNL     1      -1.005  52.686 -10.844  1.00  0.00     0.130 C 
HETATM    3  C16 UNL     1       0.172  53.542 -11.363  1.00  0.00     0.038 C 
HETATM    4  C17 UNL     1       0.700  54.217 -10.109  1.00  0.00     0.001 C 
HETATM    5  C18 UNL     1       1.650  55.406 -10.237  1.00  0.00    -0.004 C 
HETATM    6  C19 UNL     1       2.743  55.188 -11.286  1.00  0.00     0.010 C 
HETATM    7  C20 UNL     1       3.912  56.132 -11.063  1.00  0.00     0.035 C 
HETATM    8  C21 UNL     1       4.566  55.692  -9.788  1.00  0.00    -0.068 C 
HETATM    9  C22 UNL     1       5.799  55.153  -9.821  1.00  0.00     0.053 C 
HETATM   10  C23 UNL     1       6.426  54.566  -8.615  1.00  0.00     0.149 C 
HETATM   11  O8  UNL     1       7.605  54.220  -8.659  1.00  0.00    -0.293 OA
HETATM   12  C24 UNL     1       5.599  54.431  -7.359  1.00  0.00     0.084 C 
HETATM   13  C25 UNL     1       4.099  54.555  -7.629  1.00  0.00     0.022 C 
HETATM   14  C26 UNL     1       3.716  55.770  -8.521  1.00  0.00    -0.016 C 
HETATM   15  C27 UNL     1       4.104  57.080  -7.782  1.00  0.00     0.020 C 
HETATM   16  C28 UNL     1       2.152  55.846  -8.816  1.00  0.00     0.002 C 
HETATM   17  C29 UNL     1       1.280  55.239  -7.673  1.00  0.00     0.007 C 
HETATM   18  C30 UNL     1      -0.218  55.272  -7.988  1.00  0.00     0.010 C 
HETATM   19  C31 UNL     1      -0.582  54.554  -9.309  1.00  0.00    -0.034 C 
HETATM   20  C32 UNL     1      -1.527  55.570 -10.036  1.00  0.00     0.016 C 
ENDROOT
BRANCH   2  21
HETATM   21  O3  UNL     1      -2.143  52.971 -11.657  1.00  0.00    -0.353 OA
BRANCH  21  22
HETATM   22  C11 UNL     1      -2.687  51.827 -12.316  1.00  0.00     0.291 C 
HETATM   23  O4  UNL     1      -1.765  50.741 -12.153  1.00  0.00    -0.356 OA
HETATM   24  C12 UNL     1      -2.177  49.548 -12.822  1.00  0.00     0.205 C 
HETATM   25  C13 UNL     1      -2.223  49.797 -14.328  1.00  0.00     0.173 C 
HETATM   26  C14 UNL     1      -3.200  50.933 -14.626  1.00  0.00     0.182 C 
HETATM   27  C15 UNL     1      -2.876  52.187 -13.805  1.00  0.00     0.204 C 
BRANCH  25  28
HETATM   28  O5  UNL     1      -0.925  50.177 -14.821  1.00  0.00    -0.391 OA
HETATM   29  H24 UNL     1      -0.400  50.484 -14.051  1.00  0.00     0.210 HD
ENDBRANCH  25  28
BRANCH  26  30
HETATM   30  O6  UNL     1      -3.155  51.274 -16.021  1.00  0.00    -0.390 OA
HETATM   31  H26 UNL     1      -2.226  51.125 -16.299  1.00  0.00     0.210 HD
ENDBRANCH  26  30
BRANCH  27  32
HETATM   32  O7  UNL     1      -3.951  53.130 -13.991  1.00  0.00    -0.388 OA
HETATM   33  H28 UNL     1      -4.047  53.208 -14.960  1.00  0.00     0.210 HD
ENDBRANCH  27  32
ENDBRANCH  21  22
ENDBRANCH   2  21
BRANCH   1  34
HETATM   34  C7  UNL     1      -0.830  52.000  -8.352  1.00  0.00     0.017 C 
HETATM   35  C8  UNL     1       0.345  51.190  -8.962  1.00  0.00     0.013 C 
BRANCH  34  36
HETATM   36  C6  UNL     1      -1.931  51.006  -7.889  1.00  0.00     0.122 C 
BRANCH  36  37
HETATM   37  C5  UNL     1      -2.185  49.833  -8.852  1.00  0.00     0.032 C 
BRANCH  37  38
HETATM   38  C4  UNL     1      -3.415  49.009  -8.439  1.00  0.00     0.009 C 
BRANCH  38  39
HETATM   39  C2  UNL     1      -4.481  48.925  -9.551  1.00  0.00     0.005 C 
HETATM   40  C1  UNL     1      -4.933  50.316 -10.008  1.00  0.00     0.012 C 
BRANCH  39  41
HETATM   41  C3  UNL     1      -5.690  48.096  -9.092  1.00  0.00     0.168 C 
BRANCH  41  42
HETATM   42  O1  UNL     1      -6.797  48.915  -8.748  1.00  0.00    -0.400 OA
HETATM   43  H7  UNL     1      -6.571  49.403  -7.940  1.00  0.00     0.209 HD
ENDBRANCH  41  42
ENDBRANCH  39  41
ENDBRANCH  38  39
ENDBRANCH  37  38
ENDBRANCH  36  37
BRANCH  36  44
HETATM   44  O2  UNL     1      -1.615  50.503  -6.585  1.00  0.00    -0.395 OA
HETATM   45  H13 UNL     1      -1.023  49.737  -6.682  1.00  0.00     0.210 HD
ENDBRANCH  36  44
ENDBRANCH  34  36
ENDBRANCH   1  34
TORSDOF 13
ENDMDL
MODEL 5
REMARK minimizedAffinity -8.13618469
REMARK CNNscore 0.529052973
REMARK CNNaffinity 7.30380583
REMARK  13 active torsions:
REMARK  status: ('A' for Active; 'I' for Inactive)
REMARK    1  A    between atoms: C2_2  and  C3_3 
REMARK    2  A    between atoms: C2_2  and  C4_5 
REMARK    3  A    between atoms: C3_3  and  O1_4 
REMARK    4  A    between atoms: C4_5  and  C5_6 
REMARK    5  A    between atoms: C5_6  and  C6_7 
REMARK    6  A    between atoms: C6_7  and  O2_8 
REMARK    7  A    between atoms: C6_7  and  C7_9 
REMARK    8  A    between atoms: C7_9  and  C9_11 
REMARK    9  A    between atoms: C10_12  and  O3_13 
REMARK   10  A    between atoms: O3_13  and  C11_14 
REMARK   11  A    between atoms: C13_17  and  O5_18 
REMARK   12  A    between atoms: C14_19  and  O6_20 
REMARK   13  A    between atoms: C15_21  and  O7_22 
ROOT
HETATM    1  C9  UNL     1      -3.346  49.309 -19.440  1.00  0.00     0.029 C 
HETATM    2  C10 UNL     1      -3.245  47.768 -19.818  1.00  0.00     0.130 C 
HETATM    3  C16 UNL     1      -3.482  47.659 -21.341  1.00  0.00     0.038 C 
HETATM    4  C17 UNL     1      -3.417  49.101 -21.815  1.00  0.00     0.001 C 
HETATM    5  C18 UNL     1      -3.935  49.459 -23.206  1.00  0.00    -0.004 C 
HETATM    6  C19 UNL     1      -3.486  48.470 -24.285  1.00  0.00     0.010 C 
HETATM    7  C20 UNL     1      -3.595  49.083 -25.670  1.00  0.00     0.035 C 
HETATM    8  C21 UNL     1      -2.552  50.158 -25.733  1.00  0.00    -0.068 C 
HETATM    9  C22 UNL     1      -1.492  50.013 -26.549  1.00  0.00     0.053 C 
HETATM   10  C23 UNL     1      -0.361  50.970 -26.538  1.00  0.00     0.149 C 
HETATM   11  O8  UNL     1       0.511  50.878 -27.399  1.00  0.00    -0.293 OA
HETATM   12  C24 UNL     1      -0.330  52.043 -25.477  1.00  0.00     0.084 C 
HETATM   13  C25 UNL     1      -1.273  51.744 -24.311  1.00  0.00     0.022 C 
HETATM   14  C26 UNL     1      -2.702  51.316 -24.748  1.00  0.00    -0.016 C 
HETATM   15  C27 UNL     1      -3.367  52.493 -25.514  1.00  0.00     0.020 C 
HETATM   16  C28 UNL     1      -3.646  50.972 -23.512  1.00  0.00     0.002 C 
HETATM   17  C29 UNL     1      -3.284  51.771 -22.220  1.00  0.00     0.007 C 
HETATM   18  C30 UNL     1      -4.164  51.396 -21.025  1.00  0.00     0.010 C 
HETATM   19  C31 UNL     1      -4.128  49.888 -20.687  1.00  0.00    -0.034 C 
HETATM   20  C32 UNL     1      -5.638  49.509 -20.513  1.00  0.00     0.016 C 
ENDROOT
BRANCH   2  21
HETATM   21  O3  UNL     1      -4.282  47.041 -19.161  1.00  0.00    -0.353 OA
BRANCH  21  22
HETATM   22  C11 UNL     1      -4.247  45.633 -19.401  1.00  0.00     0.291 C 
HETATM   23  O4  UNL     1      -5.512  45.246 -19.955  1.00  0.00    -0.356 OA
HETATM   24  C12 UNL     1      -5.617  43.840 -20.187  1.00  0.00     0.205 C 
HETATM   25  C13 UNL     1      -5.530  43.095 -18.857  1.00  0.00     0.173 C 
HETATM   26  C14 UNL     1      -4.199  43.419 -18.180  1.00  0.00     0.182 C 
HETATM   27  C15 UNL     1      -3.983  44.931 -18.052  1.00  0.00     0.204 C 
BRANCH  25  28
HETATM   28  O5  UNL     1      -6.594  43.498 -17.976  1.00  0.00    -0.391 OA
HETATM   29  H24 UNL     1      -6.933  44.358 -18.304  1.00  0.00     0.210 HD
ENDBRANCH  25  28
BRANCH  26  30
HETATM   30  O6  UNL     1      -4.156  42.837 -16.866  1.00  0.00    -0.390 OA
HETATM   31  H26 UNL     1      -5.079  42.866 -16.535  1.00  0.00     0.210 HD
ENDBRANCH  26  30
BRANCH  27  32
HETATM   32  O7  UNL     1      -2.634  45.151 -17.593  1.00  0.00    -0.388 OA
HETATM   33  H28 UNL     1      -2.548  44.590 -16.799  1.00  0.00     0.210 HD
ENDBRANCH  27  32
ENDBRANCH  21  22
ENDBRANCH   2  21
BRANCH   1  34
HETATM   34  C7  UNL     1      -1.913  49.863 -19.076  1.00  0.00     0.017 C 
HETATM   35  C8  UNL     1      -0.842  48.756 -19.269  1.00  0.00     0.013 C 
BRANCH  34  36
HETATM   36  C6  UNL     1      -1.748  50.472 -17.656  1.00  0.00     0.122 C 
BRANCH  36  37
HETATM   37  C5  UNL     1      -0.436  51.245 -17.437  1.00  0.00     0.032 C 
BRANCH  37  38
HETATM   38  C4  UNL     1       0.495  50.526 -16.448  1.00  0.00     0.009 C 
BRANCH  38  39
HETATM   39  C2  UNL     1       1.324  51.501 -15.587  1.00  0.00     0.005 C 
HETATM   40  C1  UNL     1       0.508  52.055 -14.414  1.00  0.00     0.012 C 
BRANCH  39  41
HETATM   41  C3  UNL     1       1.879  52.651 -16.440  1.00  0.00     0.168 C 
BRANCH  41  42
HETATM   42  O1  UNL     1       3.185  53.033 -16.034  1.00  0.00    -0.400 OA
HETATM   43  H7  UNL     1       3.118  53.448 -15.159  1.00  0.00     0.209 HD
ENDBRANCH  41  42
ENDBRANCH  39  41
ENDBRANCH  38  39
ENDBRANCH  37  38
ENDBRANCH  36  37
BRANCH  36  44
HETATM   44  O2  UNL     1      -2.865  51.317 -17.357  1.00  0.00    -0.395 OA
HETATM   45  H13 UNL     1      -2.688  52.205 -17.712  1.00  0.00     0.210 HD
ENDBRANCH  36  44
ENDBRANCH  34  36
ENDBRANCH   1  34
TORSDOF 13
ENDMDL
MODEL 6
REMARK minimizedAffinity -9.75341892
REMARK CNNscore 0.460181206
REMARK CNNaffinity 7.57737398
REMARK  13 active torsions:
REMARK  status: ('A' for Active; 'I' for Inactive)
REMARK    1  A    between atoms: C2_2  and  C3_3 
REMARK    2  A    between atoms: C2_2  and  C4_5 
REMARK    3  A    between atoms: C3_3  and  O1_4 
REMARK    4  A    between atoms: C4_5  and  C5_6 
REMARK    5  A    between atoms: C5_6  and  C6_7 
REMARK    6  A    between atoms: C6_7  and  O2_8 
REMARK    7  A    between atoms: C6_7  and  C7_9 
REMARK    8  A    between atoms: C7_9  and  C9_11 
REMARK    9  A    between atoms: C10_12  and  O3_13 
REMARK   10  A    between atoms: O3_13  and  C11_14 
REMARK   11  A    between atoms: C13_17  and  O5_18 
REMARK   12  A    between atoms: C14_19  and  O6_20 
REMARK   13  A    between atoms: C15_21  and  O7_22 
ROOT
HETATM    1  C9  UNL     1      -3.857  49.576 -22.394  1.00  0.00     0.029 C 
HETATM    2  C10 UNL     1      -4.604  48.822 -23.576  1.00  0.00     0.130 C 
HETATM    3  C16 UNL     1      -4.355  49.639 -24.864  1.00  0.00     0.038 C 
HETATM    4  C17 UNL     1      -3.275  50.627 -24.454  1.00  0.00     0.001 C 
HETATM    5  C18 UNL     1      -2.986  51.835 -25.341  1.00  0.00    -0.004 C 
HETATM    6  C19 UNL     1      -2.920  51.483 -26.829  1.00  0.00     0.010 C 
HETATM    7  C20 UNL     1      -2.181  52.553 -27.614  1.00  0.00     0.035 C 
HETATM    8  C21 UNL     1      -0.749  52.475 -27.177  1.00  0.00    -0.068 C 
HETATM    9  C22 UNL     1       0.191  52.056 -28.044  1.00  0.00     0.053 C 
HETATM   10  C23 UNL     1       1.591  51.818 -27.623  1.00  0.00     0.149 C 
HETATM   11  O8  UNL     1       2.442  51.578 -28.476  1.00  0.00    -0.293 OA
HETATM   12  C24 UNL     1       1.930  51.898 -26.154  1.00  0.00     0.084 C 
HETATM   13  C25 UNL     1       0.691  51.824 -25.261  1.00  0.00     0.022 C 
HETATM   14  C26 UNL     1      -0.466  52.763 -25.705  1.00  0.00    -0.016 C 
HETATM   15  C27 UNL     1       0.017  54.236 -25.604  1.00  0.00     0.020 C 
HETATM   16  C28 UNL     1      -1.755  52.630 -24.778  1.00  0.00     0.002 C 
HETATM   17  C29 UNL     1      -1.418  52.224 -23.309  1.00  0.00     0.007 C 
HETATM   18  C30 UNL     1      -2.666  52.050 -22.441  1.00  0.00     0.010 C 
HETATM   19  C31 UNL     1      -3.670  51.021 -23.010  1.00  0.00    -0.034 C 
HETATM   20  C32 UNL     1      -5.051  51.755 -22.915  1.00  0.00     0.016 C 
ENDROOT
BRANCH   2  21
HETATM   21  O3  UNL     1      -6.009  48.811 -23.331  1.00  0.00    -0.353 OA
BRANCH  21  22
HETATM   22  C11 UNL     1      -6.728  47.856 -24.111  1.00  0.00     0.291 C 
HETATM   23  O4  UNL     1      -6.410  48.081 -25.491  1.00  0.00    -0.356 OA
HETATM   24  C12 UNL     1      -7.118  47.215 -26.380  1.00  0.00     0.205 C 
HETATM   25  C13 UNL     1      -8.616  47.490 -26.276  1.00  0.00     0.173 C 
HETATM   26  C14 UNL     1      -9.077  47.259 -24.837  1.00  0.00     0.182 C 
HETATM   27  C15 UNL     1      -8.234  48.061 -23.839  1.00  0.00     0.204 C 
BRANCH  25  28
HETATM   28  O5  UNL     1      -8.910  48.854 -26.630  1.00  0.00    -0.391 OA
HETATM   29  H24 UNL     1      -8.073  49.361 -26.555  1.00  0.00     0.210 HD
ENDBRANCH  25  28
BRANCH  26  30
HETATM   30  O6  UNL     1     -10.453  47.644 -24.689  1.00  0.00    -0.390 OA
HETATM   31  H26 UNL     1     -10.583  48.401 -25.300  1.00  0.00     0.210 HD
ENDBRANCH  26  30
BRANCH  27  32
HETATM   32  O7  UNL     1      -8.596  47.636 -22.509  1.00  0.00    -0.388 OA
HETATM   33  H28 UNL     1      -9.569  47.715 -22.480  1.00  0.00     0.210 HD
ENDBRANCH  27  32
ENDBRANCH  21  22
ENDBRANCH   2  21
BRANCH   1  34
HETATM   34  C7  UNL     1      -2.597  48.739 -21.940  1.00  0.00     0.017 C 
HETATM   35  C8  UNL     1      -2.919  47.222 -21.970  1.00  0.00     0.013 C 
BRANCH  34  36
HETATM   36  C6  UNL     1      -1.996  49.093 -20.551  1.00  0.00     0.122 C 
BRANCH  36  37
HETATM   37  C5  UNL     1      -0.583  49.697 -20.596  1.00  0.00     0.032 C 
BRANCH  37  38
HETATM   38  C4  UNL     1      -0.393  50.790 -19.532  1.00  0.00     0.009 C 
BRANCH  38  39
HETATM   39  C2  UNL     1       0.122  52.119 -20.123  1.00  0.00     0.005 C 
HETATM   40  C1  UNL     1       1.072  51.884 -21.302  1.00  0.00     0.012 C 
BRANCH  39  41
HETATM   41  C3  UNL     1       0.811  52.969 -19.046  1.00  0.00     0.168 C 
BRANCH  41  42
HETATM   42  O1  UNL     1       1.458  54.106 -19.597  1.00  0.00    -0.400 OA
HETATM   43  H7  UNL     1       2.214  53.797 -20.122  1.00  0.00     0.209 HD
ENDBRANCH  41  42
ENDBRANCH  39  41
ENDBRANCH  38  39
ENDBRANCH  37  38
ENDBRANCH  36  37
BRANCH  36  44
HETATM   44  O2  UNL     1      -2.880  49.977 -19.849  1.00  0.00    -0.395 OA
HETATM   45  H13 UNL     1      -2.685  50.890 -20.119  1.00  0.00     0.210 HD
ENDBRANCH  36  44
ENDBRANCH  34  36
ENDBRANCH   1  34
TORSDOF 13
ENDMDL
MODEL 7
REMARK minimizedAffinity -7.3850708
REMARK CNNscore 0.416228056
REMARK CNNaffinity 6.67022848
REMARK  13 active torsions:
REMARK  status: ('A' for Active; 'I' for Inactive)
REMARK    1  A    between atoms: C2_2  and  C3_3 
REMARK    2  A    between atoms: C2_2  and  C4_5 
REMARK    3  A    between atoms: C3_3  and  O1_4 
REMARK    4  A    between atoms: C4_5  and  C5_6 
REMARK    5  A    between atoms: C5_6  and  C6_7 
REMARK    6  A    between atoms: C6_7  and  O2_8 
REMARK    7  A    between atoms: C6_7  and  C7_9 
REMARK    8  A    between atoms: C7_9  and  C9_11 
REMARK    9  A    between atoms: C10_12  and  O3_13 
REMARK   10  A    between atoms: O3_13  and  C11_14 
REMARK   11  A    between atoms: C13_17  and  O5_18 
REMARK   12  A    between atoms: C14_19  and  O6_20 
REMARK   13  A    between atoms: C15_21  and  O7_22 
ROOT
HETATM    1  C9  UNL     1      -1.296  53.212  -9.256  1.00  0.00     0.029 C 
HETATM    2  C10 UNL     1      -1.028  52.734 -10.747  1.00  0.00     0.130 C 
HETATM    3  C16 UNL     1       0.154  53.570 -11.287  1.00  0.00     0.038 C 
HETATM    4  C17 UNL     1       0.695  54.260 -10.046  1.00  0.00     0.001 C 
HETATM    5  C18 UNL     1       1.654  55.438 -10.200  1.00  0.00    -0.004 C 
HETATM    6  C19 UNL     1       2.739  55.193 -11.251  1.00  0.00     0.010 C 
HETATM    7  C20 UNL     1       3.919  56.129 -11.050  1.00  0.00     0.035 C 
HETATM    8  C21 UNL     1       4.576  55.703  -9.772  1.00  0.00    -0.068 C 
HETATM    9  C22 UNL     1       5.804  55.153  -9.803  1.00  0.00     0.053 C 
HETATM   10  C23 UNL     1       6.433  54.579  -8.592  1.00  0.00     0.149 C 
HETATM   11  O8  UNL     1       7.608  54.221  -8.638  1.00  0.00    -0.293 OA
HETATM   12  C24 UNL     1       5.612  54.472  -7.329  1.00  0.00     0.084 C 
HETATM   13  C25 UNL     1       4.112  54.606  -7.592  1.00  0.00     0.022 C 
HETATM   14  C26 UNL     1       3.735  55.809  -8.502  1.00  0.00    -0.016 C 
HETATM   15  C27 UNL     1       4.139  57.127  -7.786  1.00  0.00     0.020 C 
HETATM   16  C28 UNL     1       2.170  55.896  -8.788  1.00  0.00     0.002 C 
HETATM   17  C29 UNL     1       1.299  55.315  -7.630  1.00  0.00     0.007 C 
HETATM   18  C30 UNL     1      -0.200  55.357  -7.938  1.00  0.00     0.010 C 
HETATM   19  C31 UNL     1      -0.579  54.622  -9.245  1.00  0.00    -0.034 C 
HETATM   20  C32 UNL     1      -1.519  55.635  -9.983  1.00  0.00     0.016 C 
ENDROOT
BRANCH   2  21
HETATM   21  O3  UNL     1      -2.169  53.016 -11.558  1.00  0.00    -0.353 OA
BRANCH  21  22
HETATM   22  C11 UNL     1      -2.717  51.870 -12.210  1.00  0.00     0.291 C 
HETATM   23  O4  UNL     1      -1.808  50.776 -12.022  1.00  0.00    -0.356 OA
HETATM   24  C12 UNL     1      -2.224  49.580 -12.682  1.00  0.00     0.205 C 
HETATM   25  C13 UNL     1      -2.249  49.811 -14.191  1.00  0.00     0.173 C 
HETATM   26  C14 UNL     1      -3.212  50.953 -14.514  1.00  0.00     0.182 C 
HETATM   27  C15 UNL     1      -2.885  52.213 -13.705  1.00  0.00     0.204 C 
BRANCH  25  28
HETATM   28  O5  UNL     1      -0.942  50.172 -14.674  1.00  0.00    -0.391 OA
HETATM   29  H24 UNL     1      -0.423  50.483 -13.902  1.00  0.00     0.210 HD
ENDBRANCH  25  28
BRANCH  26  30
HETATM   30  O6  UNL     1      -3.146  51.276 -15.913  1.00  0.00    -0.390 OA
HETATM   31  H26 UNL     1      -2.215  51.115 -16.178  1.00  0.00     0.210 HD
ENDBRANCH  26  30
BRANCH  27  32
HETATM   32  O7  UNL     1      -3.947  53.165 -13.916  1.00  0.00    -0.388 OA
HETATM   33  H28 UNL     1      -4.032  53.232 -14.886  1.00  0.00     0.210 HD
ENDBRANCH  27  32
ENDBRANCH  21  22
ENDBRANCH   2  21
BRANCH   1  34
HETATM   34  C7  UNL     1      -0.845  52.085  -8.246  1.00  0.00     0.017 C 
HETATM   35  C8  UNL     1      -0.981  52.587  -6.783  1.00  0.00     0.013 C 
BRANCH  34  36
HETATM   36  C6  UNL     1       0.586  51.512  -8.443  1.00  0.00     0.122 C 
BRANCH  36  37
HETATM   37  C5  UNL     1       0.907  51.067  -9.880  1.00  0.00     0.032 C 
BRANCH  37  38
HETATM   38  C4  UNL     1       1.928  49.918  -9.908  1.00  0.00     0.009 C 
BRANCH  38  39
HETATM   39  C2  UNL     1       3.212  50.275 -10.685  1.00  0.00     0.005 C 
HETATM   40  C1  UNL     1       3.530  51.772 -10.595  1.00  0.00     0.012 C 
BRANCH  39  41
HETATM   41  C3  UNL     1       3.104  49.841 -12.154  1.00  0.00     0.168 C 
BRANCH  41  42
HETATM   42  O1  UNL     1       3.448  48.476 -12.333  1.00  0.00    -0.400 OA
HETATM   43  H7  UNL     1       4.399  48.381 -12.167  1.00  0.00     0.209 HD
ENDBRANCH  41  42
ENDBRANCH  39  41
ENDBRANCH  38  39
ENDBRANCH  37  38
ENDBRANCH  36  37
BRANCH  36  44
HETATM   44  O2  UNL     1       1.558  52.469  -8.003  1.00  0.00    -0.395 OA
HETATM   45  H13 UNL     1       1.747  53.080  -8.736  1.00  0.00     0.210 HD
ENDBRANCH  36  44
ENDBRANCH  34  36
ENDBRANCH   1  34
TORSDOF 13
ENDMDL
MODEL 8
REMARK minimizedAffinity -10.0263357
REMARK CNNscore 0.394910336
REMARK CNNaffinity 6.78340769
REMARK  13 active torsions:
REMARK  status: ('A' for Active; 'I' for Inactive)
REMARK    1  A    between atoms: C2_2  and  C3_3 
REMARK    2  A    between atoms: C2_2  and  C4_5 
REMARK    3  A    between atoms: C3_3  and  O1_4 
REMARK    4  A    between atoms: C4_5  and  C5_6 
REMARK    5  A    between atoms: C5_6  and  C6_7 
REMARK    6  A    between atoms: C6_7  and  O2_8 
REMARK    7  A    between atoms: C6_7  and  C7_9 
REMARK    8  A    between atoms: C7_9  and  C9_11 
REMARK    9  A    between atoms: C10_12  and  O3_13 
REMARK   10  A    between atoms: O3_13  and  C11_14 
REMARK   11  A    between atoms: C13_17  and  O5_18 
REMARK   12  A    between atoms: C14_19  and  O6_20 
REMARK   13  A    between atoms: C15_21  and  O7_22 
ROOT
HETATM    1  C9  UNL     1      -2.329  51.063 -23.466  1.00  0.00     0.029 C 
HETATM    2  C10 UNL     1      -3.416  52.030 -24.105  1.00  0.00     0.130 C 
HETATM    3  C16 UNL     1      -4.780  51.313 -23.995  1.00  0.00     0.038 C 
HETATM    4  C17 UNL     1      -4.493  50.143 -23.070  1.00  0.00     0.001 C 
HETATM    5  C18 UNL     1      -5.497  48.997 -22.973  1.00  0.00    -0.004 C 
HETATM    6  C19 UNL     1      -6.946  49.478 -22.872  1.00  0.00     0.010 C 
HETATM    7  C20 UNL     1      -7.847  48.391 -22.309  1.00  0.00     0.035 C 
HETATM    8  C21 UNL     1      -7.441  48.215 -20.876  1.00  0.00    -0.068 C 
HETATM    9  C22 UNL     1      -8.288  48.574 -19.894  1.00  0.00     0.053 C 
HETATM   10  C23 UNL     1      -7.881  48.562 -18.470  1.00  0.00     0.149 C 
HETATM   11  O8  UNL     1      -8.730  48.756 -17.602  1.00  0.00    -0.293 OA
HETATM   12  C24 UNL     1      -6.436  48.291 -18.130  1.00  0.00     0.084 C 
HETATM   13  C25 UNL     1      -5.509  48.460 -19.335  1.00  0.00     0.022 C 
HETATM   14  C26 UNL     1      -6.009  47.748 -20.623  1.00  0.00    -0.016 C 
HETATM   15  C27 UNL     1      -6.060  46.217 -20.364  1.00  0.00     0.020 C 
HETATM   16  C28 UNL     1      -5.042  47.979 -21.867  1.00  0.00     0.002 C 
HETATM   17  C29 UNL     1      -3.550  48.187 -21.457  1.00  0.00     0.007 C 
HETATM   18  C30 UNL     1      -2.638  48.458 -22.657  1.00  0.00     0.010 C 
HETATM   19  C31 UNL     1      -3.083  49.673 -23.503  1.00  0.00    -0.034 C 
HETATM   20  C32 UNL     1      -3.022  49.144 -24.976  1.00  0.00     0.016 C 
ENDROOT
BRANCH   2  21
HETATM   21  O3  UNL     1      -3.135  52.223 -25.491  1.00  0.00    -0.353 OA
BRANCH  21  22
HETATM   22  C11 UNL     1      -1.746  52.371 -25.788  1.00  0.00     0.291 C 
HETATM   23  O4  UNL     1      -1.288  53.583 -25.173  1.00  0.00    -0.356 OA
HETATM   24  C12 UNL     1       0.084  53.869 -25.449  1.00  0.00     0.205 C 
HETATM   25  C13 UNL     1       0.267  54.099 -26.947  1.00  0.00     0.173 C 
HETATM   26  C14 UNL     1      -0.175  52.851 -27.711  1.00  0.00     0.182 C 
HETATM   27  C15 UNL     1      -1.595  52.425 -27.323  1.00  0.00     0.204 C 
BRANCH  25  28
HETATM   28  O5  UNL     1      -0.534  55.208 -27.395  1.00  0.00    -0.391 OA
HETATM   29  H24 UNL     1      -1.229  55.356 -26.718  1.00  0.00     0.210 HD
ENDBRANCH  25  28
BRANCH  26  30
HETATM   30  O6  UNL     1      -0.139  53.096 -29.126  1.00  0.00    -0.390 OA
HETATM   31  H26 UNL     1      -0.373  54.043 -29.236  1.00  0.00     0.210 HD
ENDBRANCH  26  30
BRANCH  27  32
HETATM   32  O7  UNL     1      -1.855  51.142 -27.928  1.00  0.00    -0.388 OA
HETATM   33  H28 UNL     1      -1.637  51.264 -28.872  1.00  0.00     0.210 HD
ENDBRANCH  27  32
ENDBRANCH  21  22
ENDBRANCH   2  21
BRANCH   1  34
HETATM   34  C7  UNL     1      -1.830  51.658 -22.090  1.00  0.00     0.017 C 
HETATM   35  C8  UNL     1      -0.440  52.325 -22.265  1.00  0.00     0.013 C 
BRANCH  34  36
HETATM   36  C6  UNL     1      -1.760  50.668 -20.894  1.00  0.00     0.122 C 
BRANCH  36  37
HETATM   37  C5  UNL     1      -0.453  50.729 -20.085  1.00  0.00     0.032 C 
BRANCH  37  38
HETATM   38  C4  UNL     1      -0.687  51.245 -18.656  1.00  0.00     0.009 C 
BRANCH  38  39
HETATM   39  C2  UNL     1       0.228  52.432 -18.291  1.00  0.00     0.005 C 
HETATM   40  C1  UNL     1       1.064  52.893 -19.490  1.00  0.00     0.012 C 
BRANCH  39  41
HETATM   41  C3  UNL     1       1.142  52.078 -17.109  1.00  0.00     0.168 C 
BRANCH  41  42
HETATM   42  O1  UNL     1       1.347  53.184 -16.244  1.00  0.00    -0.400 OA
HETATM   43  H7  UNL     1       1.880  53.842 -16.718  1.00  0.00     0.209 HD
ENDBRANCH  41  42
ENDBRANCH  39  41
ENDBRANCH  38  39
ENDBRANCH  37  38
ENDBRANCH  36  37
BRANCH  36  44
HETATM   44  O2  UNL     1      -2.879  50.877 -20.024  1.00  0.00    -0.395 OA
HETATM   45  H13 UNL     1      -2.657  51.586 -19.396  1.00  0.00     0.210 HD
ENDBRANCH  36  44
ENDBRANCH  34  36
ENDBRANCH   1  34
TORSDOF 13
ENDMDL
MODEL 9
REMARK minimizedAffinity -9.10854626
REMARK CNNscore 0.390925348
REMARK CNNaffinity 6.32539558
REMARK  13 active torsions:
REMARK  status: ('A' for Active; 'I' for Inactive)
REMARK    1  A    between atoms: C2_2  and  C3_3 
REMARK    2  A    between atoms: C2_2  and  C4_5 
REMARK    3  A    between atoms: C3_3  and  O1_4 
REMARK    4  A    between atoms: C4_5  and  C5_6 
REMARK    5  A    between atoms: C5_6  and  C6_7 
REMARK    6  A    between atoms: C6_7  and  O2_8 
REMARK    7  A    between atoms: C6_7  and  C7_9 
REMARK    8  A    between atoms: C7_9  and  C9_11 
REMARK    9  A    between atoms: C10_12  and  O3_13 
REMARK   10  A    between atoms: O3_13  and  C11_14 
REMARK   11  A    between atoms: C13_17  and  O5_18 
REMARK   12  A    between atoms: C14_19  and  O6_20 
REMARK   13  A    between atoms: C15_21  and  O7_22 
ROOT
HETATM    1  C9  UNL     1      -3.990  49.724 -24.777  1.00  0.00     0.029 C 
HETATM    2  C10 UNL     1      -2.491  49.871 -24.270  1.00  0.00     0.130 C 
HETATM    3  C16 UNL     1      -2.486  49.519 -22.765  1.00  0.00     0.038 C 
HETATM    4  C17 UNL     1      -3.863  48.919 -22.536  1.00  0.00     0.001 C 
HETATM    5  C18 UNL     1      -4.382  48.751 -21.110  1.00  0.00    -0.004 C 
HETATM    6  C19 UNL     1      -3.331  48.181 -20.154  1.00  0.00     0.010 C 
HETATM    7  C20 UNL     1      -3.981  47.588 -18.915  1.00  0.00     0.035 C 
HETATM    8  C21 UNL     1      -4.725  46.371 -19.377  1.00  0.00    -0.068 C 
HETATM    9  C22 UNL     1      -4.308  45.150 -18.994  1.00  0.00     0.053 C 
HETATM   10  C23 UNL     1      -4.912  43.913 -19.540  1.00  0.00     0.149 C 
HETATM   11  O8  UNL     1      -4.600  42.828 -19.055  1.00  0.00    -0.293 OA
HETATM   12  C24 UNL     1      -5.910  44.029 -20.667  1.00  0.00     0.084 C 
HETATM   13  C25 UNL     1      -5.859  45.392 -21.358  1.00  0.00     0.022 C 
HETATM   14  C26 UNL     1      -5.856  46.598 -20.377  1.00  0.00    -0.016 C 
HETATM   15  C27 UNL     1      -7.188  46.600 -19.578  1.00  0.00     0.020 C 
HETATM   16  C28 UNL     1      -5.761  48.000 -21.127  1.00  0.00     0.002 C 
HETATM   17  C29 UNL     1      -6.399  47.980 -22.552  1.00  0.00     0.007 C 
HETATM   18  C30 UNL     1      -6.258  49.317 -23.284  1.00  0.00     0.010 C 
HETATM   19  C31 UNL     1      -4.791  49.792 -23.416  1.00  0.00    -0.034 C 
HETATM   20  C32 UNL     1      -4.845  51.294 -22.975  1.00  0.00     0.016 C 
ENDROOT
BRANCH   2  21
HETATM   21  O3  UNL     1      -2.067  51.227 -24.402  1.00  0.00    -0.353 OA
BRANCH  21  22
HETATM   22  C11 UNL     1      -1.244  51.469 -25.544  1.00  0.00     0.291 C 
HETATM   23  O4  UNL     1      -0.001  52.019 -25.085  1.00  0.00    -0.356 OA
HETATM   24  C12 UNL     1       0.891  52.358 -26.148  1.00  0.00     0.205 C 
HETATM   25  C13 UNL     1       0.270  53.460 -27.004  1.00  0.00     0.173 C 
HETATM   26  C14 UNL     1      -1.064  52.973 -27.569  1.00  0.00     0.182 C 
HETATM   27  C15 UNL     1      -1.992  52.457 -26.464  1.00  0.00     0.204 C 
BRANCH  25  28
HETATM   28  O5  UNL     1       0.023  54.639 -26.217  1.00  0.00    -0.391 OA
HETATM   29  H24 UNL     1       0.019  54.364 -25.275  1.00  0.00     0.210 HD
ENDBRANCH  25  28
BRANCH  26  30
HETATM   30  O6  UNL     1      -1.727  54.041 -28.264  1.00  0.00    -0.390 OA
HETATM   31  H26 UNL     1      -1.485  54.861 -27.782  1.00  0.00     0.210 HD
ENDBRANCH  26  30
BRANCH  27  32
HETATM   32  O7  UNL     1      -3.132  51.838 -27.093  1.00  0.00    -0.388 OA
HETATM   33  H28 UNL     1      -3.465  52.510 -27.718  1.00  0.00     0.210 HD
ENDBRANCH  27  32
ENDBRANCH  21  22
ENDBRANCH   2  21
BRANCH   1  34
HETATM   34  C7  UNL     1      -4.115  48.454 -25.709  1.00  0.00     0.017 C 
HETATM   35  C8  UNL     1      -2.823  48.274 -26.550  1.00  0.00     0.013 C 
BRANCH  34  36
HETATM   36  C6  UNL     1      -5.339  48.416 -26.664  1.00  0.00     0.122 C 
BRANCH  36  37
HETATM   37  C5  UNL     1      -5.020  47.968 -28.101  1.00  0.00     0.032 C 
BRANCH  37  38
HETATM   38  C4  UNL     1      -6.278  47.490 -28.845  1.00  0.00     0.009 C 
BRANCH  38  39
HETATM   39  C2  UNL     1      -6.603  48.347 -30.086  1.00  0.00     0.005 C 
HETATM   40  C1  UNL     1      -7.801  47.788 -30.861  1.00  0.00     0.012 C 
BRANCH  39  41
HETATM   41  C3  UNL     1      -5.380  48.465 -31.007  1.00  0.00     0.168 C 
BRANCH  41  42
HETATM   42  O1  UNL     1      -4.714  49.709 -30.852  1.00  0.00    -0.400 OA
HETATM   43  H7  UNL     1      -5.294  50.406 -31.199  1.00  0.00     0.209 HD
ENDBRANCH  41  42
ENDBRANCH  39  41
ENDBRANCH  38  39
ENDBRANCH  37  38
ENDBRANCH  36  37
BRANCH  36  44
HETATM   44  O2  UNL     1      -6.363  47.580 -26.111  1.00  0.00    -0.395 OA
HETATM   45  H13 UNL     1      -6.186  46.659 -26.370  1.00  0.00     0.210 HD
ENDBRANCH  36  44
ENDBRANCH  34  36
ENDBRANCH   1  34
TORSDOF 13
ENDMDL
