MODEL 1
REMARK minimizedAffinity -8.3301487
REMARK CNNscore 0.142982453
REMARK CNNaffinity 5.06213427
REMARK  15 active torsions:
REMARK  status: ('A' for Active; 'I' for Inactive)
REMARK    1  A    between atoms: C2_2  and  C3_3 
REMARK    2  A    between atoms: C3_3  and  C4_4 
REMARK    3  A    between atoms: C4_4  and  O1_5 
REMARK    4  A    between atoms: C4_4  and  C5_6 
REMARK    5  A    between atoms: C5_6  and  C6_7 
REMARK    6  A    between atoms: C6_7  and  O2_8 
REMARK    7  A    between atoms: C6_7  and  C7_9 
REMARK    8  A    between atoms: C7_9  and  C8_10 
REMARK    9  A    between atoms: C8_10  and  C9_12 
REMARK   10  A    between atoms: C9_12  and  C10_13 
REMARK   11  A    between atoms: C10_13  and  C11_14 
REMARK   12  A    between atoms: C25_29  and  O5_30 
REMARK   13  A    between atoms: C29_34  and  C30_35 
REMARK   14  A    between atoms: C30_35  and  N1_36 
REMARK   15  A    between atoms: C30_35  and  N2_37 
ROOT
HETATM    1  C11 UNL     1       9.469  13.275  19.204  1.00  0.00    -0.055 A 
HETATM    2  C12 UNL     1      10.103  13.533  20.421  1.00  0.00     0.010 A 
HETATM    3  C13 UNL     1       9.518  13.129  21.618  1.00  0.00     0.041 A 
HETATM    4  C14 UNL     1       8.270  12.501  21.632  1.00  0.00     0.120 A 
HETATM    5  O4  UNL     1       7.911  12.094  22.902  1.00  0.00    -0.258 OA
HETATM    6  C15 UNL     1       6.638  11.787  23.032  1.00  0.00     0.061 C 
HETATM    7  C16 UNL     1       5.471  11.571  22.903  1.00  0.00    -0.064 C 
HETATM    8  C17 UNL     1       4.147  11.449  22.285  1.00  0.00     0.044 C 
HETATM    9  C18 UNL     1       3.072  11.518  23.387  1.00  0.00     0.024 C 
HETATM   10  C19 UNL     1       3.050  10.122  24.013  1.00  0.00     0.002 C 
HETATM   11  C20 UNL     1       3.607   9.170  22.959  1.00  0.00     0.002 C 
HETATM   12  C21 UNL     1       3.938  10.027  21.734  1.00  0.00     0.024 C 
HETATM   13  C22 UNL     1       4.037  12.595  21.200  1.00  0.00     0.135 C 
HETATM   14  C23 UNL     1       2.654  12.591  20.606  1.00  0.00    -0.093 C 
HETATM   15  C24 UNL     1       1.559  12.342  20.167  1.00  0.00    -0.069 C 
HETATM   16  C25 UNL     1       0.289  11.694  19.762  1.00  0.00     0.230 C 
HETATM   17  C26 UNL     1      -0.488  12.331  18.622  1.00  0.00    -0.011 A 
HETATM   18  C27 UNL     1      -1.495  13.243  19.022  1.00  0.00     0.012 A 
HETATM   19  C28 UNL     1      -2.406  13.784  18.112  1.00  0.00     0.012 A 
HETATM   20  C29 UNL     1      -2.351  13.438  16.762  1.00  0.00     0.004 A 
HETATM   21  C31 UNL     1      -1.311  12.599  16.340  1.00  0.00     0.019 A 
HETATM   22  C32 UNL     1      -0.369  12.035  17.234  1.00  0.00    -0.043 A 
HETATM   23  C33 UNL     1       0.729  11.198  16.584  1.00  0.00     0.080 C 
HETATM   24  C34 UNL     1       1.951  12.022  16.342  1.00  0.00    -0.025 C 
HETATM   25  C35 UNL     1       2.127  13.073  15.503  1.00  0.00     0.096 C 
HETATM   26  N3  UNL     1       3.226  13.905  15.796  1.00  0.00    -0.364 N 
ATOM     27  H3  UNL     1       3.551  14.739  15.307  1.00  0.00     0.165 HD
HETATM   28  C36 UNL     1       3.714  13.334  16.847  1.00  0.00     0.060 C 
HETATM   29  C37 UNL     1       4.734  13.643  17.851  1.00  0.00     0.123 C 
HETATM   30  N4  UNL     1       4.734  12.690  18.727  1.00  0.00    -0.335 N 
HETATM   31  C38 UNL     1       3.781  11.637  18.224  1.00  0.00     0.107 C 
HETATM   32  C39 UNL     1       3.056  12.097  17.210  1.00  0.00     0.015 C 
HETATM   33  C40 UNL     1       5.254  12.677  20.119  1.00  0.00     0.251 C 
HETATM   34  O6  UNL     1       6.325  11.735  20.343  1.00  0.00    -0.321 OA
HETATM   35  C41 UNL     1       7.569  12.332  20.421  1.00  0.00     0.106 A 
HETATM   36  C42 UNL     1       8.195  12.685  19.214  1.00  0.00     0.047 A 
ENDROOT
BRANCH   1  37
HETATM   37  C10 UNL     1      10.190  13.575  17.905  1.00  0.00     0.046 C 
BRANCH  37  38
HETATM   38  C9  UNL     1      11.542  12.868  17.800  1.00  0.00     0.083 C 
BRANCH  38  39
HETATM   39  C8  UNL     1      12.715  13.822  17.669  1.00  0.00     0.129 C 
HETATM   40  O3  UNL     1      12.614  14.998  18.018  1.00  0.00    -0.298 OA
BRANCH  39  41
HETATM   41  C7  UNL     1      13.988  13.288  17.039  1.00  0.00     0.110 C 
BRANCH  41  42
HETATM   42  C6  UNL     1      14.973  12.792  18.102  1.00  0.00     0.127 C 
BRANCH  42  43
HETATM   43  C5  UNL     1      15.004  13.718  19.323  1.00  0.00     0.063 C 
BRANCH  43  44
HETATM   44  C4  UNL     1      15.690  13.107  20.558  1.00  0.00     0.120 C 
BRANCH  44  45
HETATM   45  C3  UNL     1      16.959  12.304  20.234  1.00  0.00     0.031 C 
BRANCH  45  46
HETATM   46  C2  UNL     1      18.221  13.161  20.023  1.00  0.00    -0.002 C 
HETATM   47  C1  UNL     1      18.961  12.877  18.724  1.00  0.00     0.005 C 
ENDBRANCH  45  46
ENDBRANCH  44  45
BRANCH  44  48
HETATM   48  O1  UNL     1      14.731  12.249  21.179  1.00  0.00    -0.395 OA
HETATM   49  H9  UNL     1      14.032  12.803  21.567  1.00  0.00     0.210 HD
ENDBRANCH  44  48
ENDBRANCH  43  44
ENDBRANCH  42  43
BRANCH  42  50
HETATM   50  O2  UNL     1      14.517  11.500  18.513  1.00  0.00    -0.395 OA
HETATM   51  H13 UNL     1      15.015  10.833  18.007  1.00  0.00     0.210 HD
ENDBRANCH  42  50
ENDBRANCH  41  42
ENDBRANCH  39  41
ENDBRANCH  38  39
ENDBRANCH  37  38
ENDBRANCH   1  37
BRANCH  16  52
HETATM   52  O5  UNL     1       0.604  10.329  19.476  1.00  0.00    -0.379 OA
HETATM   53  H32 UNL     1       0.372   9.834  20.285  1.00  0.00     0.211 HD
ENDBRANCH  16  52
BRANCH  20  54
HETATM   54  C30 UNL     1      -3.383  13.989  15.801  1.00  0.00     0.479 C 
BRANCH  54  55
HETATM   55  N1  UNL     1      -4.266  14.955  16.411  1.00  0.00     0.116 N 
HETATM   56  H36 UNL     1      -3.742  15.820  16.538  1.00  0.00     0.316 HD
HETATM   57  H37 UNL     1      -4.984  15.159  15.718  1.00  0.00     0.316 HD
ENDBRANCH  54  55
BRANCH  54  58
HETATM   58  N2  UNL     1      -4.294  12.984  15.343  1.00  0.00     0.116 N 
HETATM   59  H38 UNL     1      -4.832  12.672  16.146  1.00  0.00     0.316 HD
HETATM   60  H39 UNL     1      -3.769  12.178  15.011  1.00  0.00     0.316 HD
ENDBRANCH  54  58
ENDBRANCH  20  54
TORSDOF 15
ENDMDL
MODEL 2
REMARK minimizedAffinity -9.72542858
REMARK CNNscore 0.132466823
REMARK CNNaffinity 7.22353888
REMARK  15 active torsions:
REMARK  status: ('A' for Active; 'I' for Inactive)
REMARK    1  A    between atoms: C2_2  and  C3_3 
REMARK    2  A    between atoms: C3_3  and  C4_4 
REMARK    3  A    between atoms: C4_4  and  O1_5 
REMARK    4  A    between atoms: C4_4  and  C5_6 
REMARK    5  A    between atoms: C5_6  and  C6_7 
REMARK    6  A    between atoms: C6_7  and  O2_8 
REMARK    7  A    between atoms: C6_7  and  C7_9 
REMARK    8  A    between atoms: C7_9  and  C8_10 
REMARK    9  A    between atoms: C8_10  and  C9_12 
REMARK   10  A    between atoms: C9_12  and  C10_13 
REMARK   11  A    between atoms: C10_13  and  C11_14 
REMARK   12  A    between atoms: C25_29  and  O5_30 
REMARK   13  A    between atoms: C29_34  and  C30_35 
REMARK   14  A    between atoms: C30_35  and  N1_36 
REMARK   15  A    between atoms: C30_35  and  N2_37 
ROOT
HETATM    1  C11 UNL     1      -3.587   4.801  12.720  1.00  0.00    -0.055 A 
HETATM    2  C12 UNL     1      -4.818   4.516  13.314  1.00  0.00     0.010 A 
HETATM    3  C13 UNL     1      -5.462   5.473  14.092  1.00  0.00     0.041 A 
HETATM    4  C14 UNL     1      -4.874   6.718  14.333  1.00  0.00     0.120 A 
HETATM    5  O4  UNL     1      -5.712   7.556  15.043  1.00  0.00    -0.258 OA
HETATM    6  C15 UNL     1      -5.112   8.605  15.565  1.00  0.00     0.061 C 
HETATM    7  C16 UNL     1      -4.359   9.456  15.929  1.00  0.00    -0.064 C 
HETATM    8  C17 UNL     1      -3.120  10.215  16.129  1.00  0.00     0.044 C 
HETATM    9  C18 UNL     1      -3.271  11.100  17.381  1.00  0.00     0.024 C 
HETATM   10  C19 UNL     1      -4.088  12.309  16.921  1.00  0.00     0.002 C 
HETATM   11  C20 UNL     1      -3.886  12.415  15.413  1.00  0.00     0.002 C 
HETATM   12  C21 UNL     1      -2.949  11.269  15.020  1.00  0.00     0.024 C 
HETATM   13  C22 UNL     1      -1.944   9.161  16.218  1.00  0.00     0.135 C 
HETATM   14  C23 UNL     1      -0.657   9.874  16.534  1.00  0.00    -0.093 C 
HETATM   15  C24 UNL     1       0.277  10.630  16.653  1.00  0.00    -0.069 C 
HETATM   16  C25 UNL     1       1.186  11.800  16.633  1.00  0.00     0.230 C 
HETATM   17  C26 UNL     1       2.679  11.525  16.706  1.00  0.00    -0.011 A 
HETATM   18  C27 UNL     1       3.231  11.566  18.010  1.00  0.00     0.012 A 
HETATM   19  C28 UNL     1       4.608  11.503  18.233  1.00  0.00     0.012 A 
HETATM   20  C29 UNL     1       5.495  11.395  17.162  1.00  0.00     0.004 A 
HETATM   21  C31 UNL     1       4.959  11.273  15.872  1.00  0.00     0.019 A 
HETATM   22  C32 UNL     1       3.569  11.331  15.612  1.00  0.00    -0.043 A 
HETATM   23  C33 UNL     1       3.168  11.115  14.154  1.00  0.00     0.080 C 
HETATM   24  C34 UNL     1       2.817   9.685  13.907  1.00  0.00    -0.025 C 
HETATM   25  C35 UNL     1       3.611   8.586  13.948  1.00  0.00     0.096 C 
HETATM   26  N3  UNL     1       2.936   7.357  14.096  1.00  0.00    -0.364 N 
ATOM     27  H3  UNL     1       3.321   6.413  14.145  1.00  0.00     0.165 HD
HETATM   28  C36 UNL     1       1.704   7.740  14.151  1.00  0.00     0.060 C 
HETATM   29  C37 UNL     1       0.410   7.124  14.454  1.00  0.00     0.123 C 
HETATM   30  N4  UNL     1      -0.493   8.051  14.409  1.00  0.00    -0.335 N 
HETATM   31  C38 UNL     1       0.192   9.302  13.924  1.00  0.00     0.107 C 
HETATM   32  C39 UNL     1       1.513   9.158  13.941  1.00  0.00     0.015 C 
HETATM   33  C40 UNL     1      -1.856   8.081  15.001  1.00  0.00     0.251 C 
HETATM   34  O6  UNL     1      -2.921   8.175  14.031  1.00  0.00    -0.321 OA
HETATM   35  C41 UNL     1      -3.584   6.980  13.830  1.00  0.00     0.106 A 
HETATM   36  C42 UNL     1      -2.971   6.031  12.994  1.00  0.00     0.047 A 
ENDROOT
BRANCH   1  37
HETATM   37  C10 UNL     1      -2.977   3.812  11.747  1.00  0.00     0.046 C 
BRANCH  37  38
HETATM   38  C9  UNL     1      -1.755   4.371  11.019  1.00  0.00     0.083 C 
BRANCH  38  39
HETATM   39  C8  UNL     1      -0.439   3.807  11.524  1.00  0.00     0.129 C 
HETATM   40  O3  UNL     1      -0.323   2.608  11.780  1.00  0.00    -0.298 OA
BRANCH  39  41
HETATM   41  C7  UNL     1       0.699   4.782  11.759  1.00  0.00     0.110 C 
BRANCH  41  42
HETATM   42  C6  UNL     1       1.679   4.792  10.581  1.00  0.00     0.127 C 
BRANCH  42  43
HETATM   43  C5  UNL     1       2.777   5.846  10.765  1.00  0.00     0.063 C 
BRANCH  43  44
HETATM   44  C4  UNL     1       3.536   6.195   9.472  1.00  0.00     0.120 C 
BRANCH  44  45
HETATM   45  C3  UNL     1       3.054   7.485   8.793  1.00  0.00     0.031 C 
BRANCH  45  46
HETATM   46  C2  UNL     1       1.701   7.358   8.068  1.00  0.00    -0.002 C 
HETATM   47  C1  UNL     1       1.805   7.332   6.550  1.00  0.00     0.005 C 
ENDBRANCH  45  46
ENDBRANCH  44  45
BRANCH  44  48
HETATM   48  O1  UNL     1       3.356   5.093   8.581  1.00  0.00    -0.395 OA
HETATM   49  H9  UNL     1       3.852   4.333   8.930  1.00  0.00     0.210 HD
ENDBRANCH  44  48
ENDBRANCH  43  44
ENDBRANCH  42  43
BRANCH  42  50
HETATM   50  O2  UNL     1       2.284   3.497  10.540  1.00  0.00    -0.395 OA
HETATM   51  H13 UNL     1       1.797   2.960   9.889  1.00  0.00     0.210 HD
ENDBRANCH  42  50
ENDBRANCH  41  42
ENDBRANCH  39  41
ENDBRANCH  38  39
ENDBRANCH  37  38
ENDBRANCH   1  37
BRANCH  16  52
HETATM   52  O5  UNL     1       0.854  12.552  15.465  1.00  0.00    -0.379 OA
HETATM   53  H32 UNL     1       0.261  13.264  15.773  1.00  0.00     0.211 HD
ENDBRANCH  16  52
BRANCH  20  54
HETATM   54  C30 UNL     1       6.987  11.386  17.418  1.00  0.00     0.479 C 
BRANCH  54  55
HETATM   55  N1  UNL     1       7.758  10.999  16.259  1.00  0.00     0.116 N 
HETATM   56  H36 UNL     1       7.750  11.780  15.605  1.00  0.00     0.316 HD
HETATM   57  H37 UNL     1       8.721  10.907  16.578  1.00  0.00     0.316 HD
ENDBRANCH  54  55
BRANCH  54  58
HETATM   58  N2  UNL     1       7.370  10.402  18.386  1.00  0.00     0.116 N 
HETATM   59  H38 UNL     1       7.172   9.489  17.986  1.00  0.00     0.316 HD
HETATM   60  H39 UNL     1       6.782  10.494  19.211  1.00  0.00     0.316 HD
ENDBRANCH  54  58
ENDBRANCH  20  54
TORSDOF 15
ENDMDL
MODEL 3
REMARK minimizedAffinity -10.0650387
REMARK CNNscore 0.131277964
REMARK CNNaffinity 7.79340792
REMARK  15 active torsions:
REMARK  status: ('A' for Active; 'I' for Inactive)
REMARK    1  A    between atoms: C2_2  and  C3_3 
REMARK    2  A    between atoms: C3_3  and  C4_4 
REMARK    3  A    between atoms: C4_4  and  O1_5 
REMARK    4  A    between atoms: C4_4  and  C5_6 
REMARK    5  A    between atoms: C5_6  and  C6_7 
REMARK    6  A    between atoms: C6_7  and  O2_8 
REMARK    7  A    between atoms: C6_7  and  C7_9 
REMARK    8  A    between atoms: C7_9  and  C8_10 
REMARK    9  A    between atoms: C8_10  and  C9_12 
REMARK   10  A    between atoms: C9_12  and  C10_13 
REMARK   11  A    between atoms: C10_13  and  C11_14 
REMARK   12  A    between atoms: C25_29  and  O5_30 
REMARK   13  A    between atoms: C29_34  and  C30_35 
REMARK   14  A    between atoms: C30_35  and  N1_36 
REMARK   15  A    between atoms: C30_35  and  N2_37 
ROOT
HETATM    1  C11 UNL     1      -5.849   3.918  12.494  1.00  0.00    -0.055 A 
HETATM    2  C12 UNL     1      -5.490   3.233  11.331  1.00  0.00     0.010 A 
HETATM    3  C13 UNL     1      -4.188   3.304  10.846  1.00  0.00     0.041 A 
HETATM    4  C14 UNL     1      -3.227   4.095  11.483  1.00  0.00     0.120 A 
HETATM    5  O4  UNL     1      -1.979   3.954  10.907  1.00  0.00    -0.258 OA
HETATM    6  C15 UNL     1      -1.117   4.888  11.249  1.00  0.00     0.061 C 
HETATM    7  C16 UNL     1      -0.530   5.825  11.697  1.00  0.00    -0.064 C 
HETATM    8  C17 UNL     1      -0.248   7.044  12.462  1.00  0.00     0.044 C 
HETATM    9  C18 UNL     1       0.946   7.775  11.818  1.00  0.00     0.024 C 
HETATM   10  C19 UNL     1       2.186   7.026  12.308  1.00  0.00     0.002 C 
HETATM   11  C20 UNL     1       1.784   6.330  13.604  1.00  0.00     0.002 C 
HETATM   12  C21 UNL     1       0.316   6.690  13.851  1.00  0.00     0.024 C 
HETATM   13  C22 UNL     1      -1.585   7.888  12.494  1.00  0.00     0.135 C 
HETATM   14  C23 UNL     1      -1.328   9.206  13.173  1.00  0.00    -0.093 C 
HETATM   15  C24 UNL     1      -0.960  10.132  13.854  1.00  0.00    -0.069 C 
HETATM   16  C25 UNL     1      -0.255  11.019  14.809  1.00  0.00     0.230 C 
HETATM   17  C26 UNL     1      -1.019  12.220  15.342  1.00  0.00    -0.011 A 
HETATM   18  C27 UNL     1      -0.815  13.424  14.624  1.00  0.00     0.012 A 
HETATM   19  C28 UNL     1      -1.307  14.649  15.079  1.00  0.00     0.012 A 
HETATM   20  C29 UNL     1      -2.025  14.725  16.273  1.00  0.00     0.004 A 
HETATM   21  C31 UNL     1      -2.302  13.530  16.952  1.00  0.00     0.019 A 
HETATM   22  C32 UNL     1      -1.821  12.272  16.517  1.00  0.00    -0.043 A 
HETATM   23  C33 UNL     1      -2.277  11.075  17.348  1.00  0.00     0.080 C 
HETATM   24  C34 UNL     1      -3.491  10.445  16.749  1.00  0.00    -0.025 C 
HETATM   25  C35 UNL     1      -4.744  10.948  16.616  1.00  0.00     0.096 C 
HETATM   26  N3  UNL     1      -5.550  10.317  15.648  1.00  0.00    -0.364 N 
ATOM     27  H3  UNL     1      -6.514  10.519  15.382  1.00  0.00     0.165 HD
HETATM   28  C36 UNL     1      -4.749   9.415  15.188  1.00  0.00     0.060 C 
HETATM   29  C37 UNL     1      -4.743   8.463  14.074  1.00  0.00     0.123 C 
HETATM   30  N4  UNL     1      -3.605   7.846  14.083  1.00  0.00    -0.335 N 
HETATM   31  C38 UNL     1      -2.877   8.294  15.324  1.00  0.00     0.107 C 
HETATM   32  C39 UNL     1      -3.478   9.343  15.875  1.00  0.00     0.015 C 
HETATM   33  C40 UNL     1      -2.919   7.099  12.997  1.00  0.00     0.251 C 
HETATM   34  O6  UNL     1      -2.722   5.696  13.274  1.00  0.00    -0.321 OA
HETATM   35  C41 UNL     1      -3.602   4.876  12.593  1.00  0.00     0.106 A 
HETATM   36  C42 UNL     1      -4.902   4.748  13.112  1.00  0.00     0.047 A 
ENDROOT
BRANCH   1  37
HETATM   37  C10 UNL     1      -7.223   3.702  13.097  1.00  0.00     0.046 C 
BRANCH  37  38
HETATM   38  C9  UNL     1      -7.446   4.514  14.373  1.00  0.00     0.083 C 
BRANCH  38  39
HETATM   39  C8  UNL     1      -8.090   5.866  14.124  1.00  0.00     0.129 C 
HETATM   40  O3  UNL     1      -7.642   6.885  14.650  1.00  0.00    -0.298 OA
BRANCH  39  41
HETATM   41  C7  UNL     1      -9.335   5.902  13.257  1.00  0.00     0.110 C 
BRANCH  41  42
HETATM   42  C6  UNL     1     -10.274   7.039  13.673  1.00  0.00     0.127 C 
BRANCH  42  43
HETATM   43  C5  UNL     1     -11.211   7.448  12.530  1.00  0.00     0.063 C 
BRANCH  43  44
HETATM   44  C4  UNL     1     -11.931   8.789  12.758  1.00  0.00     0.120 C 
BRANCH  44  45
HETATM   45  C3  UNL     1     -13.418   8.648  13.115  1.00  0.00     0.031 C 
BRANCH  45  46
HETATM   46  C2  UNL     1     -14.000   7.242  12.880  1.00  0.00    -0.002 C 
HETATM   47  C1  UNL     1     -15.375   7.235  12.228  1.00  0.00     0.005 C 
ENDBRANCH  45  46
ENDBRANCH  44  45
BRANCH  44  48
HETATM   48  O1  UNL     1     -11.802   9.535  11.546  1.00  0.00    -0.395 OA
HETATM   49  H9  UNL     1     -10.871   9.799  11.447  1.00  0.00     0.210 HD
ENDBRANCH  44  48
ENDBRANCH  43  44
ENDBRANCH  42  43
BRANCH  42  50
HETATM   50  O2  UNL     1     -11.059   6.545  14.761  1.00  0.00    -0.395 OA
HETATM   51  H13 UNL     1     -10.639   6.839  15.590  1.00  0.00     0.210 HD
ENDBRANCH  42  50
ENDBRANCH  41  42
ENDBRANCH  39  41
ENDBRANCH  38  39
ENDBRANCH  37  38
ENDBRANCH   1  37
BRANCH  16  52
HETATM   52  O5  UNL     1       0.206  10.183  15.873  1.00  0.00    -0.379 OA
HETATM   53  H32 UNL     1       1.140   9.989  15.665  1.00  0.00     0.211 HD
ENDBRANCH  16  52
BRANCH  20  54
HETATM   54  C30 UNL     1      -2.500  16.069  16.781  1.00  0.00     0.479 C 
BRANCH  54  55
HETATM   55  N1  UNL     1      -1.460  16.827  17.436  1.00  0.00     0.116 N 
HETATM   56  H36 UNL     1      -0.833  17.183  16.716  1.00  0.00     0.316 HD
HETATM   57  H37 UNL     1      -1.916  17.643  17.841  1.00  0.00     0.316 HD
ENDBRANCH  54  55
BRANCH  54  58
HETATM   58  N2  UNL     1      -3.487  15.946  17.811  1.00  0.00     0.116 N 
HETATM   59  H38 UNL     1      -3.039  15.512  18.612  1.00  0.00     0.316 HD
HETATM   60  H39 UNL     1      -4.218  15.308  17.504  1.00  0.00     0.316 HD
ENDBRANCH  54  58
ENDBRANCH  20  54
TORSDOF 15
ENDMDL
MODEL 4
REMARK minimizedAffinity -7.63607454
REMARK CNNscore 0.124630861
REMARK CNNaffinity 5.23795319
REMARK  15 active torsions:
REMARK  status: ('A' for Active; 'I' for Inactive)
REMARK    1  A    between atoms: C2_2  and  C3_3 
REMARK    2  A    between atoms: C3_3  and  C4_4 
REMARK    3  A    between atoms: C4_4  and  O1_5 
REMARK    4  A    between atoms: C4_4  and  C5_6 
REMARK    5  A    between atoms: C5_6  and  C6_7 
REMARK    6  A    between atoms: C6_7  and  O2_8 
REMARK    7  A    between atoms: C6_7  and  C7_9 
REMARK    8  A    between atoms: C7_9  and  C8_10 
REMARK    9  A    between atoms: C8_10  and  C9_12 
REMARK   10  A    between atoms: C9_12  and  C10_13 
REMARK   11  A    between atoms: C10_13  and  C11_14 
REMARK   12  A    between atoms: C25_29  and  O5_30 
REMARK   13  A    between atoms: C29_34  and  C30_35 
REMARK   14  A    between atoms: C30_35  and  N1_36 
REMARK   15  A    between atoms: C30_35  and  N2_37 
ROOT
HETATM    1  C11 UNL     1     -17.789   2.221  13.123  1.00  0.00    -0.055 A 
HETATM    2  C12 UNL     1     -19.166   2.099  13.324  1.00  0.00     0.010 A 
HETATM    3  C13 UNL     1     -20.006   3.190  13.121  1.00  0.00     0.041 A 
HETATM    4  C14 UNL     1     -19.488   4.437  12.757  1.00  0.00     0.120 A 
HETATM    5  O4  UNL     1     -20.488   5.358  12.510  1.00  0.00    -0.258 OA
HETATM    6  C15 UNL     1     -20.075   6.606  12.473  1.00  0.00     0.061 C 
HETATM    7  C16 UNL     1     -19.472   7.636  12.486  1.00  0.00    -0.064 C 
HETATM    8  C17 UNL     1     -18.360   8.588  12.593  1.00  0.00     0.044 C 
HETATM    9  C18 UNL     1     -18.924   9.978  12.944  1.00  0.00     0.024 C 
HETATM   10  C19 UNL     1     -19.450  10.543  11.622  1.00  0.00     0.002 C 
HETATM   11  C20 UNL     1     -18.694   9.816  10.514  1.00  0.00     0.002 C 
HETATM   12  C21 UNL     1     -17.736   8.844  11.209  1.00  0.00     0.024 C 
HETATM   13  C22 UNL     1     -17.357   8.005  13.667  1.00  0.00     0.135 C 
HETATM   14  C23 UNL     1     -16.247   8.994  13.902  1.00  0.00    -0.093 C 
HETATM   15  C24 UNL     1     -15.389   9.841  13.850  1.00  0.00    -0.069 C 
HETATM   16  C25 UNL     1     -14.482  10.940  13.444  1.00  0.00     0.230 C 
HETATM   17  C26 UNL     1     -13.139  11.034  14.151  1.00  0.00    -0.011 A 
HETATM   18  C27 UNL     1     -13.113  11.904  15.269  1.00  0.00     0.012 A 
HETATM   19  C28 UNL     1     -11.923  12.231  15.923  1.00  0.00     0.012 A 
HETATM   20  C29 UNL     1     -10.707  11.704  15.490  1.00  0.00     0.004 A 
HETATM   21  C31 UNL     1     -10.728  10.781  14.434  1.00  0.00     0.019 A 
HETATM   22  C32 UNL     1     -11.916  10.425  13.751  1.00  0.00    -0.043 A 
HETATM   23  C33 UNL     1     -11.754   9.357  12.672  1.00  0.00     0.080 C 
HETATM   24  C34 UNL     1     -12.058   8.001  13.219  1.00  0.00    -0.025 C 
HETATM   25  C35 UNL     1     -11.392   7.284  14.159  1.00  0.00     0.096 C 
HETATM   26  N3  UNL     1     -12.133   6.254  14.772  1.00  0.00    -0.364 N 
ATOM     27  H3  UNL     1     -11.842   5.592  15.492  1.00  0.00     0.165 HD
HETATM   28  C36 UNL     1     -13.276   6.367  14.182  1.00  0.00     0.060 C 
HETATM   29  C37 UNL     1     -14.618   5.803  14.343  1.00  0.00     0.123 C 
HETATM   30  N4  UNL     1     -15.392   6.359  13.467  1.00  0.00    -0.335 N 
HETATM   31  C38 UNL     1     -14.515   7.219  12.595  1.00  0.00     0.107 C 
HETATM   32  C39 UNL     1     -13.305   7.356  13.127  1.00  0.00     0.015 C 
HETATM   33  C40 UNL     1     -16.875   6.466  13.437  1.00  0.00     0.251 C 
HETATM   34  O6  UNL     1     -17.494   5.800  12.316  1.00  0.00    -0.321 OA
HETATM   35  C41 UNL     1     -18.093   4.602  12.656  1.00  0.00     0.106 A 
HETATM   36  C42 UNL     1     -17.259   3.479  12.801  1.00  0.00     0.047 A 
ENDROOT
BRANCH   1  37
HETATM   37  C10 UNL     1     -16.910   0.987  13.190  1.00  0.00     0.046 C 
BRANCH  37  38
HETATM   38  C9  UNL     1     -15.612   1.225  13.962  1.00  0.00     0.083 C 
BRANCH  38  39
HETATM   39  C8  UNL     1     -15.819   1.399  15.455  1.00  0.00     0.129 C 
HETATM   40  O3  UNL     1     -16.264   2.452  15.913  1.00  0.00    -0.298 OA
BRANCH  39  41
HETATM   41  C7  UNL     1     -15.402   0.255  16.360  1.00  0.00     0.110 C 
BRANCH  41  42
HETATM   42  C6  UNL     1     -16.603  -0.606  16.765  1.00  0.00     0.127 C 
BRANCH  42  43
HETATM   43  C5  UNL     1     -16.733  -1.850  15.879  1.00  0.00     0.063 C 
BRANCH  43  44
HETATM   44  C4  UNL     1     -15.434  -2.666  15.747  1.00  0.00     0.120 C 
BRANCH  44  45
HETATM   45  C3  UNL     1     -15.227  -3.292  14.360  1.00  0.00     0.031 C 
BRANCH  45  46
HETATM   46  C2  UNL     1     -15.402  -2.312  13.185  1.00  0.00    -0.002 C 
HETATM   47  C1  UNL     1     -14.454  -2.556  12.020  1.00  0.00     0.005 C 
ENDBRANCH  45  46
ENDBRANCH  44  45
BRANCH  44  48
HETATM   48  O1  UNL     1     -15.497  -3.700  16.730  1.00  0.00    -0.395 OA
HETATM   49  H9  UNL     1     -15.413  -3.293  17.609  1.00  0.00     0.210 HD
ENDBRANCH  44  48
ENDBRANCH  43  44
ENDBRANCH  42  43
BRANCH  42  50
HETATM   50  O2  UNL     1     -16.374  -1.020  18.114  1.00  0.00    -0.395 OA
HETATM   51  H13 UNL     1     -16.854  -0.407  18.700  1.00  0.00     0.210 HD
ENDBRANCH  42  50
ENDBRANCH  41  42
ENDBRANCH  39  41
ENDBRANCH  38  39
ENDBRANCH  37  38
ENDBRANCH   1  37
BRANCH  16  52
HETATM   52  O5  UNL     1     -14.316  10.827  12.029  1.00  0.00    -0.379 OA
HETATM   53  H32 UNL     1     -14.944  11.465  11.642  1.00  0.00     0.211 HD
ENDBRANCH  16  52
BRANCH  20  54
HETATM   54  C30 UNL     1      -9.421  12.116  16.174  1.00  0.00     0.479 C 
BRANCH  54  55
HETATM   55  N1  UNL     1      -9.641  12.822  17.414  1.00  0.00     0.116 N 
HETATM   56  H36 UNL     1      -9.939  12.141  18.112  1.00  0.00     0.316 HD
HETATM   57  H37 UNL     1      -8.727  13.154  17.716  1.00  0.00     0.316 HD
ENDBRANCH  54  55
BRANCH  54  58
HETATM   58  N2  UNL     1      -8.674  13.066  15.406  1.00  0.00     0.116 N 
HETATM   59  H38 UNL     1      -9.223  13.918  15.358  1.00  0.00     0.316 HD
HETATM   60  H39 UNL     1      -8.576  12.727  14.452  1.00  0.00     0.316 HD
ENDBRANCH  54  58
ENDBRANCH  20  54
TORSDOF 15
ENDMDL
MODEL 5
REMARK minimizedAffinity -8.48293686
REMARK CNNscore 0.0973327234
REMARK CNNaffinity 5.16868353
REMARK  15 active torsions:
REMARK  status: ('A' for Active; 'I' for Inactive)
REMARK    1  A    between atoms: C2_2  and  C3_3 
REMARK    2  A    between atoms: C3_3  and  C4_4 
REMARK    3  A    between atoms: C4_4  and  O1_5 
REMARK    4  A    between atoms: C4_4  and  C5_6 
REMARK    5  A    between atoms: C5_6  and  C6_7 
REMARK    6  A    between atoms: C6_7  and  O2_8 
REMARK    7  A    between atoms: C6_7  and  C7_9 
REMARK    8  A    between atoms: C7_9  and  C8_10 
REMARK    9  A    between atoms: C8_10  and  C9_12 
REMARK   10  A    between atoms: C9_12  and  C10_13 
REMARK   11  A    between atoms: C10_13  and  C11_14 
REMARK   12  A    between atoms: C25_29  and  O5_30 
REMARK   13  A    between atoms: C29_34  and  C30_35 
REMARK   14  A    between atoms: C30_35  and  N1_36 
REMARK   15  A    between atoms: C30_35  and  N2_37 
ROOT
HETATM    1  C11 UNL     1       8.202  10.041  15.258  1.00  0.00    -0.055 A 
HETATM    2  C12 UNL     1       9.389  10.615  15.719  1.00  0.00     0.010 A 
HETATM    3  C13 UNL     1       9.464  11.136  17.007  1.00  0.00     0.041 A 
HETATM    4  C14 UNL     1       8.347  11.138  17.848  1.00  0.00     0.120 A 
HETATM    5  O4  UNL     1       8.652  11.608  19.110  1.00  0.00    -0.258 OA
HETATM    6  C15 UNL     1       7.602  11.926  19.837  1.00  0.00     0.061 C 
HETATM    7  C16 UNL     1       6.519  12.141  20.290  1.00  0.00    -0.064 C 
HETATM    8  C17 UNL     1       5.059  12.242  20.398  1.00  0.00     0.044 C 
HETATM    9  C18 UNL     1       4.708  13.267  21.494  1.00  0.00     0.024 C 
HETATM   10  C19 UNL     1       4.884  12.517  22.816  1.00  0.00     0.002 C 
HETATM   11  C20 UNL     1       4.738  11.034  22.491  1.00  0.00     0.002 C 
HETATM   12  C21 UNL     1       4.473  10.945  20.986  1.00  0.00     0.024 C 
HETATM   13  C22 UNL     1       4.515  12.616  18.961  1.00  0.00     0.135 C 
HETATM   14  C23 UNL     1       3.029  12.842  19.034  1.00  0.00    -0.093 C 
HETATM   15  C24 UNL     1       1.845  12.847  19.267  1.00  0.00    -0.069 C 
HETATM   16  C25 UNL     1       0.494  12.629  19.837  1.00  0.00     0.230 C 
HETATM   17  C26 UNL     1      -0.695  12.839  18.914  1.00  0.00    -0.011 A 
HETATM   18  C27 UNL     1      -1.271  14.132  18.967  1.00  0.00     0.012 A 
HETATM   19  C28 UNL     1      -2.466  14.437  18.312  1.00  0.00     0.012 A 
HETATM   20  C29 UNL     1      -3.139  13.463  17.574  1.00  0.00     0.004 A 
HETATM   21  C31 UNL     1      -2.540  12.202  17.448  1.00  0.00     0.019 A 
HETATM   22  C32 UNL     1      -1.328  11.861  18.096  1.00  0.00    -0.043 A 
HETATM   23  C33 UNL     1      -0.795  10.463  17.791  1.00  0.00     0.080 C 
HETATM   24  C34 UNL     1       0.200  10.507  16.678  1.00  0.00    -0.025 C 
HETATM   25  C35 UNL     1       0.016  10.823  15.372  1.00  0.00     0.096 C 
HETATM   26  N3  UNL     1       1.180  11.192  14.669  1.00  0.00    -0.364 N 
ATOM     27  H3  UNL     1       1.283  11.462  13.690  1.00  0.00     0.165 HD
HETATM   28  C36 UNL     1       2.082  11.098  15.588  1.00  0.00     0.060 C 
HETATM   29  C37 UNL     1       3.495  11.454  15.734  1.00  0.00     0.123 C 
HETATM   30  N4  UNL     1       3.857  11.166  16.943  1.00  0.00    -0.335 N 
HETATM   31  C38 UNL     1       2.691  10.463  17.589  1.00  0.00     0.107 C 
HETATM   32  C39 UNL     1       1.594  10.581  16.848  1.00  0.00     0.015 C 
HETATM   33  C40 UNL     1       5.011  11.663  17.737  1.00  0.00     0.251 C 
HETATM   34  O6  UNL     1       5.957  10.639  18.112  1.00  0.00    -0.321 OA
HETATM   35  C41 UNL     1       7.114  10.662  17.358  1.00  0.00     0.106 A 
HETATM   36  C42 UNL     1       7.066  10.080  16.079  1.00  0.00     0.047 A 
ENDROOT
BRANCH   1  37
HETATM   37  C10 UNL     1       8.184   9.335  13.916  1.00  0.00     0.046 C 
BRANCH  37  38
HETATM   38  C9  UNL     1       6.864   8.614  13.643  1.00  0.00     0.083 C 
BRANCH  38  39
HETATM   39  C8  UNL     1       6.438   8.663  12.187  1.00  0.00     0.129 C 
HETATM   40  O3  UNL     1       7.199   9.093  11.321  1.00  0.00    -0.298 OA
BRANCH  39  41
HETATM   41  C7  UNL     1       5.025   8.221  11.853  1.00  0.00     0.110 C 
BRANCH  41  42
HETATM   42  C6  UNL     1       4.984   6.748  11.434  1.00  0.00     0.127 C 
BRANCH  42  43
HETATM   43  C5  UNL     1       3.578   6.322  10.997  1.00  0.00     0.063 C 
BRANCH  43  44
HETATM   44  C4  UNL     1       3.555   5.409   9.757  1.00  0.00     0.120 C 
BRANCH  44  45
HETATM   45  C3  UNL     1       2.855   6.028   8.538  1.00  0.00     0.031 C 
BRANCH  45  46
HETATM   46  C2  UNL     1       2.318   7.454   8.766  1.00  0.00    -0.002 C 
HETATM   47  C1  UNL     1       3.086   8.538   8.024  1.00  0.00     0.005 C 
ENDBRANCH  45  46
ENDBRANCH  44  45
BRANCH  44  48
HETATM   48  O1  UNL     1       2.873   4.214  10.139  1.00  0.00    -0.395 OA
HETATM   49  H9  UNL     1       3.438   3.725  10.762  1.00  0.00     0.210 HD
ENDBRANCH  44  48
ENDBRANCH  43  44
ENDBRANCH  42  43
BRANCH  42  50
HETATM   50  O2  UNL     1       5.874   6.614  10.322  1.00  0.00    -0.395 OA
HETATM   51  H13 UNL     1       6.731   6.300  10.663  1.00  0.00     0.210 HD
ENDBRANCH  42  50
ENDBRANCH  41  42
ENDBRANCH  39  41
ENDBRANCH  38  39
ENDBRANCH  37  38
ENDBRANCH   1  37
BRANCH  16  52
HETATM   52  O5  UNL     1       0.496  11.311  20.389  1.00  0.00    -0.379 OA
HETATM   53  H32 UNL     1       0.666  11.429  21.343  1.00  0.00     0.211 HD
ENDBRANCH  16  52
BRANCH  20  54
HETATM   54  C30 UNL     1      -4.462  13.795  16.919  1.00  0.00     0.479 C 
BRANCH  54  55
HETATM   55  N1  UNL     1      -5.597  13.543  17.776  1.00  0.00     0.116 N 
HETATM   56  H36 UNL     1      -5.623  14.277  18.483  1.00  0.00     0.316 HD
HETATM   57  H37 UNL     1      -6.424  13.680  17.198  1.00  0.00     0.316 HD
ENDBRANCH  54  55
BRANCH  54  58
HETATM   58  N2  UNL     1      -4.737  12.959  15.789  1.00  0.00     0.116 N 
HETATM   59  H38 UNL     1      -4.852  12.010  16.133  1.00  0.00     0.316 HD
HETATM   60  H39 UNL     1      -3.930  12.951  15.171  1.00  0.00     0.316 HD
ENDBRANCH  54  58
ENDBRANCH  20  54
TORSDOF 15
ENDMDL
MODEL 6
REMARK minimizedAffinity -9.3400116
REMARK CNNscore 0.0846094415
REMARK CNNaffinity 6.21456146
REMARK  15 active torsions:
REMARK  status: ('A' for Active; 'I' for Inactive)
REMARK    1  A    between atoms: C2_2  and  C3_3 
REMARK    2  A    between atoms: C3_3  and  C4_4 
REMARK    3  A    between atoms: C4_4  and  O1_5 
REMARK    4  A    between atoms: C4_4  and  C5_6 
REMARK    5  A    between atoms: C5_6  and  C6_7 
REMARK    6  A    between atoms: C6_7  and  O2_8 
REMARK    7  A    between atoms: C6_7  and  C7_9 
REMARK    8  A    between atoms: C7_9  and  C8_10 
REMARK    9  A    between atoms: C8_10  and  C9_12 
REMARK   10  A    between atoms: C9_12  and  C10_13 
REMARK   11  A    between atoms: C10_13  and  C11_14 
REMARK   12  A    between atoms: C25_29  and  O5_30 
REMARK   13  A    between atoms: C29_34  and  C30_35 
REMARK   14  A    between atoms: C30_35  and  N1_36 
REMARK   15  A    between atoms: C30_35  and  N2_37 
ROOT
HETATM    1  C11 UNL     1       3.645  11.720  13.517  1.00  0.00    -0.055 A 
HETATM    2  C12 UNL     1       3.593  13.092  13.770  1.00  0.00     0.010 A 
HETATM    3  C13 UNL     1       2.623  13.615  14.621  1.00  0.00     0.041 A 
HETATM    4  C14 UNL     1       1.658  12.788  15.203  1.00  0.00     0.120 A 
HETATM    5  O4  UNL     1       0.852  13.480  16.086  1.00  0.00    -0.258 OA
HETATM    6  C15 UNL     1      -0.252  12.846  16.420  1.00  0.00     0.061 C 
HETATM    7  C16 UNL     1      -1.164  12.090  16.568  1.00  0.00    -0.064 C 
HETATM    8  C17 UNL     1      -2.010  10.899  16.432  1.00  0.00     0.044 C 
HETATM    9  C18 UNL     1      -3.457  11.268  16.813  1.00  0.00     0.024 C 
HETATM   10  C19 UNL     1      -3.481  11.268  18.343  1.00  0.00     0.002 C 
HETATM   11  C20 UNL     1      -2.329  10.374  18.791  1.00  0.00     0.002 C 
HETATM   12  C21 UNL     1      -1.657   9.862  17.514  1.00  0.00     0.024 C 
HETATM   13  C22 UNL     1      -1.843  10.382  14.947  1.00  0.00     0.135 C 
HETATM   14  C23 UNL     1      -2.774   9.223  14.714  1.00  0.00    -0.093 C 
HETATM   15  C24 UNL     1      -3.477   8.244  14.766  1.00  0.00    -0.069 C 
HETATM   16  C25 UNL     1      -4.267   7.067  15.198  1.00  0.00     0.230 C 
HETATM   17  C26 UNL     1      -4.552   5.997  14.157  1.00  0.00    -0.011 A 
HETATM   18  C27 UNL     1      -5.791   6.135  13.483  1.00  0.00     0.012 A 
HETATM   19  C28 UNL     1      -6.279   5.148  12.623  1.00  0.00     0.012 A 
HETATM   20  C29 UNL     1      -5.550   3.981  12.398  1.00  0.00     0.004 A 
HETATM   21  C31 UNL     1      -4.287   3.867  12.996  1.00  0.00     0.019 A 
HETATM   22  C32 UNL     1      -3.762   4.849  13.870  1.00  0.00    -0.043 A 
HETATM   23  C33 UNL     1      -2.345   4.583  14.375  1.00  0.00     0.080 C 
HETATM   24  C34 UNL     1      -1.339   5.283  13.522  1.00  0.00    -0.025 C 
HETATM   25  C35 UNL     1      -1.016   5.069  12.222  1.00  0.00     0.096 C 
HETATM   26  N3  UNL     1      -0.360   6.137  11.577  1.00  0.00    -0.364 N 
ATOM     27  H3  UNL     1      -0.023   6.199  10.616  1.00  0.00     0.165 HD
HETATM   28  C36 UNL     1      -0.299   7.015  12.521  1.00  0.00     0.060 C 
HETATM   29  C37 UNL     1       0.072   8.427  12.641  1.00  0.00     0.123 C 
HETATM   30  N4  UNL     1      -0.136   8.792  13.865  1.00  0.00    -0.335 N 
HETATM   31  C38 UNL     1      -0.525   7.552  14.628  1.00  0.00     0.107 C 
HETATM   32  C39 UNL     1      -0.787   6.547  13.800  1.00  0.00     0.015 C 
HETATM   33  C40 UNL     1      -0.312  10.153  14.437  1.00  0.00     0.251 C 
HETATM   34  O6  UNL     1       0.705  10.533  15.387  1.00  0.00    -0.321 OA
HETATM   35  C41 UNL     1       1.631  11.419  14.872  1.00  0.00     0.106 A 
HETATM   36  C42 UNL     1       2.652  10.892  14.062  1.00  0.00     0.047 A 
ENDROOT
BRANCH   1  37
HETATM   37  C10 UNL     1       4.800  11.148  12.720  1.00  0.00     0.046 C 
BRANCH  37  38
HETATM   38  C9  UNL     1       4.474   9.795  12.088  1.00  0.00     0.083 C 
BRANCH  38  39
HETATM   39  C8  UNL     1       5.495   8.718  12.405  1.00  0.00     0.129 C 
HETATM   40  O3  UNL     1       5.615   7.728  11.682  1.00  0.00    -0.298 OA
BRANCH  39  41
HETATM   41  C7  UNL     1       6.314   8.878  13.673  1.00  0.00     0.110 C 
BRANCH  41  42
HETATM   42  C6  UNL     1       7.267   7.695  13.877  1.00  0.00     0.127 C 
BRANCH  42  43
HETATM   43  C5  UNL     1       8.445   8.066  14.785  1.00  0.00     0.063 C 
BRANCH  43  44
HETATM   44  C4  UNL     1       8.048   8.344  16.246  1.00  0.00     0.120 C 
BRANCH  44  45
HETATM   45  C3  UNL     1       8.253   9.803  16.683  1.00  0.00     0.031 C 
BRANCH  45  46
HETATM   46  C2  UNL     1       9.448  10.024  17.628  1.00  0.00    -0.002 C 
HETATM   47  C1  UNL     1       9.912  11.471  17.723  1.00  0.00     0.005 C 
ENDBRANCH  45  46
ENDBRANCH  44  45
BRANCH  44  48
HETATM   48  O1  UNL     1       8.850   7.488  17.060  1.00  0.00    -0.395 OA
HETATM   49  H9  UNL     1       8.556   6.571  16.923  1.00  0.00     0.210 HD
ENDBRANCH  44  48
ENDBRANCH  43  44
ENDBRANCH  42  43
BRANCH  42  50
HETATM   50  O2  UNL     1       6.506   6.660  14.505  1.00  0.00    -0.395 OA
HETATM   51  H13 UNL     1       6.198   6.051  13.809  1.00  0.00     0.210 HD
ENDBRANCH  42  50
ENDBRANCH  41  42
ENDBRANCH  39  41
ENDBRANCH  38  39
ENDBRANCH  37  38
ENDBRANCH   1  37
BRANCH  16  52
HETATM   52  O5  UNL     1      -3.592   6.520  16.332  1.00  0.00    -0.379 OA
HETATM   53  H32 UNL     1      -4.060   6.876  17.111  1.00  0.00     0.211 HD
ENDBRANCH  16  52
BRANCH  20  54
HETATM   54  C30 UNL     1      -6.121   2.897  11.508  1.00  0.00     0.479 C 
BRANCH  54  55
HETATM   55  N1  UNL     1      -7.053   2.034  12.195  1.00  0.00     0.116 N 
HETATM   56  H36 UNL     1      -7.920   2.554  12.326  1.00  0.00     0.316 HD
HETATM   57  H37 UNL     1      -7.272   1.280  11.545  1.00  0.00     0.316 HD
ENDBRANCH  54  55
BRANCH  54  58
HETATM   58  N2  UNL     1      -5.120   1.975  11.060  1.00  0.00     0.116 N 
HETATM   59  H38 UNL     1      -4.773   1.481  11.877  1.00  0.00     0.316 HD
HETATM   60  H39 UNL     1      -4.333   2.493  10.675  1.00  0.00     0.316 HD
ENDBRANCH  54  58
ENDBRANCH  20  54
TORSDOF 15
ENDMDL
MODEL 7
REMARK minimizedAffinity -8.42832851
REMARK CNNscore 0.0800302401
REMARK CNNaffinity 6.12766409
REMARK  15 active torsions:
REMARK  status: ('A' for Active; 'I' for Inactive)
REMARK    1  A    between atoms: C2_2  and  C3_3 
REMARK    2  A    between atoms: C3_3  and  C4_4 
REMARK    3  A    between atoms: C4_4  and  O1_5 
REMARK    4  A    between atoms: C4_4  and  C5_6 
REMARK    5  A    between atoms: C5_6  and  C6_7 
REMARK    6  A    between atoms: C6_7  and  O2_8 
REMARK    7  A    between atoms: C6_7  and  C7_9 
REMARK    8  A    between atoms: C7_9  and  C8_10 
REMARK    9  A    between atoms: C8_10  and  C9_12 
REMARK   10  A    between atoms: C9_12  and  C10_13 
REMARK   11  A    between atoms: C10_13  and  C11_14 
REMARK   12  A    between atoms: C25_29  and  O5_30 
REMARK   13  A    between atoms: C29_34  and  C30_35 
REMARK   14  A    between atoms: C30_35  and  N1_36 
REMARK   15  A    between atoms: C30_35  and  N2_37 
ROOT
HETATM    1  C11 UNL     1       3.547  12.702  13.843  1.00  0.00    -0.055 A 
HETATM    2  C12 UNL     1       3.324  14.063  14.062  1.00  0.00     0.010 A 
HETATM    3  C13 UNL     1       2.263  14.483  14.858  1.00  0.00     0.041 A 
HETATM    4  C14 UNL     1       1.375  13.559  15.417  1.00  0.00     0.120 A 
HETATM    5  O4  UNL     1       0.454  14.167  16.249  1.00  0.00    -0.258 OA
HETATM    6  C15 UNL     1      -0.582  13.414  16.549  1.00  0.00     0.061 C 
HETATM    7  C16 UNL     1      -1.405  12.559  16.674  1.00  0.00    -0.064 C 
HETATM    8  C17 UNL     1      -2.100  11.275  16.529  1.00  0.00     0.044 C 
HETATM    9  C18 UNL     1      -3.596  11.477  16.839  1.00  0.00     0.024 C 
HETATM   10  C19 UNL     1      -3.689  11.502  18.366  1.00  0.00     0.002 C 
HETATM   11  C20 UNL     1      -2.462  10.756  18.884  1.00  0.00     0.002 C 
HETATM   12  C21 UNL     1      -1.678  10.305  17.648  1.00  0.00     0.024 C 
HETATM   13  C22 UNL     1      -1.806  10.754  15.065  1.00  0.00     0.135 C 
HETATM   14  C23 UNL     1      -2.585   9.490  14.818  1.00  0.00    -0.093 C 
HETATM   15  C24 UNL     1      -3.171   8.436  14.862  1.00  0.00    -0.069 C 
HETATM   16  C25 UNL     1      -3.837   7.183  15.287  1.00  0.00     0.230 C 
HETATM   17  C26 UNL     1      -3.948   6.068  14.259  1.00  0.00    -0.011 A 
HETATM   18  C27 UNL     1      -5.162   6.048  13.530  1.00  0.00     0.012 A 
HETATM   19  C28 UNL     1      -5.492   4.996  12.672  1.00  0.00     0.012 A 
HETATM   20  C29 UNL     1      -4.623   3.919  12.505  1.00  0.00     0.004 A 
HETATM   21  C31 UNL     1      -3.383   3.964  13.159  1.00  0.00     0.019 A 
HETATM   22  C32 UNL     1      -3.017   5.016  14.033  1.00  0.00    -0.043 A 
HETATM   23  C33 UNL     1      -1.603   4.928  14.604  1.00  0.00     0.080 C 
HETATM   24  C34 UNL     1      -0.648   5.726  13.779  1.00  0.00    -0.025 C 
HETATM   25  C35 UNL     1      -0.243   5.528  12.499  1.00  0.00     0.096 C 
HETATM   26  N3  UNL     1       0.312   6.654  11.859  1.00  0.00    -0.364 N 
ATOM     27  H3  UNL     1       0.683   6.739  10.913  1.00  0.00     0.165 HD
HETATM   28  C36 UNL     1       0.228   7.550  12.785  1.00  0.00     0.060 C 
HETATM   29  C37 UNL     1       0.426   8.998  12.888  1.00  0.00     0.123 C 
HETATM   30  N4  UNL     1       0.122   9.357  14.094  1.00  0.00    -0.335 N 
HETATM   31  C38 UNL     1      -0.154   8.094  14.868  1.00  0.00     0.107 C 
HETATM   32  C39 UNL     1      -0.260   7.050  14.052  1.00  0.00     0.015 C 
HETATM   33  C40 UNL     1      -0.238  10.698  14.626  1.00  0.00     0.251 C 
HETATM   34  O6  UNL     1       0.684  11.211  15.611  1.00  0.00    -0.321 OA
HETATM   35  C41 UNL     1       1.523  12.191  15.116  1.00  0.00     0.106 A 
HETATM   36  C42 UNL     1       2.634  11.773  14.363  1.00  0.00     0.047 A 
ENDROOT
BRANCH   1  37
HETATM   37  C10 UNL     1       4.797  12.257  13.109  1.00  0.00     0.046 C 
BRANCH  37  38
HETATM   38  C9  UNL     1       6.082  12.613  13.856  1.00  0.00     0.083 C 
BRANCH  38  39
HETATM   39  C8  UNL     1       6.130  12.069  15.272  1.00  0.00     0.129 C 
HETATM   40  O3  UNL     1       6.244  12.826  16.236  1.00  0.00    -0.298 OA
BRANCH  39  41
HETATM   41  C7  UNL     1       6.094  10.562  15.447  1.00  0.00     0.110 C 
BRANCH  41  42
HETATM   42  C6  UNL     1       6.952  10.116  16.635  1.00  0.00     0.127 C 
BRANCH  42  43
HETATM   43  C5  UNL     1       8.380  10.667  16.542  1.00  0.00     0.063 C 
BRANCH  43  44
HETATM   44  C4  UNL     1       9.469   9.581  16.472  1.00  0.00     0.120 C 
BRANCH  44  45
HETATM   45  C3  UNL     1       8.923   8.160  16.271  1.00  0.00     0.031 C 
BRANCH  45  46
HETATM   46  C2  UNL     1       9.098   7.605  14.845  1.00  0.00    -0.002 C 
HETATM   47  C1  UNL     1      10.193   8.287  14.038  1.00  0.00     0.005 C 
ENDBRANCH  45  46
ENDBRANCH  44  45
BRANCH  44  48
HETATM   48  O1  UNL     1      10.190   9.643  17.703  1.00  0.00    -0.395 OA
HETATM   49  H9  UNL     1      10.703  10.469  17.716  1.00  0.00     0.210 HD
ENDBRANCH  44  48
ENDBRANCH  43  44
ENDBRANCH  42  43
BRANCH  42  50
HETATM   50  O2  UNL     1       6.329  10.640  17.811  1.00  0.00    -0.395 OA
HETATM   51  H13 UNL     1       5.770   9.938  18.190  1.00  0.00     0.210 HD
ENDBRANCH  42  50
ENDBRANCH  41  42
ENDBRANCH  39  41
ENDBRANCH  38  39
ENDBRANCH  37  38
ENDBRANCH   1  37
BRANCH  16  52
HETATM   52  O5  UNL     1      -3.154   6.738  16.461  1.00  0.00    -0.379 OA
HETATM   53  H32 UNL     1      -3.696   7.050  17.211  1.00  0.00     0.211 HD
ENDBRANCH  16  52
BRANCH  20  54
HETATM   54  C30 UNL     1      -5.022   2.760  11.616  1.00  0.00     0.479 C 
BRANCH  54  55
HETATM   55  N1  UNL     1      -5.010   3.094  10.211  1.00  0.00     0.116 N 
HETATM   56  H36 UNL     1      -4.037   3.148   9.912  1.00  0.00     0.316 HD
HETATM   57  H37 UNL     1      -5.409   2.292   9.726  1.00  0.00     0.316 HD
ENDBRANCH  54  55
BRANCH  54  58
HETATM   58  N2  UNL     1      -6.379   2.354  11.825  1.00  0.00     0.116 N 
HETATM   59  H38 UNL     1      -6.976   3.121  11.530  1.00  0.00     0.316 HD
HETATM   60  H39 UNL     1      -6.543   2.222  12.820  1.00  0.00     0.316 HD
ENDBRANCH  54  58
ENDBRANCH  20  54
TORSDOF 15
ENDMDL
MODEL 8
REMARK minimizedAffinity -8.84853172
REMARK CNNscore 0.0788693056
REMARK CNNaffinity 6.4806366
REMARK  15 active torsions:
REMARK  status: ('A' for Active; 'I' for Inactive)
REMARK    1  A    between atoms: C2_2  and  C3_3 
REMARK    2  A    between atoms: C3_3  and  C4_4 
REMARK    3  A    between atoms: C4_4  and  O1_5 
REMARK    4  A    between atoms: C4_4  and  C5_6 
REMARK    5  A    between atoms: C5_6  and  C6_7 
REMARK    6  A    between atoms: C6_7  and  O2_8 
REMARK    7  A    between atoms: C6_7  and  C7_9 
REMARK    8  A    between atoms: C7_9  and  C8_10 
REMARK    9  A    between atoms: C8_10  and  C9_12 
REMARK   10  A    between atoms: C9_12  and  C10_13 
REMARK   11  A    between atoms: C10_13  and  C11_14 
REMARK   12  A    between atoms: C25_29  and  O5_30 
REMARK   13  A    between atoms: C29_34  and  C30_35 
REMARK   14  A    between atoms: C30_35  and  N1_36 
REMARK   15  A    between atoms: C30_35  and  N2_37 
ROOT
HETATM    1  C11 UNL     1       5.173  10.575  16.319  1.00  0.00    -0.055 A 
HETATM    2  C12 UNL     1       6.313   9.880  15.909  1.00  0.00     0.010 A 
HETATM    3  C13 UNL     1       6.280   9.089  14.764  1.00  0.00     0.041 A 
HETATM    4  C14 UNL     1       5.101   8.938  14.029  1.00  0.00     0.120 A 
HETATM    5  O4  UNL     1       5.301   8.197  12.880  1.00  0.00    -0.258 OA
HETATM    6  C15 UNL     1       4.194   7.760  12.319  1.00  0.00     0.061 C 
HETATM    7  C16 UNL     1       3.076   7.484  12.005  1.00  0.00    -0.064 C 
HETATM    8  C17 UNL     1       1.611   7.406  12.028  1.00  0.00     0.044 C 
HETATM    9  C18 UNL     1       1.163   6.178  11.212  1.00  0.00     0.024 C 
HETATM   10  C19 UNL     1       1.245   6.617   9.749  1.00  0.00     0.002 C 
HETATM   11  C20 UNL     1       1.144   8.140   9.751  1.00  0.00     0.002 C 
HETATM   12  C21 UNL     1       0.998   8.561  11.216  1.00  0.00     0.024 C 
HETATM   13  C22 UNL     1       1.175   7.369  13.548  1.00  0.00     0.135 C 
HETATM   14  C23 UNL     1      -0.315   7.177  13.635  1.00  0.00    -0.093 C 
HETATM   15  C24 UNL     1      -1.513   7.156  13.496  1.00  0.00    -0.069 C 
HETATM   16  C25 UNL     1      -2.901   7.286  12.993  1.00  0.00     0.230 C 
HETATM   17  C26 UNL     1      -4.018   7.317  14.023  1.00  0.00    -0.011 A 
HETATM   18  C27 UNL     1      -4.613   6.061  14.296  1.00  0.00     0.012 A 
HETATM   19  C28 UNL     1      -5.757   5.941  15.088  1.00  0.00     0.012 A 
HETATM   20  C29 UNL     1      -6.358   7.071  15.642  1.00  0.00     0.004 A 
HETATM   21  C31 UNL     1      -5.734   8.312  15.445  1.00  0.00     0.019 A 
HETATM   22  C32 UNL     1      -4.572   8.468  14.651  1.00  0.00    -0.043 A 
HETATM   23  C33 UNL     1      -3.999   9.882  14.603  1.00  0.00     0.080 C 
HETATM   24  C34 UNL     1      -2.921  10.051  15.623  1.00  0.00    -0.025 C 
HETATM   25  C35 UNL     1      -3.007  10.032  16.977  1.00  0.00     0.096 C 
HETATM   26  N3  UNL     1      -1.796   9.790  17.657  1.00  0.00    -0.364 N 
ATOM     27  H3  UNL     1      -1.621   9.736  18.660  1.00  0.00     0.165 HD
HETATM   28  C36 UNL     1      -0.967   9.655  16.676  1.00  0.00     0.060 C 
HETATM   29  C37 UNL     1       0.425   9.233  16.508  1.00  0.00     0.123 C 
HETATM   30  N4  UNL     1       0.695   9.242  15.242  1.00  0.00    -0.335 N 
HETATM   31  C38 UNL     1      -0.508   9.822  14.545  1.00  0.00     0.107 C 
HETATM   32  C39 UNL     1      -1.545   9.900  15.372  1.00  0.00     0.015 C 
HETATM   33  C40 UNL     1       1.778   8.550  14.495  1.00  0.00     0.251 C 
HETATM   34  O6  UNL     1       2.705   9.439  13.836  1.00  0.00    -0.321 OA
HETATM   35  C41 UNL     1       3.917   9.546  14.491  1.00  0.00     0.106 A 
HETATM   36  C42 UNL     1       3.976  10.393  15.611  1.00  0.00     0.047 A 
ENDROOT
BRANCH   1  37
HETATM   37  C10 UNL     1       5.268  11.556  17.471  1.00  0.00     0.046 C 
BRANCH  37  38
HETATM   38  C9  UNL     1       3.980  12.353  17.680  1.00  0.00     0.083 C 
BRANCH  38  39
HETATM   39  C8  UNL     1       3.664  12.618  19.141  1.00  0.00     0.129 C 
HETATM   40  O3  UNL     1       4.562  12.851  19.950  1.00  0.00    -0.298 OA
BRANCH  39  41
HETATM   41  C7  UNL     1       2.212  12.525  19.573  1.00  0.00     0.110 C 
BRANCH  41  42
HETATM   42  C6  UNL     1       1.676  11.098  19.429  1.00  0.00     0.127 C 
BRANCH  42  43
HETATM   43  C5  UNL     1       2.653  10.063  19.999  1.00  0.00     0.063 C 
BRANCH  43  44
HETATM   44  C4  UNL     1       2.607   9.934  21.533  1.00  0.00     0.120 C 
BRANCH  44  45
HETATM   45  C3  UNL     1       3.991   9.838  22.194  1.00  0.00     0.031 C 
BRANCH  45  46
HETATM   46  C2  UNL     1       4.343  11.022  23.113  1.00  0.00    -0.002 C 
HETATM   47  C1  UNL     1       3.269  12.097  23.187  1.00  0.00     0.005 C 
ENDBRANCH  45  46
ENDBRANCH  44  45
BRANCH  44  48
HETATM   48  O1  UNL     1       1.860   8.752  21.823  1.00  0.00    -0.395 OA
HETATM   49  H9  UNL     1       0.929   8.913  21.587  1.00  0.00     0.210 HD
ENDBRANCH  44  48
ENDBRANCH  43  44
ENDBRANCH  42  43
BRANCH  42  50
HETATM   50  O2  UNL     1       0.456  11.041  20.175  1.00  0.00    -0.395 OA
HETATM   51  H13 UNL     1      -0.281  11.181  19.553  1.00  0.00     0.210 HD
ENDBRANCH  42  50
ENDBRANCH  41  42
ENDBRANCH  39  41
ENDBRANCH  38  39
ENDBRANCH  37  38
ENDBRANCH   1  37
BRANCH  16  52
HETATM   52  O5  UNL     1      -2.925   8.452  12.167  1.00  0.00    -0.379 OA
HETATM   53  H32 UNL     1      -2.831   8.125  11.252  1.00  0.00     0.211 HD
ENDBRANCH  16  52
BRANCH  20  54
HETATM   54  C30 UNL     1      -7.631   6.929  16.449  1.00  0.00     0.479 C 
BRANCH  54  55
HETATM   55  N1  UNL     1      -8.320   5.684  16.204  1.00  0.00     0.116 N 
HETATM   56  H36 UNL     1      -7.796   4.942  16.668  1.00  0.00     0.316 HD
HETATM   57  H37 UNL     1      -9.209   5.751  16.695  1.00  0.00     0.316 HD
ENDBRANCH  54  55
BRANCH  54  58
HETATM   58  N2  UNL     1      -8.617   7.903  16.089  1.00  0.00     0.116 N 
HETATM   59  H38 UNL     1      -8.897   7.713  15.131  1.00  0.00     0.316 HD
HETATM   60  H39 UNL     1      -8.195   8.829  16.092  1.00  0.00     0.316 HD
ENDBRANCH  54  58
ENDBRANCH  20  54
TORSDOF 15
ENDMDL
MODEL 9
REMARK minimizedAffinity -8.40583611
REMARK CNNscore 0.0767146274
REMARK CNNaffinity 5.99376059
REMARK  15 active torsions:
REMARK  status: ('A' for Active; 'I' for Inactive)
REMARK    1  A    between atoms: C2_2  and  C3_3 
REMARK    2  A    between atoms: C3_3  and  C4_4 
REMARK    3  A    between atoms: C4_4  and  O1_5 
REMARK    4  A    between atoms: C4_4  and  C5_6 
REMARK    5  A    between atoms: C5_6  and  C6_7 
REMARK    6  A    between atoms: C6_7  and  O2_8 
REMARK    7  A    between atoms: C6_7  and  C7_9 
REMARK    8  A    between atoms: C7_9  and  C8_10 
REMARK    9  A    between atoms: C8_10  and  C9_12 
REMARK   10  A    between atoms: C9_12  and  C10_13 
REMARK   11  A    between atoms: C10_13  and  C11_14 
REMARK   12  A    between atoms: C25_29  and  O5_30 
REMARK   13  A    between atoms: C29_34  and  C30_35 
REMARK   14  A    between atoms: C30_35  and  N1_36 
REMARK   15  A    between atoms: C30_35  and  N2_37 
ROOT
HETATM    1  C11 UNL     1      -1.546   7.228  12.702  1.00  0.00    -0.055 A 
HETATM    2  C12 UNL     1      -2.789   6.600  12.802  1.00  0.00     0.010 A 
HETATM    3  C13 UNL     1      -3.786   7.137  13.611  1.00  0.00     0.041 A 
HETATM    4  C14 UNL     1      -3.552   8.286  14.373  1.00  0.00     0.120 A 
HETATM    5  O4  UNL     1      -4.691   8.711  15.028  1.00  0.00    -0.258 OA
HETATM    6  C15 UNL     1      -4.468   9.582  15.990  1.00  0.00     0.061 C 
HETATM    7  C16 UNL     1      -4.022  10.343  16.793  1.00  0.00    -0.064 C 
HETATM    8  C17 UNL     1      -3.056  11.137  17.559  1.00  0.00     0.044 C 
HETATM    9  C18 UNL     1      -3.678  11.506  18.920  1.00  0.00     0.024 C 
HETATM   10  C19 UNL     1      -4.609  12.684  18.628  1.00  0.00     0.002 C 
HETATM   11  C20 UNL     1      -4.095  13.332  17.346  1.00  0.00     0.002 C 
HETATM   12  C21 UNL     1      -2.868  12.523  16.915  1.00  0.00     0.024 C 
HETATM   13  C22 UNL     1      -1.732  10.278  17.663  1.00  0.00     0.135 C 
HETATM   14  C23 UNL     1      -0.737  10.996  18.535  1.00  0.00    -0.093 C 
HETATM   15  C24 UNL     1      -0.043  11.776  19.138  1.00  0.00    -0.069 C 
HETATM   16  C25 UNL     1       0.572  12.986  19.733  1.00  0.00     0.230 C 
HETATM   17  C26 UNL     1       2.032  12.897  20.147  1.00  0.00    -0.011 A 
HETATM   18  C27 UNL     1       2.247  12.554  21.505  1.00  0.00     0.012 A 
HETATM   19  C28 UNL     1       3.517  12.594  22.085  1.00  0.00     0.012 A 
HETATM   20  C29 UNL     1       4.628  12.978  21.335  1.00  0.00     0.004 A 
HETATM   21  C31 UNL     1       4.441  13.244  19.970  1.00  0.00     0.019 A 
HETATM   22  C32 UNL     1       3.169  13.209  19.350  1.00  0.00    -0.043 A 
HETATM   23  C33 UNL     1       3.169  13.463  17.844  1.00  0.00     0.080 C 
HETATM   24  C34 UNL     1       3.202  12.175  17.090  1.00  0.00    -0.025 C 
HETATM   25  C35 UNL     1       4.184  11.241  17.026  1.00  0.00     0.096 C 
HETATM   26  N3  UNL     1       3.776   9.962  16.599  1.00  0.00    -0.364 N 
ATOM     27  H3  UNL     1       4.333   9.117  16.472  1.00  0.00     0.165 HD
HETATM   28  C36 UNL     1       2.511  10.140  16.409  1.00  0.00     0.060 C 
HETATM   29  C37 UNL     1       1.347   9.298  16.127  1.00  0.00     0.123 C 
HETATM   30  N4  UNL     1       0.300  10.058  16.104  1.00  0.00    -0.335 N 
HETATM   31  C38 UNL     1       0.790  11.477  16.234  1.00  0.00     0.107 C 
HETATM   32  C39 UNL     1       2.071  11.507  16.587  1.00  0.00     0.015 C 
HETATM   33  C40 UNL     1      -1.136   9.707  16.258  1.00  0.00     0.251 C 
HETATM   34  O6  UNL     1      -1.945   9.994  15.098  1.00  0.00    -0.321 OA
HETATM   35  C41 UNL     1      -2.269   8.868  14.366  1.00  0.00     0.106 A 
HETATM   36  C42 UNL     1      -1.290   8.355  13.498  1.00  0.00     0.047 A 
ENDROOT
BRANCH   1  37
HETATM   37  C10 UNL     1      -0.531   6.724  11.697  1.00  0.00     0.046 C 
BRANCH  37  38
HETATM   38  C9  UNL     1       0.011   7.831  10.793  1.00  0.00     0.083 C 
BRANCH  38  39
HETATM   39  C8  UNL     1       1.485   8.121  11.009  1.00  0.00     0.129 C 
HETATM   40  O3  UNL     1       1.860   8.825  11.948  1.00  0.00    -0.298 OA
BRANCH  39  41
HETATM   41  C7  UNL     1       2.467   7.565   9.995  1.00  0.00     0.110 C 
BRANCH  41  42
HETATM   42  C6  UNL     1       2.857   6.121  10.327  1.00  0.00     0.127 C 
BRANCH  42  43
HETATM   43  C5  UNL     1       3.510   5.420   9.131  1.00  0.00     0.063 C 
BRANCH  43  44
HETATM   44  C4  UNL     1       4.123   4.048   9.465  1.00  0.00     0.120 C 
BRANCH  44  45
HETATM   45  C3  UNL     1       4.930   3.427   8.315  1.00  0.00     0.031 C 
BRANCH  45  46
HETATM   46  C2  UNL     1       4.106   3.118   7.051  1.00  0.00    -0.002 C 
HETATM   47  C1  UNL     1       3.466   4.340   6.408  1.00  0.00     0.005 C 
ENDBRANCH  45  46
ENDBRANCH  44  45
BRANCH  44  48
HETATM   48  O1  UNL     1       3.037   3.184   9.804  1.00  0.00    -0.395 OA
HETATM   49  H9  UNL     1       2.669   3.474  10.656  1.00  0.00     0.210 HD
ENDBRANCH  44  48
ENDBRANCH  43  44
ENDBRANCH  42  43
BRANCH  42  50
HETATM   50  O2  UNL     1       3.805   6.189  11.397  1.00  0.00    -0.395 OA
HETATM   51  H13 UNL     1       3.322   6.054  12.232  1.00  0.00     0.210 HD
ENDBRANCH  42  50
ENDBRANCH  41  42
ENDBRANCH  39  41
ENDBRANCH  38  39
ENDBRANCH  37  38
ENDBRANCH   1  37
BRANCH  16  52
HETATM   52  O5  UNL     1       0.362  14.048  18.800  1.00  0.00    -0.379 OA
HETATM   53  H32 UNL     1      -0.425  14.527  19.123  1.00  0.00     0.211 HD
ENDBRANCH  16  52
BRANCH  20  54
HETATM   54  C30 UNL     1       5.987  13.072  21.994  1.00  0.00     0.479 C 
BRANCH  54  55
HETATM   55  N1  UNL     1       6.358  14.426  22.334  1.00  0.00     0.116 N 
HETATM   56  H36 UNL     1       5.808  14.706  23.145  1.00  0.00     0.316 HD
HETATM   57  H37 UNL     1       7.325  14.383  22.650  1.00  0.00     0.316 HD
ENDBRANCH  54  55
BRANCH  54  58
HETATM   58  N2  UNL     1       7.047  12.672  21.120  1.00  0.00     0.116 N 
HETATM   59  H38 UNL     1       7.084  13.343  20.358  1.00  0.00     0.316 HD
HETATM   60  H39 UNL     1       6.821  11.771  20.705  1.00  0.00     0.316 HD
ENDBRANCH  54  58
ENDBRANCH  20  54
TORSDOF 15
ENDMDL
