MODEL 1
REMARK minimizedAffinity -7.91148186
REMARK CNNscore 0.660379708
REMARK CNNaffinity 6.75019693
REMARK  9 active torsions:
REMARK  status: ('A' for Active; 'I' for Inactive)
REMARK    1  A    between atoms: C2_2  and  C3_3 
REMARK    2  A    between atoms: C2_2  and  C9_12 
REMARK    3  A    between atoms: C3_3  and  C4_4 
REMARK    4  A    between atoms: C4_4  and  C5_5 
REMARK    5  A    between atoms: C5_5  and  O1_6 
REMARK    6  A    between atoms: C5_5  and  C6_7 
REMARK    7  A    between atoms: C6_7  and  O2_9 
REMARK    8  A    between atoms: C6_7  and  C8_10 
REMARK    9  A    between atoms: C8_10  and  O3_11 
ROOT
HETATM    1  C9  UNL     1      -1.906   9.405  15.780  1.00  0.00    -0.002 C 
HETATM    2  C10 UNL     1      -0.845   8.800  16.739  1.00  0.00     0.007 C 
HETATM    3  C11 UNL     1       0.272   8.198  15.859  1.00  0.00     0.015 C 
HETATM    4  C12 UNL     1       0.054   8.812  14.459  1.00  0.00    -0.005 C 
HETATM    5  C13 UNL     1       0.703  10.232  14.489  1.00  0.00     0.021 C 
HETATM    6  C14 UNL     1       0.644   8.171  13.207  1.00  0.00    -0.000 C 
HETATM    7  C15 UNL     1       0.031   8.280  11.996  1.00  0.00    -0.060 C 
HETATM    8  C16 UNL     1      -1.336   8.962  11.870  1.00  0.00     0.036 C 
HETATM    9  C17 UNL     1      -1.945   9.577  13.145  1.00  0.00     0.015 C 
HETATM   10  C18 UNL     1      -1.528   8.788  14.395  1.00  0.00    -0.028 C 
HETATM   11  C19 UNL     1      -2.105   7.347  14.274  1.00  0.00     0.016 C 
HETATM   12  C20 UNL     1       0.637   7.669  10.702  1.00  0.00    -0.014 C 
HETATM   13  C21 UNL     1       0.083   6.231  10.611  1.00  0.00     0.020 C 
HETATM   14  C22 UNL     1       0.217   8.456   9.430  1.00  0.00     0.021 C 
HETATM   15  C23 UNL     1       0.942   7.998   8.171  1.00  0.00     0.080 C 
HETATM   16  C24 UNL     1       2.417   8.212   8.368  1.00  0.00     0.135 C 
HETATM   17  O4  UNL     1       3.048   8.937   7.604  1.00  0.00    -0.297 OA
HETATM   18  C25 UNL     1       3.067   7.488   9.555  1.00  0.00     0.018 C 
HETATM   19  C26 UNL     1       4.484   8.087   9.758  1.00  0.00     0.023 C 
HETATM   20  C27 UNL     1       3.257   6.011   9.190  1.00  0.00     0.023 C 
HETATM   21  C28 UNL     1       2.202   7.763  10.837  1.00  0.00     0.020 C 
HETATM   22  C29 UNL     1       2.661   6.978  12.069  1.00  0.00     0.090 C 
HETATM   23  C30 UNL     1       1.963   7.454  13.322  1.00  0.00     0.157 C 
HETATM   24  O5  UNL     1       2.473   7.231  14.417  1.00  0.00    -0.293 OA
ENDROOT
BRANCH   1  25
HETATM   25  C2  UNL     1      -3.354   9.391  16.367  1.00  0.00    -0.014 C 
HETATM   26  C1  UNL     1      -4.496   9.630  15.376  1.00  0.00     0.010 C 
BRANCH  25  27
HETATM   27  C3  UNL     1      -3.468  10.326  17.594  1.00  0.00     0.007 C 
BRANCH  27  28
HETATM   28  C4  UNL     1      -3.537  11.838  17.282  1.00  0.00     0.035 C 
BRANCH  28  29
HETATM   29  C5  UNL     1      -2.181  12.489  16.969  1.00  0.00     0.154 C 
BRANCH  29  30
HETATM   30  O1  UNL     1      -1.548  12.863  18.204  1.00  0.00    -0.392 OA
HETATM   31  H10 UNL     1      -0.776  13.401  17.926  1.00  0.00     0.210 HD
ENDBRANCH  29  30
BRANCH  29  32
HETATM   32  C6  UNL     1      -2.236  13.748  16.058  1.00  0.00     0.101 C 
HETATM   33  C7  UNL     1      -3.203  14.829  16.574  1.00  0.00     0.051 C 
BRANCH  32  34
HETATM   34  O2  UNL     1      -0.912  14.331  16.116  1.00  0.00    -0.385 OA
HETATM   35  H14 UNL     1      -0.913  15.070  15.468  1.00  0.00     0.210 HD
ENDBRANCH  32  34
BRANCH  32  36
HETATM   36  C8  UNL     1      -2.526  13.384  14.590  1.00  0.00     0.204 C 
BRANCH  36  37
HETATM   37  O3  UNL     1      -1.305  13.070  13.911  1.00  0.00    -0.398 OA
HETATM   38  H17 UNL     1      -1.029  13.866  13.415  1.00  0.00     0.209 HD
ENDBRANCH  36  37
ENDBRANCH  32  36
ENDBRANCH  29  32
ENDBRANCH  28  29
ENDBRANCH  27  28
ENDBRANCH  25  27
ENDBRANCH   1  25
TORSDOF 9
ENDMDL
MODEL 2
REMARK minimizedAffinity -6.76663637
REMARK CNNscore 0.39749676
REMARK CNNaffinity 6.10109568
REMARK  9 active torsions:
REMARK  status: ('A' for Active; 'I' for Inactive)
REMARK    1  A    between atoms: C2_2  and  C3_3 
REMARK    2  A    between atoms: C2_2  and  C9_12 
REMARK    3  A    between atoms: C3_3  and  C4_4 
REMARK    4  A    between atoms: C4_4  and  C5_5 
REMARK    5  A    between atoms: C5_5  and  O1_6 
REMARK    6  A    between atoms: C5_5  and  C6_7 
REMARK    7  A    between atoms: C6_7  and  O2_9 
REMARK    8  A    between atoms: C6_7  and  C8_10 
REMARK    9  A    between atoms: C8_10  and  O3_11 
ROOT
HETATM    1  C9  UNL     1      -9.246  -8.385  -3.470  1.00  0.00    -0.002 C 
HETATM    2  C10 UNL     1      -7.892  -8.300  -4.226  1.00  0.00     0.007 C 
HETATM    3  C11 UNL     1      -6.813  -8.888  -3.291  1.00  0.00     0.015 C 
HETATM    4  C12 UNL     1      -7.596  -9.661  -2.209  1.00  0.00    -0.005 C 
HETATM    5  C13 UNL     1      -7.961 -11.047  -2.827  1.00  0.00     0.021 C 
HETATM    6  C14 UNL     1      -6.963 -10.018  -0.868  1.00  0.00    -0.000 C 
HETATM    7  C15 UNL     1      -7.710 -10.125   0.265  1.00  0.00    -0.060 C 
HETATM    8  C16 UNL     1      -9.205  -9.783   0.252  1.00  0.00     0.036 C 
HETATM    9  C17 UNL     1      -9.833  -9.388  -1.099  1.00  0.00     0.015 C 
HETATM   10  C18 UNL     1      -8.814  -8.670  -1.996  1.00  0.00    -0.028 C 
HETATM   11  C19 UNL     1      -8.397  -7.345  -1.292  1.00  0.00     0.016 C 
HETATM   12  C20 UNL     1      -7.090 -10.528   1.632  1.00  0.00    -0.014 C 
HETATM   13  C21 UNL     1      -6.653  -9.208   2.304  1.00  0.00     0.020 C 
HETATM   14  C22 UNL     1      -8.115 -11.250   2.550  1.00  0.00     0.021 C 
HETATM   15  C23 UNL     1      -7.490 -11.821   3.816  1.00  0.00     0.080 C 
HETATM   16  C24 UNL     1      -6.450 -12.830   3.419  1.00  0.00     0.135 C 
HETATM   17  O4  UNL     1      -6.537 -13.996   3.796  1.00  0.00    -0.297 OA
HETATM   18  C25 UNL     1      -5.301 -12.326   2.535  1.00  0.00     0.018 C 
HETATM   19  C26 UNL     1      -4.540 -13.565   1.994  1.00  0.00     0.023 C 
HETATM   20  C27 UNL     1      -4.313 -11.543   3.407  1.00  0.00     0.023 C 
HETATM   21  C28 UNL     1      -5.917 -11.531   1.329  1.00  0.00     0.020 C 
HETATM   22  C29 UNL     1      -4.872 -10.848   0.442  1.00  0.00     0.090 C 
HETATM   23  C30 UNL     1      -5.487 -10.309  -0.828  1.00  0.00     0.157 C 
HETATM   24  O5  UNL     1      -4.769 -10.096  -1.802  1.00  0.00    -0.293 OA
ENDROOT
BRANCH   1  25
HETATM   25  C2  UNL     1     -10.255  -7.261  -3.873  1.00  0.00    -0.014 C 
HETATM   26  C1  UNL     1     -11.588  -7.720  -4.468  1.00  0.00     0.010 C 
BRANCH  25  27
HETATM   27  C3  UNL     1      -9.576  -6.196  -4.766  1.00  0.00     0.007 C 
BRANCH  27  28
HETATM   28  C4  UNL     1      -9.837  -4.725  -4.372  1.00  0.00     0.035 C 
BRANCH  28  29
HETATM   29  C5  UNL     1     -10.009  -3.765  -5.559  1.00  0.00     0.154 C 
BRANCH  29  30
HETATM   30  O1  UNL     1      -8.780  -3.716  -6.301  1.00  0.00    -0.392 OA
HETATM   31  H10 UNL     1      -8.911  -2.981  -6.938  1.00  0.00     0.210 HD
ENDBRANCH  29  30
BRANCH  29  32
HETATM   32  C6  UNL     1     -10.406  -2.307  -5.191  1.00  0.00     0.101 C 
HETATM   33  C7  UNL     1     -11.530  -1.741  -6.076  1.00  0.00     0.051 C 
BRANCH  32  34
HETATM   34  O2  UNL     1     -10.945  -2.375  -3.849  1.00  0.00    -0.385 OA
HETATM   35  H14 UNL     1     -11.106  -1.445  -3.575  1.00  0.00     0.210 HD
ENDBRANCH  32  34
BRANCH  32  36
HETATM   36  C8  UNL     1      -9.184  -1.369  -5.160  1.00  0.00     0.204 C 
BRANCH  36  37
HETATM   37  O3  UNL     1      -8.147  -1.940  -4.354  1.00  0.00    -0.398 OA
HETATM   38  H17 UNL     1      -8.196  -1.523  -3.470  1.00  0.00     0.209 HD
ENDBRANCH  36  37
ENDBRANCH  32  36
ENDBRANCH  29  32
ENDBRANCH  28  29
ENDBRANCH  27  28
ENDBRANCH  25  27
ENDBRANCH   1  25
TORSDOF 9
ENDMDL
MODEL 3
REMARK minimizedAffinity -8.63695335
REMARK CNNscore 0.375032991
REMARK CNNaffinity 6.6181159
REMARK  9 active torsions:
REMARK  status: ('A' for Active; 'I' for Inactive)
REMARK    1  A    between atoms: C2_2  and  C3_3 
REMARK    2  A    between atoms: C2_2  and  C9_12 
REMARK    3  A    between atoms: C3_3  and  C4_4 
REMARK    4  A    between atoms: C4_4  and  C5_5 
REMARK    5  A    between atoms: C5_5  and  O1_6 
REMARK    6  A    between atoms: C5_5  and  C6_7 
REMARK    7  A    between atoms: C6_7  and  O2_9 
REMARK    8  A    between atoms: C6_7  and  C8_10 
REMARK    9  A    between atoms: C8_10  and  O3_11 
ROOT
HETATM    1  C9  UNL     1      -0.840   9.345  14.617  1.00  0.00    -0.002 C 
HETATM    2  C10 UNL     1      -0.160   8.255  13.744  1.00  0.00     0.007 C 
HETATM    3  C11 UNL     1      -1.247   7.221  13.380  1.00  0.00     0.015 C 
HETATM    4  C12 UNL     1      -2.588   7.922  13.689  1.00  0.00    -0.005 C 
HETATM    5  C13 UNL     1      -2.904   8.837  12.464  1.00  0.00     0.021 C 
HETATM    6  C14 UNL     1      -3.875   7.129  13.889  1.00  0.00    -0.000 C 
HETATM    7  C15 UNL     1      -4.866   7.578  14.708  1.00  0.00    -0.060 C 
HETATM    8  C16 UNL     1      -4.674   8.849  15.544  1.00  0.00     0.036 C 
HETATM    9  C17 UNL     1      -3.357   9.628  15.364  1.00  0.00     0.015 C 
HETATM   10  C18 UNL     1      -2.197   8.683  15.022  1.00  0.00    -0.028 C 
HETATM   11  C19 UNL     1      -1.985   7.718  16.226  1.00  0.00     0.016 C 
HETATM   12  C20 UNL     1      -6.201   6.805  14.894  1.00  0.00    -0.014 C 
HETATM   13  C21 UNL     1      -5.968   5.831  16.069  1.00  0.00     0.020 C 
HETATM   14  C22 UNL     1      -7.382   7.752  15.247  1.00  0.00     0.021 C 
HETATM   15  C23 UNL     1      -8.735   7.051  15.251  1.00  0.00     0.080 C 
HETATM   16  C24 UNL     1      -8.990   6.504  13.875  1.00  0.00     0.135 C 
HETATM   17  O4  UNL     1      -9.979   6.857  13.238  1.00  0.00    -0.297 OA
HETATM   18  C25 UNL     1      -7.963   5.503  13.328  1.00  0.00     0.018 C 
HETATM   19  C26 UNL     1      -8.240   5.319  11.813  1.00  0.00     0.023 C 
HETATM   20  C27 UNL     1      -8.198   4.141  13.992  1.00  0.00     0.023 C 
HETATM   21  C28 UNL     1      -6.528   6.112  13.520  1.00  0.00     0.020 C 
HETATM   22  C29 UNL     1      -5.396   5.150  13.147  1.00  0.00     0.090 C 
HETATM   23  C30 UNL     1      -4.059   5.853  13.113  1.00  0.00     0.157 C 
HETATM   24  O5  UNL     1      -3.136   5.360  12.469  1.00  0.00    -0.293 OA
ENDROOT
BRANCH   1  25
HETATM   25  C2  UNL     1       0.132  10.019  15.639  1.00  0.00    -0.014 C 
HETATM   26  C1  UNL     1      -0.223  11.440  16.085  1.00  0.00     0.010 C 
BRANCH  25  27
HETATM   27  C3  UNL     1       1.599   9.929  15.156  1.00  0.00     0.007 C 
BRANCH  27  28
HETATM   28  C4  UNL     1       2.510   8.971  15.957  1.00  0.00     0.035 C 
BRANCH  28  29
HETATM   29  C5  UNL     1       3.191   7.882  15.114  1.00  0.00     0.154 C 
BRANCH  29  30
HETATM   30  O1  UNL     1       3.018   6.612  15.766  1.00  0.00    -0.392 OA
HETATM   31  H10 UNL     1       3.598   6.002  15.263  1.00  0.00     0.210 HD
ENDBRANCH  29  30
BRANCH  29  32
HETATM   32  C6  UNL     1       4.710   8.085  14.856  1.00  0.00     0.101 C 
HETATM   33  C7  UNL     1       5.239   9.434  15.375  1.00  0.00     0.051 C 
BRANCH  32  34
HETATM   34  O2  UNL     1       5.379   7.064  15.635  1.00  0.00    -0.385 OA
HETATM   35  H14 UNL     1       6.332   7.125  15.401  1.00  0.00     0.210 HD
ENDBRANCH  32  34
BRANCH  32  36
HETATM   36  C8  UNL     1       5.078   7.864  13.377  1.00  0.00     0.204 C 
BRANCH  36  37
HETATM   37  O3  UNL     1       4.088   7.048  12.741  1.00  0.00    -0.398 OA
HETATM   38  H17 UNL     1       4.429   6.132  12.720  1.00  0.00     0.209 HD
ENDBRANCH  36  37
ENDBRANCH  32  36
ENDBRANCH  29  32
ENDBRANCH  28  29
ENDBRANCH  27  28
ENDBRANCH  25  27
ENDBRANCH   1  25
TORSDOF 9
ENDMDL
MODEL 4
REMARK minimizedAffinity -7.24244738
REMARK CNNscore 0.366106898
REMARK CNNaffinity 6.83570337
REMARK  9 active torsions:
REMARK  status: ('A' for Active; 'I' for Inactive)
REMARK    1  A    between atoms: C2_2  and  C3_3 
REMARK    2  A    between atoms: C2_2  and  C9_12 
REMARK    3  A    between atoms: C3_3  and  C4_4 
REMARK    4  A    between atoms: C4_4  and  C5_5 
REMARK    5  A    between atoms: C5_5  and  O1_6 
REMARK    6  A    between atoms: C5_5  and  C6_7 
REMARK    7  A    between atoms: C6_7  and  O2_9 
REMARK    8  A    between atoms: C6_7  and  C8_10 
REMARK    9  A    between atoms: C8_10  and  O3_11 
ROOT
HETATM    1  C9  UNL     1      -9.573  -7.697  -4.303  1.00  0.00    -0.002 C 
HETATM    2  C10 UNL     1     -10.925  -7.698  -3.539  1.00  0.00     0.007 C 
HETATM    3  C11 UNL     1     -10.665  -8.334  -2.157  1.00  0.00     0.015 C 
HETATM    4  C12 UNL     1      -9.131  -8.312  -1.987  1.00  0.00    -0.005 C 
HETATM    5  C13 UNL     1      -8.756  -6.873  -1.509  1.00  0.00     0.021 C 
HETATM    6  C14 UNL     1      -8.426  -9.220  -0.984  1.00  0.00    -0.000 C 
HETATM    7  C15 UNL     1      -7.160  -9.671  -1.202  1.00  0.00    -0.060 C 
HETATM    8  C16 UNL     1      -6.437  -9.368  -2.519  1.00  0.00     0.036 C 
HETATM    9  C17 UNL     1      -7.168  -8.478  -3.544  1.00  0.00     0.015 C 
HETATM   10  C18 UNL     1      -8.688  -8.674  -3.464  1.00  0.00    -0.028 C 
HETATM   11  C19 UNL     1      -9.008 -10.150  -3.844  1.00  0.00     0.016 C 
HETATM   12  C20 UNL     1      -6.410 -10.564  -0.174  1.00  0.00    -0.014 C 
HETATM   13  C21 UNL     1      -6.761 -12.021  -0.543  1.00  0.00     0.020 C 
HETATM   14  C22 UNL     1      -4.869 -10.378  -0.251  1.00  0.00     0.021 C 
HETATM   15  C23 UNL     1      -4.120 -11.095   0.864  1.00  0.00     0.080 C 
HETATM   16  C24 UNL     1      -4.577 -10.533   2.181  1.00  0.00     0.135 C 
HETATM   17  O4  UNL     1      -3.773 -10.014   2.950  1.00  0.00    -0.297 OA
HETATM   18  C25 UNL     1      -6.075 -10.645   2.496  1.00  0.00     0.018 C 
HETATM   19  C26 UNL     1      -6.371  -9.741   3.722  1.00  0.00     0.023 C 
HETATM   20  C27 UNL     1      -6.385 -12.085   2.921  1.00  0.00     0.023 C 
HETATM   21  C28 UNL     1      -6.883 -10.115   1.258  1.00  0.00     0.020 C 
HETATM   22  C29 UNL     1      -8.397 -10.305   1.382  1.00  0.00     0.090 C 
HETATM   23  C30 UNL     1      -9.142  -9.568   0.293  1.00  0.00     0.157 C 
HETATM   24  O5  UNL     1     -10.325  -9.284   0.459  1.00  0.00    -0.293 OA
ENDROOT
BRANCH   1  25
HETATM   25  C2  UNL     1      -9.735  -7.795  -5.855  1.00  0.00    -0.014 C 
HETATM   26  C1  UNL     1      -8.725  -8.676  -6.594  1.00  0.00     0.010 C 
BRANCH  25  27
HETATM   27  C3  UNL     1      -9.832  -6.390  -6.495  1.00  0.00     0.007 C 
BRANCH  27  28
HETATM   28  C4  UNL     1     -10.861  -5.431  -5.855  1.00  0.00     0.035 C 
BRANCH  28  29
HETATM   29  C5  UNL     1     -10.278  -4.090  -5.381  1.00  0.00     0.154 C 
BRANCH  29  30
HETATM   30  O1  UNL     1      -9.974  -4.184  -3.979  1.00  0.00    -0.392 OA
HETATM   31  H10 UNL     1      -9.757  -3.264  -3.718  1.00  0.00     0.210 HD
ENDBRANCH  29  30
BRANCH  29  32
HETATM   32  C6  UNL     1     -11.191  -2.850  -5.592  1.00  0.00     0.101 C 
HETATM   33  C7  UNL     1     -11.525  -2.585  -7.071  1.00  0.00     0.051 C 
BRANCH  32  34
HETATM   34  O2  UNL     1     -12.447  -3.174  -4.948  1.00  0.00    -0.385 OA
HETATM   35  H14 UNL     1     -12.993  -2.359  -4.993  1.00  0.00     0.210 HD
ENDBRANCH  32  34
BRANCH  32  36
HETATM   36  C8  UNL     1     -10.622  -1.593  -4.907  1.00  0.00     0.204 C 
BRANCH  36  37
HETATM   37  O3  UNL     1     -11.057  -1.537  -3.544  1.00  0.00    -0.398 OA
HETATM   38  H17 UNL     1     -11.822  -0.929  -3.502  1.00  0.00     0.209 HD
ENDBRANCH  36  37
ENDBRANCH  32  36
ENDBRANCH  29  32
ENDBRANCH  28  29
ENDBRANCH  27  28
ENDBRANCH  25  27
ENDBRANCH   1  25
TORSDOF 9
ENDMDL
MODEL 5
REMARK minimizedAffinity -7.72621059
REMARK CNNscore 0.365855515
REMARK CNNaffinity 6.92059278
REMARK  9 active torsions:
REMARK  status: ('A' for Active; 'I' for Inactive)
REMARK    1  A    between atoms: C2_2  and  C3_3 
REMARK    2  A    between atoms: C2_2  and  C9_12 
REMARK    3  A    between atoms: C3_3  and  C4_4 
REMARK    4  A    between atoms: C4_4  and  C5_5 
REMARK    5  A    between atoms: C5_5  and  O1_6 
REMARK    6  A    between atoms: C5_5  and  C6_7 
REMARK    7  A    between atoms: C6_7  and  O2_9 
REMARK    8  A    between atoms: C6_7  and  C8_10 
REMARK    9  A    between atoms: C8_10  and  O3_11 
ROOT
HETATM    1  C9  UNL     1      -2.629   3.367  11.183  1.00  0.00    -0.002 C 
HETATM    2  C10 UNL     1      -3.446   2.055  11.337  1.00  0.00     0.007 C 
HETATM    3  C11 UNL     1      -4.683   2.389  12.199  1.00  0.00     0.015 C 
HETATM    4  C12 UNL     1      -4.779   3.930  12.182  1.00  0.00    -0.005 C 
HETATM    5  C13 UNL     1      -5.481   4.319  10.843  1.00  0.00     0.021 C 
HETATM    6  C14 UNL     1      -5.572   4.691  13.240  1.00  0.00    -0.000 C 
HETATM    7  C15 UNL     1      -5.218   5.947  13.627  1.00  0.00    -0.060 C 
HETATM    8  C16 UNL     1      -3.940   6.600  13.089  1.00  0.00     0.036 C 
HETATM    9  C17 UNL     1      -3.122   5.812  12.046  1.00  0.00     0.015 C 
HETATM   10  C18 UNL     1      -3.242   4.300  12.277  1.00  0.00    -0.028 C 
HETATM   11  C19 UNL     1      -2.627   3.970  13.669  1.00  0.00     0.016 C 
HETATM   12  C20 UNL     1      -6.037   6.754  14.673  1.00  0.00    -0.014 C 
HETATM   13  C21 UNL     1      -5.438   6.394  16.049  1.00  0.00     0.020 C 
HETATM   14  C22 UNL     1      -5.918   8.288  14.453  1.00  0.00     0.021 C 
HETATM   15  C23 UNL     1      -6.854   9.097  15.341  1.00  0.00     0.080 C 
HETATM   16  C24 UNL     1      -8.269   8.704  15.023  1.00  0.00     0.135 C 
HETATM   17  O4  UNL     1      -9.077   9.543  14.632  1.00  0.00    -0.297 OA
HETATM   18  C25 UNL     1      -8.633   7.225  15.211  1.00  0.00     0.018 C 
HETATM   19  C26 UNL     1     -10.010   6.985  14.537  1.00  0.00     0.023 C 
HETATM   20  C27 UNL     1      -8.815   6.946  16.707  1.00  0.00     0.023 C 
HETATM   21  C28 UNL     1      -7.546   6.352  14.487  1.00  0.00     0.020 C 
HETATM   22  C29 UNL     1      -7.710   4.846  14.719  1.00  0.00     0.090 C 
HETATM   23  C30 UNL     1      -6.803   4.043  13.816  1.00  0.00     0.157 C 
HETATM   24  O5  UNL     1      -7.073   2.868  13.582  1.00  0.00    -0.293 OA
ENDROOT
BRANCH   1  25
HETATM   25  C2  UNL     1      -1.094   3.127  11.012  1.00  0.00    -0.014 C 
HETATM   26  C1  UNL     1      -0.595   1.698  11.243  1.00  0.00     0.010 C 
BRANCH  25  27
HETATM   27  C3  UNL     1      -0.274   4.150  11.834  1.00  0.00     0.007 C 
BRANCH  27  28
HETATM   28  C4  UNL     1       0.448   5.243  11.014  1.00  0.00     0.035 C 
BRANCH  28  29
HETATM   29  C5  UNL     1       1.968   5.306  11.231  1.00  0.00     0.154 C 
BRANCH  29  30
HETATM   30  O1  UNL     1       2.247   6.210  12.313  1.00  0.00    -0.392 OA
HETATM   31  H10 UNL     1       3.222   6.317  12.292  1.00  0.00     0.210 HD
ENDBRANCH  29  30
BRANCH  29  32
HETATM   32  C6  UNL     1       2.802   5.760  10.000  1.00  0.00     0.101 C 
HETATM   33  C7  UNL     1       1.992   6.595   8.992  1.00  0.00     0.051 C 
BRANCH  32  34
HETATM   34  O2  UNL     1       3.825   6.640  10.523  1.00  0.00    -0.385 OA
HETATM   35  H14 UNL     1       4.414   6.853   9.765  1.00  0.00     0.210 HD
ENDBRANCH  32  34
BRANCH  32  36
HETATM   36  C8  UNL     1       3.508   4.575   9.314  1.00  0.00     0.204 C 
BRANCH  36  37
HETATM   37  O3  UNL     1       3.137   3.347   9.951  1.00  0.00    -0.398 OA
HETATM   38  H17 UNL     1       3.851   3.109  10.574  1.00  0.00     0.209 HD
ENDBRANCH  36  37
ENDBRANCH  32  36
ENDBRANCH  29  32
ENDBRANCH  28  29
ENDBRANCH  27  28
ENDBRANCH  25  27
ENDBRANCH   1  25
TORSDOF 9
ENDMDL
MODEL 6
REMARK minimizedAffinity -7.30172348
REMARK CNNscore 0.348547727
REMARK CNNaffinity 6.47211456
REMARK  9 active torsions:
REMARK  status: ('A' for Active; 'I' for Inactive)
REMARK    1  A    between atoms: C2_2  and  C3_3 
REMARK    2  A    between atoms: C2_2  and  C9_12 
REMARK    3  A    between atoms: C3_3  and  C4_4 
REMARK    4  A    between atoms: C4_4  and  C5_5 
REMARK    5  A    between atoms: C5_5  and  O1_6 
REMARK    6  A    between atoms: C5_5  and  C6_7 
REMARK    7  A    between atoms: C6_7  and  O2_9 
REMARK    8  A    between atoms: C6_7  and  C8_10 
REMARK    9  A    between atoms: C8_10  and  O3_11 
ROOT
HETATM    1  C9  UNL     1       0.896   9.454  13.592  1.00  0.00    -0.002 C 
HETATM    2  C10 UNL     1       1.924   8.871  12.583  1.00  0.00     0.007 C 
HETATM    3  C11 UNL     1       1.304   7.584  11.997  1.00  0.00     0.015 C 
HETATM    4  C12 UNL     1      -0.197   7.664  12.351  1.00  0.00    -0.005 C 
HETATM    5  C13 UNL     1      -0.858   8.591  11.282  1.00  0.00     0.021 C 
HETATM    6  C14 UNL     1      -1.084   6.423  12.351  1.00  0.00    -0.000 C 
HETATM    7  C15 UNL     1      -2.156   6.316  13.182  1.00  0.00    -0.060 C 
HETATM    8  C16 UNL     1      -2.447   7.398  14.228  1.00  0.00     0.036 C 
HETATM    9  C17 UNL     1      -1.526   8.634  14.248  1.00  0.00     0.015 C 
HETATM   10  C18 UNL     1      -0.100   8.271  13.811  1.00  0.00    -0.028 C 
HETATM   11  C19 UNL     1       0.483   7.263  14.845  1.00  0.00     0.016 C 
HETATM   12  C20 UNL     1      -3.095   5.078  13.169  1.00  0.00    -0.014 C 
HETATM   13  C21 UNL     1      -2.489   4.075  14.174  1.00  0.00     0.020 C 
HETATM   14  C22 UNL     1      -4.541   5.433  13.615  1.00  0.00     0.021 C 
HETATM   15  C23 UNL     1      -5.526   4.286  13.434  1.00  0.00     0.080 C 
HETATM   16  C24 UNL     1      -5.579   3.932  11.974  1.00  0.00     0.135 C 
HETATM   17  O4  UNL     1      -6.639   3.991  11.357  1.00  0.00    -0.297 OA
HETATM   18  C25 UNL     1      -4.259   3.502  11.320  1.00  0.00     0.018 C 
HETATM   19  C26 UNL     1      -4.471   3.494   9.783  1.00  0.00     0.023 C 
HETATM   20  C27 UNL     1      -3.948   2.059  11.733  1.00  0.00     0.023 C 
HETATM   21  C28 UNL     1      -3.159   4.563  11.683  1.00  0.00     0.020 C 
HETATM   22  C29 UNL     1      -1.753   4.179  11.211  1.00  0.00     0.090 C 
HETATM   23  C30 UNL     1      -0.783   5.328  11.363  1.00  0.00     0.157 C 
HETATM   24  O5  UNL     1       0.247   5.339  10.693  1.00  0.00    -0.293 OA
ENDROOT
BRANCH   1  25
HETATM   25  C2  UNL     1       1.557  10.256  14.759  1.00  0.00    -0.014 C 
HETATM   26  C1  UNL     1       1.063  11.689  14.971  1.00  0.00     0.010 C 
BRANCH  25  27
HETATM   27  C3  UNL     1       3.101  10.199  14.671  1.00  0.00     0.007 C 
BRANCH  27  28
HETATM   28  C4  UNL     1       3.793   9.228  15.654  1.00  0.00     0.035 C 
BRANCH  28  29
HETATM   29  C5  UNL     1       5.054   8.547  15.099  1.00  0.00     0.154 C 
BRANCH  29  30
HETATM   30  O1  UNL     1       5.118   7.202  15.602  1.00  0.00    -0.392 OA
HETATM   31  H10 UNL     1       6.008   6.888  15.338  1.00  0.00     0.210 HD
ENDBRANCH  29  30
BRANCH  29  32
HETATM   32  C6  UNL     1       6.399   9.250  15.437  1.00  0.00     0.101 C 
HETATM   33  C7  UNL     1       6.935  10.122  14.288  1.00  0.00     0.051 C 
BRANCH  32  34
HETATM   34  O2  UNL     1       6.104  10.155  16.527  1.00  0.00    -0.385 OA
HETATM   35  H14 UNL     1       6.968  10.530  16.809  1.00  0.00     0.210 HD
ENDBRANCH  32  34
BRANCH  32  36
HETATM   36  C8  UNL     1       7.462   8.250  15.931  1.00  0.00     0.204 C 
BRANCH  36  37
HETATM   37  O3  UNL     1       7.818   7.350  14.876  1.00  0.00    -0.398 OA
HETATM   38  H17 UNL     1       7.314   6.522  15.011  1.00  0.00     0.209 HD
ENDBRANCH  36  37
ENDBRANCH  32  36
ENDBRANCH  29  32
ENDBRANCH  28  29
ENDBRANCH  27  28
ENDBRANCH  25  27
ENDBRANCH   1  25
TORSDOF 9
ENDMDL
MODEL 7
REMARK minimizedAffinity -7.31167269
REMARK CNNscore 0.329844296
REMARK CNNaffinity 6.31758833
REMARK  9 active torsions:
REMARK  status: ('A' for Active; 'I' for Inactive)
REMARK    1  A    between atoms: C2_2  and  C3_3 
REMARK    2  A    between atoms: C2_2  and  C9_12 
REMARK    3  A    between atoms: C3_3  and  C4_4 
REMARK    4  A    between atoms: C4_4  and  C5_5 
REMARK    5  A    between atoms: C5_5  and  O1_6 
REMARK    6  A    between atoms: C5_5  and  C6_7 
REMARK    7  A    between atoms: C6_7  and  O2_9 
REMARK    8  A    between atoms: C6_7  and  C8_10 
REMARK    9  A    between atoms: C8_10  and  O3_11 
ROOT
HETATM    1  C9  UNL     1       2.129   7.244  10.602  1.00  0.00    -0.002 C 
HETATM    2  C10 UNL     1       2.839   7.686   9.293  1.00  0.00     0.007 C 
HETATM    3  C11 UNL     1       4.215   8.259   9.694  1.00  0.00     0.015 C 
HETATM    4  C12 UNL     1       4.446   7.774  11.141  1.00  0.00    -0.005 C 
HETATM    5  C13 UNL     1       4.972   6.307  11.041  1.00  0.00     0.021 C 
HETATM    6  C14 UNL     1       5.453   8.458  12.060  1.00  0.00    -0.000 C 
HETATM    7  C15 UNL     1       5.275   8.492  13.410  1.00  0.00    -0.060 C 
HETATM    8  C16 UNL     1       3.995   7.936  14.044  1.00  0.00     0.036 C 
HETATM    9  C17 UNL     1       2.964   7.277  13.107  1.00  0.00     0.015 C 
HETATM   10  C18 UNL     1       2.979   7.932  11.719  1.00  0.00    -0.028 C 
HETATM   11  C19 UNL     1       2.552   9.421  11.879  1.00  0.00     0.016 C 
HETATM   12  C20 UNL     1       6.310   9.147  14.366  1.00  0.00    -0.014 C 
HETATM   13  C21 UNL     1       5.893  10.628  14.491  1.00  0.00     0.020 C 
HETATM   14  C22 UNL     1       6.299   8.496  15.777  1.00  0.00     0.021 C 
HETATM   15  C23 UNL     1       7.426   8.988  16.676  1.00  0.00     0.080 C 
HETATM   16  C24 UNL     1       8.736   8.639  16.028  1.00  0.00     0.135 C 
HETATM   17  O4  UNL     1       9.548   7.926  16.611  1.00  0.00    -0.297 OA
HETATM   18  C25 UNL     1       8.989   9.215  14.629  1.00  0.00     0.018 C 
HETATM   19  C26 UNL     1      10.224   8.488  14.032  1.00  0.00     0.023 C 
HETATM   20  C27 UNL     1       9.367  10.695  14.763  1.00  0.00     0.023 C 
HETATM   21  C28 UNL     1       7.733   8.915  13.735  1.00  0.00     0.020 C 
HETATM   22  C29 UNL     1       7.793   9.564  12.349  1.00  0.00     0.090 C 
HETATM   23  C30 UNL     1       6.693   9.053  11.448  1.00  0.00     0.157 C 
HETATM   24  O5  UNL     1       6.818   9.150  10.230  1.00  0.00    -0.293 OA
ENDROOT
BRANCH   1  25
HETATM   25  C2  UNL     1       0.571   7.332  10.525  1.00  0.00    -0.014 C 
HETATM   26  C1  UNL     1      -0.009   8.323   9.513  1.00  0.00     0.010 C 
BRANCH  25  27
HETATM   27  C3  UNL     1      -0.048   7.534  11.929  1.00  0.00     0.007 C 
BRANCH  27  28
HETATM   28  C4  UNL     1      -0.536   6.250  12.637  1.00  0.00     0.035 C 
BRANCH  28  29
HETATM   29  C5  UNL     1      -1.227   6.488  13.988  1.00  0.00     0.154 C 
BRANCH  29  30
HETATM   30  O1  UNL     1      -0.667   5.593  14.963  1.00  0.00    -0.392 OA
HETATM   31  H10 UNL     1      -1.251   5.691  15.745  1.00  0.00     0.210 HD
ENDBRANCH  29  30
BRANCH  29  32
HETATM   32  C6  UNL     1      -2.770   6.298  13.994  1.00  0.00     0.101 C 
HETATM   33  C7  UNL     1      -3.532   7.491  13.388  1.00  0.00     0.051 C 
BRANCH  32  34
HETATM   34  O2  UNL     1      -3.029   5.170  13.125  1.00  0.00    -0.385 OA
HETATM   35  H14 UNL     1      -3.991   4.985  13.201  1.00  0.00     0.210 HD
ENDBRANCH  32  34
BRANCH  32  36
HETATM   36  C8  UNL     1      -3.301   5.943  15.396  1.00  0.00     0.204 C 
BRANCH  36  37
HETATM   37  O3  UNL     1      -2.958   6.974  16.328  1.00  0.00    -0.398 OA
HETATM   38  H17 UNL     1      -2.160   6.682  16.812  1.00  0.00     0.209 HD
ENDBRANCH  36  37
ENDBRANCH  32  36
ENDBRANCH  29  32
ENDBRANCH  28  29
ENDBRANCH  27  28
ENDBRANCH  25  27
ENDBRANCH   1  25
TORSDOF 9
ENDMDL
MODEL 8
REMARK minimizedAffinity -7.58008003
REMARK CNNscore 0.321701586
REMARK CNNaffinity 6.90282583
REMARK  9 active torsions:
REMARK  status: ('A' for Active; 'I' for Inactive)
REMARK    1  A    between atoms: C2_2  and  C3_3 
REMARK    2  A    between atoms: C2_2  and  C9_12 
REMARK    3  A    between atoms: C3_3  and  C4_4 
REMARK    4  A    between atoms: C4_4  and  C5_5 
REMARK    5  A    between atoms: C5_5  and  O1_6 
REMARK    6  A    between atoms: C5_5  and  C6_7 
REMARK    7  A    between atoms: C6_7  and  O2_9 
REMARK    8  A    between atoms: C6_7  and  C8_10 
REMARK    9  A    between atoms: C8_10  and  O3_11 
ROOT
HETATM    1  C9  UNL     1      -2.616   7.234  14.395  1.00  0.00    -0.002 C 
HETATM    2  C10 UNL     1      -2.653   5.981  13.476  1.00  0.00     0.007 C 
HETATM    3  C11 UNL     1      -4.140   5.654  13.215  1.00  0.00     0.015 C 
HETATM    4  C12 UNL     1      -4.910   6.926  13.631  1.00  0.00    -0.005 C 
HETATM    5  C13 UNL     1      -4.813   7.919  12.430  1.00  0.00     0.021 C 
HETATM    6  C14 UNL     1      -6.401   6.887  13.948  1.00  0.00    -0.000 C 
HETATM    7  C15 UNL     1      -6.960   7.746  14.845  1.00  0.00    -0.060 C 
HETATM    8  C16 UNL     1      -6.086   8.713  15.651  1.00  0.00     0.036 C 
HETATM    9  C17 UNL     1      -4.574   8.724  15.352  1.00  0.00     0.015 C 
HETATM   10  C18 UNL     1      -4.084   7.335  14.920  1.00  0.00    -0.028 C 
HETATM   11  C19 UNL     1      -4.298   6.353  16.109  1.00  0.00     0.016 C 
HETATM   12  C20 UNL     1      -8.483   7.749  15.151  1.00  0.00    -0.014 C 
HETATM   13  C21 UNL     1      -8.685   6.749  16.310  1.00  0.00     0.020 C 
HETATM   14  C22 UNL     1      -8.989   9.150  15.596  1.00  0.00     0.021 C 
HETATM   15  C23 UNL     1     -10.505   9.231  15.721  1.00  0.00     0.080 C 
HETATM   16  C24 UNL     1     -11.109   8.938  14.377  1.00  0.00     0.135 C 
HETATM   17  O4  UNL     1     -11.829   9.766  13.824  1.00  0.00    -0.297 OA
HETATM   18  C25 UNL     1     -10.779   7.576  13.753  1.00  0.00     0.018 C 
HETATM   19  C26 UNL     1     -11.228   7.611  12.269  1.00  0.00     0.023 C 
HETATM   20  C27 UNL     1     -11.619   6.497  14.446  1.00  0.00     0.023 C 
HETATM   21  C28 UNL     1      -9.223   7.367  13.816  1.00  0.00     0.020 C 
HETATM   22  C29 UNL     1      -8.768   5.978  13.356  1.00  0.00     0.090 C 
HETATM   23  C30 UNL     1      -7.267   5.908  13.201  1.00  0.00     0.157 C 
HETATM   24  O5  UNL     1      -6.775   5.039  12.485  1.00  0.00    -0.293 OA
ENDROOT
BRANCH   1  25
HETATM   25  C2  UNL     1      -1.360   7.286  15.323  1.00  0.00    -0.014 C 
HETATM   26  C1  UNL     1      -1.425   8.252  16.508  1.00  0.00     0.010 C 
BRANCH  25  27
HETATM   27  C3  UNL     1      -0.065   7.489  14.501  1.00  0.00     0.007 C 
BRANCH  27  28
HETATM   28  C4  UNL     1      -0.261   7.682  12.980  1.00  0.00     0.035 C 
BRANCH  28  29
HETATM   29  C5  UNL     1       0.968   8.237  12.242  1.00  0.00     0.154 C 
BRANCH  29  30
HETATM   30  O1  UNL     1       0.528   8.951  11.076  1.00  0.00    -0.392 OA
HETATM   31  H10 UNL     1       1.354   9.139  10.582  1.00  0.00     0.210 HD
ENDBRANCH  29  30
BRANCH  29  32
HETATM   32  C6  UNL     1       2.013   7.178  11.790  1.00  0.00     0.101 C 
HETATM   33  C7  UNL     1       2.917   7.667  10.644  1.00  0.00     0.051 C 
BRANCH  32  34
HETATM   34  O2  UNL     1       2.882   6.974  12.930  1.00  0.00    -0.385 OA
HETATM   35  H14 UNL     1       3.483   6.237  12.684  1.00  0.00     0.210 HD
ENDBRANCH  32  34
BRANCH  32  36
HETATM   36  C8  UNL     1       1.354   5.827  11.454  1.00  0.00     0.204 C 
BRANCH  36  37
HETATM   37  O3  UNL     1       0.805   5.864  10.132  1.00  0.00    -0.398 OA
HETATM   38  H17 UNL     1      -0.152   6.045  10.214  1.00  0.00     0.209 HD
ENDBRANCH  36  37
ENDBRANCH  32  36
ENDBRANCH  29  32
ENDBRANCH  28  29
ENDBRANCH  27  28
ENDBRANCH  25  27
ENDBRANCH   1  25
TORSDOF 9
ENDMDL
MODEL 9
REMARK minimizedAffinity -6.84871054
REMARK CNNscore 0.317742765
REMARK CNNaffinity 5.89676666
REMARK  9 active torsions:
REMARK  status: ('A' for Active; 'I' for Inactive)
REMARK    1  A    between atoms: C2_2  and  C3_3 
REMARK    2  A    between atoms: C2_2  and  C9_12 
REMARK    3  A    between atoms: C3_3  and  C4_4 
REMARK    4  A    between atoms: C4_4  and  C5_5 
REMARK    5  A    between atoms: C5_5  and  O1_6 
REMARK    6  A    between atoms: C5_5  and  C6_7 
REMARK    7  A    between atoms: C6_7  and  O2_9 
REMARK    8  A    between atoms: C6_7  and  C8_10 
REMARK    9  A    between atoms: C8_10  and  O3_11 
ROOT
HETATM    1  C9  UNL     1      13.945  -7.767   5.293  1.00  0.00    -0.002 C 
HETATM    2  C10 UNL     1      12.801  -7.059   6.071  1.00  0.00     0.007 C 
HETATM    3  C11 UNL     1      13.439  -6.400   7.314  1.00  0.00     0.015 C 
HETATM    4  C12 UNL     1      14.956  -6.383   7.026  1.00  0.00    -0.005 C 
HETATM    5  C13 UNL     1      15.221  -5.148   6.108  1.00  0.00     0.021 C 
HETATM    6  C14 UNL     1      15.979  -6.227   8.146  1.00  0.00    -0.000 C 
HETATM    7  C15 UNL     1      17.218  -6.784   8.060  1.00  0.00    -0.060 C 
HETATM    8  C16 UNL     1      17.591  -7.681   6.874  1.00  0.00     0.036 C 
HETATM    9  C17 UNL     1      16.541  -7.864   5.761  1.00  0.00     0.015 C 
HETATM   10  C18 UNL     1      15.116  -7.795   6.327  1.00  0.00    -0.028 C 
HETATM   11  C19 UNL     1      14.929  -8.982   7.318  1.00  0.00     0.016 C 
HETATM   12  C20 UNL     1      18.288  -6.603   9.172  1.00  0.00    -0.014 C 
HETATM   13  C21 UNL     1      18.071  -7.767  10.163  1.00  0.00     0.020 C 
HETATM   14  C22 UNL     1      19.735  -6.677   8.612  1.00  0.00     0.021 C 
HETATM   15  C23 UNL     1      20.799  -6.318   9.641  1.00  0.00     0.080 C 
HETATM   16  C24 UNL     1      20.562  -4.905  10.095  1.00  0.00     0.135 C 
HETATM   17  O4  UNL     1      21.434  -4.051   9.954  1.00  0.00    -0.297 OA
HETATM   18  C25 UNL     1      19.198  -4.603  10.729  1.00  0.00     0.018 C 
HETATM   19  C26 UNL     1      19.051  -3.061  10.827  1.00  0.00     0.023 C 
HETATM   20  C27 UNL     1      19.189  -5.142  12.164  1.00  0.00     0.023 C 
HETATM   21  C28 UNL     1      18.077  -5.169   9.786  1.00  0.00     0.020 C 
HETATM   22  C29 UNL     1      16.666  -5.063  10.372  1.00  0.00     0.090 C 
HETATM   23  C30 UNL     1      15.610  -5.389   9.341  1.00  0.00     0.157 C 
HETATM   24  O5  UNL     1      14.462  -4.983   9.506  1.00  0.00    -0.293 OA
ENDROOT
BRANCH   1  25
HETATM   25  C2  UNL     1      13.467  -9.021   4.492  1.00  0.00    -0.014 C 
HETATM   26  C1  UNL     1      12.118  -8.904   3.779  1.00  0.00     0.010 C 
BRANCH  25  27
HETATM   27  C3  UNL     1      13.536 -10.298   5.363  1.00  0.00     0.007 C 
BRANCH  27  28
HETATM   28  C4  UNL     1      13.624 -11.633   4.589  1.00  0.00     0.035 C 
BRANCH  28  29
HETATM   29  C5  UNL     1      12.366 -12.510   4.680  1.00  0.00     0.154 C 
BRANCH  29  30
HETATM   30  O1  UNL     1      11.799 -12.376   5.994  1.00  0.00    -0.392 OA
HETATM   31  H10 UNL     1      11.105 -13.068   6.029  1.00  0.00     0.210 HD
ENDBRANCH  29  30
BRANCH  29  32
HETATM   32  C6  UNL     1      12.582 -14.024   4.403  1.00  0.00     0.101 C 
HETATM   33  C7  UNL     1      12.118 -14.458   3.001  1.00  0.00     0.051 C 
BRANCH  32  34
HETATM   34  O2  UNL     1      14.015 -14.227   4.434  1.00  0.00    -0.385 OA
HETATM   35  H14 UNL     1      14.153 -15.197   4.356  1.00  0.00     0.210 HD
ENDBRANCH  32  34
BRANCH  32  36
HETATM   36  C8  UNL     1      11.959 -14.905   5.503  1.00  0.00     0.204 C 
BRANCH  36  37
HETATM   37  O3  UNL     1      10.838 -15.625   4.979  1.00  0.00    -0.398 OA
HETATM   38  H17 UNL     1      10.029 -15.140   5.236  1.00  0.00     0.209 HD
ENDBRANCH  36  37
ENDBRANCH  32  36
ENDBRANCH  29  32
ENDBRANCH  28  29
ENDBRANCH  27  28
ENDBRANCH  25  27
ENDBRANCH   1  25
TORSDOF 9
ENDMDL
