MODEL 1
REMARK minimizedAffinity -8.94766903
REMARK  6 active torsions:
REMARK  status: ('A' for Active; 'I' for Inactive)
REMARK    1  A    between atoms: C2_2  and  C30_31 
REMARK    2  A    between atoms: C3_3  and  C4_4 
REMARK    3  A    between atoms: C4_4  and  C5_5 
REMARK    4  A    between atoms: C5_5  and  C6_6 
REMARK    5  A    between atoms: C6_6  and  C8_8 
REMARK    6  A    between atoms: C30_31  and  O2_32 
ROOT
HETATM    1  C8  UNL     1      -6.326   7.279  14.432  1.00  0.00    -0.002 C 
HETATM    2  C9  UNL     1      -6.135   8.704  15.052  1.00  0.00     0.007 C 
HETATM    3  C10 UNL     1      -4.641   9.076  14.916  1.00  0.00     0.015 C 
HETATM    4  C11 UNL     1      -4.087   8.048  13.919  1.00  0.00    -0.013 C 
HETATM    5  C12 UNL     1      -4.498   8.557  12.488  1.00  0.00     0.021 C 
HETATM    6  C13 UNL     1      -2.571   7.818  13.848  1.00  0.00    -0.070 C 
HETATM    7  C14 UNL     1      -1.727   8.861  13.690  1.00  0.00    -0.022 C 
HETATM    8  C15 UNL     1      -0.332   8.734  13.139  1.00  0.00     0.034 C 
HETATM    9  C16 UNL     1      -0.173   7.385  12.408  1.00  0.00     0.013 C 
HETATM   10  C17 UNL     1       1.147   7.191  11.595  1.00  0.00     0.018 C 
HETATM   11  C18 UNL     1       2.428   7.188  12.436  1.00  0.00     0.023 C 
HETATM   12  C19 UNL     1       1.273   8.296  10.525  1.00  0.00     0.023 C 
HETATM   13  C20 UNL     1       1.066   5.843  10.853  1.00  0.00     0.135 C 
HETATM   14  O1  UNL     1       1.853   5.548   9.950  1.00  0.00    -0.297 OA
HETATM   15  C21 UNL     1      -0.031   4.877  11.255  1.00  0.00     0.080 C 
HETATM   16  C22 UNL     1      -0.149   4.847  12.771  1.00  0.00     0.017 C 
HETATM   17  C23 UNL     1      -0.559   6.216  13.375  1.00  0.00    -0.031 C 
HETATM   18  C24 UNL     1       0.164   6.308  14.759  1.00  0.00     0.016 C 
HETATM   19  C25 UNL     1      -2.107   6.349  13.696  1.00  0.00     0.024 C 
HETATM   20  C26 UNL     1      -3.105   5.605  12.788  1.00  0.00     0.010 C 
HETATM   21  C27 UNL     1      -4.563   5.632  13.335  1.00  0.00     0.011 C 
HETATM   22  C28 UNL     1      -4.853   6.751  14.371  1.00  0.00    -0.029 C 
HETATM   23  C29 UNL     1      -4.474   6.272  15.813  1.00  0.00     0.016 C 
ENDROOT
BRANCH   1  24
HETATM   24  C6  UNL     1      -7.430   6.457  15.167  1.00  0.00    -0.014 C 
HETATM   25  C7  UNL     1      -7.363   6.636  16.686  1.00  0.00     0.010 C 
BRANCH  24  26
HETATM   26  C5  UNL     1      -7.298   4.953  14.795  1.00  0.00     0.008 C 
BRANCH  26  27
HETATM   27  C4  UNL     1      -7.972   4.509  13.490  1.00  0.00     0.028 C 
BRANCH  27  28
HETATM   28  C3  UNL     1      -6.997   4.095  12.422  1.00  0.00    -0.022 C 
HETATM   29  C2  UNL     1      -6.691   2.840  12.033  1.00  0.00    -0.064 C 
HETATM   30  C1  UNL     1      -7.270   1.592  12.644  1.00  0.00     0.045 C 
BRANCH  29  31
HETATM   31  C30 UNL     1      -5.713   2.597  10.914  1.00  0.00     0.197 C 
BRANCH  31  32
HETATM   32  O2  UNL     1      -4.920   1.465  11.235  1.00  0.00    -0.397 OA
HETATM   33  H48 UNL     1      -4.281   1.358  10.511  1.00  0.00     0.209 HD
ENDBRANCH  31  32
ENDBRANCH  29  31
ENDBRANCH  27  28
ENDBRANCH  26  27
ENDBRANCH  24  26
ENDBRANCH   1  24
TORSDOF 6
ENDMDL
MODEL 2
REMARK minimizedAffinity -8.7923193
REMARK  6 active torsions:
REMARK  status: ('A' for Active; 'I' for Inactive)
REMARK    1  A    between atoms: C2_2  and  C30_31 
REMARK    2  A    between atoms: C3_3  and  C4_4 
REMARK    3  A    between atoms: C4_4  and  C5_5 
REMARK    4  A    between atoms: C5_5  and  C6_6 
REMARK    5  A    between atoms: C6_6  and  C8_8 
REMARK    6  A    between atoms: C30_31  and  O2_32 
ROOT
HETATM    1  C8  UNL     1      -6.690   7.097  14.334  1.00  0.00    -0.002 C 
HETATM    2  C9  UNL     1      -6.510   8.479  15.046  1.00  0.00     0.007 C 
HETATM    3  C10 UNL     1      -5.010   8.846  14.979  1.00  0.00     0.015 C 
HETATM    4  C11 UNL     1      -4.432   7.876  13.938  1.00  0.00    -0.013 C 
HETATM    5  C12 UNL     1      -4.794   8.475  12.529  1.00  0.00     0.021 C 
HETATM    6  C13 UNL     1      -2.915   7.637  13.900  1.00  0.00    -0.070 C 
HETATM    7  C14 UNL     1      -2.060   8.681  13.832  1.00  0.00    -0.022 C 
HETATM    8  C15 UNL     1      -0.650   8.577  13.317  1.00  0.00     0.034 C 
HETATM    9  C16 UNL     1      -0.477   7.273  12.510  1.00  0.00     0.013 C 
HETATM   10  C17 UNL     1       0.866   7.119  11.728  1.00  0.00     0.018 C 
HETATM   11  C18 UNL     1       2.121   7.053  12.605  1.00  0.00     0.023 C 
HETATM   12  C19 UNL     1       1.033   8.286  10.732  1.00  0.00     0.023 C 
HETATM   13  C20 UNL     1       0.799   5.819  10.902  1.00  0.00     0.135 C 
HETATM   14  O1  UNL     1       1.612   5.573  10.007  1.00  0.00    -0.297 OA
HETATM   15  C21 UNL     1      -0.315   4.840  11.210  1.00  0.00     0.080 C 
HETATM   16  C22 UNL     1      -0.481   4.718  12.716  1.00  0.00     0.017 C 
HETATM   17  C23 UNL     1      -0.900   6.051  13.391  1.00  0.00    -0.031 C 
HETATM   18  C24 UNL     1      -0.221   6.052  14.799  1.00  0.00     0.016 C 
HETATM   19  C25 UNL     1      -2.456   6.178  13.672  1.00  0.00     0.024 C 
HETATM   20  C26 UNL     1      -3.431   5.499  12.690  1.00  0.00     0.010 C 
HETATM   21  C27 UNL     1      -4.905   5.504  13.192  1.00  0.00     0.011 C 
HETATM   22  C28 UNL     1      -5.220   6.560  14.285  1.00  0.00    -0.029 C 
HETATM   23  C29 UNL     1      -4.889   5.991  15.707  1.00  0.00     0.016 C 
ENDROOT
BRANCH   1  24
HETATM   24  C6  UNL     1      -7.823   6.240  14.983  1.00  0.00    -0.014 C 
HETATM   25  C7  UNL     1      -7.524   4.740  14.903  1.00  0.00     0.010 C 
BRANCH  24  26
HETATM   26  C5  UNL     1      -9.179   6.558  14.294  1.00  0.00     0.008 C 
BRANCH  26  27
HETATM   27  C4  UNL     1     -10.154   7.446  15.078  1.00  0.00     0.028 C 
BRANCH  27  28
HETATM   28  C3  UNL     1     -10.784   8.527  14.243  1.00  0.00    -0.022 C 
HETATM   29  C2  UNL     1     -11.878   8.426  13.460  1.00  0.00    -0.064 C 
HETATM   30  C1  UNL     1     -12.666   7.160  13.254  1.00  0.00     0.045 C 
BRANCH  29  31
HETATM   31  C30 UNL     1     -12.404   9.623  12.712  1.00  0.00     0.197 C 
BRANCH  31  32
HETATM   32  O2  UNL     1     -11.832   9.641  11.414  1.00  0.00    -0.397 OA
HETATM   33  H48 UNL     1     -12.165  10.441  10.975  1.00  0.00     0.209 HD
ENDBRANCH  31  32
ENDBRANCH  29  31
ENDBRANCH  27  28
ENDBRANCH  26  27
ENDBRANCH  24  26
ENDBRANCH   1  24
TORSDOF 6
ENDMDL
MODEL 3
REMARK minimizedAffinity -8.5077858
REMARK  6 active torsions:
REMARK  status: ('A' for Active; 'I' for Inactive)
REMARK    1  A    between atoms: C2_2  and  C30_31 
REMARK    2  A    between atoms: C3_3  and  C4_4 
REMARK    3  A    between atoms: C4_4  and  C5_5 
REMARK    4  A    between atoms: C5_5  and  C6_6 
REMARK    5  A    between atoms: C6_6  and  C8_8 
REMARK    6  A    between atoms: C30_31  and  O2_32 
ROOT
HETATM    1  C8  UNL     1      -3.630   8.769  14.463  1.00  0.00    -0.002 C 
HETATM    2  C9  UNL     1      -3.132   8.260  15.857  1.00  0.00     0.007 C 
HETATM    3  C10 UNL     1      -1.710   7.687  15.664  1.00  0.00     0.015 C 
HETATM    4  C11 UNL     1      -1.284   8.199  14.280  1.00  0.00    -0.013 C 
HETATM    5  C12 UNL     1      -0.818   9.688  14.485  1.00  0.00     0.021 C 
HETATM    6  C13 UNL     1      -0.122   7.507  13.552  1.00  0.00    -0.070 C 
HETATM    7  C14 UNL     1       1.063   7.326  14.174  1.00  0.00    -0.022 C 
HETATM    8  C15 UNL     1       2.367   7.120  13.450  1.00  0.00     0.034 C 
HETATM    9  C16 UNL     1       2.229   7.562  11.978  1.00  0.00     0.013 C 
HETATM   10  C17 UNL     1       3.550   7.615  11.147  1.00  0.00     0.018 C 
HETATM   11  C18 UNL     1       4.244   6.262  10.951  1.00  0.00     0.023 C 
HETATM   12  C19 UNL     1       4.553   8.581  11.812  1.00  0.00     0.023 C 
HETATM   13  C20 UNL     1       3.223   8.184   9.752  1.00  0.00     0.135 C 
HETATM   14  O1  UNL     1       4.107   8.564   8.980  1.00  0.00    -0.297 OA
HETATM   15  C21 UNL     1       1.765   8.281   9.350  1.00  0.00     0.080 C 
HETATM   16  C22 UNL     1       1.037   7.016   9.775  1.00  0.00     0.017 C 
HETATM   17  C23 UNL     1       1.031   6.806  11.313  1.00  0.00    -0.031 C 
HETATM   18  C24 UNL     1       1.090   5.260  11.536  1.00  0.00     0.016 C 
HETATM   19  C25 UNL     1      -0.299   7.288  12.031  1.00  0.00     0.024 C 
HETATM   20  C26 UNL     1      -1.048   8.497  11.439  1.00  0.00     0.010 C 
HETATM   21  C27 UNL     1      -2.443   8.729  12.093  1.00  0.00     0.011 C 
HETATM   22  C28 UNL     1      -2.633   8.064  13.483  1.00  0.00    -0.029 C 
HETATM   23  C29 UNL     1      -3.116   6.583  13.319  1.00  0.00     0.016 C 
ENDROOT
BRANCH   1  24
HETATM   24  C6  UNL     1      -5.171   8.592  14.284  1.00  0.00    -0.014 C 
HETATM   25  C7  UNL     1      -5.918   8.687  15.617  1.00  0.00     0.010 C 
BRANCH  24  26
HETATM   26  C5  UNL     1      -5.465   7.229  13.596  1.00  0.00     0.008 C 
BRANCH  26  27
HETATM   27  C4  UNL     1      -6.452   6.299  14.313  1.00  0.00     0.028 C 
BRANCH  27  28
HETATM   28  C3  UNL     1      -6.399   4.878  13.826  1.00  0.00    -0.022 C 
HETATM   29  C2  UNL     1      -7.227   4.282  12.943  1.00  0.00    -0.064 C 
HETATM   30  C1  UNL     1      -8.407   4.953  12.293  1.00  0.00     0.045 C 
BRANCH  29  31
HETATM   31  C30 UNL     1      -7.012   2.849  12.530  1.00  0.00     0.197 C 
BRANCH  31  32
HETATM   32  O2  UNL     1      -8.228   2.138  12.693  1.00  0.00    -0.397 OA
HETATM   33  H48 UNL     1      -8.045   1.214  12.451  1.00  0.00     0.209 HD
ENDBRANCH  31  32
ENDBRANCH  29  31
ENDBRANCH  27  28
ENDBRANCH  26  27
ENDBRANCH  24  26
ENDBRANCH   1  24
TORSDOF 6
ENDMDL
MODEL 4
REMARK minimizedAffinity -8.50511742
REMARK  6 active torsions:
REMARK  status: ('A' for Active; 'I' for Inactive)
REMARK    1  A    between atoms: C2_2  and  C30_31 
REMARK    2  A    between atoms: C3_3  and  C4_4 
REMARK    3  A    between atoms: C4_4  and  C5_5 
REMARK    4  A    between atoms: C5_5  and  C6_6 
REMARK    5  A    between atoms: C6_6  and  C8_8 
REMARK    6  A    between atoms: C30_31  and  O2_32 
ROOT
HETATM    1  C8  UNL     1      -3.044   4.664  13.268  1.00  0.00    -0.002 C 
HETATM    2  C9  UNL     1      -2.061   4.872  12.067  1.00  0.00     0.007 C 
HETATM    3  C10 UNL     1      -1.336   6.220  12.285  1.00  0.00     0.015 C 
HETATM    4  C11 UNL     1      -1.634   6.574  13.750  1.00  0.00    -0.013 C 
HETATM    5  C12 UNL     1      -0.635   5.724  14.620  1.00  0.00     0.021 C 
HETATM    6  C13 UNL     1      -1.450   8.024  14.220  1.00  0.00    -0.070 C 
HETATM    7  C14 UNL     1      -0.288   8.674  13.994  1.00  0.00    -0.022 C 
HETATM    8  C15 UNL     1       0.177   9.862  14.793  1.00  0.00     0.034 C 
HETATM    9  C16 UNL     1      -0.610   9.949  16.117  1.00  0.00     0.013 C 
HETATM   10  C17 UNL     1      -0.100  10.997  17.156  1.00  0.00     0.018 C 
HETATM   11  C18 UNL     1      -0.193  12.457  16.699  1.00  0.00     0.023 C 
HETATM   12  C19 UNL     1       1.369  10.700  17.527  1.00  0.00     0.023 C 
HETATM   13  C20 UNL     1      -0.935  10.851  18.443  1.00  0.00     0.135 C 
HETATM   14  O1  UNL     1      -0.593  11.378  19.505  1.00  0.00    -0.297 OA
HETATM   15  C21 UNL     1      -2.201  10.021  18.376  1.00  0.00     0.080 C 
HETATM   16  C22 UNL     1      -2.949  10.339  17.091  1.00  0.00     0.017 C 
HETATM   17  C23 UNL     1      -2.146   9.976  15.815  1.00  0.00    -0.031 C 
HETATM   18  C24 UNL     1      -2.534  11.046  14.743  1.00  0.00     0.016 C 
HETATM   19  C25 UNL     1      -2.534   8.577  15.176  1.00  0.00     0.024 C 
HETATM   20  C26 UNL     1      -2.986   7.447  16.121  1.00  0.00     0.010 C 
HETATM   21  C27 UNL     1      -3.549   6.208  15.363  1.00  0.00     0.011 C 
HETATM   22  C28 UNL     1      -3.131   6.106  13.872  1.00  0.00    -0.029 C 
HETATM   23  C29 UNL     1      -4.116   6.926  12.971  1.00  0.00     0.016 C 
ENDROOT
BRANCH   1  24
HETATM   24  C6  UNL     1      -4.341   3.905  12.847  1.00  0.00    -0.014 C 
HETATM   25  C7  UNL     1      -4.389   3.645  11.339  1.00  0.00     0.010 C 
BRANCH  24  26
HETATM   26  C5  UNL     1      -5.590   4.715  13.295  1.00  0.00     0.008 C 
BRANCH  26  27
HETATM   27  C4  UNL     1      -6.925   3.959  13.315  1.00  0.00     0.028 C 
BRANCH  27  28
HETATM   28  C3  UNL     1      -8.007   4.632  12.516  1.00  0.00    -0.022 C 
HETATM   29  C2  UNL     1      -8.690   5.750  12.839  1.00  0.00    -0.064 C 
HETATM   30  C1  UNL     1      -8.502   6.528  14.115  1.00  0.00     0.045 C 
BRANCH  29  31
HETATM   31  C30 UNL     1      -9.726   6.318  11.904  1.00  0.00     0.197 C 
BRANCH  31  32
HETATM   32  O2  UNL     1      -9.278   6.149  10.568  1.00  0.00    -0.397 OA
HETATM   33  H48 UNL     1      -9.951   6.555   9.996  1.00  0.00     0.209 HD
ENDBRANCH  31  32
ENDBRANCH  29  31
ENDBRANCH  27  28
ENDBRANCH  26  27
ENDBRANCH  24  26
ENDBRANCH   1  24
TORSDOF 6
ENDMDL
MODEL 5
REMARK minimizedAffinity -8.47659588
REMARK  6 active torsions:
REMARK  status: ('A' for Active; 'I' for Inactive)
REMARK    1  A    between atoms: C2_2  and  C30_31 
REMARK    2  A    between atoms: C3_3  and  C4_4 
REMARK    3  A    between atoms: C4_4  and  C5_5 
REMARK    4  A    between atoms: C5_5  and  C6_6 
REMARK    5  A    between atoms: C6_6  and  C8_8 
REMARK    6  A    between atoms: C30_31  and  O2_32 
ROOT
HETATM    1  C8  UNL     1      -1.996   9.619  15.496  1.00  0.00    -0.002 C 
HETATM    2  C9  UNL     1      -1.057   9.010  16.591  1.00  0.00     0.007 C 
HETATM    3  C10 UNL     1       0.063   8.232  15.864  1.00  0.00     0.015 C 
HETATM    4  C11 UNL     1      -0.038   8.702  14.406  1.00  0.00    -0.013 C 
HETATM    5  C12 UNL     1       0.686  10.097  14.342  1.00  0.00     0.021 C 
HETATM    6  C13 UNL     1       0.612   7.856  13.301  1.00  0.00    -0.070 C 
HETATM    7  C14 UNL     1       1.907   7.484  13.398  1.00  0.00    -0.022 C 
HETATM    8  C15 UNL     1       2.759   7.097  12.218  1.00  0.00     0.034 C 
HETATM    9  C16 UNL     1       2.103   7.587  10.910  1.00  0.00     0.013 C 
HETATM   10  C17 UNL     1       2.965   7.455   9.615  1.00  0.00     0.018 C 
HETATM   11  C18 UNL     1       3.312   6.017   9.213  1.00  0.00     0.023 C 
HETATM   12  C19 UNL     1       4.283   8.243   9.776  1.00  0.00     0.023 C 
HETATM   13  C20 UNL     1       2.189   8.097   8.448  1.00  0.00     0.135 C 
HETATM   14  O1  UNL     1       2.729   8.355   7.369  1.00  0.00    -0.297 OA
HETATM   15  C21 UNL     1       0.725   8.424   8.666  1.00  0.00     0.080 C 
HETATM   16  C22 UNL     1       0.053   7.276   9.402  1.00  0.00     0.017 C 
HETATM   17  C23 UNL     1       0.641   7.036  10.818  1.00  0.00    -0.031 C 
HETATM   18  C24 UNL     1       0.555   5.495  11.064  1.00  0.00     0.016 C 
HETATM   19  C25 UNL     1      -0.196   7.700  11.991  1.00  0.00     0.024 C 
HETATM   20  C26 UNL     1      -0.934   9.021  11.702  1.00  0.00     0.010 C 
HETATM   21  C27 UNL     1      -1.892   9.449  12.853  1.00  0.00     0.011 C 
HETATM   22  C28 UNL     1      -1.598   8.791  14.228  1.00  0.00    -0.029 C 
HETATM   23  C29 UNL     1      -2.319   7.405  14.336  1.00  0.00     0.016 C 
ENDROOT
BRANCH   1  24
HETATM   24  C6  UNL     1      -3.485   9.683  15.963  1.00  0.00    -0.014 C 
HETATM   25  C7  UNL     1      -3.604   9.990  17.458  1.00  0.00     0.010 C 
BRANCH  24  26
HETATM   26  C5  UNL     1      -4.196   8.341  15.629  1.00  0.00     0.008 C 
BRANCH  26  27
HETATM   27  C4  UNL     1      -5.512   8.440  14.848  1.00  0.00     0.028 C 
BRANCH  27  28
HETATM   28  C3  UNL     1      -6.106   7.103  14.500  1.00  0.00    -0.022 C 
HETATM   29  C2  UNL     1      -6.902   6.333  15.272  1.00  0.00    -0.064 C 
HETATM   30  C1  UNL     1      -7.323   6.679  16.675  1.00  0.00     0.045 C 
BRANCH  29  31
HETATM   31  C30 UNL     1      -7.445   5.027  14.755  1.00  0.00     0.197 C 
BRANCH  31  32
HETATM   32  O2  UNL     1      -7.982   4.291  15.843  1.00  0.00    -0.397 OA
HETATM   33  H48 UNL     1      -8.291   3.444  15.481  1.00  0.00     0.209 HD
ENDBRANCH  31  32
ENDBRANCH  29  31
ENDBRANCH  27  28
ENDBRANCH  26  27
ENDBRANCH  24  26
ENDBRANCH   1  24
TORSDOF 6
ENDMDL
MODEL 6
REMARK minimizedAffinity -8.32519722
REMARK  6 active torsions:
REMARK  status: ('A' for Active; 'I' for Inactive)
REMARK    1  A    between atoms: C2_2  and  C30_31 
REMARK    2  A    between atoms: C3_3  and  C4_4 
REMARK    3  A    between atoms: C4_4  and  C5_5 
REMARK    4  A    between atoms: C5_5  and  C6_6 
REMARK    5  A    between atoms: C6_6  and  C8_8 
REMARK    6  A    between atoms: C30_31  and  O2_32 
ROOT
HETATM    1  C8  UNL     1      -1.727   5.989  12.338  1.00  0.00    -0.002 C 
HETATM    2  C9  UNL     1      -2.489   6.640  13.541  1.00  0.00     0.007 C 
HETATM    3  C10 UNL     1      -1.529   7.648  14.212  1.00  0.00     0.015 C 
HETATM    4  C11 UNL     1      -0.396   7.825  13.190  1.00  0.00    -0.013 C 
HETATM    5  C12 UNL     1      -0.934   8.831  12.106  1.00  0.00     0.021 C 
HETATM    6  C13 UNL     1       0.946   8.409  13.655  1.00  0.00    -0.070 C 
HETATM    7  C14 UNL     1       0.984   9.574  14.337  1.00  0.00    -0.022 C 
HETATM    8  C15 UNL     1       2.199  10.460  14.416  1.00  0.00     0.034 C 
HETATM    9  C16 UNL     1       3.199  10.085  13.302  1.00  0.00     0.013 C 
HETATM   10  C17 UNL     1       4.413  11.049  13.111  1.00  0.00     0.018 C 
HETATM   11  C18 UNL     1       5.369  11.129  14.306  1.00  0.00     0.023 C 
HETATM   12  C19 UNL     1       3.910  12.475  12.799  1.00  0.00     0.023 C 
HETATM   13  C20 UNL     1       5.223  10.572  11.889  1.00  0.00     0.135 C 
HETATM   14  O1  UNL     1       6.085  11.281  11.363  1.00  0.00    -0.297 OA
HETATM   15  C21 UNL     1       4.921   9.196  11.332  1.00  0.00     0.080 C 
HETATM   16  C22 UNL     1       4.744   8.213  12.477  1.00  0.00     0.017 C 
HETATM   17  C23 UNL     1       3.543   8.561  13.397  1.00  0.00    -0.031 C 
HETATM   18  C24 UNL     1       3.963   8.122  14.837  1.00  0.00     0.016 C 
HETATM   19  C25 UNL     1       2.219   7.749  13.075  1.00  0.00     0.024 C 
HETATM   20  C26 UNL     1       1.948   7.349  11.612  1.00  0.00     0.010 C 
HETATM   21  C27 UNL     1       0.745   6.372  11.460  1.00  0.00     0.011 C 
HETATM   22  C28 UNL     1      -0.238   6.352  12.661  1.00  0.00    -0.029 C 
HETATM   23  C29 UNL     1       0.256   5.346  13.755  1.00  0.00     0.016 C 
ENDROOT
BRANCH   1  24
HETATM   24  C6  UNL     1      -2.145   4.503  12.106  1.00  0.00    -0.014 C 
HETATM   25  C7  UNL     1      -1.813   4.029  10.688  1.00  0.00     0.010 C 
BRANCH  24  26
HETATM   26  C5  UNL     1      -3.665   4.337  12.389  1.00  0.00     0.008 C 
BRANCH  26  27
HETATM   27  C4  UNL     1      -4.459   3.489  11.387  1.00  0.00     0.028 C 
BRANCH  27  28
HETATM   28  C3  UNL     1      -5.839   3.131  11.865  1.00  0.00    -0.022 C 
HETATM   29  C2  UNL     1      -6.660   3.877  12.633  1.00  0.00    -0.064 C 
HETATM   30  C1  UNL     1      -6.314   5.233  13.187  1.00  0.00     0.045 C 
BRANCH  29  31
HETATM   31  C30 UNL     1      -8.036   3.382  12.995  1.00  0.00     0.197 C 
BRANCH  31  32
HETATM   32  O2  UNL     1      -8.119   1.998  12.697  1.00  0.00    -0.397 OA
HETATM   33  H48 UNL     1      -9.026   1.721  12.910  1.00  0.00     0.209 HD
ENDBRANCH  31  32
ENDBRANCH  29  31
ENDBRANCH  27  28
ENDBRANCH  26  27
ENDBRANCH  24  26
ENDBRANCH   1  24
TORSDOF 6
ENDMDL
MODEL 7
REMARK minimizedAffinity -8.2857542
REMARK  6 active torsions:
REMARK  status: ('A' for Active; 'I' for Inactive)
REMARK    1  A    between atoms: C2_2  and  C30_31 
REMARK    2  A    between atoms: C3_3  and  C4_4 
REMARK    3  A    between atoms: C4_4  and  C5_5 
REMARK    4  A    between atoms: C5_5  and  C6_6 
REMARK    5  A    between atoms: C6_6  and  C8_8 
REMARK    6  A    between atoms: C30_31  and  O2_32 
ROOT
HETATM    1  C8  UNL     1      -2.108   7.065  13.570  1.00  0.00    -0.002 C 
HETATM    2  C9  UNL     1      -3.456   7.522  12.917  1.00  0.00     0.007 C 
HETATM    3  C10 UNL     1      -3.953   8.762  13.694  1.00  0.00     0.015 C 
HETATM    4  C11 UNL     1      -2.734   9.204  14.518  1.00  0.00    -0.013 C 
HETATM    5  C12 UNL     1      -1.806  10.008  13.533  1.00  0.00     0.021 C 
HETATM    6  C13 UNL     1      -2.943  10.129  15.725  1.00  0.00    -0.070 C 
HETATM    7  C14 UNL     1      -3.638  11.280  15.593  1.00  0.00    -0.022 C 
HETATM    8  C15 UNL     1      -3.502  12.454  16.526  1.00  0.00     0.034 C 
HETATM    9  C16 UNL     1      -2.203  12.326  17.349  1.00  0.00     0.013 C 
HETATM   10  C17 UNL     1      -1.805  13.568  18.207  1.00  0.00     0.018 C 
HETATM   11  C18 UNL     1      -2.791  13.923  19.326  1.00  0.00     0.023 C 
HETATM   12  C19 UNL     1      -1.639  14.805  17.299  1.00  0.00     0.023 C 
HETATM   13  C20 UNL     1      -0.435  13.290  18.857  1.00  0.00     0.135 C 
HETATM   14  O1  UNL     1       0.230  14.186  19.383  1.00  0.00    -0.297 OA
HETATM   15  C21 UNL     1       0.092  11.870  18.820  1.00  0.00     0.080 C 
HETATM   16  C22 UNL     1      -1.037  10.902  19.134  1.00  0.00     0.017 C 
HETATM   17  C23 UNL     1      -2.184  10.947  18.090  1.00  0.00    -0.031 C 
HETATM   18  C24 UNL     1      -3.501  10.667  18.885  1.00  0.00     0.016 C 
HETATM   19  C25 UNL     1      -2.105   9.810  16.986  1.00  0.00     0.024 C 
HETATM   20  C26 UNL     1      -0.713   9.319  16.546  1.00  0.00     0.010 C 
HETATM   21  C27 UNL     1      -0.772   8.058  15.633  1.00  0.00     0.011 C 
HETATM   22  C28 UNL     1      -2.142   7.811  14.946  1.00  0.00    -0.029 C 
HETATM   23  C29 UNL     1      -3.089   6.995  15.891  1.00  0.00     0.016 C 
ENDROOT
BRANCH   1  24
HETATM   24  C6  UNL     1      -1.920   5.516  13.516  1.00  0.00    -0.014 C 
HETATM   25  C7  UNL     1      -1.309   5.059  12.188  1.00  0.00     0.010 C 
BRANCH  24  26
HETATM   26  C5  UNL     1      -3.287   4.814  13.751  1.00  0.00     0.008 C 
BRANCH  26  27
HETATM   27  C4  UNL     1      -4.032   4.329  12.501  1.00  0.00     0.028 C 
BRANCH  27  28
HETATM   28  C3  UNL     1      -5.505   4.123  12.722  1.00  0.00    -0.022 C 
HETATM   29  C2  UNL     1      -6.265   3.098  12.283  1.00  0.00    -0.064 C 
HETATM   30  C1  UNL     1      -5.757   1.958  11.441  1.00  0.00     0.045 C 
BRANCH  29  31
HETATM   31  C30 UNL     1      -7.730   3.023  12.625  1.00  0.00     0.197 C 
BRANCH  31  32
HETATM   32  O2  UNL     1      -8.138   1.665  12.598  1.00  0.00    -0.397 OA
HETATM   33  H48 UNL     1      -9.091   1.657  12.789  1.00  0.00     0.209 HD
ENDBRANCH  31  32
ENDBRANCH  29  31
ENDBRANCH  27  28
ENDBRANCH  26  27
ENDBRANCH  24  26
ENDBRANCH   1  24
TORSDOF 6
ENDMDL
MODEL 8
REMARK minimizedAffinity -8.27053165
REMARK  6 active torsions:
REMARK  status: ('A' for Active; 'I' for Inactive)
REMARK    1  A    between atoms: C2_2  and  C30_31 
REMARK    2  A    between atoms: C3_3  and  C4_4 
REMARK    3  A    between atoms: C4_4  and  C5_5 
REMARK    4  A    between atoms: C5_5  and  C6_6 
REMARK    5  A    between atoms: C6_6  and  C8_8 
REMARK    6  A    between atoms: C30_31  and  O2_32 
ROOT
HETATM    1  C8  UNL     1      -2.782   5.930  12.624  1.00  0.00    -0.002 C 
HETATM    2  C9  UNL     1      -3.830   5.334  13.622  1.00  0.00     0.007 C 
HETATM    3  C10 UNL     1      -4.066   6.383  14.732  1.00  0.00     0.015 C 
HETATM    4  C11 UNL     1      -3.449   7.671  14.169  1.00  0.00    -0.013 C 
HETATM    5  C12 UNL     1      -4.510   8.268  13.172  1.00  0.00     0.021 C 
HETATM    6  C13 UNL     1      -3.106   8.818  15.130  1.00  0.00    -0.070 C 
HETATM    7  C14 UNL     1      -4.034   9.291  15.990  1.00  0.00    -0.022 C 
HETATM    8  C15 UNL     1      -3.984  10.664  16.606  1.00  0.00     0.034 C 
HETATM    9  C16 UNL     1      -3.011  11.563  15.815  1.00  0.00     0.013 C 
HETATM   10  C17 UNL     1      -3.008  13.078  16.194  1.00  0.00     0.018 C 
HETATM   11  C18 UNL     1      -2.547  13.385  17.623  1.00  0.00     0.023 C 
HETATM   12  C19 UNL     1      -4.419  13.671  16.003  1.00  0.00     0.023 C 
HETATM   13  C20 UNL     1      -2.065  13.818  15.225  1.00  0.00     0.135 C 
HETATM   14  O1  UNL     1      -2.060  15.048  15.134  1.00  0.00    -0.297 OA
HETATM   15  C21 UNL     1      -1.140  12.985  14.361  1.00  0.00     0.080 C 
HETATM   16  C22 UNL     1      -0.542  11.863  15.194  1.00  0.00     0.017 C 
HETATM   17  C23 UNL     1      -1.607  10.874  15.736  1.00  0.00    -0.031 C 
HETATM   18  C24 UNL     1      -1.084  10.399  17.130  1.00  0.00     0.016 C 
HETATM   19  C25 UNL     1      -1.769   9.553  14.871  1.00  0.00     0.024 C 
HETATM   20  C26 UNL     1      -1.541   9.647  13.350  1.00  0.00     0.010 C 
HETATM   21  C27 UNL     1      -1.508   8.255  12.653  1.00  0.00     0.011 C 
HETATM   22  C28 UNL     1      -2.166   7.102  13.459  1.00  0.00    -0.029 C 
HETATM   23  C29 UNL     1      -1.132   6.470  14.451  1.00  0.00     0.016 C 
ENDROOT
BRANCH   1  24
HETATM   24  C6  UNL     1      -1.861   4.831  12.006  1.00  0.00    -0.014 C 
HETATM   25  C7  UNL     1      -0.611   5.431  11.355  1.00  0.00     0.010 C 
BRANCH  24  26
HETATM   26  C5  UNL     1      -2.664   3.999  10.967  1.00  0.00     0.008 C 
BRANCH  26  27
HETATM   27  C4  UNL     1      -3.407   2.768  11.503  1.00  0.00     0.028 C 
BRANCH  27  28
HETATM   28  C3  UNL     1      -4.772   3.084  12.051  1.00  0.00    -0.022 C 
HETATM   29  C2  UNL     1      -5.905   2.370  11.889  1.00  0.00    -0.064 C 
HETATM   30  C1  UNL     1      -6.010   1.106  11.077  1.00  0.00     0.045 C 
BRANCH  29  31
HETATM   31  C30 UNL     1      -7.191   2.808  12.540  1.00  0.00     0.197 C 
BRANCH  31  32
HETATM   32  O2  UNL     1      -8.064   1.693  12.626  1.00  0.00    -0.397 OA
HETATM   33  H48 UNL     1      -8.892   2.018  13.018  1.00  0.00     0.209 HD
ENDBRANCH  31  32
ENDBRANCH  29  31
ENDBRANCH  27  28
ENDBRANCH  26  27
ENDBRANCH  24  26
ENDBRANCH   1  24
TORSDOF 6
ENDMDL
MODEL 9
REMARK minimizedAffinity -8.17681122
REMARK  6 active torsions:
REMARK  status: ('A' for Active; 'I' for Inactive)
REMARK    1  A    between atoms: C2_2  and  C30_31 
REMARK    2  A    between atoms: C3_3  and  C4_4 
REMARK    3  A    between atoms: C4_4  and  C5_5 
REMARK    4  A    between atoms: C5_5  and  C6_6 
REMARK    5  A    between atoms: C6_6  and  C8_8 
REMARK    6  A    between atoms: C30_31  and  O2_32 
ROOT
HETATM    1  C8  UNL     1       1.586   6.766  11.624  1.00  0.00    -0.002 C 
HETATM    2  C9  UNL     1       1.569   5.222  11.365  1.00  0.00     0.007 C 
HETATM    3  C10 UNL     1       0.266   4.661  11.978  1.00  0.00     0.015 C 
HETATM    4  C11 UNL     1      -0.592   5.907  12.243  1.00  0.00    -0.013 C 
HETATM    5  C12 UNL     1      -1.235   6.301  10.863  1.00  0.00     0.021 C 
HETATM    6  C13 UNL     1      -1.768   5.809  13.226  1.00  0.00    -0.070 C 
HETATM    7  C14 UNL     1      -2.698   4.840  13.085  1.00  0.00    -0.022 C 
HETATM    8  C15 UNL     1      -4.091   4.926  13.649  1.00  0.00     0.034 C 
HETATM    9  C16 UNL     1      -4.425   6.389  14.010  1.00  0.00     0.013 C 
HETATM   10  C17 UNL     1      -5.907   6.681  14.405  1.00  0.00     0.018 C 
HETATM   11  C18 UNL     1      -6.386   5.979  15.681  1.00  0.00     0.023 C 
HETATM   12  C19 UNL     1      -6.849   6.279  13.250  1.00  0.00     0.023 C 
HETATM   13  C20 UNL     1      -6.063   8.200  14.615  1.00  0.00     0.135 C 
HETATM   14  O1  UNL     1      -7.171   8.737  14.691  1.00  0.00    -0.297 OA
HETATM   15  C21 UNL     1      -4.801   9.035  14.713  1.00  0.00     0.080 C 
HETATM   16  C22 UNL     1      -3.781   8.312  15.577  1.00  0.00     0.017 C 
HETATM   17  C23 UNL     1      -3.334   6.952  14.981  1.00  0.00    -0.031 C 
HETATM   18  C24 UNL     1      -3.065   6.014  16.202  1.00  0.00     0.016 C 
HETATM   19  C25 UNL     1      -1.964   7.010  14.182  1.00  0.00     0.024 C 
HETATM   20  C26 UNL     1      -1.616   8.307  13.427  1.00  0.00     0.010 C 
HETATM   21  C27 UNL     1      -0.160   8.319  12.875  1.00  0.00     0.011 C 
HETATM   22  C28 UNL     1       0.502   6.921  12.742  1.00  0.00    -0.029 C 
HETATM   23  C29 UNL     1       1.171   6.503  14.095  1.00  0.00     0.016 C 
ENDROOT
BRANCH   1  24
HETATM   24  C6  UNL     1       3.032   7.314  11.843  1.00  0.00    -0.014 C 
HETATM   25  C7  UNL     1       3.040   8.823  12.101  1.00  0.00     0.010 C 
BRANCH  24  26
HETATM   26  C5  UNL     1       3.913   6.972  10.609  1.00  0.00     0.008 C 
BRANCH  26  27
HETATM   27  C4  UNL     1       3.648   7.781   9.333  1.00  0.00     0.028 C 
BRANCH  27  28
HETATM   28  C3  UNL     1       2.191   8.067   9.096  1.00  0.00    -0.022 C 
HETATM   29  C2  UNL     1       1.467   7.778   7.995  1.00  0.00    -0.064 C 
HETATM   30  C1  UNL     1       2.020   7.124   6.757  1.00  0.00     0.045 C 
BRANCH  29  31
HETATM   31  C30 UNL     1      -0.003   8.102   7.932  1.00  0.00     0.197 C 
BRANCH  31  32
HETATM   32  O2  UNL     1      -0.257   9.237   8.744  1.00  0.00    -0.397 OA
HETATM   33  H48 UNL     1      -1.216   9.396   8.707  1.00  0.00     0.209 HD
ENDBRANCH  31  32
ENDBRANCH  29  31
ENDBRANCH  27  28
ENDBRANCH  26  27
ENDBRANCH  24  26
ENDBRANCH   1  24
TORSDOF 6
ENDMDL
