MODEL 1
REMARK minimizedAffinity -8.93348122
REMARK CNNscore 0.404565811
REMARK CNNaffinity 6.9891572
REMARK  11 active torsions:
REMARK  status: ('A' for Active; 'I' for Inactive)
REMARK    1  A    between atoms: O1_2  and  C2_3 
REMARK    2  A    between atoms: C16_18  and  C17_19 
REMARK    3  A    between atoms: C17_19  and  C19_21 
REMARK    4  A    between atoms: C23_25  and  C24_26 
REMARK    5  A    between atoms: C24_26  and  O3_27 
REMARK    6  A    between atoms: O3_27  and  C25_28 
REMARK    7  A    between atoms: C26_30  and  C27_31 
REMARK    8  A    between atoms: C27_31  and  O5_32 
REMARK    9  A    between atoms: C28_33  and  O6_34 
REMARK   10  A    between atoms: C29_35  and  O7_36 
REMARK   11  A    between atoms: C30_37  and  O8_38 
ROOT
HETATM    1  C19 UNL     1      -0.615  50.698 -18.207  1.00  0.00     0.140 C 
HETATM    2  C20 UNL     1      -0.557  49.425 -19.050  1.00  0.00     0.067 C 
HETATM    3  C21 UNL     1      -1.460  49.612 -20.244  1.00  0.00    -0.067 C 
HETATM    4  C22 UNL     1      -2.197  48.383 -20.698  1.00  0.00     0.044 C 
HETATM    5  C23 UNL     1      -1.573  50.839 -20.803  1.00  0.00     0.043 C 
HETATM    6  C31 UNL     1      -0.733  51.956 -20.277  1.00  0.00     0.292 C 
HETATM    7  O9  UNL     1      -0.480  52.944 -20.952  1.00  0.00    -0.260 OA
HETATM    8  O10 UNL     1      -0.238  51.826 -19.021  1.00  0.00    -0.311 OA
ENDROOT
BRANCH   1   9
HETATM    9  C17 UNL     1       0.297  50.630 -16.953  1.00  0.00     0.016 C 
HETATM   10  C18 UNL     1       1.050  51.960 -16.749  1.00  0.00     0.013 C 
BRANCH   9  11
HETATM   11  C16 UNL     1      -0.430  50.263 -15.621  1.00  0.00     0.000 C 
HETATM   12  C14 UNL     1       0.462  50.055 -14.358  1.00  0.00    -0.036 C 
HETATM   13  C13 UNL     1       1.048  51.378 -13.842  1.00  0.00     0.010 C 
HETATM   14  C15 UNL     1       1.627  49.069 -14.632  1.00  0.00     0.016 C 
HETATM   15  C34 UNL     1      -0.511  49.403 -13.329  1.00  0.00     0.001 C 
HETATM   16  C12 UNL     1       1.437  51.277 -12.373  1.00  0.00     0.007 C 
HETATM   17  C11 UNL     1       0.223  51.065 -11.442  1.00  0.00     0.013 C 
HETATM   18  C9  UNL     1      -0.181  52.361 -10.613  1.00  0.00     0.048 C 
HETATM   19  C35 UNL     1      -0.958  50.268 -12.107  1.00  0.00     0.029 C 
HETATM   20  C4  UNL     1      -1.636  52.286 -10.150  1.00  0.00    -0.044 C 
HETATM   21  C8  UNL     1       0.751  52.459  -9.375  1.00  0.00     0.143 C 
HETATM   22  C10 UNL     1       0.003  53.689 -11.384  1.00  0.00     0.029 C 
HETATM   23  C3  UNL     1      -2.576  51.761 -10.952  1.00  0.00     0.013 C 
HETATM   24  C5  UNL     1      -2.018  52.839  -8.866  1.00  0.00     0.004 C 
HETATM   25  C2  UNL     1      -2.256  51.093 -12.257  1.00  0.00     0.149 C 
HETATM   26  C6  UNL     1      -1.138  53.349  -8.000  1.00  0.00    -0.019 C 
HETATM   27  C7  UNL     1       0.333  53.376  -8.235  1.00  0.00     0.106 C 
HETATM   28  O2  UNL     1       1.861  51.917  -9.336  1.00  0.00    -0.296 OA
HETATM   29  C33 UNL     1      -1.649  48.774 -14.169  1.00  0.00     0.006 C 
HETATM   30  C32 UNL     1      -1.297  49.003 -15.637  1.00  0.00     0.006 C 
BRANCH  25  31
HETATM   31  O1  UNL     1      -2.128  52.061 -13.287  1.00  0.00    -0.386 OA
HETATM   32  C1  UNL     1      -3.296  52.195 -14.087  1.00  0.00     0.202 C 
ENDBRANCH  25  31
ENDBRANCH   9  11
ENDBRANCH   1   9
BRANCH   5  33
HETATM   33  C24 UNL     1      -2.417  51.215 -21.997  1.00  0.00     0.216 C 
BRANCH  33  34
HETATM   34  O3  UNL     1      -1.643  51.335 -23.193  1.00  0.00    -0.354 OA
BRANCH  34  35
HETATM   35  C25 UNL     1      -2.287  52.087 -24.221  1.00  0.00     0.291 C 
HETATM   36  O4  UNL     1      -1.584  53.315 -24.421  1.00  0.00    -0.348 OA
HETATM   37  C26 UNL     1      -0.244  53.122 -24.924  1.00  0.00     0.179 C 
HETATM   38  C28 UNL     1      -0.234  52.341 -26.250  1.00  0.00     0.180 C 
HETATM   39  C29 UNL     1      -1.653  51.985 -26.684  1.00  0.00     0.183 C 
HETATM   40  C30 UNL     1      -2.406  51.290 -25.543  1.00  0.00     0.204 C 
BRANCH  37  41
HETATM   41  C27 UNL     1       0.386  54.511 -25.092  1.00  0.00     0.198 C 
BRANCH  41  42
HETATM   42  O5  UNL     1       0.187  55.012 -26.418  1.00  0.00    -0.398 OA
HETATM   43  H38 UNL     1       0.565  55.910 -26.428  1.00  0.00     0.209 HD
ENDBRANCH  41  42
ENDBRANCH  37  41
BRANCH  38  44
HETATM   44  O6  UNL     1       0.507  51.115 -26.077  1.00  0.00    -0.390 OA
HETATM   45  H40 UNL     1       0.313  50.595 -26.885  1.00  0.00     0.210 HD
ENDBRANCH  38  44
BRANCH  39  46
HETATM   46  O7  UNL     1      -1.592  51.096 -27.818  1.00  0.00    -0.390 OA
HETATM   47  H42 UNL     1      -2.490  50.711 -27.899  1.00  0.00     0.210 HD
ENDBRANCH  39  46
BRANCH  40  48
HETATM   48  O8  UNL     1      -3.781  51.136 -25.958  1.00  0.00    -0.388 OA
HETATM   49  H44 UNL     1      -4.165  52.028 -26.040  1.00  0.00     0.210 HD
ENDBRANCH  40  48
ENDBRANCH  34  35
ENDBRANCH  33  34
ENDBRANCH   5  33
TORSDOF 11
ENDMDL
MODEL 2
REMARK minimizedAffinity -8.91625881
REMARK CNNscore 0.373705953
REMARK CNNaffinity 6.4774642
REMARK  11 active torsions:
REMARK  status: ('A' for Active; 'I' for Inactive)
REMARK    1  A    between atoms: O1_2  and  C2_3 
REMARK    2  A    between atoms: C16_18  and  C17_19 
REMARK    3  A    between atoms: C17_19  and  C19_21 
REMARK    4  A    between atoms: C23_25  and  C24_26 
REMARK    5  A    between atoms: C24_26  and  O3_27 
REMARK    6  A    between atoms: O3_27  and  C25_28 
REMARK    7  A    between atoms: C26_30  and  C27_31 
REMARK    8  A    between atoms: C27_31  and  O5_32 
REMARK    9  A    between atoms: C28_33  and  O6_34 
REMARK   10  A    between atoms: C29_35  and  O7_36 
REMARK   11  A    between atoms: C30_37  and  O8_38 
ROOT
HETATM    1  C19 UNL     1      -8.137  47.205 -21.726  1.00  0.00     0.140 C 
HETATM    2  C20 UNL     1      -8.918  47.117 -20.416  1.00  0.00     0.067 C 
HETATM    3  C21 UNL     1     -10.382  46.980 -20.751  1.00  0.00    -0.067 C 
HETATM    4  C22 UNL     1     -11.329  47.679 -19.816  1.00  0.00     0.044 C 
HETATM    5  C23 UNL     1     -10.746  46.283 -21.851  1.00  0.00     0.043 C 
HETATM    6  C31 UNL     1      -9.693  45.595 -22.656  1.00  0.00     0.292 C 
HETATM    7  O9  UNL     1      -9.957  44.652 -23.390  1.00  0.00    -0.260 OA
HETATM    8  O10 UNL     1      -8.419  46.040 -22.527  1.00  0.00    -0.311 OA
ENDROOT
BRANCH   1   9
HETATM    9  C17 UNL     1      -6.605  47.329 -21.506  1.00  0.00     0.016 C 
HETATM   10  C18 UNL     1      -5.870  46.086 -22.046  1.00  0.00     0.013 C 
BRANCH   9  11
HETATM   11  C16 UNL     1      -5.946  48.602 -22.124  1.00  0.00     0.000 C 
HETATM   12  C14 UNL     1      -5.499  49.723 -21.135  1.00  0.00    -0.036 C 
HETATM   13  C13 UNL     1      -4.268  49.309 -20.313  1.00  0.00     0.010 C 
HETATM   14  C15 UNL     1      -6.638  50.119 -20.160  1.00  0.00     0.016 C 
HETATM   15  C34 UNL     1      -5.200  50.934 -22.070  1.00  0.00     0.001 C 
HETATM   16  C12 UNL     1      -3.522  50.525 -19.780  1.00  0.00     0.007 C 
HETATM   17  C11 UNL     1      -2.900  51.387 -20.900  1.00  0.00     0.013 C 
HETATM   18  C9  UNL     1      -1.321  51.235 -21.021  1.00  0.00     0.048 C 
HETATM   19  C35 UNL     1      -3.706  51.358 -22.250  1.00  0.00     0.029 C 
HETATM   20  C4  UNL     1      -0.833  51.645 -22.410  1.00  0.00    -0.044 C 
HETATM   21  C8  UNL     1      -0.659  52.147 -19.951  1.00  0.00     0.143 C 
HETATM   22  C10 UNL     1      -0.799  49.807 -20.736  1.00  0.00     0.029 C 
HETATM   23  C3  UNL     1      -1.557  51.340 -23.499  1.00  0.00     0.013 C 
HETATM   24  C5  UNL     1       0.445  52.310 -22.564  1.00  0.00     0.004 C 
HETATM   25  C2  UNL     1      -2.926  50.729 -23.425  1.00  0.00     0.149 C 
HETATM   26  C6  UNL     1       1.207  52.675 -21.528  1.00  0.00    -0.019 C 
HETATM   27  C7  UNL     1       0.818  52.474 -20.105  1.00  0.00     0.106 C 
HETATM   28  O2  UNL     1      -1.255  52.513 -18.932  1.00  0.00    -0.296 OA
HETATM   29  C33 UNL     1      -5.991  50.664 -23.372  1.00  0.00     0.006 C 
HETATM   30  C32 UNL     1      -6.772  49.370 -23.158  1.00  0.00     0.006 C 
BRANCH  25  31
HETATM   31  O1  UNL     1      -2.828  49.321 -23.277  1.00  0.00    -0.386 OA
HETATM   32  C1  UNL     1      -3.125  48.604 -24.469  1.00  0.00     0.202 C 
ENDBRANCH  25  31
ENDBRANCH   9  11
ENDBRANCH   1   9
BRANCH   5  33
HETATM   33  C24 UNL     1     -12.153  46.034 -22.340  1.00  0.00     0.216 C 
BRANCH  33  34
HETATM   34  O3  UNL     1     -12.600  47.046 -23.245  1.00  0.00    -0.354 OA
BRANCH  34  35
HETATM   35  C25 UNL     1     -13.810  46.714 -23.926  1.00  0.00     0.291 C 
HETATM   36  O4  UNL     1     -13.824  47.353 -25.206  1.00  0.00    -0.348 OA
HETATM   37  C26 UNL     1     -12.788  46.871 -26.089  1.00  0.00     0.179 C 
HETATM   38  C28 UNL     1     -12.882  45.350 -26.309  1.00  0.00     0.180 C 
HETATM   39  C29 UNL     1     -14.058  44.758 -25.537  1.00  0.00     0.183 C 
HETATM   40  C30 UNL     1     -14.003  45.184 -24.065  1.00  0.00     0.204 C 
BRANCH  37  41
HETATM   41  C27 UNL     1     -12.924  47.634 -27.413  1.00  0.00     0.198 C 
BRANCH  41  42
HETATM   42  O5  UNL     1     -12.370  48.949 -27.310  1.00  0.00    -0.398 OA
HETATM   43  H38 UNL     1     -12.445  49.345 -28.198  1.00  0.00     0.209 HD
ENDBRANCH  41  42
ENDBRANCH  37  41
BRANCH  38  44
HETATM   44  O6  UNL     1     -11.671  44.723 -25.839  1.00  0.00    -0.390 OA
HETATM   45  H40 UNL     1     -11.875  43.765 -25.836  1.00  0.00     0.210 HD
ENDBRANCH  38  44
BRANCH  39  46
HETATM   46  O7  UNL     1     -13.998  43.319 -25.613  1.00  0.00    -0.390 OA
HETATM   47  H42 UNL     1     -14.607  42.994 -24.918  1.00  0.00     0.210 HD
ENDBRANCH  39  46
BRANCH  40  48
HETATM   48  O8  UNL     1     -15.224  44.736 -23.435  1.00  0.00    -0.388 OA
HETATM   49  H44 UNL     1     -15.961  45.229 -23.839  1.00  0.00     0.210 HD
ENDBRANCH  40  48
ENDBRANCH  34  35
ENDBRANCH  33  34
ENDBRANCH   5  33
TORSDOF 11
ENDMDL
MODEL 3
REMARK minimizedAffinity -10.0172014
REMARK CNNscore 0.371258557
REMARK CNNaffinity 6.34658241
REMARK  11 active torsions:
REMARK  status: ('A' for Active; 'I' for Inactive)
REMARK    1  A    between atoms: O1_2  and  C2_3 
REMARK    2  A    between atoms: C16_18  and  C17_19 
REMARK    3  A    between atoms: C17_19  and  C19_21 
REMARK    4  A    between atoms: C23_25  and  C24_26 
REMARK    5  A    between atoms: C24_26  and  O3_27 
REMARK    6  A    between atoms: O3_27  and  C25_28 
REMARK    7  A    between atoms: C26_30  and  C27_31 
REMARK    8  A    between atoms: C27_31  and  O5_32 
REMARK    9  A    between atoms: C28_33  and  O6_34 
REMARK   10  A    between atoms: C29_35  and  O7_36 
REMARK   11  A    between atoms: C30_37  and  O8_38 
ROOT
HETATM    1  C19 UNL     1      -6.519  47.679 -26.980  1.00  0.00     0.140 C 
HETATM    2  C20 UNL     1      -6.365  48.442 -25.665  1.00  0.00     0.067 C 
HETATM    3  C21 UNL     1      -4.903  48.444 -25.293  1.00  0.00    -0.067 C 
HETATM    4  C22 UNL     1      -4.609  48.344 -23.822  1.00  0.00     0.044 C 
HETATM    5  C23 UNL     1      -3.971  48.506 -26.272  1.00  0.00     0.043 C 
HETATM    6  C31 UNL     1      -4.416  48.658 -27.689  1.00  0.00     0.292 C 
HETATM    7  O9  UNL     1      -3.677  49.112 -28.551  1.00  0.00    -0.260 OA
HETATM    8  O10 UNL     1      -5.688  48.293 -27.986  1.00  0.00    -0.311 OA
ENDROOT
BRANCH   1   9
HETATM    9  C17 UNL     1      -7.989  47.628 -27.477  1.00  0.00     0.016 C 
HETATM   10  C18 UNL     1      -8.056  47.778 -29.010  1.00  0.00     0.013 C 
BRANCH   9  11
HETATM   11  C16 UNL     1      -8.784  46.348 -27.068  1.00  0.00     0.000 C 
HETATM   12  C14 UNL     1     -10.077  46.554 -26.219  1.00  0.00    -0.036 C 
HETATM   13  C13 UNL     1     -11.215  47.173 -27.045  1.00  0.00     0.010 C 
HETATM   14  C15 UNL     1      -9.816  47.451 -24.982  1.00  0.00     0.016 C 
HETATM   15  C34 UNL     1     -10.422  45.116 -25.728  1.00  0.00     0.001 C 
HETATM   16  C12 UNL     1     -12.574  46.880 -26.424  1.00  0.00     0.007 C 
HETATM   17  C11 UNL     1     -12.930  45.377 -26.439  1.00  0.00     0.013 C 
HETATM   18  C9  UNL     1     -14.027  44.991 -27.525  1.00  0.00     0.048 C 
HETATM   19  C35 UNL     1     -11.682  44.425 -26.343  1.00  0.00     0.029 C 
HETATM   20  C4  UNL     1     -13.956  43.505 -27.876  1.00  0.00    -0.044 C 
HETATM   21  C8  UNL     1     -15.429  45.318 -26.940  1.00  0.00     0.143 C 
HETATM   22  C10 UNL     1     -13.924  45.795 -28.842  1.00  0.00     0.029 C 
HETATM   23  C3  UNL     1     -12.767  42.888 -27.968  1.00  0.00     0.013 C 
HETATM   24  C5  UNL     1     -15.169  42.770 -28.172  1.00  0.00     0.004 C 
HETATM   25  C2  UNL     1     -11.472  43.549 -27.598  1.00  0.00     0.149 C 
HETATM   26  C6  UNL     1     -16.389  43.305 -28.071  1.00  0.00    -0.019 C 
HETATM   27  C7  UNL     1     -16.646  44.698 -27.611  1.00  0.00     0.106 C 
HETATM   28  O2  UNL     1     -15.595  46.143 -26.036  1.00  0.00    -0.296 OA
HETATM   29  C33 UNL     1      -9.101  44.316 -25.811  1.00  0.00     0.006 C 
HETATM   30  C32 UNL     1      -8.019  45.289 -26.272  1.00  0.00     0.006 C 
BRANCH  25  31
HETATM   31  O1  UNL     1     -10.988  44.324 -28.684  1.00  0.00    -0.386 OA
HETATM   32  C1  UNL     1      -9.962  43.677 -29.428  1.00  0.00     0.202 C 
ENDBRANCH  25  31
ENDBRANCH   9  11
ENDBRANCH   1   9
BRANCH   5  33
HETATM   33  C24 UNL     1      -2.472  48.525 -26.094  1.00  0.00     0.216 C 
BRANCH  33  34
HETATM   34  O3  UNL     1      -1.855  49.603 -26.800  1.00  0.00    -0.354 OA
BRANCH  34  35
HETATM   35  C25 UNL     1      -1.677  50.779 -26.011  1.00  0.00     0.291 C 
HETATM   36  O4  UNL     1      -0.313  50.867 -25.591  1.00  0.00    -0.348 OA
HETATM   37  C26 UNL     1       0.605  51.047 -26.690  1.00  0.00     0.179 C 
HETATM   38  C28 UNL     1       0.275  52.304 -27.515  1.00  0.00     0.180 C 
HETATM   39  C29 UNL     1      -0.938  53.031 -26.941  1.00  0.00     0.183 C 
HETATM   40  C30 UNL     1      -2.111  52.061 -26.764  1.00  0.00     0.204 C 
BRANCH  37  41
HETATM   41  C27 UNL     1       2.019  51.127 -26.097  1.00  0.00     0.198 C 
BRANCH  41  42
HETATM   42  O5  UNL     1       2.992  51.381 -27.115  1.00  0.00    -0.398 OA
HETATM   43  H38 UNL     1       3.847  51.471 -26.655  1.00  0.00     0.209 HD
ENDBRANCH  41  42
ENDBRANCH  37  41
BRANCH  38  44
HETATM   44  O6  UNL     1      -0.030  51.919 -28.872  1.00  0.00    -0.390 OA
HETATM   45  H40 UNL     1      -0.406  52.728 -29.278  1.00  0.00     0.210 HD
ENDBRANCH  38  44
BRANCH  39  46
HETATM   46  O7  UNL     1      -1.330  54.085 -27.844  1.00  0.00    -0.390 OA
HETATM   47  H42 UNL     1      -2.231  54.349 -27.564  1.00  0.00     0.210 HD
ENDBRANCH  39  46
BRANCH  40  48
HETATM   48  O8  UNL     1      -3.160  52.767 -26.065  1.00  0.00    -0.388 OA
HETATM   49  H44 UNL     1      -2.832  52.970 -25.170  1.00  0.00     0.210 HD
ENDBRANCH  40  48
ENDBRANCH  34  35
ENDBRANCH  33  34
ENDBRANCH   5  33
TORSDOF 11
ENDMDL
MODEL 4
REMARK minimizedAffinity -8.81178284
REMARK CNNscore 0.339112014
REMARK CNNaffinity 6.2148304
REMARK  11 active torsions:
REMARK  status: ('A' for Active; 'I' for Inactive)
REMARK    1  A    between atoms: O1_2  and  C2_3 
REMARK    2  A    between atoms: C16_18  and  C17_19 
REMARK    3  A    between atoms: C17_19  and  C19_21 
REMARK    4  A    between atoms: C23_25  and  C24_26 
REMARK    5  A    between atoms: C24_26  and  O3_27 
REMARK    6  A    between atoms: O3_27  and  C25_28 
REMARK    7  A    between atoms: C26_30  and  C27_31 
REMARK    8  A    between atoms: C27_31  and  O5_32 
REMARK    9  A    between atoms: C28_33  and  O6_34 
REMARK   10  A    between atoms: C29_35  and  O7_36 
REMARK   11  A    between atoms: C30_37  and  O8_38 
ROOT
HETATM    1  C19 UNL     1     -12.681  44.694 -27.538  1.00  0.00     0.140 C 
HETATM    2  C20 UNL     1     -13.820  44.605 -28.553  1.00  0.00     0.067 C 
HETATM    3  C21 UNL     1     -15.125  44.708 -27.803  1.00  0.00    -0.067 C 
HETATM    4  C22 UNL     1     -16.250  43.870 -28.343  1.00  0.00     0.044 C 
HETATM    5  C23 UNL     1     -15.198  45.500 -26.709  1.00  0.00     0.043 C 
HETATM    6  C31 UNL     1     -14.010  46.318 -26.324  1.00  0.00     0.292 C 
HETATM    7  O9  UNL     1     -14.116  47.320 -25.629  1.00  0.00    -0.260 OA
HETATM    8  O10 UNL     1     -12.801  45.922 -26.794  1.00  0.00    -0.311 OA
ENDROOT
BRANCH   1   9
HETATM    9  C17 UNL     1     -11.279  44.619 -28.201  1.00  0.00     0.016 C 
HETATM   10  C18 UNL     1     -11.081  43.267 -28.915  1.00  0.00     0.013 C 
BRANCH   9  11
HETATM   11  C16 UNL     1     -10.960  45.765 -29.212  1.00  0.00     0.000 C 
HETATM   12  C14 UNL     1      -9.679  46.614 -28.943  1.00  0.00    -0.036 C 
HETATM   13  C13 UNL     1      -8.393  45.819 -29.217  1.00  0.00     0.010 C 
HETATM   14  C15 UNL     1      -9.634  47.145 -27.486  1.00  0.00     0.016 C 
HETATM   15  C34 UNL     1      -9.837  47.826 -29.910  1.00  0.00     0.001 C 
HETATM   16  C12 UNL     1      -7.214  46.745 -29.487  1.00  0.00     0.007 C 
HETATM   17  C11 UNL     1      -7.380  47.567 -30.783  1.00  0.00     0.013 C 
HETATM   18  C9  UNL     1      -6.467  47.060 -31.983  1.00  0.00     0.048 C 
HETATM   19  C35 UNL     1      -8.875  47.901 -31.140  1.00  0.00     0.029 C 
HETATM   20  C4  UNL     1      -7.028  47.512 -33.331  1.00  0.00    -0.044 C 
HETATM   21  C8  UNL     1      -5.041  47.646 -31.794  1.00  0.00     0.143 C 
HETATM   22  C10 UNL     1      -6.287  45.525 -32.035  1.00  0.00     0.029 C 
HETATM   23  C3  UNL     1      -8.354  47.527 -33.542  1.00  0.00     0.013 C 
HETATM   24  C5  UNL     1      -6.128  47.867 -34.410  1.00  0.00     0.004 C 
HETATM   25  C2  UNL     1      -9.357  47.256 -32.459  1.00  0.00     0.149 C 
HETATM   26  C6  UNL     1      -4.800  47.907 -34.268  1.00  0.00    -0.019 C 
HETATM   27  C7  UNL     1      -4.096  47.628 -32.986  1.00  0.00     0.106 C 
HETATM   28  O2  UNL     1      -4.616  48.013 -30.693  1.00  0.00    -0.296 OA
HETATM   29  C33 UNL     1     -11.349  47.918 -30.224  1.00  0.00     0.006 C 
HETATM   30  C32 UNL     1     -12.040  46.831 -29.405  1.00  0.00     0.006 C 
BRANCH  25  31
HETATM   31  O1  UNL     1      -9.546  45.859 -32.303  1.00  0.00    -0.386 OA
HETATM   32  C1  UNL     1      -9.990  45.212 -33.490  1.00  0.00     0.202 C 
ENDBRANCH  25  31
ENDBRANCH   9  11
ENDBRANCH   1   9
BRANCH   5  33
HETATM   33  C24 UNL     1     -16.411  45.732 -25.840  1.00  0.00     0.216 C 
BRANCH  33  34
HETATM   34  O3  UNL     1     -17.504  44.881 -26.193  1.00  0.00    -0.354 OA
BRANCH  34  35
HETATM   35  C25 UNL     1     -18.756  45.300 -25.651  1.00  0.00     0.291 C 
HETATM   36  O4  UNL     1     -19.497  44.151 -25.229  1.00  0.00    -0.348 OA
HETATM   37  C26 UNL     1     -18.868  43.445 -24.138  1.00  0.00     0.179 C 
HETATM   38  C28 UNL     1     -18.650  44.353 -22.915  1.00  0.00     0.180 C 
HETATM   39  C29 UNL     1     -19.167  45.763 -23.182  1.00  0.00     0.183 C 
HETATM   40  C30 UNL     1     -18.584  46.310 -24.491  1.00  0.00     0.204 C 
BRANCH  37  41
HETATM   41  C27 UNL     1     -19.766  42.249 -23.790  1.00  0.00     0.198 C 
BRANCH  41  42
HETATM   42  O5  UNL     1     -21.112  42.668 -23.545  1.00  0.00    -0.398 OA
HETATM   43  H38 UNL     1     -21.624  41.854 -23.386  1.00  0.00     0.209 HD
ENDBRANCH  41  42
ENDBRANCH  37  41
BRANCH  38  44
HETATM   44  O6  UNL     1     -17.238  44.436 -22.627  1.00  0.00    -0.390 OA
HETATM   45  H40 UNL     1     -17.163  45.162 -21.973  1.00  0.00     0.210 HD
ENDBRANCH  38  44
BRANCH  39  46
HETATM   46  O7  UNL     1     -18.774  46.626 -22.095  1.00  0.00    -0.390 OA
HETATM   47  H42 UNL     1     -18.907  47.539 -22.423  1.00  0.00     0.210 HD
ENDBRANCH  39  46
BRANCH  40  48
HETATM   48  O8  UNL     1     -19.240  47.567 -24.769  1.00  0.00    -0.388 OA
HETATM   49  H44 UNL     1     -20.180  47.376 -24.943  1.00  0.00     0.210 HD
ENDBRANCH  40  48
ENDBRANCH  34  35
ENDBRANCH  33  34
ENDBRANCH   5  33
TORSDOF 11
ENDMDL
MODEL 5
REMARK minimizedAffinity -9.66828442
REMARK CNNscore 0.331342965
REMARK CNNaffinity 6.49373484
REMARK  11 active torsions:
REMARK  status: ('A' for Active; 'I' for Inactive)
REMARK    1  A    between atoms: O1_2  and  C2_3 
REMARK    2  A    between atoms: C16_18  and  C17_19 
REMARK    3  A    between atoms: C17_19  and  C19_21 
REMARK    4  A    between atoms: C23_25  and  C24_26 
REMARK    5  A    between atoms: C24_26  and  O3_27 
REMARK    6  A    between atoms: O3_27  and  C25_28 
REMARK    7  A    between atoms: C26_30  and  C27_31 
REMARK    8  A    between atoms: C27_31  and  O5_32 
REMARK    9  A    between atoms: C28_33  and  O6_34 
REMARK   10  A    between atoms: C29_35  and  O7_36 
REMARK   11  A    between atoms: C30_37  and  O8_38 
ROOT
HETATM    1  C19 UNL     1      -0.590  50.637 -18.999  1.00  0.00     0.140 C 
HETATM    2  C20 UNL     1      -0.461  49.400 -19.887  1.00  0.00     0.067 C 
HETATM    3  C21 UNL     1      -1.152  49.689 -21.197  1.00  0.00    -0.067 C 
HETATM    4  C22 UNL     1      -1.868  48.524 -21.822  1.00  0.00     0.044 C 
HETATM    5  C23 UNL     1      -1.112  50.943 -21.703  1.00  0.00     0.043 C 
HETATM    6  C31 UNL     1      -0.312  51.986 -20.995  1.00  0.00     0.292 C 
HETATM    7  O9  UNL     1       0.096  52.986 -21.571  1.00  0.00    -0.260 OA
HETATM    8  O10 UNL     1      -0.031  51.775 -19.686  1.00  0.00    -0.311 OA
ENDROOT
BRANCH   1   9
HETATM    9  C17 UNL     1       0.106  50.464 -17.622  1.00  0.00     0.016 C 
HETATM   10  C18 UNL     1       0.764  51.783 -17.170  1.00  0.00     0.013 C 
BRANCH   9  11
HETATM   11  C16 UNL     1      -0.816  49.950 -16.472  1.00  0.00     0.000 C 
HETATM   12  C14 UNL     1      -0.117  49.434 -15.176  1.00  0.00    -0.036 C 
HETATM   13  C13 UNL     1       0.504  50.580 -14.362  1.00  0.00     0.010 C 
HETATM   14  C15 UNL     1       0.990  48.394 -15.494  1.00  0.00     0.016 C 
HETATM   15  C34 UNL     1      -1.266  48.719 -14.403  1.00  0.00     0.001 C 
HETATM   16  C12 UNL     1       0.689  50.186 -12.903  1.00  0.00     0.007 C 
HETATM   17  C11 UNL     1      -0.648  49.944 -12.171  1.00  0.00     0.013 C 
HETATM   18  C9  UNL     1      -1.049  51.112 -11.168  1.00  0.00     0.048 C 
HETATM   19  C35 UNL     1      -1.795  49.402 -13.101  1.00  0.00     0.029 C 
HETATM   20  C4  UNL     1      -2.553  51.111 -10.894  1.00  0.00    -0.044 C 
HETATM   21  C8  UNL     1      -0.281  50.897  -9.835  1.00  0.00     0.143 C 
HETATM   22  C10 UNL     1      -0.657  52.526 -11.655  1.00  0.00     0.029 C 
HETATM   23  C3  UNL     1      -3.421  50.833 -11.880  1.00  0.00     0.013 C 
HETATM   24  C5  UNL     1      -3.052  51.470  -9.582  1.00  0.00     0.004 C 
HETATM   25  C2  UNL     1      -2.990  50.371 -13.241  1.00  0.00     0.149 C 
HETATM   26  C6  UNL     1      -2.253  51.728  -8.543  1.00  0.00    -0.019 C 
HETATM   27  C7  UNL     1      -0.768  51.641  -8.601  1.00  0.00     0.106 C 
HETATM   28  O2  UNL     1       0.766  50.243  -9.771  1.00  0.00    -0.296 OA
HETATM   29  C33 UNL     1      -2.332  48.367 -15.467  1.00  0.00     0.006 C 
HETATM   30  C32 UNL     1      -1.775  48.809 -16.818  1.00  0.00     0.006 C 
BRANCH  25  31
HETATM   31  O1  UNL     1      -2.650  51.484 -14.054  1.00  0.00    -0.386 OA
HETATM   32  C1  UNL     1      -3.532  52.589 -13.899  1.00  0.00     0.202 C 
ENDBRANCH  25  31
ENDBRANCH   9  11
ENDBRANCH   1   9
BRANCH   5  33
HETATM   33  C24 UNL     1      -1.734  51.417 -22.994  1.00  0.00     0.216 C 
BRANCH  33  34
HETATM   34  O3  UNL     1      -1.909  50.355 -23.935  1.00  0.00    -0.354 OA
BRANCH  34  35
HETATM   35  C25 UNL     1      -1.038  50.438 -25.063  1.00  0.00     0.291 C 
HETATM   36  O4  UNL     1      -1.688  49.874 -26.206  1.00  0.00    -0.348 OA
HETATM   37  C26 UNL     1      -2.854  50.619 -26.616  1.00  0.00     0.179 C 
HETATM   38  C28 UNL     1      -2.517  52.088 -26.930  1.00  0.00     0.180 C 
HETATM   39  C29 UNL     1      -1.029  52.361 -26.730  1.00  0.00     0.183 C 
HETATM   40  C30 UNL     1      -0.578  51.889 -25.344  1.00  0.00     0.204 C 
BRANCH  37  41
HETATM   41  C27 UNL     1      -3.443  49.909 -27.843  1.00  0.00     0.198 C 
BRANCH  41  42
HETATM   42  O5  UNL     1      -3.439  50.768 -28.988  1.00  0.00    -0.398 OA
HETATM   43  H38 UNL     1      -3.775  50.231 -29.729  1.00  0.00     0.209 HD
ENDBRANCH  41  42
ENDBRANCH  37  41
BRANCH  38  44
HETATM   44  O6  UNL     1      -3.259  52.949 -26.042  1.00  0.00    -0.390 OA
HETATM   45  H40 UNL     1      -2.860  53.836 -26.169  1.00  0.00     0.210 HD
ENDBRANCH  38  44
BRANCH  39  46
HETATM   46  O7  UNL     1      -0.788  53.779 -26.846  1.00  0.00    -0.390 OA
HETATM   47  H42 UNL     1       0.106  53.925 -26.475  1.00  0.00     0.210 HD
ENDBRANCH  39  46
BRANCH  40  48
HETATM   48  O8  UNL     1       0.860  52.019 -25.284  1.00  0.00    -0.388 OA
HETATM   49  H44 UNL     1       1.238  51.392 -25.927  1.00  0.00     0.210 HD
ENDBRANCH  40  48
ENDBRANCH  34  35
ENDBRANCH  33  34
ENDBRANCH   5  33
TORSDOF 11
ENDMDL
MODEL 6
REMARK minimizedAffinity -9.29614544
REMARK CNNscore 0.324902534
REMARK CNNaffinity 6.39312029
REMARK  11 active torsions:
REMARK  status: ('A' for Active; 'I' for Inactive)
REMARK    1  A    between atoms: O1_2  and  C2_3 
REMARK    2  A    between atoms: C16_18  and  C17_19 
REMARK    3  A    between atoms: C17_19  and  C19_21 
REMARK    4  A    between atoms: C23_25  and  C24_26 
REMARK    5  A    between atoms: C24_26  and  O3_27 
REMARK    6  A    between atoms: O3_27  and  C25_28 
REMARK    7  A    between atoms: C26_30  and  C27_31 
REMARK    8  A    between atoms: C27_31  and  O5_32 
REMARK    9  A    between atoms: C28_33  and  O6_34 
REMARK   10  A    between atoms: C29_35  and  O7_36 
REMARK   11  A    between atoms: C30_37  and  O8_38 
ROOT
HETATM    1  C19 UNL     1      -7.655  46.752 -22.485  1.00  0.00     0.140 C 
HETATM    2  C20 UNL     1      -8.872  46.517 -21.591  1.00  0.00     0.067 C 
HETATM    3  C21 UNL     1      -9.992  45.990 -22.453  1.00  0.00    -0.067 C 
HETATM    4  C22 UNL     1     -11.372  46.455 -22.079  1.00  0.00     0.044 C 
HETATM    5  C23 UNL     1      -9.699  45.177 -23.495  1.00  0.00     0.043 C 
HETATM    6  C31 UNL     1      -8.283  44.756 -23.710  1.00  0.00     0.292 C 
HETATM    7  O9  UNL     1      -8.001  43.748 -24.344  1.00  0.00    -0.260 OA
HETATM    8  O10 UNL     1      -7.312  45.522 -23.154  1.00  0.00    -0.311 OA
ENDROOT
BRANCH   1   9
HETATM    9  C17 UNL     1      -6.425  47.280 -21.698  1.00  0.00     0.016 C 
HETATM   10  C18 UNL     1      -5.324  46.203 -21.614  1.00  0.00     0.013 C 
BRANCH   9  11
HETATM   11  C16 UNL     1      -5.792  48.593 -22.258  1.00  0.00     0.000 C 
HETATM   12  C14 UNL     1      -5.379  49.681 -21.219  1.00  0.00    -0.036 C 
HETATM   13  C13 UNL     1      -4.145  49.262 -20.405  1.00  0.00     0.010 C 
HETATM   14  C15 UNL     1      -6.534  50.009 -20.237  1.00  0.00     0.016 C 
HETATM   15  C34 UNL     1      -5.102  50.937 -22.100  1.00  0.00     0.001 C 
HETATM   16  C12 UNL     1      -3.432  50.471 -19.816  1.00  0.00     0.007 C 
HETATM   17  C11 UNL     1      -2.822  51.394 -20.894  1.00  0.00     0.013 C 
HETATM   18  C9  UNL     1      -1.239  51.285 -21.008  1.00  0.00     0.048 C 
HETATM   19  C35 UNL     1      -3.618  51.403 -22.250  1.00  0.00     0.029 C 
HETATM   20  C4  UNL     1      -0.752  51.764 -22.375  1.00  0.00    -0.044 C 
HETATM   21  C8  UNL     1      -0.607  52.166 -19.896  1.00  0.00     0.143 C 
HETATM   22  C10 UNL     1      -0.685  49.859 -20.780  1.00  0.00     0.029 C 
HETATM   23  C3  UNL     1      -1.460  51.488 -23.482  1.00  0.00     0.013 C 
HETATM   24  C5  UNL     1       0.511  52.465 -22.491  1.00  0.00     0.004 C 
HETATM   25  C2  UNL     1      -2.814  50.843 -23.445  1.00  0.00     0.149 C 
HETATM   26  C6  UNL     1       1.257  52.804 -21.435  1.00  0.00    -0.019 C 
HETATM   27  C7  UNL     1       0.863  52.535 -20.024  1.00  0.00     0.106 C 
HETATM   28  O2  UNL     1      -1.218  52.476 -18.868  1.00  0.00    -0.296 OA
HETATM   29  C33 UNL     1      -5.878  50.703 -23.418  1.00  0.00     0.006 C 
HETATM   30  C32 UNL     1      -6.629  49.383 -23.265  1.00  0.00     0.006 C 
BRANCH  25  31
HETATM   31  O1  UNL     1      -2.685  49.432 -23.354  1.00  0.00    -0.386 OA
HETATM   32  C1  UNL     1      -2.994  48.756 -24.567  1.00  0.00     0.202 C 
ENDBRANCH  25  31
ENDBRANCH   9  11
ENDBRANCH   1   9
BRANCH   5  33
HETATM   33  C24 UNL     1     -10.679  44.552 -24.457  1.00  0.00     0.216 C 
BRANCH  33  34
HETATM   34  O3  UNL     1     -11.195  45.496 -25.398  1.00  0.00    -0.354 OA
BRANCH  34  35
HETATM   35  C25 UNL     1     -10.454  45.557 -26.616  1.00  0.00     0.291 C 
HETATM   36  O4  UNL     1     -11.360  45.543 -27.723  1.00  0.00    -0.348 OA
HETATM   37  C26 UNL     1     -12.206  46.712 -27.775  1.00  0.00     0.179 C 
HETATM   38  C28 UNL     1     -11.385  48.012 -27.842  1.00  0.00     0.180 C 
HETATM   39  C29 UNL     1      -9.888  47.714 -27.844  1.00  0.00     0.183 C 
HETATM   40  C30 UNL     1      -9.523  46.793 -26.675  1.00  0.00     0.204 C 
BRANCH  37  41
HETATM   41  C27 UNL     1     -13.115  46.565 -29.002  1.00  0.00     0.198 C 
BRANCH  41  42
HETATM   42  O5  UNL     1     -12.521  47.161 -30.160  1.00  0.00    -0.398 OA
HETATM   43  H38 UNL     1     -13.130  46.980 -30.900  1.00  0.00     0.209 HD
ENDBRANCH  41  42
ENDBRANCH  37  41
BRANCH  38  44
HETATM   44  O6  UNL     1     -11.683  48.826 -26.688  1.00  0.00    -0.390 OA
HETATM   45  H40 UNL     1     -11.001  49.530 -26.701  1.00  0.00     0.210 HD
ENDBRANCH  38  44
BRANCH  39  46
HETATM   46  O7  UNL     1      -9.159  48.952 -27.713  1.00  0.00    -0.390 OA
HETATM   47  H42 UNL     1      -8.244  48.694 -27.475  1.00  0.00     0.210 HD
ENDBRANCH  39  46
BRANCH  40  48
HETATM   48  O8  UNL     1      -8.137  46.416 -26.832  1.00  0.00    -0.388 OA
HETATM   49  H44 UNL     1      -8.070  45.877 -27.641  1.00  0.00     0.210 HD
ENDBRANCH  40  48
ENDBRANCH  34  35
ENDBRANCH  33  34
ENDBRANCH   5  33
TORSDOF 11
ENDMDL
MODEL 7
REMARK minimizedAffinity -9.93843269
REMARK CNNscore 0.320067108
REMARK CNNaffinity 6.55760527
REMARK  11 active torsions:
REMARK  status: ('A' for Active; 'I' for Inactive)
REMARK    1  A    between atoms: O1_2  and  C2_3 
REMARK    2  A    between atoms: C16_18  and  C17_19 
REMARK    3  A    between atoms: C17_19  and  C19_21 
REMARK    4  A    between atoms: C23_25  and  C24_26 
REMARK    5  A    between atoms: C24_26  and  O3_27 
REMARK    6  A    between atoms: O3_27  and  C25_28 
REMARK    7  A    between atoms: C26_30  and  C27_31 
REMARK    8  A    between atoms: C27_31  and  O5_32 
REMARK    9  A    between atoms: C28_33  and  O6_34 
REMARK   10  A    between atoms: C29_35  and  O7_36 
REMARK   11  A    between atoms: C30_37  and  O8_38 
ROOT
HETATM    1  C19 UNL     1      -5.703  47.474 -27.479  1.00  0.00     0.140 C 
HETATM    2  C20 UNL     1      -5.568  48.125 -26.103  1.00  0.00     0.067 C 
HETATM    3  C21 UNL     1      -4.152  48.625 -25.958  1.00  0.00    -0.067 C 
HETATM    4  C22 UNL     1      -3.562  48.514 -24.580  1.00  0.00     0.044 C 
HETATM    5  C23 UNL     1      -3.505  49.105 -27.046  1.00  0.00     0.043 C 
HETATM    6  C31 UNL     1      -4.241  49.206 -28.341  1.00  0.00     0.292 C 
HETATM    7  O9  UNL     1      -3.883  49.969 -29.227  1.00  0.00    -0.260 OA
HETATM    8  O10 UNL     1      -5.343  48.431 -28.495  1.00  0.00    -0.311 OA
ENDROOT
BRANCH   1   9
HETATM    9  C17 UNL     1      -7.134  46.936 -27.750  1.00  0.00     0.016 C 
HETATM   10  C18 UNL     1      -8.144  47.535 -26.751  1.00  0.00     0.013 C 
BRANCH   9  11
HETATM   11  C16 UNL     1      -7.669  47.172 -29.198  1.00  0.00     0.000 C 
HETATM   12  C14 UNL     1      -7.168  46.198 -30.309  1.00  0.00    -0.036 C 
HETATM   13  C13 UNL     1      -7.773  44.794 -30.159  1.00  0.00     0.010 C 
HETATM   14  C15 UNL     1      -5.622  46.075 -30.313  1.00  0.00     0.016 C 
HETATM   15  C34 UNL     1      -7.616  46.893 -31.630  1.00  0.00     0.001 C 
HETATM   16  C12 UNL     1      -7.739  44.032 -31.477  1.00  0.00     0.007 C 
HETATM   17  C11 UNL     1      -8.636  44.667 -32.562  1.00  0.00     0.013 C 
HETATM   18  C9  UNL     1      -9.979  43.860 -32.835  1.00  0.00     0.048 C 
HETATM   19  C35 UNL     1      -8.777  46.229 -32.439  1.00  0.00     0.029 C 
HETATM   20  C4  UNL     1     -11.041  44.756 -33.472  1.00  0.00    -0.044 C 
HETATM   21  C8  UNL     1      -9.655  42.681 -33.793  1.00  0.00     0.143 C 
HETATM   22  C10 UNL     1     -10.598  43.216 -31.572  1.00  0.00     0.029 C 
HETATM   23  C3  UNL     1     -11.170  46.034 -33.083  1.00  0.00     0.013 C 
HETATM   24  C5  UNL     1     -11.955  44.212 -34.456  1.00  0.00     0.004 C 
HETATM   25  C2  UNL     1     -10.216  46.700 -32.135  1.00  0.00     0.149 C 
HETATM   26  C6  UNL     1     -11.871  42.960 -34.917  1.00  0.00    -0.019 C 
HETATM   27  C7  UNL     1     -10.813  41.997 -34.503  1.00  0.00     0.106 C 
HETATM   28  O2  UNL     1      -8.517  42.212 -33.906  1.00  0.00    -0.296 OA
HETATM   29  C33 UNL     1      -7.804  48.387 -31.275  1.00  0.00     0.006 C 
HETATM   30  C32 UNL     1      -7.409  48.550 -29.810  1.00  0.00     0.006 C 
BRANCH  25  31
HETATM   31  O1  UNL     1     -10.574  46.410 -30.793  1.00  0.00    -0.386 OA
HETATM   32  C1  UNL     1     -11.267  47.472 -30.149  1.00  0.00     0.202 C 
ENDBRANCH  25  31
ENDBRANCH   9  11
ENDBRANCH   1   9
BRANCH   5  33
HETATM   33  C24 UNL     1      -2.099  49.650 -27.094  1.00  0.00     0.216 C 
BRANCH  33  34
HETATM   34  O3  UNL     1      -1.550  49.856 -25.790  1.00  0.00    -0.354 OA
BRANCH  34  35
HETATM   35  C25 UNL     1      -1.435  51.231 -25.426  1.00  0.00     0.291 C 
HETATM   36  O4  UNL     1      -0.057  51.552 -25.217  1.00  0.00    -0.348 OA
HETATM   37  C26 UNL     1       0.735  51.447 -26.420  1.00  0.00     0.179 C 
HETATM   38  C28 UNL     1       0.197  52.349 -27.544  1.00  0.00     0.180 C 
HETATM   39  C29 UNL     1      -1.033  53.124 -27.081  1.00  0.00     0.183 C 
HETATM   40  C30 UNL     1      -2.072  52.172 -26.478  1.00  0.00     0.204 C 
BRANCH  37  41
HETATM   41  C27 UNL     1       2.178  51.818 -26.052  1.00  0.00     0.198 C 
BRANCH  41  42
HETATM   42  O5  UNL     1       3.006  51.893 -27.217  1.00  0.00    -0.398 OA
HETATM   43  H38 UNL     1       3.883  52.184 -26.908  1.00  0.00     0.209 HD
ENDBRANCH  41  42
ENDBRANCH  37  41
BRANCH  38  44
HETATM   44  O6  UNL     1      -0.182  51.533 -28.672  1.00  0.00    -0.390 OA
HETATM   45  H40 UNL     1      -0.680  52.140 -29.259  1.00  0.00     0.210 HD
ENDBRANCH  38  44
BRANCH  39  46
HETATM   46  O7  UNL     1      -1.618  53.805 -28.210  1.00  0.00    -0.390 OA
HETATM   47  H42 UNL     1      -2.514  54.074 -27.920  1.00  0.00     0.210 HD
ENDBRANCH  39  46
BRANCH  40  48
HETATM   48  O8  UNL     1      -3.127  52.980 -25.909  1.00  0.00    -0.388 OA
HETATM   49  H44 UNL     1      -2.745  53.480 -25.165  1.00  0.00     0.210 HD
ENDBRANCH  40  48
ENDBRANCH  34  35
ENDBRANCH  33  34
ENDBRANCH   5  33
TORSDOF 11
ENDMDL
MODEL 8
REMARK minimizedAffinity -10.1368732
REMARK CNNscore 0.28348577
REMARK CNNaffinity 6.17604828
REMARK  11 active torsions:
REMARK  status: ('A' for Active; 'I' for Inactive)
REMARK    1  A    between atoms: O1_2  and  C2_3 
REMARK    2  A    between atoms: C16_18  and  C17_19 
REMARK    3  A    between atoms: C17_19  and  C19_21 
REMARK    4  A    between atoms: C23_25  and  C24_26 
REMARK    5  A    between atoms: C24_26  and  O3_27 
REMARK    6  A    between atoms: O3_27  and  C25_28 
REMARK    7  A    between atoms: C26_30  and  C27_31 
REMARK    8  A    between atoms: C27_31  and  O5_32 
REMARK    9  A    between atoms: C28_33  and  O6_34 
REMARK   10  A    between atoms: C29_35  and  O7_36 
REMARK   11  A    between atoms: C30_37  and  O8_38 
ROOT
HETATM    1  C19 UNL     1      -6.244  47.549 -27.768  1.00  0.00     0.140 C 
HETATM    2  C20 UNL     1      -6.496  48.174 -26.397  1.00  0.00     0.067 C 
HETATM    3  C21 UNL     1      -5.170  48.300 -25.688  1.00  0.00    -0.067 C 
HETATM    4  C22 UNL     1      -5.205  48.073 -24.203  1.00  0.00     0.044 C 
HETATM    5  C23 UNL     1      -4.059  48.576 -26.409  1.00  0.00     0.043 C 
HETATM    6  C31 UNL     1      -4.189  48.833 -27.874  1.00  0.00     0.292 C 
HETATM    7  O9  UNL     1      -3.342  49.461 -28.495  1.00  0.00    -0.260 OA
HETATM    8  O10 UNL     1      -5.299  48.361 -28.494  1.00  0.00    -0.311 OA
ENDROOT
BRANCH   1   9
HETATM    9  C17 UNL     1      -7.543  47.387 -28.603  1.00  0.00     0.016 C 
HETATM   10  C18 UNL     1      -7.679  48.527 -29.633  1.00  0.00     0.013 C 
BRANCH   9  11
HETATM   11  C16 UNL     1      -7.687  46.024 -29.350  1.00  0.00     0.000 C 
HETATM   12  C14 UNL     1      -9.116  45.625 -29.832  1.00  0.00    -0.036 C 
HETATM   13  C13 UNL     1      -9.588  46.487 -31.013  1.00  0.00     0.010 C 
HETATM   14  C15 UNL     1     -10.160  45.733 -28.690  1.00  0.00     0.016 C 
HETATM   15  C34 UNL     1      -8.961  44.124 -30.225  1.00  0.00     0.001 C 
HETATM   16  C12 UNL     1     -10.678  45.786 -31.811  1.00  0.00     0.007 C 
HETATM   17  C11 UNL     1     -10.180  44.504 -32.513  1.00  0.00     0.013 C 
HETATM   18  C9  UNL     1      -9.988  44.667 -34.083  1.00  0.00     0.048 C 
HETATM   19  C35 UNL     1      -9.024  43.765 -31.744  1.00  0.00     0.029 C 
HETATM   20  C4  UNL     1      -9.022  43.617 -34.632  1.00  0.00    -0.044 C 
HETATM   21  C8  UNL     1     -11.374  44.501 -34.765  1.00  0.00     0.143 C 
HETATM   22  C10 UNL     1      -9.471  46.059 -34.516  1.00  0.00     0.029 C 
HETATM   23  C3  UNL     1      -7.941  43.255 -33.923  1.00  0.00     0.013 C 
HETATM   24  C5  UNL     1      -9.236  43.053 -35.950  1.00  0.00     0.004 C 
HETATM   25  C2  UNL     1      -7.689  43.725 -32.521  1.00  0.00     0.149 C 
HETATM   26  C6  UNL     1     -10.303  43.339 -36.702  1.00  0.00    -0.019 C 
HETATM   27  C7  UNL     1     -11.408  44.236 -36.262  1.00  0.00     0.106 C 
HETATM   28  O2  UNL     1     -12.436  44.691 -34.163  1.00  0.00    -0.296 OA
HETATM   29  C33 UNL     1      -7.718  43.616 -29.456  1.00  0.00     0.006 C 
HETATM   30  C32 UNL     1      -7.220  44.776 -28.598  1.00  0.00     0.006 C 
BRANCH  25  31
HETATM   31  O1  UNL     1      -7.070  45.002 -32.534  1.00  0.00    -0.386 OA
HETATM   32  C1  UNL     1      -5.683  44.963 -32.220  1.00  0.00     0.202 C 
ENDBRANCH  25  31
ENDBRANCH   9  11
ENDBRANCH   1   9
BRANCH   5  33
HETATM   33  C24 UNL     1      -2.656  48.745 -25.878  1.00  0.00     0.216 C 
BRANCH  33  34
HETATM   34  O3  UNL     1      -1.912  49.722 -26.610  1.00  0.00    -0.354 OA
BRANCH  34  35
HETATM   35  C25 UNL     1      -1.673  50.926 -25.882  1.00  0.00     0.291 C 
HETATM   36  O4  UNL     1      -0.294  50.989 -25.509  1.00  0.00    -0.348 OA
HETATM   37  C26 UNL     1       0.593  51.091 -26.644  1.00  0.00     0.179 C 
HETATM   38  C28 UNL     1       0.273  52.320 -27.514  1.00  0.00     0.180 C 
HETATM   39  C29 UNL     1      -0.898  53.109 -26.936  1.00  0.00     0.183 C 
HETATM   40  C30 UNL     1      -2.093  52.185 -26.678  1.00  0.00     0.204 C 
BRANCH  37  41
HETATM   41  C27 UNL     1       2.026  51.153 -26.100  1.00  0.00     0.198 C 
BRANCH  41  42
HETATM   42  O5  UNL     1       2.969  51.376 -27.153  1.00  0.00    -0.398 OA
HETATM   43  H38 UNL     1       3.841  51.456 -26.723  1.00  0.00     0.209 HD
ENDBRANCH  41  42
ENDBRANCH  37  41
BRANCH  38  44
HETATM   44  O6  UNL     1      -0.087  51.884 -28.842  1.00  0.00    -0.390 OA
HETATM   45  H40 UNL     1      -0.452  52.685 -29.273  1.00  0.00     0.210 HD
ENDBRANCH  38  44
BRANCH  39  46
HETATM   46  O7  UNL     1      -1.288  54.133 -27.874  1.00  0.00    -0.390 OA
HETATM   47  H42 UNL     1      -2.170  54.438 -27.578  1.00  0.00     0.210 HD
ENDBRANCH  39  46
BRANCH  40  48
HETATM   48  O8  UNL     1      -3.097  52.955 -25.980  1.00  0.00    -0.388 OA
HETATM   49  H44 UNL     1      -2.734  53.187 -25.106  1.00  0.00     0.210 HD
ENDBRANCH  40  48
ENDBRANCH  34  35
ENDBRANCH  33  34
ENDBRANCH   5  33
TORSDOF 11
ENDMDL
MODEL 9
REMARK minimizedAffinity -10.6785183
REMARK CNNscore 0.280853689
REMARK CNNaffinity 6.45997238
REMARK  11 active torsions:
REMARK  status: ('A' for Active; 'I' for Inactive)
REMARK    1  A    between atoms: O1_2  and  C2_3 
REMARK    2  A    between atoms: C16_18  and  C17_19 
REMARK    3  A    between atoms: C17_19  and  C19_21 
REMARK    4  A    between atoms: C23_25  and  C24_26 
REMARK    5  A    between atoms: C24_26  and  O3_27 
REMARK    6  A    between atoms: O3_27  and  C25_28 
REMARK    7  A    between atoms: C26_30  and  C27_31 
REMARK    8  A    between atoms: C27_31  and  O5_32 
REMARK    9  A    between atoms: C28_33  and  O6_34 
REMARK   10  A    between atoms: C29_35  and  O7_36 
REMARK   11  A    between atoms: C30_37  and  O8_38 
ROOT
HETATM    1  C19 UNL     1      -5.190  49.594 -24.759  1.00  0.00     0.140 C 
HETATM    2  C20 UNL     1      -6.064  48.343 -24.676  1.00  0.00     0.067 C 
HETATM    3  C21 UNL     1      -6.280  47.829 -26.078  1.00  0.00    -0.067 C 
HETATM    4  C22 UNL     1      -7.635  47.234 -26.348  1.00  0.00     0.044 C 
HETATM    5  C23 UNL     1      -5.288  47.952 -26.988  1.00  0.00     0.043 C 
HETATM    6  C31 UNL     1      -3.974  48.515 -26.558  1.00  0.00     0.292 C 
HETATM    7  O9  UNL     1      -2.943  48.293 -27.179  1.00  0.00    -0.260 OA
HETATM    8  O10 UNL     1      -3.957  49.269 -25.431  1.00  0.00    -0.311 OA
ENDROOT
BRANCH   1   9
HETATM    9  C17 UNL     1      -4.881  50.204 -23.365  1.00  0.00     0.016 C 
HETATM   10  C18 UNL     1      -6.146  50.224 -22.482  1.00  0.00     0.013 C 
BRANCH   9  11
HETATM   11  C16 UNL     1      -3.734  49.502 -22.572  1.00  0.00     0.000 C 
HETATM   12  C14 UNL     1      -2.362  50.243 -22.502  1.00  0.00    -0.036 C 
HETATM   13  C13 UNL     1      -2.423  51.484 -21.599  1.00  0.00     0.010 C 
HETATM   14  C15 UNL     1      -1.868  50.674 -23.907  1.00  0.00     0.016 C 
HETATM   15  C34 UNL     1      -1.392  49.158 -21.945  1.00  0.00     0.001 C 
HETATM   16  C12 UNL     1      -1.038  51.875 -21.100  1.00  0.00     0.007 C 
HETATM   17  C11 UNL     1      -0.414  50.815 -20.167  1.00  0.00     0.013 C 
HETATM   18  C9  UNL     1      -0.414  51.234 -18.632  1.00  0.00     0.048 C 
HETATM   19  C35 UNL     1      -0.862  49.342 -20.486  1.00  0.00     0.029 C 
HETATM   20  C4  UNL     1      -0.306  50.007 -17.727  1.00  0.00    -0.044 C 
HETATM   21  C8  UNL     1       0.800  52.170 -18.381  1.00  0.00     0.143 C 
HETATM   22  C10 UNL     1      -1.661  52.037 -18.196  1.00  0.00     0.029 C 
HETATM   23  C3  UNL     1      -0.947  48.871 -18.046  1.00  0.00     0.013 C 
HETATM   24  C5  UNL     1       0.438  50.083 -16.486  1.00  0.00     0.004 C 
HETATM   25  C2  UNL     1      -1.669  48.679 -19.347  1.00  0.00     0.149 C 
HETATM   26  C6  UNL     1       1.128  51.166 -16.115  1.00  0.00    -0.019 C 
HETATM   27  C7  UNL     1       1.241  52.399 -16.943  1.00  0.00     0.106 C 
HETATM   28  O2  UNL     1       1.337  52.817 -19.286  1.00  0.00    -0.296 OA
HETATM   29  C33 UNL     1      -2.059  47.798 -22.259  1.00  0.00     0.006 C 
HETATM   30  C32 UNL     1      -3.339  48.098 -23.033  1.00  0.00     0.006 C 
BRANCH  25  31
HETATM   31  O1  UNL     1      -2.978  49.222 -19.268  1.00  0.00    -0.386 OA
HETATM   32  C1  UNL     1      -3.757  48.670 -18.214  1.00  0.00     0.202 C 
ENDBRANCH  25  31
ENDBRANCH   9  11
ENDBRANCH   1   9
BRANCH   5  33
HETATM   33  C24 UNL     1      -5.318  47.495 -28.427  1.00  0.00     0.216 C 
BRANCH  33  34
HETATM   34  O3  UNL     1      -6.489  46.734 -28.731  1.00  0.00    -0.354 OA
BRANCH  34  35
HETATM   35  C25 UNL     1      -6.650  46.459 -30.122  1.00  0.00     0.291 C 
HETATM   36  O4  UNL     1      -7.718  47.256 -30.642  1.00  0.00    -0.348 OA
HETATM   37  C26 UNL     1      -7.436  48.672 -30.602  1.00  0.00     0.179 C 
HETATM   38  C28 UNL     1      -6.151  49.025 -31.373  1.00  0.00     0.180 C 
HETATM   39  C29 UNL     1      -5.521  47.777 -31.984  1.00  0.00     0.183 C 
HETATM   40  C30 UNL     1      -5.344  46.688 -30.920  1.00  0.00     0.204 C 
BRANCH  37  41
HETATM   41  C27 UNL     1      -8.653  49.398 -31.188  1.00  0.00     0.198 C 
BRANCH  41  42
HETATM   42  O5  UNL     1      -8.648  50.785 -30.833  1.00  0.00    -0.398 OA
HETATM   43  H38 UNL     1      -9.416  51.182 -31.284  1.00  0.00     0.209 HD
ENDBRANCH  41  42
ENDBRANCH  37  41
BRANCH  38  44
HETATM   44  O6  UNL     1      -5.196  49.616 -30.467  1.00  0.00    -0.390 OA
HETATM   45  H40 UNL     1      -4.358  49.638 -30.974  1.00  0.00     0.210 HD
ENDBRANCH  38  44
BRANCH  39  46
HETATM   46  O7  UNL     1      -4.230  48.117 -32.530  1.00  0.00    -0.390 OA
HETATM   47  H42 UNL     1      -3.775  47.262 -32.681  1.00  0.00     0.210 HD
ENDBRANCH  39  46
BRANCH  40  48
HETATM   48  O8  UNL     1      -4.906  45.487 -31.593  1.00  0.00    -0.388 OA
HETATM   49  H44 UNL     1      -5.633  45.192 -32.171  1.00  0.00     0.210 HD
ENDBRANCH  40  48
ENDBRANCH  34  35
ENDBRANCH  33  34
ENDBRANCH   5  33
TORSDOF 11
ENDMDL
