MODEL 1
REMARK minimizedAffinity -9.8289156
REMARK CNNscore 0.511345148
REMARK CNNaffinity 7.94071007
REMARK  12 active torsions:
REMARK  status: ('A' for Active; 'I' for Inactive)
REMARK    1  A    between atoms: C12_13  and  O2_14 
REMARK    2  A    between atoms: C19_21  and  O3_22 
REMARK    3  A    between atoms: C19_21  and  C20_23 
REMARK    4  A    between atoms: C20_23  and  C21_25 
REMARK    5  A    between atoms: C21_25  and  O5_26 
REMARK    6  A    between atoms: O5_26  and  C22_27 
REMARK    7  A    between atoms: C22_27  and  C23_29 
REMARK    8  A    between atoms: C23_29  and  C24_30 
REMARK    9  A    between atoms: C24_30  and  C25_31 
REMARK       I    between atoms: C25_31  and  N1_33 
REMARK   10  A    between atoms: N1_33  and  C26_34 
REMARK   11  A    between atoms: C26_34  and  C27_35 
REMARK   12  A    between atoms: C27_35  and  C28_36 
ROOT
HETATM    1  C1  UNL     1     -10.546  10.974  14.436  1.00  0.00     0.020 C 
HETATM    2  C2  UNL     1     -11.228   9.568  14.459  1.00  0.00    -0.014 C 
HETATM    3  C3  UNL     1     -12.164   9.570  13.213  1.00  0.00     0.022 C 
HETATM    4  C4  UNL     1     -13.401   8.689  13.315  1.00  0.00     0.084 C 
HETATM    5  C5  UNL     1     -14.138   8.939  14.604  1.00  0.00     0.149 C 
HETATM    6  O1  UNL     1     -15.358   8.842  14.697  1.00  0.00    -0.293 OA
HETATM    7  C6  UNL     1     -13.334   9.194  15.820  1.00  0.00     0.053 C 
HETATM    8  C7  UNL     1     -12.013   9.429  15.753  1.00  0.00    -0.068 C 
HETATM    9  C8  UNL     1     -11.190   9.529  17.012  1.00  0.00     0.035 C 
HETATM   10  C9  UNL     1     -10.137   8.431  17.015  1.00  0.00     0.010 C 
HETATM   11  C10 UNL     1      -9.267   8.360  15.735  1.00  0.00    -0.002 C 
HETATM   12  C11 UNL     1     -10.080   8.490  14.392  1.00  0.00     0.031 C 
HETATM   13  C12 UNL     1     -10.419   7.094  13.821  1.00  0.00     0.124 C 
HETATM   14  C13 UNL     1      -9.145   6.270  13.489  1.00  0.00     0.045 C 
HETATM   15  C14 UNL     1      -7.929   6.543  14.418  1.00  0.00     0.001 C 
HETATM   16  C15 UNL     1      -6.966   7.565  13.746  1.00  0.00     0.019 C 
HETATM   17  C16 UNL     1      -8.465   7.040  15.777  1.00  0.00     0.002 C 
HETATM   18  C17 UNL     1      -7.251   6.999  16.701  1.00  0.00     0.009 C 
HETATM   19  C18 UNL     1      -6.409   5.816  16.185  1.00  0.00     0.047 C 
HETATM   20  C19 UNL     1      -7.110   5.292  14.896  1.00  0.00     0.128 C 
ENDROOT
BRANCH  20  21
HETATM   21  O3  UNL     1      -7.970   4.239  15.348  1.00  0.00    -0.381 OA
HETATM   22  H27 UNL     1      -8.375   3.818  14.570  1.00  0.00     0.211 HD
ENDBRANCH  20  21
BRANCH  20  23
HETATM   23  C20 UNL     1      -6.087   4.745  13.864  1.00  0.00     0.185 C 
HETATM   24  O4  UNL     1      -4.929   5.166  13.799  1.00  0.00    -0.292 OA
BRANCH  23  25
HETATM   25  C21 UNL     1      -6.581   3.718  12.852  1.00  0.00     0.260 C 
BRANCH  25  26
HETATM   26  O5  UNL     1      -5.738   3.655  11.703  1.00  0.00    -0.314 OA
BRANCH  26  27
HETATM   27  C22 UNL     1      -5.132   2.449  11.526  1.00  0.00     0.259 C 
HETATM   28  O6  UNL     1      -5.671   1.473  11.022  1.00  0.00    -0.265 OA
BRANCH  27  29
HETATM   29  C23 UNL     1      -3.753   2.414  12.147  1.00  0.00     0.120 C 
BRANCH  29  30
HETATM   30  C24 UNL     1      -2.603   2.480  11.148  1.00  0.00     0.112 C 
BRANCH  30  31
HETATM   31  C25 UNL     1      -1.545   3.482  11.562  1.00  0.00     0.218 C 
HETATM   32  O7  UNL     1      -0.391   3.449  11.152  1.00  0.00    -0.274 OA
HETATM   33  N1  UNL     1      -2.015   4.430  12.441  1.00  0.00    -0.361 N 
HETATM   34  H34 UNL     1      -2.969   4.375  12.775  1.00  0.00     0.162 HD
BRANCH  33  35
HETATM   35  C26 UNL     1      -1.153   5.464  12.988  1.00  0.00     0.127 C 
BRANCH  35  36
HETATM   36  C27 UNL     1      -0.879   6.588  11.985  1.00  0.00     0.060 C 
BRANCH  36  37
HETATM   37  C28 UNL     1       0.566   6.673  11.612  1.00  0.00    -0.029 A 
HETATM   38  C29 UNL     1       1.632   6.219  12.365  1.00  0.00     0.096 A 
HETATM   39  N2  UNL     1       2.787   6.477  11.678  1.00  0.00    -0.365 N 
HETATM   40  C30 UNL     1       2.502   7.094  10.482  1.00  0.00     0.042 A 
HETATM   41  H40 UNL     1       3.718   6.251  11.997  1.00  0.00     0.165 HD
HETATM   42  C31 UNL     1       3.360   7.536   9.469  1.00  0.00     0.030 A 
HETATM   43  C35 UNL     1       1.115   7.232  10.413  1.00  0.00    -0.002 A 
HETATM   44  C32 UNL     1       2.782   8.141   8.349  1.00  0.00     0.002 A 
HETATM   45  C33 UNL     1       1.402   8.294   8.249  1.00  0.00     0.001 A 
HETATM   46  C34 UNL     1       0.558   7.846   9.271  1.00  0.00     0.014 A 
ENDBRANCH  36  37
ENDBRANCH  35  36
ENDBRANCH  33  35
ENDBRANCH  30  31
ENDBRANCH  29  30
ENDBRANCH  27  29
ENDBRANCH  26  27
ENDBRANCH  25  26
ENDBRANCH  23  25
ENDBRANCH  20  23
BRANCH  13  47
HETATM   47  O2  UNL     1     -11.208   6.320  14.719  1.00  0.00    -0.395 OA
HETATM   48  H16 UNL     1     -11.907   6.880  15.092  1.00  0.00     0.210 HD
ENDBRANCH  13  47
TORSDOF 12
ENDMDL
MODEL 2
REMARK minimizedAffinity -8.67006111
REMARK CNNscore 0.461797506
REMARK CNNaffinity 7.31738424
REMARK  12 active torsions:
REMARK  status: ('A' for Active; 'I' for Inactive)
REMARK    1  A    between atoms: C12_13  and  O2_14 
REMARK    2  A    between atoms: C19_21  and  O3_22 
REMARK    3  A    between atoms: C19_21  and  C20_23 
REMARK    4  A    between atoms: C20_23  and  C21_25 
REMARK    5  A    between atoms: C21_25  and  O5_26 
REMARK    6  A    between atoms: O5_26  and  C22_27 
REMARK    7  A    between atoms: C22_27  and  C23_29 
REMARK    8  A    between atoms: C23_29  and  C24_30 
REMARK    9  A    between atoms: C24_30  and  C25_31 
REMARK       I    between atoms: C25_31  and  N1_33 
REMARK   10  A    between atoms: N1_33  and  C26_34 
REMARK   11  A    between atoms: C26_34  and  C27_35 
REMARK   12  A    between atoms: C27_35  and  C28_36 
ROOT
HETATM    1  C1  UNL     1      -1.714   8.258  12.323  1.00  0.00     0.020 C 
HETATM    2  C2  UNL     1      -1.815   7.800  13.813  1.00  0.00    -0.014 C 
HETATM    3  C3  UNL     1      -1.267   9.008  14.630  1.00  0.00     0.022 C 
HETATM    4  C4  UNL     1      -0.625   8.665  15.967  1.00  0.00     0.084 C 
HETATM    5  C5  UNL     1       0.381   7.555  15.814  1.00  0.00     0.149 C 
HETATM    6  O1  UNL     1       1.389   7.478  16.510  1.00  0.00    -0.293 OA
HETATM    7  C6  UNL     1       0.065   6.464  14.867  1.00  0.00     0.053 C 
HETATM    8  C7  UNL     1      -0.957   6.558  14.000  1.00  0.00    -0.068 C 
HETATM    9  C8  UNL     1      -1.355   5.375  13.156  1.00  0.00     0.035 C 
HETATM   10  C9  UNL     1      -2.785   4.977  13.490  1.00  0.00     0.010 C 
HETATM   11  C10 UNL     1      -3.815   6.132  13.426  1.00  0.00    -0.002 C 
HETATM   12  C11 UNL     1      -3.329   7.470  14.099  1.00  0.00     0.031 C 
HETATM   13  C12 UNL     1      -3.836   7.563  15.558  1.00  0.00     0.124 C 
HETATM   14  C13 UNL     1      -5.387   7.563  15.641  1.00  0.00     0.045 C 
HETATM   15  C14 UNL     1      -6.101   6.734  14.537  1.00  0.00     0.001 C 
HETATM   16  C15 UNL     1      -6.556   7.671  13.381  1.00  0.00     0.019 C 
HETATM   17  C16 UNL     1      -5.132   5.632  14.061  1.00  0.00     0.002 C 
HETATM   18  C17 UNL     1      -5.999   4.705  13.214  1.00  0.00     0.009 C 
HETATM   19  C18 UNL     1      -7.395   4.775  13.864  1.00  0.00     0.047 C 
HETATM   20  C19 UNL     1      -7.312   5.844  14.994  1.00  0.00     0.128 C 
ENDROOT
BRANCH  20  21
HETATM   21  O3  UNL     1      -7.004   5.102  16.180  1.00  0.00    -0.381 OA
HETATM   22  H27 UNL     1      -7.020   5.712  16.938  1.00  0.00     0.211 HD
ENDBRANCH  20  21
BRANCH  20  23
HETATM   23  C20 UNL     1      -8.654   6.604  15.169  1.00  0.00     0.185 C 
HETATM   24  O4  UNL     1      -8.972   7.145  16.231  1.00  0.00    -0.292 OA
BRANCH  23  25
HETATM   25  C21 UNL     1      -9.633   6.590  14.000  1.00  0.00     0.260 C 
BRANCH  25  26
HETATM   26  O5  UNL     1     -10.264   7.857  13.819  1.00  0.00    -0.314 OA
BRANCH  26  27
HETATM   27  C22 UNL     1     -11.619   7.789  13.704  1.00  0.00     0.259 C 
HETATM   28  O6  UNL     1     -12.208   7.379  12.713  1.00  0.00    -0.265 OA
BRANCH  27  29
HETATM   29  C23 UNL     1     -12.319   8.406  14.895  1.00  0.00     0.120 C 
BRANCH  29  30
HETATM   30  C24 UNL     1     -11.559   9.549  15.558  1.00  0.00     0.112 C 
BRANCH  30  31
HETATM   31  C25 UNL     1     -11.990   9.764  16.994  1.00  0.00     0.218 C 
HETATM   32  O7  UNL     1     -12.984  10.405  17.309  1.00  0.00    -0.274 OA
HETATM   33  N1  UNL     1     -11.152   9.160  17.904  1.00  0.00    -0.361 N 
HETATM   34  H34 UNL     1     -10.322   8.680  17.580  1.00  0.00     0.162 HD
BRANCH  33  35
HETATM   35  C26 UNL     1     -11.367   9.271  19.337  1.00  0.00     0.127 C 
BRANCH  35  36
HETATM   36  C27 UNL     1     -12.804   8.930  19.740  1.00  0.00     0.060 C 
BRANCH  36  37
HETATM   37  C28 UNL     1     -12.880   8.329  21.107  1.00  0.00    -0.029 A 
HETATM   38  C29 UNL     1     -13.569   7.184  21.459  1.00  0.00     0.096 A 
HETATM   39  N2  UNL     1     -13.387   6.966  22.798  1.00  0.00    -0.365 N 
HETATM   40  C30 UNL     1     -12.589   7.947  23.336  1.00  0.00     0.042 A 
HETATM   41  H40 UNL     1     -13.781   6.197  23.321  1.00  0.00     0.165 HD
HETATM   42  C31 UNL     1     -12.144   8.126  24.651  1.00  0.00     0.030 A 
HETATM   43  C35 UNL     1     -12.256   8.820  22.299  1.00  0.00    -0.002 A 
HETATM   44  C32 UNL     1     -11.333   9.233  24.915  1.00  0.00     0.002 A 
HETATM   45  C33 UNL     1     -10.981  10.123  23.903  1.00  0.00     0.001 A 
HETATM   46  C34 UNL     1     -11.436   9.928  22.593  1.00  0.00     0.014 A 
ENDBRANCH  36  37
ENDBRANCH  35  36
ENDBRANCH  33  35
ENDBRANCH  30  31
ENDBRANCH  29  30
ENDBRANCH  27  29
ENDBRANCH  26  27
ENDBRANCH  25  26
ENDBRANCH  23  25
ENDBRANCH  20  23
BRANCH  13  47
HETATM   47  O2  UNL     1      -3.363   6.488  16.363  1.00  0.00    -0.395 OA
HETATM   48  H16 UNL     1      -2.421   6.344  16.180  1.00  0.00     0.210 HD
ENDBRANCH  13  47
TORSDOF 12
ENDMDL
MODEL 3
REMARK minimizedAffinity -8.99495506
REMARK CNNscore 0.414242178
REMARK CNNaffinity 7.07023573
REMARK  12 active torsions:
REMARK  status: ('A' for Active; 'I' for Inactive)
REMARK    1  A    between atoms: C12_13  and  O2_14 
REMARK    2  A    between atoms: C19_21  and  O3_22 
REMARK    3  A    between atoms: C19_21  and  C20_23 
REMARK    4  A    between atoms: C20_23  and  C21_25 
REMARK    5  A    between atoms: C21_25  and  O5_26 
REMARK    6  A    between atoms: O5_26  and  C22_27 
REMARK    7  A    between atoms: C22_27  and  C23_29 
REMARK    8  A    between atoms: C23_29  and  C24_30 
REMARK    9  A    between atoms: C24_30  and  C25_31 
REMARK       I    between atoms: C25_31  and  N1_33 
REMARK   10  A    between atoms: N1_33  and  C26_34 
REMARK   11  A    between atoms: C26_34  and  C27_35 
REMARK   12  A    between atoms: C27_35  and  C28_36 
ROOT
HETATM    1  C1  UNL     1       2.985   8.079   8.760  1.00  0.00     0.020 C 
HETATM    2  C2  UNL     1       3.409   7.803  10.238  1.00  0.00    -0.014 C 
HETATM    3  C3  UNL     1       4.443   8.924  10.562  1.00  0.00     0.022 C 
HETATM    4  C4  UNL     1       5.495   8.572  11.604  1.00  0.00     0.084 C 
HETATM    5  C5  UNL     1       6.142   7.249  11.292  1.00  0.00     0.149 C 
HETATM    6  O1  UNL     1       7.313   7.006  11.567  1.00  0.00    -0.293 OA
HETATM    7  C6  UNL     1       5.286   6.175  10.743  1.00  0.00     0.053 C 
HETATM    8  C7  UNL     1       4.036   6.420  10.314  1.00  0.00    -0.068 C 
HETATM    9  C8  UNL     1       3.131   5.287   9.907  1.00  0.00     0.035 C 
HETATM   10  C9  UNL     1       1.909   5.267  10.813  1.00  0.00     0.010 C 
HETATM   11  C10 UNL     1       1.161   6.619  10.927  1.00  0.00    -0.002 C 
HETATM   12  C11 UNL     1       2.104   7.865  11.119  1.00  0.00     0.031 C 
HETATM   13  C12 UNL     1       2.249   8.214  12.619  1.00  0.00     0.124 C 
HETATM   14  C13 UNL     1       0.888   8.585  13.269  1.00  0.00     0.045 C 
HETATM   15  C14 UNL     1      -0.343   7.842  12.678  1.00  0.00     0.001 C 
HETATM   16  C15 UNL     1      -1.050   8.742  11.623  1.00  0.00     0.019 C 
HETATM   17  C16 UNL     1       0.143   6.504  12.083  1.00  0.00     0.002 C 
HETATM   18  C17 UNL     1      -1.139   5.726  11.801  1.00  0.00     0.009 C 
HETATM   19  C18 UNL     1      -2.122   6.184  12.897  1.00  0.00     0.047 C 
HETATM   20  C19 UNL     1      -1.405   7.307  13.703  1.00  0.00     0.128 C 
ENDROOT
BRANCH  20  21
HETATM   21  O3  UNL     1      -0.785   6.632  14.803  1.00  0.00    -0.381 OA
HETATM   22  H27 UNL     1      -0.388   7.300  15.390  1.00  0.00     0.211 HD
ENDBRANCH  20  21
BRANCH  20  23
HETATM   23  C20 UNL     1      -2.409   8.373  14.222  1.00  0.00     0.185 C 
HETATM   24  O4  UNL     1      -2.169   9.582  14.174  1.00  0.00    -0.292 OA
BRANCH  23  25
HETATM   25  C21 UNL     1      -3.686   7.877  14.891  1.00  0.00     0.260 C 
BRANCH  25  26
HETATM   26  O5  UNL     1      -4.839   8.566  14.411  1.00  0.00    -0.314 OA
BRANCH  26  27
HETATM   27  C22 UNL     1      -6.017   8.070  14.883  1.00  0.00     0.259 C 
HETATM   28  O6  UNL     1      -7.090   8.654  14.811  1.00  0.00    -0.265 OA
BRANCH  27  29
HETATM   29  C23 UNL     1      -5.823   6.767  15.627  1.00  0.00     0.120 C 
BRANCH  29  30
HETATM   30  C24 UNL     1      -6.618   5.591  15.071  1.00  0.00     0.112 C 
BRANCH  30  31
HETATM   31  C25 UNL     1      -7.616   6.025  14.018  1.00  0.00     0.218 C 
HETATM   32  O7  UNL     1      -7.344   6.107  12.827  1.00  0.00    -0.274 OA
HETATM   33  N1  UNL     1      -8.858   6.310  14.538  1.00  0.00    -0.361 N 
HETATM   34  H34 UNL     1      -9.006   6.263  15.539  1.00  0.00     0.162 HD
BRANCH  33  35
HETATM   35  C26 UNL     1      -9.952   6.775  13.702  1.00  0.00     0.127 C 
BRANCH  35  36
HETATM   36  C27 UNL     1     -11.286   6.811  14.452  1.00  0.00     0.060 C 
BRANCH  36  37
HETATM   37  C28 UNL     1     -12.303   7.657  13.756  1.00  0.00    -0.029 A 
HETATM   38  C29 UNL     1     -13.318   7.205  12.934  1.00  0.00     0.096 A 
HETATM   39  N2  UNL     1     -14.034   8.287  12.498  1.00  0.00    -0.365 N 
HETATM   40  C30 UNL     1     -13.509   9.446  13.018  1.00  0.00     0.042 A 
HETATM   41  H40 UNL     1     -14.833   8.246  11.881  1.00  0.00     0.165 HD
HETATM   42  C31 UNL     1     -13.913  10.775  12.845  1.00  0.00     0.030 A 
HETATM   43  C35 UNL     1     -12.420   9.084  13.811  1.00  0.00    -0.002 A 
HETATM   44  C32 UNL     1     -13.179  11.766  13.503  1.00  0.00     0.002 A 
HETATM   45  C33 UNL     1     -12.087  11.438  14.302  1.00  0.00     0.001 A 
HETATM   46  C34 UNL     1     -11.697  10.104  14.464  1.00  0.00     0.014 A 
ENDBRANCH  36  37
ENDBRANCH  35  36
ENDBRANCH  33  35
ENDBRANCH  30  31
ENDBRANCH  29  30
ENDBRANCH  27  29
ENDBRANCH  26  27
ENDBRANCH  25  26
ENDBRANCH  23  25
ENDBRANCH  20  23
BRANCH  13  47
HETATM   47  O2  UNL     1       2.807   7.142  13.371  1.00  0.00    -0.395 OA
HETATM   48  H16 UNL     1       3.555   6.765  12.882  1.00  0.00     0.210 HD
ENDBRANCH  13  47
TORSDOF 12
ENDMDL
MODEL 4
REMARK minimizedAffinity -7.75013828
REMARK CNNscore 0.398771137
REMARK CNNaffinity 7.19970465
REMARK  12 active torsions:
REMARK  status: ('A' for Active; 'I' for Inactive)
REMARK    1  A    between atoms: C12_13  and  O2_14 
REMARK    2  A    between atoms: C19_21  and  O3_22 
REMARK    3  A    between atoms: C19_21  and  C20_23 
REMARK    4  A    between atoms: C20_23  and  C21_25 
REMARK    5  A    between atoms: C21_25  and  O5_26 
REMARK    6  A    between atoms: O5_26  and  C22_27 
REMARK    7  A    between atoms: C22_27  and  C23_29 
REMARK    8  A    between atoms: C23_29  and  C24_30 
REMARK    9  A    between atoms: C24_30  and  C25_31 
REMARK       I    between atoms: C25_31  and  N1_33 
REMARK   10  A    between atoms: N1_33  and  C26_34 
REMARK   11  A    between atoms: C26_34  and  C27_35 
REMARK   12  A    between atoms: C27_35  and  C28_36 
ROOT
HETATM    1  C1  UNL     1       2.910   8.201   8.875  1.00  0.00     0.020 C 
HETATM    2  C2  UNL     1       3.378   7.907  10.336  1.00  0.00    -0.014 C 
HETATM    3  C3  UNL     1       4.038   9.238  10.809  1.00  0.00     0.022 C 
HETATM    4  C4  UNL     1       5.134   9.096  11.856  1.00  0.00     0.084 C 
HETATM    5  C5  UNL     1       6.141   8.054  11.446  1.00  0.00     0.149 C 
HETATM    6  O1  UNL     1       7.329   8.130  11.744  1.00  0.00    -0.293 OA
HETATM    7  C6  UNL     1       5.640   6.843  10.760  1.00  0.00     0.053 C 
HETATM    8  C7  UNL     1       4.378   6.762  10.306  1.00  0.00    -0.068 C 
HETATM    9  C8  UNL     1       3.845   5.465   9.754  1.00  0.00     0.035 C 
HETATM   10  C9  UNL     1       2.671   5.001  10.602  1.00  0.00     0.010 C 
HETATM   11  C10 UNL     1       1.562   6.062  10.814  1.00  0.00    -0.002 C 
HETATM   12  C11 UNL     1       2.100   7.500  11.164  1.00  0.00     0.031 C 
HETATM   13  C12 UNL     1       2.119   7.718  12.695  1.00  0.00     0.124 C 
HETATM   14  C13 UNL     1       0.701   7.613  13.321  1.00  0.00     0.045 C 
HETATM   15  C14 UNL     1      -0.254   6.613  12.610  1.00  0.00     0.001 C 
HETATM   16  C15 UNL     1      -1.178   7.377  11.618  1.00  0.00     0.019 C 
HETATM   17  C16 UNL     1       0.606   5.540  11.911  1.00  0.00     0.002 C 
HETATM   18  C17 UNL     1      -0.392   4.461  11.501  1.00  0.00     0.009 C 
HETATM   19  C18 UNL     1      -1.478   4.501  12.594  1.00  0.00     0.047 C 
HETATM   20  C19 UNL     1      -1.128   5.693  13.534  1.00  0.00     0.128 C 
ENDROOT
BRANCH  20  21
HETATM   21  O3  UNL     1      -0.353   5.114  14.589  1.00  0.00    -0.381 OA
HETATM   22  H27 UNL     1      -0.173   5.802  15.253  1.00  0.00     0.211 HD
ENDBRANCH  20  21
BRANCH  20  23
HETATM   23  C20 UNL     1      -2.403   6.366  14.110  1.00  0.00     0.185 C 
HETATM   24  O4  UNL     1      -2.388   7.499  14.598  1.00  0.00    -0.292 OA
BRANCH  23  25
HETATM   25  C21 UNL     1      -3.686   5.541  14.144  1.00  0.00     0.260 C 
BRANCH  25  26
HETATM   26  O5  UNL     1      -4.756   6.194  13.462  1.00  0.00    -0.314 OA
BRANCH  26  27
HETATM   27  C22 UNL     1      -5.883   5.439  13.350  1.00  0.00     0.259 C 
HETATM   28  O6  UNL     1      -5.947   4.381  12.738  1.00  0.00    -0.265 OA
BRANCH  27  29
HETATM   29  C23 UNL     1      -7.086   6.126  13.958  1.00  0.00     0.120 C 
BRANCH  29  30
HETATM   30  C24 UNL     1      -6.864   6.672  15.364  1.00  0.00     0.112 C 
BRANCH  30  31
HETATM   31  C25 UNL     1      -6.634   8.169  15.365  1.00  0.00     0.218 C 
HETATM   32  O7  UNL     1      -7.528   8.987  15.189  1.00  0.00    -0.274 OA
HETATM   33  N1  UNL     1      -5.320   8.511  15.589  1.00  0.00    -0.361 N 
HETATM   34  H34 UNL     1      -4.621   7.785  15.684  1.00  0.00     0.162 HD
BRANCH  33  35
HETATM   35  C26 UNL     1      -4.878   9.895  15.596  1.00  0.00     0.127 C 
BRANCH  35  36
HETATM   36  C27 UNL     1      -3.436  10.046  16.088  1.00  0.00     0.060 C 
BRANCH  36  37
HETATM   37  C28 UNL     1      -3.306  11.095  17.145  1.00  0.00    -0.029 A 
HETATM   38  C29 UNL     1      -2.525  11.017  18.282  1.00  0.00     0.096 A 
HETATM   39  N2  UNL     1      -2.676  12.178  18.990  1.00  0.00    -0.365 N 
HETATM   40  C30 UNL     1      -3.543  13.023  18.339  1.00  0.00     0.042 A 
HETATM   41  H40 UNL     1      -2.219  12.390  19.866  1.00  0.00     0.165 HD
HETATM   42  C31 UNL     1      -3.988  14.303  18.691  1.00  0.00     0.030 A 
HETATM   43  C35 UNL     1      -3.958  12.371  17.178  1.00  0.00    -0.002 A 
HETATM   44  C32 UNL     1      -4.887  14.936  17.828  1.00  0.00     0.002 A 
HETATM   45  C33 UNL     1      -5.320  14.312  16.660  1.00  0.00     0.001 A 
HETATM   46  C34 UNL     1      -4.865  13.032  16.324  1.00  0.00     0.014 A 
ENDBRANCH  36  37
ENDBRANCH  35  36
ENDBRANCH  33  35
ENDBRANCH  30  31
ENDBRANCH  29  30
ENDBRANCH  27  29
ENDBRANCH  26  27
ENDBRANCH  25  26
ENDBRANCH  23  25
ENDBRANCH  20  23
BRANCH  13  47
HETATM   47  O2  UNL     1       2.955   6.779  13.364  1.00  0.00    -0.395 OA
HETATM   48  H16 UNL     1       3.786   6.686  12.873  1.00  0.00     0.210 HD
ENDBRANCH  13  47
TORSDOF 12
ENDMDL
MODEL 5
REMARK minimizedAffinity -9.83601665
REMARK CNNscore 0.383850217
REMARK CNNaffinity 6.93055773
REMARK  12 active torsions:
REMARK  status: ('A' for Active; 'I' for Inactive)
REMARK    1  A    between atoms: C12_13  and  O2_14 
REMARK    2  A    between atoms: C19_21  and  O3_22 
REMARK    3  A    between atoms: C19_21  and  C20_23 
REMARK    4  A    between atoms: C20_23  and  C21_25 
REMARK    5  A    between atoms: C21_25  and  O5_26 
REMARK    6  A    between atoms: O5_26  and  C22_27 
REMARK    7  A    between atoms: C22_27  and  C23_29 
REMARK    8  A    between atoms: C23_29  and  C24_30 
REMARK    9  A    between atoms: C24_30  and  C25_31 
REMARK       I    between atoms: C25_31  and  N1_33 
REMARK   10  A    between atoms: N1_33  and  C26_34 
REMARK   11  A    between atoms: C26_34  and  C27_35 
REMARK   12  A    between atoms: C27_35  and  C28_36 
ROOT
HETATM    1  C1  UNL     1       3.911   8.363   9.675  1.00  0.00     0.020 C 
HETATM    2  C2  UNL     1       3.091   7.034   9.649  1.00  0.00    -0.014 C 
HETATM    3  C3  UNL     1       4.147   5.920   9.920  1.00  0.00     0.022 C 
HETATM    4  C4  UNL     1       3.836   4.556   9.321  1.00  0.00     0.084 C 
HETATM    5  C5  UNL     1       3.469   4.676   7.866  1.00  0.00     0.149 C 
HETATM    6  O1  UNL     1       3.730   3.801   7.045  1.00  0.00    -0.293 OA
HETATM    7  C6  UNL     1       2.662   5.844   7.452  1.00  0.00     0.053 C 
HETATM    8  C7  UNL     1       2.453   6.883   8.277  1.00  0.00    -0.068 C 
HETATM    9  C8  UNL     1       1.501   7.985   7.892  1.00  0.00     0.035 C 
HETATM   10  C9  UNL     1       0.365   8.045   8.902  1.00  0.00     0.010 C 
HETATM   11  C10 UNL     1       0.814   8.132  10.382  1.00  0.00    -0.002 C 
HETATM   12  C11 UNL     1       1.982   7.147  10.763  1.00  0.00     0.031 C 
HETATM   13  C12 UNL     1       1.420   5.841  11.371  1.00  0.00     0.124 C 
HETATM   14  C13 UNL     1       0.617   6.099  12.676  1.00  0.00     0.045 C 
HETATM   15  C14 UNL     1      -0.135   7.459  12.722  1.00  0.00     0.001 C 
HETATM   16  C15 UNL     1       0.711   8.506  13.502  1.00  0.00     0.019 C 
HETATM   17  C16 UNL     1      -0.428   7.896  11.272  1.00  0.00     0.002 C 
HETATM   18  C17 UNL     1      -1.405   9.059  11.417  1.00  0.00     0.009 C 
HETATM   19  C18 UNL     1      -2.221   8.727  12.682  1.00  0.00     0.047 C 
HETATM   20  C19 UNL     1      -1.597   7.438  13.294  1.00  0.00     0.128 C 
ENDROOT
BRANCH  20  21
HETATM   21  O3  UNL     1      -2.365   6.362  12.745  1.00  0.00    -0.381 OA
HETATM   22  H27 UNL     1      -2.070   5.531  13.158  1.00  0.00     0.211 HD
ENDBRANCH  20  21
BRANCH  20  23
HETATM   23  C20 UNL     1      -1.694   7.432  14.844  1.00  0.00     0.185 C 
HETATM   24  O4  UNL     1      -1.226   6.519  15.530  1.00  0.00    -0.292 OA
BRANCH  23  25
HETATM   25  C21 UNL     1      -2.475   8.559  15.510  1.00  0.00     0.260 C 
BRANCH  25  26
HETATM   26  O5  UNL     1      -3.837   8.199  15.738  1.00  0.00    -0.314 OA
BRANCH  26  27
HETATM   27  C22 UNL     1      -4.737   9.069  15.202  1.00  0.00     0.259 C 
HETATM   28  O6  UNL     1      -4.978  10.179  15.655  1.00  0.00    -0.265 OA
BRANCH  27  29
HETATM   29  C23 UNL     1      -5.505   8.450  14.054  1.00  0.00     0.120 C 
BRANCH  29  30
HETATM   30  C24 UNL     1      -5.716   6.944  14.168  1.00  0.00     0.112 C 
BRANCH  30  31
HETATM   31  C25 UNL     1      -7.156   6.549  13.917  1.00  0.00     0.218 C 
HETATM   32  O7  UNL     1      -7.496   5.768  13.038  1.00  0.00    -0.274 OA
HETATM   33  N1  UNL     1      -8.039   7.155  14.782  1.00  0.00    -0.361 N 
HETATM   34  H34 UNL     1      -7.698   7.825  15.460  1.00  0.00     0.162 HD
BRANCH  33  35
HETATM   35  C26 UNL     1      -9.473   6.937  14.691  1.00  0.00     0.127 C 
BRANCH  35  36
HETATM   36  C27 UNL     1     -10.276   8.211  14.971  1.00  0.00     0.060 C 
BRANCH  36  37
HETATM   37  C28 UNL     1     -11.419   8.378  14.022  1.00  0.00    -0.029 A 
HETATM   38  C29 UNL     1     -11.528   9.342  13.037  1.00  0.00     0.096 A 
HETATM   39  N2  UNL     1     -12.715   9.156  12.382  1.00  0.00    -0.365 N 
HETATM   40  C30 UNL     1     -13.392   8.085  12.917  1.00  0.00     0.042 A 
HETATM   41  H40 UNL     1     -13.052   9.721  11.616  1.00  0.00     0.165 HD
HETATM   42  C31 UNL     1     -14.632   7.537  12.568  1.00  0.00     0.030 A 
HETATM   43  C35 UNL     1     -12.604   7.576  13.950  1.00  0.00    -0.002 A 
HETATM   44  C32 UNL     1     -15.081   6.433  13.299  1.00  0.00     0.002 A 
HETATM   45  C33 UNL     1     -14.318   5.901  14.335  1.00  0.00     0.001 A 
HETATM   46  C34 UNL     1     -13.081   6.462  14.671  1.00  0.00     0.014 A 
ENDBRANCH  36  37
ENDBRANCH  35  36
ENDBRANCH  33  35
ENDBRANCH  30  31
ENDBRANCH  29  30
ENDBRANCH  27  29
ENDBRANCH  26  27
ENDBRANCH  25  26
ENDBRANCH  23  25
ENDBRANCH  20  23
BRANCH  13  47
HETATM   47  O2  UNL     1       0.562   5.151  10.468  1.00  0.00    -0.395 OA
HETATM   48  H16 UNL     1       0.965   5.146   9.586  1.00  0.00     0.210 HD
ENDBRANCH  13  47
TORSDOF 12
ENDMDL
MODEL 6
REMARK minimizedAffinity -9.01112938
REMARK CNNscore 0.371931255
REMARK CNNaffinity 7.32011795
REMARK  12 active torsions:
REMARK  status: ('A' for Active; 'I' for Inactive)
REMARK    1  A    between atoms: C12_13  and  O2_14 
REMARK    2  A    between atoms: C19_21  and  O3_22 
REMARK    3  A    between atoms: C19_21  and  C20_23 
REMARK    4  A    between atoms: C20_23  and  C21_25 
REMARK    5  A    between atoms: C21_25  and  O5_26 
REMARK    6  A    between atoms: O5_26  and  C22_27 
REMARK    7  A    between atoms: C22_27  and  C23_29 
REMARK    8  A    between atoms: C23_29  and  C24_30 
REMARK    9  A    between atoms: C24_30  and  C25_31 
REMARK       I    between atoms: C25_31  and  N1_33 
REMARK   10  A    between atoms: N1_33  and  C26_34 
REMARK   11  A    between atoms: C26_34  and  C27_35 
REMARK   12  A    between atoms: C27_35  and  C28_36 
ROOT
HETATM    1  C1  UNL     1      -3.497  10.340  19.240  1.00  0.00     0.020 C 
HETATM    2  C2  UNL     1      -2.441  10.789  18.181  1.00  0.00    -0.014 C 
HETATM    3  C3  UNL     1      -1.095  10.830  18.965  1.00  0.00     0.022 C 
HETATM    4  C4  UNL     1      -0.059  11.819  18.451  1.00  0.00     0.084 C 
HETATM    5  C5  UNL     1      -0.666  13.183  18.255  1.00  0.00     0.149 C 
HETATM    6  O1  UNL     1      -0.027  14.219  18.415  1.00  0.00    -0.293 OA
HETATM    7  C6  UNL     1      -2.049  13.255  17.736  1.00  0.00     0.053 C 
HETATM    8  C7  UNL     1      -2.829  12.163  17.658  1.00  0.00    -0.068 C 
HETATM    9  C8  UNL     1      -4.174  12.231  16.982  1.00  0.00     0.035 C 
HETATM   10  C9  UNL     1      -4.187  11.287  15.790  1.00  0.00     0.010 C 
HETATM   11  C10 UNL     1      -3.748   9.835  16.104  1.00  0.00    -0.002 C 
HETATM   12  C11 UNL     1      -2.467   9.729  17.014  1.00  0.00     0.031 C 
HETATM   13  C12 UNL     1      -1.196   9.558  16.151  1.00  0.00     0.124 C 
HETATM   14  C13 UNL     1      -1.237   8.263  15.295  1.00  0.00     0.045 C 
HETATM   15  C14 UNL     1      -2.656   7.836  14.824  1.00  0.00     0.001 C 
HETATM   16  C15 UNL     1      -3.229   6.751  15.781  1.00  0.00     0.019 C 
HETATM   17  C16 UNL     1      -3.542   9.098  14.762  1.00  0.00     0.002 C 
HETATM   18  C17 UNL     1      -4.798   8.643  14.023  1.00  0.00     0.009 C 
HETATM   19  C18 UNL     1      -4.303   7.563  13.042  1.00  0.00     0.047 C 
HETATM   20  C19 UNL     1      -2.789   7.344  13.339  1.00  0.00     0.128 C 
ENDROOT
BRANCH  20  21
HETATM   21  O3  UNL     1      -2.107   8.215  12.430  1.00  0.00    -0.381 OA
HETATM   22  H27 UNL     1      -1.150   8.060  12.515  1.00  0.00     0.211 HD
ENDBRANCH  20  21
BRANCH  20  23
HETATM   23  C20 UNL     1      -2.362   5.871  13.096  1.00  0.00     0.185 C 
HETATM   24  O4  UNL     1      -1.180   5.515  13.123  1.00  0.00    -0.292 OA
BRANCH  23  25
HETATM   25  C21 UNL     1      -3.450   4.869  12.726  1.00  0.00     0.260 C 
BRANCH  25  26
HETATM   26  O5  UNL     1      -2.906   3.592  12.395  1.00  0.00    -0.314 OA
BRANCH  26  27
HETATM   27  C22 UNL     1      -3.820   2.715  11.894  1.00  0.00     0.259 C 
HETATM   28  O6  UNL     1      -3.565   1.561  11.575  1.00  0.00    -0.265 OA
BRANCH  27  29
HETATM   29  C23 UNL     1      -5.160   3.373  11.652  1.00  0.00     0.120 C 
BRANCH  29  30
HETATM   30  C24 UNL     1      -6.342   2.671  12.310  1.00  0.00     0.112 C 
BRANCH  30  31
HETATM   31  C25 UNL     1      -7.413   3.648  12.751  1.00  0.00     0.218 C 
HETATM   32  O7  UNL     1      -8.601   3.359  12.816  1.00  0.00    -0.274 OA
HETATM   33  N1  UNL     1      -6.911   4.888  13.074  1.00  0.00    -0.361 N 
HETATM   34  H34 UNL     1      -5.923   5.075  12.957  1.00  0.00     0.162 HD
BRANCH  33  35
HETATM   35  C26 UNL     1      -7.774   5.980  13.489  1.00  0.00     0.127 C 
BRANCH  35  36
HETATM   36  C27 UNL     1      -8.096   5.935  14.985  1.00  0.00     0.060 C 
BRANCH  36  37
HETATM   37  C28 UNL     1      -9.107   6.964  15.377  1.00  0.00    -0.029 A 
HETATM   38  C29 UNL     1      -9.064   7.764  16.502  1.00  0.00     0.096 A 
HETATM   39  N2  UNL     1     -10.167   8.574  16.498  1.00  0.00    -0.365 N 
HETATM   40  C30 UNL     1     -10.938   8.322  15.388  1.00  0.00     0.042 A 
HETATM   41  H40 UNL     1     -10.389   9.260  17.206  1.00  0.00     0.165 HD
HETATM   42  C31 UNL     1     -12.142   8.906  14.976  1.00  0.00     0.030 A 
HETATM   43  C35 UNL     1     -10.300   7.314  14.665  1.00  0.00    -0.002 A 
HETATM   44  C32 UNL     1     -12.713   8.442  13.787  1.00  0.00     0.002 A 
HETATM   45  C33 UNL     1     -12.101   7.437  13.042  1.00  0.00     0.001 A 
HETATM   46  C34 UNL     1     -10.897   6.866  13.469  1.00  0.00     0.014 A 
ENDBRANCH  36  37
ENDBRANCH  35  36
ENDBRANCH  33  35
ENDBRANCH  30  31
ENDBRANCH  29  30
ENDBRANCH  27  29
ENDBRANCH  26  27
ENDBRANCH  25  26
ENDBRANCH  23  25
ENDBRANCH  20  23
BRANCH  13  47
HETATM   47  O2  UNL     1      -0.994  10.653  15.264  1.00  0.00    -0.395 OA
HETATM   48  H16 UNL     1      -1.154  11.483  15.740  1.00  0.00     0.210 HD
ENDBRANCH  13  47
TORSDOF 12
ENDMDL
MODEL 7
REMARK minimizedAffinity -9.53636074
REMARK CNNscore 0.360547245
REMARK CNNaffinity 6.92265749
REMARK  12 active torsions:
REMARK  status: ('A' for Active; 'I' for Inactive)
REMARK    1  A    between atoms: C12_13  and  O2_14 
REMARK    2  A    between atoms: C19_21  and  O3_22 
REMARK    3  A    between atoms: C19_21  and  C20_23 
REMARK    4  A    between atoms: C20_23  and  C21_25 
REMARK    5  A    between atoms: C21_25  and  O5_26 
REMARK    6  A    between atoms: O5_26  and  C22_27 
REMARK    7  A    between atoms: C22_27  and  C23_29 
REMARK    8  A    between atoms: C23_29  and  C24_30 
REMARK    9  A    between atoms: C24_30  and  C25_31 
REMARK       I    between atoms: C25_31  and  N1_33 
REMARK   10  A    between atoms: N1_33  and  C26_34 
REMARK   11  A    between atoms: C26_34  and  C27_35 
REMARK   12  A    between atoms: C27_35  and  C28_36 
ROOT
HETATM    1  C1  UNL     1     -10.627  11.023  14.477  1.00  0.00     0.020 C 
HETATM    2  C2  UNL     1     -11.311   9.620  14.541  1.00  0.00    -0.014 C 
HETATM    3  C3  UNL     1     -12.294   9.610  13.332  1.00  0.00     0.022 C 
HETATM    4  C4  UNL     1     -13.528   8.734  13.490  1.00  0.00     0.084 C 
HETATM    5  C5  UNL     1     -14.215   9.001  14.804  1.00  0.00     0.149 C 
HETATM    6  O1  UNL     1     -15.431   8.908  14.944  1.00  0.00    -0.293 OA
HETATM    7  C6  UNL     1     -13.365   9.267  15.985  1.00  0.00     0.053 C 
HETATM    8  C7  UNL     1     -12.046   9.497  15.866  1.00  0.00    -0.068 C 
HETATM    9  C8  UNL     1     -11.176   9.609  17.091  1.00  0.00     0.035 C 
HETATM   10  C9  UNL     1     -10.127   8.508  17.066  1.00  0.00     0.010 C 
HETATM   11  C10 UNL     1      -9.306   8.420  15.755  1.00  0.00    -0.002 C 
HETATM   12  C11 UNL     1     -10.169   8.538  14.443  1.00  0.00     0.031 C 
HETATM   13  C12 UNL     1     -10.533   7.136  13.900  1.00  0.00     0.124 C 
HETATM   14  C13 UNL     1      -9.274   6.305  13.529  1.00  0.00     0.045 C 
HETATM   15  C14 UNL     1      -8.023   6.585  14.408  1.00  0.00     0.001 C 
HETATM   16  C15 UNL     1      -7.084   7.596  13.689  1.00  0.00     0.019 C 
HETATM   17  C16 UNL     1      -8.506   7.098  15.781  1.00  0.00     0.002 C 
HETATM   18  C17 UNL     1      -7.258   7.063  16.659  1.00  0.00     0.009 C 
HETATM   19  C18 UNL     1      -6.439   5.872  16.124  1.00  0.00     0.047 C 
HETATM   20  C19 UNL     1      -7.190   5.336  14.869  1.00  0.00     0.128 C 
ENDROOT
BRANCH  20  21
HETATM   21  O3  UNL     1      -8.034   4.291  15.365  1.00  0.00    -0.381 OA
HETATM   22  H27 UNL     1      -8.471   3.862  14.608  1.00  0.00     0.211 HD
ENDBRANCH  20  21
BRANCH  20  23
HETATM   23  C20 UNL     1      -6.208   4.775  13.805  1.00  0.00     0.185 C 
HETATM   24  O4  UNL     1      -6.345   3.654  13.309  1.00  0.00    -0.292 OA
BRANCH  23  25
HETATM   25  C21 UNL     1      -4.993   5.623  13.446  1.00  0.00     0.260 C 
BRANCH  25  26
HETATM   26  O5  UNL     1      -3.900   5.389  14.332  1.00  0.00    -0.314 OA
BRANCH  26  27
HETATM   27  C22 UNL     1      -2.716   5.152  13.701  1.00  0.00     0.259 C 
HETATM   28  O6  UNL     1      -2.557   4.311  12.827  1.00  0.00    -0.265 OA
BRANCH  27  29
HETATM   29  C23 UNL     1      -1.586   5.960  14.299  1.00  0.00     0.120 C 
BRANCH  29  30
HETATM   30  C24 UNL     1      -1.589   7.437  13.920  1.00  0.00     0.112 C 
BRANCH  30  31
HETATM   31  C25 UNL     1      -0.666   7.729  12.755  1.00  0.00     0.218 C 
HETATM   32  O7  UNL     1      -1.050   8.210  11.697  1.00  0.00    -0.274 OA
HETATM   33  N1  UNL     1       0.646   7.401  13.012  1.00  0.00    -0.361 N 
HETATM   34  H34 UNL     1       0.891   6.966  13.892  1.00  0.00     0.162 HD
BRANCH  33  35
HETATM   35  C26 UNL     1       1.688   7.571  12.014  1.00  0.00     0.127 C 
BRANCH  35  36
HETATM   36  C27 UNL     1       2.508   6.295  11.802  1.00  0.00     0.060 C 
BRANCH  36  37
HETATM   37  C28 UNL     1       2.751   6.014  10.354  1.00  0.00    -0.029 A 
HETATM   38  C29 UNL     1       3.607   5.060   9.839  1.00  0.00     0.096 A 
HETATM   39  N2  UNL     1       3.542   5.113   8.473  1.00  0.00    -0.365 N 
HETATM   40  C30 UNL     1       2.657   6.087   8.076  1.00  0.00     0.042 A 
HETATM   41  H40 UNL     1       4.068   4.525   7.842  1.00  0.00     0.165 HD
HETATM   42  C31 UNL     1       2.277   6.490   6.791  1.00  0.00     0.030 A 
HETATM   43  C35 UNL     1       2.144   6.672   9.235  1.00  0.00    -0.002 A 
HETATM   44  C32 UNL     1       1.344   7.526   6.686  1.00  0.00     0.002 A 
HETATM   45  C33 UNL     1       0.813   8.131   7.822  1.00  0.00     0.001 A 
HETATM   46  C34 UNL     1       1.204   7.715   9.100  1.00  0.00     0.014 A 
ENDBRANCH  36  37
ENDBRANCH  35  36
ENDBRANCH  33  35
ENDBRANCH  30  31
ENDBRANCH  29  30
ENDBRANCH  27  29
ENDBRANCH  26  27
ENDBRANCH  25  26
ENDBRANCH  23  25
ENDBRANCH  20  23
BRANCH  13  47
HETATM   47  O2  UNL     1     -11.289   6.375  14.836  1.00  0.00    -0.395 OA
HETATM   48  H16 UNL     1     -11.972   6.940  15.229  1.00  0.00     0.210 HD
ENDBRANCH  13  47
TORSDOF 12
ENDMDL
MODEL 8
REMARK minimizedAffinity -8.63951778
REMARK CNNscore 0.348522425
REMARK CNNaffinity 5.98061419
REMARK  12 active torsions:
REMARK  status: ('A' for Active; 'I' for Inactive)
REMARK    1  A    between atoms: C12_13  and  O2_14 
REMARK    2  A    between atoms: C19_21  and  O3_22 
REMARK    3  A    between atoms: C19_21  and  C20_23 
REMARK    4  A    between atoms: C20_23  and  C21_25 
REMARK    5  A    between atoms: C21_25  and  O5_26 
REMARK    6  A    between atoms: O5_26  and  C22_27 
REMARK    7  A    between atoms: C22_27  and  C23_29 
REMARK    8  A    between atoms: C23_29  and  C24_30 
REMARK    9  A    between atoms: C24_30  and  C25_31 
REMARK       I    between atoms: C25_31  and  N1_33 
REMARK   10  A    between atoms: N1_33  and  C26_34 
REMARK   11  A    between atoms: C26_34  and  C27_35 
REMARK   12  A    between atoms: C27_35  and  C28_36 
ROOT
HETATM    1  C1  UNL     1       3.083   7.823   8.523  1.00  0.00     0.020 C 
HETATM    2  C2  UNL     1       3.534   7.661  10.010  1.00  0.00    -0.014 C 
HETATM    3  C3  UNL     1       4.596   8.783  10.218  1.00  0.00     0.022 C 
HETATM    4  C4  UNL     1       5.663   8.496  11.265  1.00  0.00     0.084 C 
HETATM    5  C5  UNL     1       6.278   7.139  11.051  1.00  0.00     0.149 C 
HETATM    6  O1  UNL     1       7.450   6.894  11.322  1.00  0.00    -0.293 OA
HETATM    7  C6  UNL     1       5.390   6.041  10.610  1.00  0.00     0.053 C 
HETATM    8  C7  UNL     1       4.136   6.277  10.188  1.00  0.00    -0.068 C 
HETATM    9  C8  UNL     1       3.200   5.132   9.894  1.00  0.00     0.035 C 
HETATM   10  C9  UNL     1       1.999   5.213  10.823  1.00  0.00     0.010 C 
HETATM   11  C10 UNL     1       1.280   6.585  10.840  1.00  0.00    -0.002 C 
HETATM   12  C11 UNL     1       2.250   7.823  10.909  1.00  0.00     0.031 C 
HETATM   13  C12 UNL     1       2.434   8.292  12.371  1.00  0.00     0.124 C 
HETATM   14  C13 UNL     1       1.095   8.744  13.016  1.00  0.00     0.045 C 
HETATM   15  C14 UNL     1      -0.162   7.980  12.513  1.00  0.00     0.001 C 
HETATM   16  C15 UNL     1      -0.875   8.805  11.402  1.00  0.00     0.019 C 
HETATM   17  C16 UNL     1       0.285   6.588  12.022  1.00  0.00     0.002 C 
HETATM   18  C17 UNL     1      -1.018   5.817  11.831  1.00  0.00     0.009 C 
HETATM   19  C18 UNL     1      -1.967   6.383  12.905  1.00  0.00     0.047 C 
HETATM   20  C19 UNL     1      -1.212   7.555  13.600  1.00  0.00     0.128 C 
ENDROOT
BRANCH  20  21
HETATM   21  O3  UNL     1      -0.582   6.960  14.740  1.00  0.00    -0.381 OA
HETATM   22  H27 UNL     1      -0.159   7.665  15.261  1.00  0.00     0.211 HD
ENDBRANCH  20  21
BRANCH  20  23
HETATM   23  C20 UNL     1      -2.183   8.680  14.049  1.00  0.00     0.185 C 
HETATM   24  O4  UNL     1      -3.314   8.806  13.570  1.00  0.00    -0.292 OA
BRANCH  23  25
HETATM   25  C21 UNL     1      -1.665   9.705  15.052  1.00  0.00     0.260 C 
BRANCH  25  26
HETATM   26  O5  UNL     1      -1.644   9.186  16.381  1.00  0.00    -0.314 OA
BRANCH  26  27
HETATM   27  C22 UNL     1      -0.804   9.850  17.222  1.00  0.00     0.259 C 
HETATM   28  O6  UNL     1       0.408   9.687  17.257  1.00  0.00    -0.265 OA
BRANCH  27  29
HETATM   29  C23 UNL     1      -1.559  10.719  18.203  1.00  0.00     0.120 C 
BRANCH  29  30
HETATM   30  C24 UNL     1      -3.072  10.534  18.185  1.00  0.00     0.112 C 
BRANCH  30  31
HETATM   31  C25 UNL     1      -3.807  11.856  18.101  1.00  0.00     0.218 C 
HETATM   32  O7  UNL     1      -4.240  12.319  17.053  1.00  0.00    -0.274 OA
HETATM   33  N1  UNL     1      -3.942  12.476  19.322  1.00  0.00    -0.361 N 
HETATM   34  H34 UNL     1      -3.524  12.060  20.145  1.00  0.00     0.162 HD
BRANCH  33  35
HETATM   35  C26 UNL     1      -4.588  13.770  19.458  1.00  0.00     0.127 C 
BRANCH  35  36
HETATM   36  C27 UNL     1      -5.311  13.925  20.799  1.00  0.00     0.060 C 
BRANCH  36  37
HETATM   37  C28 UNL     1      -6.771  13.622  20.693  1.00  0.00    -0.029 A 
HETATM   38  C29 UNL     1      -7.518  13.601  19.531  1.00  0.00     0.096 A 
HETATM   39  N2  UNL     1      -8.808  13.278  19.853  1.00  0.00    -0.365 N 
HETATM   40  C30 UNL     1      -8.926  13.085  21.209  1.00  0.00     0.042 A 
HETATM   41  H40 UNL     1      -9.569  13.194  19.194  1.00  0.00     0.165 HD
HETATM   42  C31 UNL     1     -10.046  12.745  21.977  1.00  0.00     0.030 A 
HETATM   43  C35 UNL     1      -7.663  13.295  21.765  1.00  0.00    -0.002 A 
HETATM   44  C32 UNL     1      -9.870  12.618  23.358  1.00  0.00     0.002 A 
HETATM   45  C33 UNL     1      -8.623  12.820  23.944  1.00  0.00     0.001 A 
HETATM   46  C34 UNL     1      -7.513  13.160  23.160  1.00  0.00     0.014 A 
ENDBRANCH  36  37
ENDBRANCH  35  36
ENDBRANCH  33  35
ENDBRANCH  30  31
ENDBRANCH  29  30
ENDBRANCH  27  29
ENDBRANCH  26  27
ENDBRANCH  25  26
ENDBRANCH  23  25
ENDBRANCH  20  23
BRANCH  13  47
HETATM   47  O2  UNL     1       2.988   7.275  13.199  1.00  0.00    -0.395 OA
HETATM   48  H16 UNL     1       3.717   6.843  12.728  1.00  0.00     0.210 HD
ENDBRANCH  13  47
TORSDOF 12
ENDMDL
MODEL 9
REMARK minimizedAffinity -10.4677258
REMARK CNNscore 0.343253195
REMARK CNNaffinity 7.31397247
REMARK  12 active torsions:
REMARK  status: ('A' for Active; 'I' for Inactive)
REMARK    1  A    between atoms: C12_13  and  O2_14 
REMARK    2  A    between atoms: C19_21  and  O3_22 
REMARK    3  A    between atoms: C19_21  and  C20_23 
REMARK    4  A    between atoms: C20_23  and  C21_25 
REMARK    5  A    between atoms: C21_25  and  O5_26 
REMARK    6  A    between atoms: O5_26  and  C22_27 
REMARK    7  A    between atoms: C22_27  and  C23_29 
REMARK    8  A    between atoms: C23_29  and  C24_30 
REMARK    9  A    between atoms: C24_30  and  C25_31 
REMARK       I    between atoms: C25_31  and  N1_33 
REMARK   10  A    between atoms: N1_33  and  C26_34 
REMARK   11  A    between atoms: C26_34  and  C27_35 
REMARK   12  A    between atoms: C27_35  and  C28_36 
ROOT
HETATM    1  C1  UNL     1       4.042   8.342   9.849  1.00  0.00     0.020 C 
HETATM    2  C2  UNL     1       3.176   7.042   9.811  1.00  0.00    -0.014 C 
HETATM    3  C3  UNL     1       4.196   5.887  10.043  1.00  0.00     0.022 C 
HETATM    4  C4  UNL     1       3.829   4.547   9.423  1.00  0.00     0.084 C 
HETATM    5  C5  UNL     1       3.444   4.708   7.977  1.00  0.00     0.149 C 
HETATM    6  O1  UNL     1       3.661   3.841   7.135  1.00  0.00    -0.293 OA
HETATM    7  C6  UNL     1       2.671   5.911   7.599  1.00  0.00     0.053 C 
HETATM    8  C7  UNL     1       2.511   6.940   8.448  1.00  0.00    -0.068 C 
HETATM    9  C8  UNL     1       1.591   8.082   8.100  1.00  0.00     0.035 C 
HETATM   10  C9  UNL     1       0.474   8.161   9.129  1.00  0.00     0.010 C 
HETATM   11  C10 UNL     1       0.949   8.202  10.603  1.00  0.00    -0.002 C 
HETATM   12  C11 UNL     1       2.089   7.171  10.945  1.00  0.00     0.031 C 
HETATM   13  C12 UNL     1       1.491   5.873  11.537  1.00  0.00     0.124 C 
HETATM   14  C13 UNL     1       0.719   6.132  12.859  1.00  0.00     0.045 C 
HETATM   15  C14 UNL     1       0.015   7.516  12.945  1.00  0.00     0.001 C 
HETATM   16  C15 UNL     1       0.909   8.518  13.731  1.00  0.00     0.019 C 
HETATM   17  C16 UNL     1      -0.286   7.992  11.508  1.00  0.00     0.002 C 
HETATM   18  C17 UNL     1      -1.220   9.184  11.692  1.00  0.00     0.009 C 
HETATM   19  C18 UNL     1      -2.026   8.855  12.963  1.00  0.00     0.047 C 
HETATM   20  C19 UNL     1      -1.438   7.534  13.541  1.00  0.00     0.128 C 
ENDROOT
BRANCH  20  21
HETATM   21  O3  UNL     1      -2.251   6.495  12.983  1.00  0.00    -0.381 OA
HETATM   22  H27 UNL     1      -1.979   5.647  13.375  1.00  0.00     0.211 HD
ENDBRANCH  20  21
BRANCH  20  23
HETATM   23  C20 UNL     1      -1.510   7.500  15.091  1.00  0.00     0.185 C 
HETATM   24  O4  UNL     1      -0.559   7.134  15.788  1.00  0.00    -0.292 OA
BRANCH  23  25
HETATM   25  C21 UNL     1      -2.842   7.851  15.746  1.00  0.00     0.260 C 
BRANCH  25  26
HETATM   26  O5  UNL     1      -3.674   6.703  15.906  1.00  0.00    -0.314 OA
BRANCH  26  27
HETATM   27  C22 UNL     1      -4.799   6.724  15.138  1.00  0.00     0.259 C 
HETATM   28  O6  UNL     1      -4.840   6.378  13.965  1.00  0.00    -0.265 OA
BRANCH  27  29
HETATM   29  C23 UNL     1      -5.967   7.352  15.866  1.00  0.00     0.120 C 
BRANCH  29  30
HETATM   30  C24 UNL     1      -7.089   6.384  16.224  1.00  0.00     0.112 C 
BRANCH  30  31
HETATM   31  C25 UNL     1      -7.773   5.823  14.994  1.00  0.00     0.218 C 
HETATM   32  O7  UNL     1      -8.699   6.385  14.424  1.00  0.00    -0.274 OA
HETATM   33  N1  UNL     1      -7.242   4.621  14.585  1.00  0.00    -0.361 N 
HETATM   34  H34 UNL     1      -6.504   4.187  15.126  1.00  0.00     0.162 HD
BRANCH  33  35
HETATM   35  C26 UNL     1      -7.775   3.896  13.444  1.00  0.00     0.127 C 
BRANCH  35  36
HETATM   36  C27 UNL     1      -6.954   4.121  12.172  1.00  0.00     0.060 C 
BRANCH  36  37
HETATM   37  C28 UNL     1      -6.075   2.955  11.852  1.00  0.00    -0.029 A 
HETATM   38  C29 UNL     1      -6.494   1.668  11.574  1.00  0.00     0.096 A 
HETATM   39  N2  UNL     1      -5.390   0.898  11.329  1.00  0.00    -0.365 N 
HETATM   40  C30 UNL     1      -4.247   1.655  11.441  1.00  0.00     0.042 A 
HETATM   41  H40 UNL     1      -5.405  -0.086  11.100  1.00  0.00     0.165 HD
HETATM   42  C31 UNL     1      -2.906   1.290  11.278  1.00  0.00     0.030 A 
HETATM   43  C35 UNL     1      -4.644   2.951  11.770  1.00  0.00    -0.002 A 
HETATM   44  C32 UNL     1      -1.938   2.283  11.459  1.00  0.00     0.002 A 
HETATM   45  C33 UNL     1      -2.301   3.587  11.787  1.00  0.00     0.001 A 
HETATM   46  C34 UNL     1      -3.648   3.934  11.946  1.00  0.00     0.014 A 
ENDBRANCH  36  37
ENDBRANCH  35  36
ENDBRANCH  33  35
ENDBRANCH  30  31
ENDBRANCH  29  30
ENDBRANCH  27  29
ENDBRANCH  26  27
ENDBRANCH  25  26
ENDBRANCH  23  25
ENDBRANCH  20  23
BRANCH  13  47
HETATM   47  O2  UNL     1       0.596   5.230  10.636  1.00  0.00    -0.395 OA
HETATM   48  H16 UNL     1       0.985   5.229   9.747  1.00  0.00     0.210 HD
ENDBRANCH  13  47
TORSDOF 12
ENDMDL
