MODEL 1
REMARK minimizedAffinity -8.46200466
REMARK CNNscore 0.424076766
REMARK CNNaffinity 6.78583527
REMARK  6 active torsions:
REMARK  status: ('A' for Active; 'I' for Inactive)
REMARK    1  A    between atoms: C2_2  and  C30_32 
REMARK    2  A    between atoms: C3_3  and  C4_4 
REMARK    3  A    between atoms: C4_4  and  C5_5 
REMARK    4  A    between atoms: C5_5  and  C6_6 
REMARK    5  A    between atoms: C6_6  and  C8_8 
REMARK    6  A    between atoms: C30_32  and  O4_34 
ROOT
HETATM    1  C8  UNL     1      -8.654   5.976  14.156  1.00  0.00    -0.002 C 
HETATM    2  C9  UNL     1      -8.985   5.235  12.828  1.00  0.00     0.007 C 
HETATM    3  C10 UNL     1      -7.656   4.761  12.212  1.00  0.00     0.015 C 
HETATM    4  C11 UNL     1      -6.620   4.904  13.341  1.00  0.00    -0.005 C 
HETATM    5  C12 UNL     1      -6.735   3.630  14.234  1.00  0.00     0.021 C 
HETATM    6  C13 UNL     1      -5.137   5.014  13.009  1.00  0.00    -0.000 C 
HETATM    7  C14 UNL     1      -4.282   5.700  13.813  1.00  0.00    -0.060 C 
HETATM    8  C15 UNL     1      -4.809   6.430  15.057  1.00  0.00     0.036 C 
HETATM    9  C16 UNL     1      -6.331   6.425  15.310  1.00  0.00     0.015 C 
HETATM   10  C17 UNL     1      -7.124   6.245  14.011  1.00  0.00    -0.028 C 
HETATM   11  C18 UNL     1      -6.906   7.502  13.109  1.00  0.00     0.016 C 
HETATM   12  C19 UNL     1      -2.759   5.830  13.532  1.00  0.00    -0.014 C 
HETATM   13  C20 UNL     1      -2.521   7.234  12.936  1.00  0.00     0.020 C 
HETATM   14  C21 UNL     1      -1.945   5.656  14.835  1.00  0.00     0.021 C 
HETATM   15  C22 UNL     1      -0.433   5.644  14.669  1.00  0.00     0.080 C 
HETATM   16  C23 UNL     1       0.096   5.407  13.276  1.00  0.00     0.135 C 
HETATM   17  O1  UNL     1       1.256   5.746  13.021  1.00  0.00    -0.297 OA
HETATM   18  C24 UNL     1      -0.763   4.676  12.237  1.00  0.00     0.018 C 
HETATM   19  C25 UNL     1      -0.463   5.306  10.856  1.00  0.00     0.023 C 
HETATM   20  C26 UNL     1      -0.252   3.220  12.204  1.00  0.00     0.023 C 
HETATM   21  C27 UNL     1      -2.288   4.676  12.593  1.00  0.00     0.020 C 
HETATM   22  C28 UNL     1      -3.201   4.563  11.370  1.00  0.00     0.090 C 
HETATM   23  C29 UNL     1      -4.624   4.312  11.792  1.00  0.00     0.157 C 
HETATM   24  O2  UNL     1      -5.343   3.571  11.126  1.00  0.00    -0.293 OA
ENDROOT
BRANCH   1  25
HETATM   25  C6  UNL     1      -9.641   7.156  14.421  1.00  0.00    -0.014 C 
HETATM   26  C7  UNL     1      -9.592   7.638  15.874  1.00  0.00     0.010 C 
BRANCH  25  27
HETATM   27  C5  UNL     1     -11.090   6.731  14.048  1.00  0.00     0.008 C 
BRANCH  27  28
HETATM   28  C4  UNL     1     -12.060   7.905  13.859  1.00  0.00     0.028 C 
BRANCH  28  29
HETATM   29  C3  UNL     1     -13.319   7.461  13.167  1.00  0.00    -0.013 C 
HETATM   30  C2  UNL     1     -14.371   8.229  12.812  1.00  0.00     0.008 C 
HETATM   31  C1  UNL     1     -14.509   9.700  13.078  1.00  0.00     0.055 C 
BRANCH  30  32
HETATM   32  C30 UNL     1     -15.542   7.638  12.109  1.00  0.00     0.171 C 
HETATM   33  O3  UNL     1     -15.926   7.953  10.996  1.00  0.00    -0.646 OA
BRANCH  32  34
HETATM   34  O4  UNL     1     -16.181   6.687  12.811  1.00  0.00    -0.773 OA
HETATM   35  H44 UNL     1     -16.907   6.412  12.214  1.00  0.00     0.167 HD
ENDBRANCH  32  34
ENDBRANCH  30  32
ENDBRANCH  28  29
ENDBRANCH  27  28
ENDBRANCH  25  27
ENDBRANCH   1  25
TORSDOF 6
ENDMDL
MODEL 2
REMARK minimizedAffinity -7.05230474
REMARK CNNscore 0.415668964
REMARK CNNaffinity 6.66492414
REMARK  6 active torsions:
REMARK  status: ('A' for Active; 'I' for Inactive)
REMARK    1  A    between atoms: C2_2  and  C30_32 
REMARK    2  A    between atoms: C3_3  and  C4_4 
REMARK    3  A    between atoms: C4_4  and  C5_5 
REMARK    4  A    between atoms: C5_5  and  C6_6 
REMARK    5  A    between atoms: C6_6  and  C8_8 
REMARK    6  A    between atoms: C30_32  and  O4_34 
ROOT
HETATM    1  C8  UNL     1      -8.967   7.112  13.668  1.00  0.00    -0.002 C 
HETATM    2  C9  UNL     1     -10.189   6.196  13.365  1.00  0.00     0.007 C 
HETATM    3  C10 UNL     1     -11.412   6.796  14.082  1.00  0.00     0.015 C 
HETATM    4  C11 UNL     1     -10.982   8.218  14.484  1.00  0.00    -0.005 C 
HETATM    5  C12 UNL     1     -11.188   9.129  13.234  1.00  0.00     0.021 C 
HETATM    6  C13 UNL     1     -11.697   8.943  15.617  1.00  0.00    -0.000 C 
HETATM    7  C14 UNL     1     -11.055   9.862  16.385  1.00  0.00    -0.060 C 
HETATM    8  C15 UNL     1      -9.564  10.153  16.157  1.00  0.00     0.036 C 
HETATM    9  C16 UNL     1      -8.816   9.316  15.099  1.00  0.00     0.015 C 
HETATM   10  C17 UNL     1      -9.475   7.949  14.882  1.00  0.00    -0.028 C 
HETATM   11  C18 UNL     1      -9.325   7.105  16.188  1.00  0.00     0.016 C 
HETATM   12  C19 UNL     1     -11.740  10.643  17.541  1.00  0.00    -0.014 C 
HETATM   13  C20 UNL     1     -11.303   9.978  18.865  1.00  0.00     0.020 C 
HETATM   14  C21 UNL     1     -11.318  12.130  17.523  1.00  0.00     0.021 C 
HETATM   15  C22 UNL     1     -12.017  13.024  18.537  1.00  0.00     0.080 C 
HETATM   16  C23 UNL     1     -13.283  12.487  19.157  1.00  0.00     0.135 C 
HETATM   17  O1  UNL     1     -13.675  12.983  20.218  1.00  0.00    -0.297 OA
HETATM   18  C24 UNL     1     -14.107  11.417  18.430  1.00  0.00     0.018 C 
HETATM   19  C25 UNL     1     -14.711  10.482  19.505  1.00  0.00     0.023 C 
HETATM   20  C26 UNL     1     -15.277  12.162  17.752  1.00  0.00     0.023 C 
HETATM   21  C27 UNL     1     -13.287  10.649  17.339  1.00  0.00     0.020 C 
HETATM   22  C28 UNL     1     -13.807   9.235  17.068  1.00  0.00     0.090 C 
HETATM   23  C29 UNL     1     -13.147   8.653  15.846  1.00  0.00     0.157 C 
HETATM   24  O2  UNL     1     -13.788   7.935  15.082  1.00  0.00    -0.293 OA
ENDROOT
BRANCH   1  25
HETATM   25  C6  UNL     1      -7.643   6.291  13.773  1.00  0.00    -0.014 C 
HETATM   26  C7  UNL     1      -6.406   7.147  13.484  1.00  0.00     0.010 C 
BRANCH  25  27
HETATM   27  C5  UNL     1      -7.691   5.077  12.804  1.00  0.00     0.008 C 
BRANCH  27  28
HETATM   28  C4  UNL     1      -6.908   3.851  13.292  1.00  0.00     0.028 C 
BRANCH  28  29
HETATM   29  C3  UNL     1      -5.530   3.813  12.690  1.00  0.00    -0.013 C 
HETATM   30  C2  UNL     1      -5.063   2.941  11.771  1.00  0.00     0.008 C 
HETATM   31  C1  UNL     1      -5.832   1.791  11.188  1.00  0.00     0.055 C 
BRANCH  30  32
HETATM   32  C30 UNL     1      -3.671   3.051  11.256  1.00  0.00     0.171 C 
HETATM   33  O3  UNL     1      -2.665   3.044  11.943  1.00  0.00    -0.646 OA
BRANCH  32  34
HETATM   34  O4  UNL     1      -3.589   3.161   9.919  1.00  0.00    -0.773 OA
HETATM   35  H44 UNL     1      -2.625   3.221   9.755  1.00  0.00     0.167 HD
ENDBRANCH  32  34
ENDBRANCH  30  32
ENDBRANCH  28  29
ENDBRANCH  27  28
ENDBRANCH  25  27
ENDBRANCH   1  25
TORSDOF 6
ENDMDL
MODEL 3
REMARK minimizedAffinity -7.17434025
REMARK CNNscore 0.390925378
REMARK CNNaffinity 5.69604349
REMARK  6 active torsions:
REMARK  status: ('A' for Active; 'I' for Inactive)
REMARK    1  A    between atoms: C2_2  and  C30_32 
REMARK    2  A    between atoms: C3_3  and  C4_4 
REMARK    3  A    between atoms: C4_4  and  C5_5 
REMARK    4  A    between atoms: C5_5  and  C6_6 
REMARK    5  A    between atoms: C6_6  and  C8_8 
REMARK    6  A    between atoms: C30_32  and  O4_34 
ROOT
HETATM    1  C8  UNL     1     -17.448   2.321  15.178  1.00  0.00    -0.002 C 
HETATM    2  C9  UNL     1     -17.511   1.729  16.616  1.00  0.00     0.007 C 
HETATM    3  C10 UNL     1     -16.857   0.336  16.579  1.00  0.00     0.015 C 
HETATM    4  C11 UNL     1     -16.110   0.282  15.234  1.00  0.00    -0.005 C 
HETATM    5  C12 UNL     1     -14.736   0.992  15.445  1.00  0.00     0.021 C 
HETATM    6  C13 UNL     1     -15.762  -1.061  14.605  1.00  0.00    -0.000 C 
HETATM    7  C14 UNL     1     -15.665  -1.207  13.258  1.00  0.00    -0.060 C 
HETATM    8  C15 UNL     1     -15.960  -0.019  12.329  1.00  0.00     0.036 C 
HETATM    9  C16 UNL     1     -16.443   1.299  12.970  1.00  0.00     0.015 C 
HETATM   10  C17 UNL     1     -17.136   1.058  14.316  1.00  0.00    -0.028 C 
HETATM   11  C18 UNL     1     -18.459   0.266  14.067  1.00  0.00     0.016 C 
HETATM   12  C19 UNL     1     -15.297  -2.548  12.564  1.00  0.00    -0.014 C 
HETATM   13  C20 UNL     1     -16.609  -3.161  12.027  1.00  0.00     0.020 C 
HETATM   14  C21 UNL     1     -14.303  -2.310  11.405  1.00  0.00     0.021 C 
HETATM   15  C22 UNL     1     -13.775  -3.564  10.723  1.00  0.00     0.080 C 
HETATM   16  C23 UNL     1     -13.947  -4.865  11.467  1.00  0.00     0.135 C 
HETATM   17  O1  UNL     1     -13.881  -5.920  10.830  1.00  0.00    -0.297 OA
HETATM   18  C24 UNL     1     -14.104  -4.868  12.993  1.00  0.00     0.018 C 
HETATM   19  C25 UNL     1     -15.075  -6.015  13.360  1.00  0.00     0.023 C 
HETATM   20  C26 UNL     1     -12.717  -5.231  13.567  1.00  0.00     0.023 C 
HETATM   21  C27 UNL     1     -14.549  -3.480  13.566  1.00  0.00     0.020 C 
HETATM   22  C28 UNL     1     -15.312  -3.583  14.889  1.00  0.00     0.090 C 
HETATM   23  C29 UNL     1     -15.484  -2.221  15.508  1.00  0.00     0.157 C 
HETATM   24  O2  UNL     1     -15.425  -2.087  16.728  1.00  0.00    -0.293 OA
ENDROOT
BRANCH   1  25
HETATM   25  C6  UNL     1     -18.696   3.205  14.862  1.00  0.00    -0.014 C 
HETATM   26  C7  UNL     1     -19.516   2.651  13.692  1.00  0.00     0.010 C 
BRANCH  25  27
HETATM   27  C5  UNL     1     -18.251   4.664  14.560  1.00  0.00     0.008 C 
BRANCH  27  28
HETATM   28  C4  UNL     1     -16.751   4.818  14.278  1.00  0.00     0.028 C 
BRANCH  28  29
HETATM   29  C3  UNL     1     -16.498   5.907  13.272  1.00  0.00    -0.013 C 
HETATM   30  C2  UNL     1     -15.397   6.682  13.165  1.00  0.00     0.008 C 
HETATM   31  C1  UNL     1     -14.203   6.633  14.073  1.00  0.00     0.055 C 
BRANCH  30  32
HETATM   32  C30 UNL     1     -15.290   7.708  12.093  1.00  0.00     0.171 C 
HETATM   33  O3  UNL     1     -16.011   7.779  11.113  1.00  0.00    -0.646 OA
BRANCH  32  34
HETATM   34  O4  UNL     1     -14.301   8.598  12.283  1.00  0.00    -0.773 OA
HETATM   35  H44 UNL     1     -14.373   9.187  11.504  1.00  0.00     0.167 HD
ENDBRANCH  32  34
ENDBRANCH  30  32
ENDBRANCH  28  29
ENDBRANCH  27  28
ENDBRANCH  25  27
ENDBRANCH   1  25
TORSDOF 6
ENDMDL
MODEL 4
REMARK minimizedAffinity -6.96690512
REMARK CNNscore 0.361785322
REMARK CNNaffinity 6.68530703
REMARK  6 active torsions:
REMARK  status: ('A' for Active; 'I' for Inactive)
REMARK    1  A    between atoms: C2_2  and  C30_32 
REMARK    2  A    between atoms: C3_3  and  C4_4 
REMARK    3  A    between atoms: C4_4  and  C5_5 
REMARK    4  A    between atoms: C5_5  and  C6_6 
REMARK    5  A    between atoms: C6_6  and  C8_8 
REMARK    6  A    between atoms: C30_32  and  O4_34 
ROOT
HETATM    1  C8  UNL     1      -8.447   7.693  14.399  1.00  0.00    -0.002 C 
HETATM    2  C9  UNL     1      -9.261   6.398  14.112  1.00  0.00     0.007 C 
HETATM    3  C10 UNL     1     -10.726   6.671  14.497  1.00  0.00     0.015 C 
HETATM    4  C11 UNL     1     -10.820   8.199  14.655  1.00  0.00    -0.005 C 
HETATM    5  C12 UNL     1     -11.016   8.796  13.227  1.00  0.00     0.021 C 
HETATM    6  C13 UNL     1     -11.934   8.815  15.492  1.00  0.00    -0.000 C 
HETATM    7  C14 UNL     1     -11.760   9.996  16.141  1.00  0.00    -0.060 C 
HETATM    8  C15 UNL     1     -10.404  10.715  16.085  1.00  0.00     0.036 C 
HETATM    9  C16 UNL     1      -9.243  10.017  15.348  1.00  0.00     0.015 C 
HETATM   10  C17 UNL     1      -9.417   8.494  15.323  1.00  0.00    -0.028 C 
HETATM   11  C18 UNL     1      -9.304   7.949  16.782  1.00  0.00     0.016 C 
HETATM   12  C19 UNL     1     -12.866  10.678  16.993  1.00  0.00    -0.014 C 
HETATM   13  C20 UNL     1     -12.540  10.396  18.476  1.00  0.00     0.020 C 
HETATM   14  C21 UNL     1     -12.899  12.201  16.731  1.00  0.00     0.021 C 
HETATM   15  C22 UNL     1     -14.021  12.963  17.420  1.00  0.00     0.080 C 
HETATM   16  C23 UNL     1     -15.178  12.146  17.940  1.00  0.00     0.135 C 
HETATM   17  O1  UNL     1     -15.908  12.642  18.803  1.00  0.00    -0.297 OA
HETATM   18  C24 UNL     1     -15.487  10.770  17.334  1.00  0.00     0.018 C 
HETATM   19  C25 UNL     1     -16.004   9.863  18.475  1.00  0.00     0.023 C 
HETATM   20  C26 UNL     1     -16.654  10.987  16.348  1.00  0.00     0.023 C 
HETATM   21  C27 UNL     1     -14.271  10.154  16.563  1.00  0.00     0.020 C 
HETATM   22  C28 UNL     1     -14.291   8.624  16.515  1.00  0.00     0.090 C 
HETATM   23  C29 UNL     1     -13.252   8.110  15.554  1.00  0.00     0.157 C 
HETATM   24  O2  UNL     1     -13.485   7.118  14.867  1.00  0.00    -0.293 OA
ENDROOT
BRANCH   1  25
HETATM   25  C6  UNL     1      -6.995   7.370  14.872  1.00  0.00    -0.014 C 
HETATM   26  C7  UNL     1      -5.937   8.072  14.014  1.00  0.00     0.010 C 
BRANCH  25  27
HETATM   27  C5  UNL     1      -6.760   5.832  14.857  1.00  0.00     0.008 C 
BRANCH  27  28
HETATM   28  C4  UNL     1      -6.001   5.325  13.624  1.00  0.00     0.028 C 
BRANCH  28  29
HETATM   29  C3  UNL     1      -6.525   3.987  13.178  1.00  0.00    -0.013 C 
HETATM   30  C2  UNL     1      -5.999   3.176  12.235  1.00  0.00     0.008 C 
HETATM   31  C1  UNL     1      -4.787   3.475  11.403  1.00  0.00     0.055 C 
BRANCH  30  32
HETATM   32  C30 UNL     1      -6.628   1.864  11.923  1.00  0.00     0.171 C 
HETATM   33  O3  UNL     1      -6.135   0.997  11.222  1.00  0.00    -0.646 OA
BRANCH  32  34
HETATM   34  O4  UNL     1      -7.833   1.684  12.492  1.00  0.00    -0.773 OA
HETATM   35  H44 UNL     1      -8.095   0.790  12.190  1.00  0.00     0.167 HD
ENDBRANCH  32  34
ENDBRANCH  30  32
ENDBRANCH  28  29
ENDBRANCH  27  28
ENDBRANCH  25  27
ENDBRANCH   1  25
TORSDOF 6
ENDMDL
MODEL 5
REMARK minimizedAffinity -7.79739046
REMARK CNNscore 0.34626627
REMARK CNNaffinity 6.66083765
REMARK  6 active torsions:
REMARK  status: ('A' for Active; 'I' for Inactive)
REMARK    1  A    between atoms: C2_2  and  C30_32 
REMARK    2  A    between atoms: C3_3  and  C4_4 
REMARK    3  A    between atoms: C4_4  and  C5_5 
REMARK    4  A    between atoms: C5_5  and  C6_6 
REMARK    5  A    between atoms: C6_6  and  C8_8 
REMARK    6  A    between atoms: C30_32  and  O4_34 
ROOT
HETATM    1  C8  UNL     1      -0.053   4.815  11.424  1.00  0.00    -0.002 C 
HETATM    2  C9  UNL     1      -0.399   3.302  11.307  1.00  0.00     0.007 C 
HETATM    3  C10 UNL     1      -1.862   3.121  11.749  1.00  0.00     0.015 C 
HETATM    4  C11 UNL     1      -2.452   4.542  11.768  1.00  0.00    -0.005 C 
HETATM    5  C12 UNL     1      -2.869   4.886  10.304  1.00  0.00     0.021 C 
HETATM    6  C13 UNL     1      -3.687   4.847  12.607  1.00  0.00    -0.000 C 
HETATM    7  C14 UNL     1      -3.898   6.083  13.131  1.00  0.00    -0.060 C 
HETATM    8  C15 UNL     1      -2.858   7.195  12.930  1.00  0.00     0.036 C 
HETATM    9  C16 UNL     1      -1.549   6.839  12.196  1.00  0.00     0.015 C 
HETATM   10  C17 UNL     1      -1.211   5.349  12.323  1.00  0.00    -0.028 C 
HETATM   11  C18 UNL     1      -0.889   5.031  13.819  1.00  0.00     0.016 C 
HETATM   12  C19 UNL     1      -5.147   6.454  13.978  1.00  0.00    -0.014 C 
HETATM   13  C20 UNL     1      -4.712   6.456  15.460  1.00  0.00     0.020 C 
HETATM   14  C21 UNL     1      -5.688   7.846  13.577  1.00  0.00     0.021 C 
HETATM   15  C22 UNL     1      -6.982   8.269  14.255  1.00  0.00     0.080 C 
HETATM   16  C23 UNL     1      -7.791   7.180  14.915  1.00  0.00     0.135 C 
HETATM   17  O1  UNL     1      -8.624   7.500  15.769  1.00  0.00    -0.297 OA
HETATM   18  C24 UNL     1      -7.642   5.722  14.460  1.00  0.00     0.018 C 
HETATM   19  C25 UNL     1      -7.803   4.824  15.709  1.00  0.00     0.023 C 
HETATM   20  C26 UNL     1      -8.838   5.439  13.527  1.00  0.00     0.023 C 
HETATM   21  C27 UNL     1      -6.310   5.457  13.681  1.00  0.00     0.020 C 
HETATM   22  C28 UNL     1      -5.824   4.009  13.778  1.00  0.00     0.090 C 
HETATM   23  C29 UNL     1      -4.696   3.762  12.811  1.00  0.00     0.157 C 
HETATM   24  O2  UNL     1      -4.604   2.681  12.235  1.00  0.00    -0.293 OA
ENDROOT
BRANCH   1  25
HETATM   25  C6  UNL     1       1.436   5.036  11.840  1.00  0.00    -0.014 C 
HETATM   26  C7  UNL     1       1.610   6.265  12.737  1.00  0.00     0.010 C 
BRANCH  25  27
HETATM   27  C5  UNL     1       2.328   5.168  10.574  1.00  0.00     0.008 C 
BRANCH  27  28
HETATM   28  C4  UNL     1       3.125   6.477  10.500  1.00  0.00     0.028 C 
BRANCH  28  29
HETATM   29  C3  UNL     1       4.605   6.213  10.518  1.00  0.00    -0.013 C 
HETATM   30  C2  UNL     1       5.522   6.750  11.351  1.00  0.00     0.008 C 
HETATM   31  C1  UNL     1       5.242   7.767  12.418  1.00  0.00     0.055 C 
BRANCH  30  32
HETATM   32  C30 UNL     1       6.956   6.366  11.253  1.00  0.00     0.171 C 
HETATM   33  O3  UNL     1       7.886   6.994  11.730  1.00  0.00    -0.646 OA
BRANCH  32  34
HETATM   34  O4  UNL     1       7.174   5.226  10.576  1.00  0.00    -0.773 OA
HETATM   35  H44 UNL     1       8.148   5.124  10.609  1.00  0.00     0.167 HD
ENDBRANCH  32  34
ENDBRANCH  30  32
ENDBRANCH  28  29
ENDBRANCH  27  28
ENDBRANCH  25  27
ENDBRANCH   1  25
TORSDOF 6
ENDMDL
MODEL 6
REMARK minimizedAffinity -8.40004635
REMARK CNNscore 0.34439069
REMARK CNNaffinity 6.80285311
REMARK  6 active torsions:
REMARK  status: ('A' for Active; 'I' for Inactive)
REMARK    1  A    between atoms: C2_2  and  C30_32 
REMARK    2  A    between atoms: C3_3  and  C4_4 
REMARK    3  A    between atoms: C4_4  and  C5_5 
REMARK    4  A    between atoms: C5_5  and  C6_6 
REMARK    5  A    between atoms: C6_6  and  C8_8 
REMARK    6  A    between atoms: C30_32  and  O4_34 
ROOT
HETATM    1  C8  UNL     1       1.708   9.278  12.941  1.00  0.00    -0.002 C 
HETATM    2  C9  UNL     1       2.580   8.325  12.072  1.00  0.00     0.007 C 
HETATM    3  C10 UNL     1       1.690   7.149  11.630  1.00  0.00     0.015 C 
HETATM    4  C11 UNL     1       0.250   7.604  11.931  1.00  0.00    -0.005 C 
HETATM    5  C12 UNL     1      -0.211   8.488  10.731  1.00  0.00     0.021 C 
HETATM    6  C13 UNL     1      -0.857   6.572  12.103  1.00  0.00    -0.000 C 
HETATM    7  C14 UNL     1      -1.928   6.812  12.904  1.00  0.00    -0.060 C 
HETATM    8  C15 UNL     1      -2.018   8.121  13.702  1.00  0.00     0.036 C 
HETATM    9  C16 UNL     1      -0.827   9.099  13.626  1.00  0.00     0.015 C 
HETATM   10  C17 UNL     1       0.483   8.377  13.290  1.00  0.00    -0.028 C 
HETATM   11  C18 UNL     1       0.859   7.435  14.477  1.00  0.00     0.016 C 
HETATM   12  C19 UNL     1      -3.094   5.803  13.103  1.00  0.00    -0.014 C 
HETATM   13  C20 UNL     1      -2.872   5.109  14.464  1.00  0.00     0.020 C 
HETATM   14  C21 UNL     1      -4.457   6.533  13.089  1.00  0.00     0.021 C 
HETATM   15  C22 UNL     1      -5.684   5.635  13.156  1.00  0.00     0.080 C 
HETATM   16  C23 UNL     1      -5.476   4.176  12.835  1.00  0.00     0.135 C 
HETATM   17  O1  UNL     1      -6.321   3.362  13.222  1.00  0.00    -0.297 OA
HETATM   18  C24 UNL     1      -4.289   3.736  11.968  1.00  0.00     0.018 C 
HETATM   19  C25 UNL     1      -3.808   2.364  12.497  1.00  0.00     0.023 C 
HETATM   20  C26 UNL     1      -4.853   3.514  10.548  1.00  0.00     0.023 C 
HETATM   21  C27 UNL     1      -3.147   4.805  11.905  1.00  0.00     0.020 C 
HETATM   22  C28 UNL     1      -1.765   4.206  11.634  1.00  0.00     0.090 C 
HETATM   23  C29 UNL     1      -0.767   5.292  11.333  1.00  0.00     0.157 C 
HETATM   24  O2  UNL     1       0.114   5.106  10.496  1.00  0.00    -0.293 OA
ENDROOT
BRANCH   1  25
HETATM   25  C6  UNL     1       2.543   9.950  14.076  1.00  0.00    -0.014 C 
HETATM   26  C7  UNL     1       1.741  11.011  14.835  1.00  0.00     0.010 C 
BRANCH  25  27
HETATM   27  C5  UNL     1       3.836  10.579  13.485  1.00  0.00     0.008 C 
BRANCH  27  28
HETATM   28  C4  UNL     1       5.127   9.850  13.879  1.00  0.00     0.028 C 
BRANCH  28  29
HETATM   29  C3  UNL     1       5.681   9.066  12.721  1.00  0.00    -0.013 C 
HETATM   30  C2  UNL     1       6.275   7.854  12.763  1.00  0.00     0.008 C 
HETATM   31  C1  UNL     1       6.538   7.053  14.004  1.00  0.00     0.055 C 
BRANCH  30  32
HETATM   32  C30 UNL     1       6.754   7.197  11.517  1.00  0.00     0.171 C 
HETATM   33  O3  UNL     1       7.846   6.676  11.372  1.00  0.00    -0.646 OA
BRANCH  32  34
HETATM   34  O4  UNL     1       5.862   7.213  10.510  1.00  0.00    -0.773 OA
HETATM   35  H44 UNL     1       6.329   6.749   9.785  1.00  0.00     0.167 HD
ENDBRANCH  32  34
ENDBRANCH  30  32
ENDBRANCH  28  29
ENDBRANCH  27  28
ENDBRANCH  25  27
ENDBRANCH   1  25
TORSDOF 6
ENDMDL
MODEL 7
REMARK minimizedAffinity -9.00416088
REMARK CNNscore 0.311369926
REMARK CNNaffinity 6.94042635
REMARK  6 active torsions:
REMARK  status: ('A' for Active; 'I' for Inactive)
REMARK    1  A    between atoms: C2_2  and  C30_32 
REMARK    2  A    between atoms: C3_3  and  C4_4 
REMARK    3  A    between atoms: C4_4  and  C5_5 
REMARK    4  A    between atoms: C5_5  and  C6_6 
REMARK    5  A    between atoms: C6_6  and  C8_8 
REMARK    6  A    between atoms: C30_32  and  O4_34 
ROOT
HETATM    1  C8  UNL     1       0.614   7.929  13.344  1.00  0.00    -0.002 C 
HETATM    2  C9  UNL     1       0.712   9.089  14.378  1.00  0.00     0.007 C 
HETATM    3  C10 UNL     1      -0.662   9.227  15.057  1.00  0.00     0.015 C 
HETATM    4  C11 UNL     1      -1.422   7.941  14.686  1.00  0.00    -0.005 C 
HETATM    5  C12 UNL     1      -0.967   6.834  15.687  1.00  0.00     0.021 C 
HETATM    6  C13 UNL     1      -2.945   7.909  14.737  1.00  0.00    -0.000 C 
HETATM    7  C14 UNL     1      -3.663   7.100  13.914  1.00  0.00    -0.060 C 
HETATM    8  C15 UNL     1      -2.948   6.230  12.870  1.00  0.00     0.036 C 
HETATM    9  C16 UNL     1      -1.418   6.370  12.735  1.00  0.00     0.015 C 
HETATM   10  C17 UNL     1      -0.928   7.748  13.197  1.00  0.00    -0.028 C 
HETATM   11  C18 UNL     1      -1.483   8.833  12.219  1.00  0.00     0.016 C 
HETATM   12  C19 UNL     1      -5.215   7.016  13.936  1.00  0.00    -0.014 C 
HETATM   13  C20 UNL     1      -5.735   7.844  12.740  1.00  0.00     0.020 C 
HETATM   14  C21 UNL     1      -5.685   5.548  13.816  1.00  0.00     0.021 C 
HETATM   15  C22 UNL     1      -7.184   5.325  13.944  1.00  0.00     0.080 C 
HETATM   16  C23 UNL     1      -7.989   6.448  14.550  1.00  0.00     0.135 C 
HETATM   17  O1  UNL     1      -9.206   6.478  14.345  1.00  0.00    -0.297 OA
HETATM   18  C24 UNL     1      -7.315   7.470  15.476  1.00  0.00     0.018 C 
HETATM   19  C25 UNL     1      -7.990   8.840  15.229  1.00  0.00     0.023 C 
HETATM   20  C26 UNL     1      -7.658   7.035  16.917  1.00  0.00     0.023 C 
HETATM   21  C27 UNL     1      -5.759   7.514  15.310  1.00  0.00     0.020 C 
HETATM   22  C28 UNL     1      -5.143   8.865  15.682  1.00  0.00     0.090 C 
HETATM   23  C29 UNL     1      -3.643   8.764  15.748  1.00  0.00     0.157 C 
HETATM   24  O2  UNL     1      -3.018   9.396  16.596  1.00  0.00    -0.293 OA
ENDROOT
BRANCH   1  25
HETATM   25  C6  UNL     1       1.501   8.200  12.088  1.00  0.00    -0.014 C 
HETATM   26  C7  UNL     1       2.534   9.304  12.335  1.00  0.00     0.010 C 
BRANCH  25  27
HETATM   27  C5  UNL     1       0.604   8.569  10.873  1.00  0.00     0.008 C 
BRANCH  27  28
HETATM   28  C4  UNL     1       0.594   7.517   9.756  1.00  0.00     0.028 C 
BRANCH  28  29
HETATM   29  C3  UNL     1       1.618   6.445  10.013  1.00  0.00    -0.013 C 
HETATM   30  C2  UNL     1       2.507   5.935   9.134  1.00  0.00     0.008 C 
HETATM   31  C1  UNL     1       2.623   6.320   7.688  1.00  0.00     0.055 C 
BRANCH  30  32
HETATM   32  C30 UNL     1       3.475   4.886   9.552  1.00  0.00     0.171 C 
HETATM   33  O3  UNL     1       3.291   3.684   9.464  1.00  0.00    -0.646 OA
BRANCH  32  34
HETATM   34  O4  UNL     1       4.623   5.369  10.057  1.00  0.00    -0.773 OA
HETATM   35  H44 UNL     1       5.133   4.562  10.274  1.00  0.00     0.167 HD
ENDBRANCH  32  34
ENDBRANCH  30  32
ENDBRANCH  28  29
ENDBRANCH  27  28
ENDBRANCH  25  27
ENDBRANCH   1  25
TORSDOF 6
ENDMDL
MODEL 8
REMARK minimizedAffinity -6.99549675
REMARK CNNscore 0.307900548
REMARK CNNaffinity 6.85025549
REMARK  6 active torsions:
REMARK  status: ('A' for Active; 'I' for Inactive)
REMARK    1  A    between atoms: C2_2  and  C30_32 
REMARK    2  A    between atoms: C3_3  and  C4_4 
REMARK    3  A    between atoms: C4_4  and  C5_5 
REMARK    4  A    between atoms: C5_5  and  C6_6 
REMARK    5  A    between atoms: C6_6  and  C8_8 
REMARK    6  A    between atoms: C30_32  and  O4_34 
ROOT
HETATM    1  C8  UNL     1      -9.818   8.064  14.698  1.00  0.00    -0.002 C 
HETATM    2  C9  UNL     1     -10.555   6.695  14.623  1.00  0.00     0.007 C 
HETATM    3  C10 UNL     1     -12.021   6.973  14.248  1.00  0.00     0.015 C 
HETATM    4  C11 UNL     1     -12.040   8.433  13.762  1.00  0.00    -0.005 C 
HETATM    5  C12 UNL     1     -11.592   8.424  12.267  1.00  0.00     0.021 C 
HETATM    6  C13 UNL     1     -13.340   9.228  13.775  1.00  0.00    -0.000 C 
HETATM    7  C14 UNL     1     -13.341  10.577  13.937  1.00  0.00    -0.060 C 
HETATM    8  C15 UNL     1     -12.022  11.330  14.165  1.00  0.00     0.036 C 
HETATM    9  C16 UNL     1     -10.726  10.501  14.285  1.00  0.00     0.015 C 
HETATM   10  C17 UNL     1     -11.005   9.074  14.772  1.00  0.00    -0.028 C 
HETATM   11  C18 UNL     1     -11.537   9.137  16.239  1.00  0.00     0.016 C 
HETATM   12  C19 UNL     1     -14.635  11.439  13.940  1.00  0.00    -0.014 C 
HETATM   13  C20 UNL     1     -14.959  11.771  15.414  1.00  0.00     0.020 C 
HETATM   14  C21 UNL     1     -14.428  12.740  13.131  1.00  0.00     0.021 C 
HETATM   15  C22 UNL     1     -15.663  13.612  12.962  1.00  0.00     0.080 C 
HETATM   16  C23 UNL     1     -16.997  12.963  13.238  1.00  0.00     0.135 C 
HETATM   17  O1  UNL     1     -17.968  13.688  13.474  1.00  0.00    -0.297 OA
HETATM   18  C24 UNL     1     -17.152  11.440  13.131  1.00  0.00     0.018 C 
HETATM   19  C25 UNL     1     -18.160  10.996  14.217  1.00  0.00     0.023 C 
HETATM   20  C26 UNL     1     -17.799  11.169  11.757  1.00  0.00     0.023 C 
HETATM   21  C27 UNL     1     -15.786  10.678  13.214  1.00  0.00     0.020 C 
HETATM   22  C28 UNL     1     -15.916   9.249  13.747  1.00  0.00     0.090 C 
HETATM   23  C29 UNL     1     -14.626   8.495  13.562  1.00  0.00     0.157 C 
HETATM   24  O2  UNL     1     -14.646   7.301  13.273  1.00  0.00    -0.293 OA
ENDROOT
BRANCH   1  25
HETATM   25  C6  UNL     1      -8.712   8.065  15.801  1.00  0.00    -0.014 C 
HETATM   26  C7  UNL     1      -7.455   8.821  15.360  1.00  0.00     0.010 C 
BRANCH  25  27
HETATM   27  C5  UNL     1      -8.348   6.604  16.190  1.00  0.00     0.008 C 
BRANCH  27  28
HETATM   28  C4  UNL     1      -7.142   6.035  15.432  1.00  0.00     0.028 C 
BRANCH  28  29
HETATM   29  C3  UNL     1      -7.544   4.869  14.570  1.00  0.00    -0.013 C 
HETATM   30  C2  UNL     1      -6.838   4.318  13.560  1.00  0.00     0.008 C 
HETATM   31  C1  UNL     1      -5.504   4.794  13.064  1.00  0.00     0.055 C 
BRANCH  30  32
HETATM   32  C30 UNL     1      -7.369   3.146  12.812  1.00  0.00     0.171 C 
HETATM   33  O3  UNL     1      -6.698   2.370  12.153  1.00  0.00    -0.646 OA
BRANCH  32  34
HETATM   34  O4  UNL     1      -8.699   2.985  12.916  1.00  0.00    -0.773 OA
HETATM   35  H44 UNL     1      -8.875   2.186  12.378  1.00  0.00     0.167 HD
ENDBRANCH  32  34
ENDBRANCH  30  32
ENDBRANCH  28  29
ENDBRANCH  27  28
ENDBRANCH  25  27
ENDBRANCH   1  25
TORSDOF 6
ENDMDL
MODEL 9
REMARK minimizedAffinity -7.31179667
REMARK CNNscore 0.279503107
REMARK CNNaffinity 5.62150764
REMARK  6 active torsions:
REMARK  status: ('A' for Active; 'I' for Inactive)
REMARK    1  A    between atoms: C2_2  and  C30_32 
REMARK    2  A    between atoms: C3_3  and  C4_4 
REMARK    3  A    between atoms: C4_4  and  C5_5 
REMARK    4  A    between atoms: C5_5  and  C6_6 
REMARK    5  A    between atoms: C6_6  and  C8_8 
REMARK    6  A    between atoms: C30_32  and  O4_34 
ROOT
HETATM    1  C8  UNL     1       7.592  10.098  15.402  1.00  0.00    -0.002 C 
HETATM    2  C9  UNL     1       6.418  10.876  16.066  1.00  0.00     0.007 C 
HETATM    3  C10 UNL     1       5.117  10.444  15.366  1.00  0.00     0.015 C 
HETATM    4  C11 UNL     1       5.491   9.181  14.570  1.00  0.00    -0.005 C 
HETATM    5  C12 UNL     1       5.430   7.979  15.564  1.00  0.00     0.021 C 
HETATM    6  C13 UNL     1       4.643   8.747  13.381  1.00  0.00    -0.000 C 
HETATM    7  C14 UNL     1       5.186   8.068  12.337  1.00  0.00    -0.060 C 
HETATM    8  C15 UNL     1       6.692   7.768  12.309  1.00  0.00     0.036 C 
HETATM    9  C16 UNL     1       7.564   8.330  13.451  1.00  0.00     0.015 C 
HETATM   10  C17 UNL     1       6.940   9.581  14.082  1.00  0.00    -0.028 C 
HETATM   11  C18 UNL     1       6.938  10.730  13.025  1.00  0.00     0.016 C 
HETATM   12  C19 UNL     1       4.366   7.586  11.107  1.00  0.00    -0.014 C 
HETATM   13  C20 UNL     1       4.646   8.574   9.954  1.00  0.00     0.020 C 
HETATM   14  C21 UNL     1       4.781   6.154  10.699  1.00  0.00     0.021 C 
HETATM   15  C22 UNL     1       3.964   5.526   9.580  1.00  0.00     0.080 C 
HETATM   16  C23 UNL     1       2.635   6.168   9.266  1.00  0.00     0.135 C 
HETATM   17  O1  UNL     1       2.119   5.945   8.167  1.00  0.00    -0.297 OA
HETATM   18  C24 UNL     1       1.907   6.999  10.331  1.00  0.00     0.018 C 
HETATM   19  C25 UNL     1       1.184   8.158   9.606  1.00  0.00     0.023 C 
HETATM   20  C26 UNL     1       0.824   6.076  10.929  1.00  0.00     0.023 C 
HETATM   21  C27 UNL     1       2.854   7.488  11.479  1.00  0.00     0.020 C 
HETATM   22  C28 UNL     1       2.375   8.774  12.157  1.00  0.00     0.090 C 
HETATM   23  C29 UNL     1       3.177   9.046  13.402  1.00  0.00     0.157 C 
HETATM   24  O2  UNL     1       2.634   9.531  14.392  1.00  0.00    -0.293 OA
ENDROOT
BRANCH   1  25
HETATM   25  C6  UNL     1       8.897  10.954  15.355  1.00  0.00    -0.014 C 
HETATM   26  C7  UNL     1      10.151  10.089  15.191  1.00  0.00     0.010 C 
BRANCH  25  27
HETATM   27  C5  UNL     1       9.011  11.821  16.640  1.00  0.00     0.008 C 
BRANCH  27  28
HETATM   28  C4  UNL     1       9.905  11.215  17.730  1.00  0.00     0.028 C 
BRANCH  28  29
HETATM   29  C3  UNL     1       9.541  11.748  19.089  1.00  0.00    -0.013 C 
HETATM   30  C2  UNL     1      10.378  12.014  20.114  1.00  0.00     0.008 C 
HETATM   31  C1  UNL     1      11.861  11.788  20.112  1.00  0.00     0.055 C 
BRANCH  30  32
HETATM   32  C30 UNL     1       9.860  12.563  21.396  1.00  0.00     0.171 C 
HETATM   33  O3  UNL     1       9.957  13.724  21.754  1.00  0.00    -0.646 OA
BRANCH  32  34
HETATM   34  O4  UNL     1       9.246  11.655  22.174  1.00  0.00    -0.773 OA
HETATM   35  H44 UNL     1       8.972  12.174  22.958  1.00  0.00     0.167 HD
ENDBRANCH  32  34
ENDBRANCH  30  32
ENDBRANCH  28  29
ENDBRANCH  27  28
ENDBRANCH  25  27
ENDBRANCH   1  25
TORSDOF 6
ENDMDL
