MODEL 1
REMARK minimizedAffinity -9.07294083
REMARK CNNscore 0.596747577
REMARK CNNaffinity 6.8127284
REMARK  12 active torsions:
REMARK  status: ('A' for Active; 'I' for Inactive)
REMARK    1  A    between atoms: C4_5  and  C5_6 
REMARK    2  A    between atoms: C5_6  and  O2_7 
REMARK    3  A    between atoms: C5_6  and  C6_8 
REMARK    4  A    between atoms: C6_8  and  O3_10 
REMARK    5  A    between atoms: C6_8  and  C8_11 
REMARK    6  A    between atoms: C11_14  and  O4_15 
REMARK    7  A    between atoms: C17_22  and  O6_23 
REMARK    8  A    between atoms: O6_23  and  C18_24 
REMARK    9  A    between atoms: C18_24  and  C19_25 
REMARK   10  A    between atoms: C19_25  and  C20_26 
REMARK   11  A    between atoms: C35_41  and  C36_42 
REMARK   12  A    between atoms: C36_42  and  O7_43 
ROOT
HETATM    1  C8  UNL     1      -1.835  51.016 -11.429  1.00  0.00     0.034 C 
HETATM    2  C9  UNL     1      -0.492  50.287 -11.213  1.00  0.00     0.012 C 
HETATM    3  C10 UNL     1       0.210  50.372 -12.553  1.00  0.00     0.044 C 
HETATM    4  C11 UNL     1      -0.888  49.957 -13.535  1.00  0.00     0.089 C 
HETATM    5  C12 UNL     1      -0.692  50.359 -14.985  1.00  0.00    -0.037 C 
HETATM    6  C13 UNL     1       0.439  50.886 -15.486  1.00  0.00     0.057 C 
HETATM    7  C14 UNL     1       0.523  51.343 -16.898  1.00  0.00     0.154 C 
HETATM    8  O5  UNL     1       1.600  51.752 -17.321  1.00  0.00    -0.293 OA
HETATM    9  C15 UNL     1      -0.760  51.363 -17.715  1.00  0.00     0.071 C 
HETATM   10  C16 UNL     1      -0.478  51.475 -19.217  1.00  0.00     0.045 C 
HETATM   11  C17 UNL     1      -1.770  51.532 -20.033  1.00  0.00     0.122 C 
HETATM   12  C26 UNL     1      -2.711  50.370 -19.704  1.00  0.00     0.033 C 
HETATM   13  C27 UNL     1      -2.966  50.240 -18.200  1.00  0.00     0.013 C 
HETATM   14  C28 UNL     1      -1.659  50.149 -17.366  1.00  0.00    -0.026 C 
HETATM   15  C29 UNL     1      -0.958  48.801 -17.717  1.00  0.00     0.016 C 
HETATM   16  C30 UNL     1      -1.942  50.147 -15.823  1.00  0.00     0.026 C 
HETATM   17  C31 UNL     1      -3.009  51.142 -15.329  1.00  0.00     0.011 C 
HETATM   18  C32 UNL     1      -2.855  51.579 -13.856  1.00  0.00     0.014 C 
HETATM   19  C33 UNL     1      -2.234  50.521 -12.908  1.00  0.00    -0.002 C 
HETATM   20  C34 UNL     1      -3.297  49.401 -12.725  1.00  0.00     0.019 C 
ENDROOT
BRANCH   1  21
HETATM   21  C6  UNL     1      -1.813  52.555 -11.082  1.00  0.00     0.087 C 
HETATM   22  C7  UNL     1      -3.232  53.059 -10.730  1.00  0.00     0.049 C 
BRANCH  21  23
HETATM   23  C5  UNL     1      -0.858  53.006  -9.907  1.00  0.00     0.181 C 
BRANCH  23  24
HETATM   24  C4  UNL     1      -0.123  54.352 -10.094  1.00  0.00     0.159 C 
HETATM   25  O1  UNL     1       0.219  54.960  -8.835  1.00  0.00    -0.382 OA
HETATM   26  C3  UNL     1       1.509  55.574  -8.943  1.00  0.00     0.173 C 
HETATM   27  C2  UNL     1       1.841  55.615 -10.423  1.00  0.00     0.014 C 
HETATM   28  C1  UNL     1       3.323  55.787 -10.709  1.00  0.00     0.012 C 
HETATM   29  C35 UNL     1       1.159  54.351 -10.956  1.00  0.00     0.046 C 
BRANCH  29  30
HETATM   30  C36 UNL     1       2.024  53.084 -10.913  1.00  0.00     0.172 C 
BRANCH  30  31
HETATM   31  O7  UNL     1       2.771  52.884 -12.099  1.00  0.00    -0.400 OA
HETATM   32  H52 UNL     1       3.458  53.588 -12.099  1.00  0.00     0.209 HD
ENDBRANCH  30  31
ENDBRANCH  29  30
ENDBRANCH  23  24
BRANCH  23  33
HETATM   33  O2  UNL     1      -1.566  52.943  -8.656  1.00  0.00    -0.390 OA
HETATM   34  H9  UNL     1      -2.256  52.259  -8.789  1.00  0.00     0.210 HD
ENDBRANCH  23  33
ENDBRANCH  21  23
BRANCH  21  35
HETATM   35  O3  UNL     1      -1.338  53.284 -12.234  1.00  0.00    -0.387 OA
HETATM   36  H13 UNL     1      -1.597  54.218 -12.132  1.00  0.00     0.210 HD
ENDBRANCH  21  35
ENDBRANCH   1  21
BRANCH   4  37
HETATM   37  O4  UNL     1      -0.913  48.522 -13.542  1.00  0.00    -0.384 OA
HETATM   38  H19 UNL     1      -0.055  48.219 -13.886  1.00  0.00     0.211 HD
ENDBRANCH   4  37
BRANCH  11  39
HETATM   39  O6  UNL     1      -1.419  51.451 -21.416  1.00  0.00    -0.386 OA
BRANCH  39  40
HETATM   40  C18 UNL     1      -0.072  51.830 -21.702  1.00  0.00     0.172 C 
BRANCH  40  41
HETATM   41  C19 UNL     1      -0.017  52.802 -22.883  1.00  0.00     0.064 C 
BRANCH  41  42
HETATM   42  C20 UNL     1       0.013  52.090 -24.210  1.00  0.00    -0.056 A 
HETATM   43  C21 UNL     1      -1.103  51.370 -24.658  1.00  0.00     0.007 A 
HETATM   44  C22 UNL     1      -1.066  50.701 -25.882  1.00  0.00     0.001 A 
HETATM   45  C23 UNL     1       0.085  50.742 -26.667  1.00  0.00     0.000 A 
HETATM   46  C24 UNL     1       1.201  51.451 -26.228  1.00  0.00     0.001 A 
HETATM   47  C25 UNL     1       1.167  52.121 -25.003  1.00  0.00     0.007 A 
ENDBRANCH  41  42
ENDBRANCH  40  41
ENDBRANCH  39  40
ENDBRANCH  11  39
TORSDOF 12
ENDMDL
MODEL 2
REMARK minimizedAffinity -8.340312
REMARK CNNscore 0.584936023
REMARK CNNaffinity 6.8634696
REMARK  12 active torsions:
REMARK  status: ('A' for Active; 'I' for Inactive)
REMARK    1  A    between atoms: C4_5  and  C5_6 
REMARK    2  A    between atoms: C5_6  and  O2_7 
REMARK    3  A    between atoms: C5_6  and  C6_8 
REMARK    4  A    between atoms: C6_8  and  O3_10 
REMARK    5  A    between atoms: C6_8  and  C8_11 
REMARK    6  A    between atoms: C11_14  and  O4_15 
REMARK    7  A    between atoms: C17_22  and  O6_23 
REMARK    8  A    between atoms: O6_23  and  C18_24 
REMARK    9  A    between atoms: C18_24  and  C19_25 
REMARK   10  A    between atoms: C19_25  and  C20_26 
REMARK   11  A    between atoms: C35_41  and  C36_42 
REMARK   12  A    between atoms: C36_42  and  O7_43 
ROOT
HETATM    1  C8  UNL     1      -7.362  46.246 -18.939  1.00  0.00     0.034 C 
HETATM    2  C9  UNL     1      -6.765  45.969 -17.543  1.00  0.00     0.012 C 
HETATM    3  C10 UNL     1      -5.703  47.035 -17.363  1.00  0.00     0.044 C 
HETATM    4  C11 UNL     1      -4.943  46.982 -18.691  1.00  0.00     0.089 C 
HETATM    5  C12 UNL     1      -4.114  48.200 -19.050  1.00  0.00    -0.037 C 
HETATM    6  C13 UNL     1      -3.863  49.227 -18.220  1.00  0.00     0.057 C 
HETATM    7  C14 UNL     1      -3.121  50.431 -18.676  1.00  0.00     0.154 C 
HETATM    8  O5  UNL     1      -2.860  51.308 -17.857  1.00  0.00    -0.293 OA
HETATM    9  C15 UNL     1      -2.804  50.550 -20.160  1.00  0.00     0.071 C 
HETATM   10  C16 UNL     1      -1.729  51.607 -20.430  1.00  0.00     0.045 C 
HETATM   11  C17 UNL     1      -1.440  51.751 -21.925  1.00  0.00     0.122 C 
HETATM   12  C26 UNL     1      -1.110  50.407 -22.579  1.00  0.00     0.033 C 
HETATM   13  C27 UNL     1      -2.169  49.342 -22.281  1.00  0.00     0.013 C 
HETATM   14  C28 UNL     1      -2.447  49.167 -20.763  1.00  0.00    -0.026 C 
HETATM   15  C29 UNL     1      -1.162  48.574 -20.106  1.00  0.00     0.016 C 
HETATM   16  C30 UNL     1      -3.624  48.167 -20.489  1.00  0.00     0.026 C 
HETATM   17  C31 UNL     1      -4.855  48.304 -21.405  1.00  0.00     0.011 C 
HETATM   18  C32 UNL     1      -6.179  47.804 -20.788  1.00  0.00     0.014 C 
HETATM   19  C33 UNL     1      -6.046  46.634 -19.781  1.00  0.00    -0.002 C 
HETATM   20  C34 UNL     1      -5.662  45.371 -20.603  1.00  0.00     0.019 C 
ENDROOT
BRANCH   1  21
HETATM   21  C6  UNL     1      -8.620  47.199 -18.941  1.00  0.00     0.087 C 
HETATM   22  C7  UNL     1      -8.185  48.682 -18.888  1.00  0.00     0.049 C 
BRANCH  21  23
HETATM   23  C5  UNL     1      -9.619  47.055 -20.157  1.00  0.00     0.181 C 
BRANCH  23  24
HETATM   24  C4  UNL     1     -11.124  47.001 -19.809  1.00  0.00     0.159 C 
HETATM   25  O1  UNL     1     -11.649  48.300 -19.481  1.00  0.00    -0.382 OA
HETATM   26  C3  UNL     1     -12.972  48.423 -20.019  1.00  0.00     0.173 C 
HETATM   27  C2  UNL     1     -13.399  47.026 -20.429  1.00  0.00     0.014 C 
HETATM   28  C1  UNL     1     -14.543  47.009 -21.427  1.00  0.00     0.012 C 
HETATM   29  C35 UNL     1     -12.077  46.381 -20.855  1.00  0.00     0.046 C 
BRANCH  29  30
HETATM   30  C36 UNL     1     -11.709  46.579 -22.331  1.00  0.00     0.172 C 
BRANCH  30  31
HETATM   31  O7  UNL     1     -12.779  47.094 -23.104  1.00  0.00    -0.400 OA
HETATM   32  H52 UNL     1     -12.893  48.024 -22.806  1.00  0.00     0.209 HD
ENDBRANCH  30  31
ENDBRANCH  29  30
ENDBRANCH  23  24
BRANCH  23  33
HETATM   33  O2  UNL     1      -9.326  48.057 -21.147  1.00  0.00    -0.390 OA
HETATM   34  H9  UNL     1      -8.374  48.259 -21.029  1.00  0.00     0.210 HD
ENDBRANCH  23  33
ENDBRANCH  21  23
BRANCH  21  35
HETATM   35  O3  UNL     1      -9.422  46.912 -17.777  1.00  0.00    -0.387 OA
HETATM   36  H13 UNL     1     -10.015  47.669 -17.620  1.00  0.00     0.210 HD
ENDBRANCH  21  35
ENDBRANCH   1  21
BRANCH   4  37
HETATM   37  O4  UNL     1      -4.002  45.904 -18.583  1.00  0.00    -0.384 OA
HETATM   38  H19 UNL     1      -3.377  46.135 -17.874  1.00  0.00     0.211 HD
ENDBRANCH   4  37
BRANCH  11  39
HETATM   39  O6  UNL     1      -0.311  52.614 -22.072  1.00  0.00    -0.386 OA
BRANCH  39  40
HETATM   40  C18 UNL     1       0.457  52.380 -23.253  1.00  0.00     0.172 C 
BRANCH  40  41
HETATM   41  C19 UNL     1      -0.139  53.125 -24.449  1.00  0.00     0.064 C 
BRANCH  41  42
HETATM   42  C20 UNL     1       0.442  52.661 -25.760  1.00  0.00    -0.056 A 
HETATM   43  C21 UNL     1       1.612  51.890 -25.787  1.00  0.00     0.007 A 
HETATM   44  C22 UNL     1       2.153  51.472 -27.003  1.00  0.00     0.001 A 
HETATM   45  C23 UNL     1       1.534  51.822 -28.202  1.00  0.00     0.000 A 
HETATM   46  C24 UNL     1       0.373  52.593 -28.185  1.00  0.00     0.001 A 
HETATM   47  C25 UNL     1      -0.171  53.013 -26.969  1.00  0.00     0.007 A 
ENDBRANCH  41  42
ENDBRANCH  40  41
ENDBRANCH  39  40
ENDBRANCH  11  39
TORSDOF 12
ENDMDL
MODEL 3
REMARK minimizedAffinity -8.66297245
REMARK CNNscore 0.486401051
REMARK CNNaffinity 6.59890223
REMARK  12 active torsions:
REMARK  status: ('A' for Active; 'I' for Inactive)
REMARK    1  A    between atoms: C4_5  and  C5_6 
REMARK    2  A    between atoms: C5_6  and  O2_7 
REMARK    3  A    between atoms: C5_6  and  C6_8 
REMARK    4  A    between atoms: C6_8  and  O3_10 
REMARK    5  A    between atoms: C6_8  and  C8_11 
REMARK    6  A    between atoms: C11_14  and  O4_15 
REMARK    7  A    between atoms: C17_22  and  O6_23 
REMARK    8  A    between atoms: O6_23  and  C18_24 
REMARK    9  A    between atoms: C18_24  and  C19_25 
REMARK   10  A    between atoms: C19_25  and  C20_26 
REMARK   11  A    between atoms: C35_41  and  C36_42 
REMARK   12  A    between atoms: C36_42  and  O7_43 
ROOT
HETATM    1  C8  UNL     1      -1.554  48.405 -16.634  1.00  0.00     0.034 C 
HETATM    2  C9  UNL     1      -2.309  47.330 -15.824  1.00  0.00     0.012 C 
HETATM    3  C10 UNL     1      -2.818  48.062 -14.599  1.00  0.00     0.044 C 
HETATM    4  C11 UNL     1      -1.584  48.835 -14.131  1.00  0.00     0.089 C 
HETATM    5  C12 UNL     1      -1.829  50.018 -13.213  1.00  0.00    -0.037 C 
HETATM    6  C13 UNL     1      -3.013  50.320 -12.653  1.00  0.00     0.057 C 
HETATM    7  C14 UNL     1      -3.197  51.550 -11.841  1.00  0.00     0.154 C 
HETATM    8  O5  UNL     1      -4.281  51.740 -11.295  1.00  0.00    -0.293 OA
HETATM    9  C15 UNL     1      -2.055  52.555 -11.806  1.00  0.00     0.071 C 
HETATM   10  C16 UNL     1      -2.212  53.557 -10.658  1.00  0.00     0.045 C 
HETATM   11  C17 UNL     1      -1.083  54.589 -10.649  1.00  0.00     0.122 C 
HETATM   12  C26 UNL     1       0.299  53.930 -10.660  1.00  0.00     0.033 C 
HETATM   13  C27 UNL     1       0.443  52.906 -11.789  1.00  0.00     0.013 C 
HETATM   14  C28 UNL     1      -0.682  51.835 -11.787  1.00  0.00    -0.026 C 
HETATM   15  C29 UNL     1      -0.514  50.964 -10.504  1.00  0.00     0.016 C 
HETATM   16  C30 UNL     1      -0.588  50.877 -13.025  1.00  0.00     0.026 C 
HETATM   17  C31 UNL     1      -0.273  51.545 -14.376  1.00  0.00     0.011 C 
HETATM   18  C32 UNL     1      -0.775  50.771 -15.614  1.00  0.00     0.014 C 
HETATM   19  C33 UNL     1      -0.816  49.229 -15.465  1.00  0.00    -0.002 C 
HETATM   20  C34 UNL     1       0.659  48.737 -15.445  1.00  0.00     0.019 C 
ENDROOT
BRANCH   1  21
HETATM   21  C6  UNL     1      -2.431  49.157 -17.709  1.00  0.00     0.087 C 
HETATM   22  C7  UNL     1      -3.869  49.378 -17.188  1.00  0.00     0.049 C 
BRANCH  21  23
HETATM   23  C5  UNL     1      -1.899  50.561 -18.204  1.00  0.00     0.181 C 
BRANCH  23  24
HETATM   24  C4  UNL     1      -1.131  50.573 -19.545  1.00  0.00     0.159 C 
HETATM   25  O1  UNL     1      -1.987  50.904 -20.653  1.00  0.00    -0.382 OA
HETATM   26  C3  UNL     1      -1.267  51.734 -21.573  1.00  0.00     0.173 C 
HETATM   27  C2  UNL     1       0.193  51.656 -21.168  1.00  0.00     0.014 C 
HETATM   28  C1  UNL     1       1.034  52.802 -21.702  1.00  0.00     0.012 C 
HETATM   29  C35 UNL     1       0.112  51.484 -19.648  1.00  0.00     0.046 C 
BRANCH  29  30
HETATM   30  C36 UNL     1       0.079  52.795 -18.852  1.00  0.00     0.172 C 
BRANCH  30  31
HETATM   31  O7  UNL     1       1.266  53.024 -18.114  1.00  0.00    -0.400 OA
HETATM   32  H52 UNL     1       1.957  53.222 -18.785  1.00  0.00     0.209 HD
ENDBRANCH  30  31
ENDBRANCH  29  30
ENDBRANCH  23  24
BRANCH  23  33
HETATM   33  O2  UNL     1      -2.970  51.520 -18.182  1.00  0.00    -0.390 OA
HETATM   34  H9  UNL     1      -3.587  51.196 -17.492  1.00  0.00     0.210 HD
ENDBRANCH  23  33
ENDBRANCH  21  23
BRANCH  21  35
HETATM   35  O3  UNL     1      -2.492  48.352 -18.904  1.00  0.00    -0.387 OA
HETATM   36  H13 UNL     1      -3.246  48.657 -19.440  1.00  0.00     0.210 HD
ENDBRANCH  21  35
ENDBRANCH   1  21
BRANCH   4  37
HETATM   37  O4  UNL     1      -0.792  47.919 -13.360  1.00  0.00    -0.384 OA
HETATM   38  H19 UNL     1      -1.316  47.667 -12.581  1.00  0.00     0.211 HD
ENDBRANCH   4  37
BRANCH  11  39
HETATM   39  O6  UNL     1      -1.205  55.361  -9.453  1.00  0.00    -0.386 OA
BRANCH  39  40
HETATM   40  C18 UNL     1      -0.311  54.972  -8.409  1.00  0.00     0.172 C 
BRANCH  40  41
HETATM   41  C19 UNL     1      -0.032  56.142  -7.464  1.00  0.00     0.064 C 
BRANCH  41  42
HETATM   42  C20 UNL     1       1.385  56.641  -7.574  1.00  0.00    -0.056 A 
HETATM   43  C21 UNL     1       1.864  57.625  -6.698  1.00  0.00     0.007 A 
HETATM   44  C22 UNL     1       3.173  58.094  -6.812  1.00  0.00     0.001 A 
HETATM   45  C23 UNL     1       4.014  57.587  -7.800  1.00  0.00     0.000 A 
HETATM   46  C24 UNL     1       3.546  56.612  -8.679  1.00  0.00     0.001 A 
HETATM   47  C25 UNL     1       2.236  56.141  -8.568  1.00  0.00     0.007 A 
ENDBRANCH  41  42
ENDBRANCH  40  41
ENDBRANCH  39  40
ENDBRANCH  11  39
TORSDOF 12
ENDMDL
MODEL 4
REMARK minimizedAffinity -9.98930073
REMARK CNNscore 0.459724009
REMARK CNNaffinity 6.59116125
REMARK  12 active torsions:
REMARK  status: ('A' for Active; 'I' for Inactive)
REMARK    1  A    between atoms: C4_5  and  C5_6 
REMARK    2  A    between atoms: C5_6  and  O2_7 
REMARK    3  A    between atoms: C5_6  and  C6_8 
REMARK    4  A    between atoms: C6_8  and  O3_10 
REMARK    5  A    between atoms: C6_8  and  C8_11 
REMARK    6  A    between atoms: C11_14  and  O4_15 
REMARK    7  A    between atoms: C17_22  and  O6_23 
REMARK    8  A    between atoms: O6_23  and  C18_24 
REMARK    9  A    between atoms: C18_24  and  C19_25 
REMARK   10  A    between atoms: C19_25  and  C20_26 
REMARK   11  A    between atoms: C35_41  and  C36_42 
REMARK   12  A    between atoms: C36_42  and  O7_43 
ROOT
HETATM    1  C8  UNL     1      -1.092  50.115 -13.830  1.00  0.00     0.034 C 
HETATM    2  C9  UNL     1       0.432  49.880 -13.894  1.00  0.00     0.012 C 
HETATM    3  C10 UNL     1       0.840  50.385 -15.263  1.00  0.00     0.044 C 
HETATM    4  C11 UNL     1      -0.205  49.749 -16.182  1.00  0.00     0.089 C 
HETATM    5  C12 UNL     1      -0.390  50.385 -17.547  1.00  0.00    -0.037 C 
HETATM    6  C13 UNL     1       0.407  51.337 -18.061  1.00  0.00     0.057 C 
HETATM    7  C14 UNL     1       0.106  51.981 -19.366  1.00  0.00     0.154 C 
HETATM    8  O5  UNL     1       0.906  52.794 -19.821  1.00  0.00    -0.293 OA
HETATM    9  C15 UNL     1      -1.227  51.660 -20.025  1.00  0.00     0.071 C 
HETATM   10  C16 UNL     1      -1.245  52.065 -21.503  1.00  0.00     0.045 C 
HETATM   11  C17 UNL     1      -2.600  51.776 -22.152  1.00  0.00     0.122 C 
HETATM   12  C26 UNL     1      -3.040  50.325 -21.942  1.00  0.00     0.033 C 
HETATM   13  C27 UNL     1      -2.991  49.912 -20.469  1.00  0.00     0.013 C 
HETATM   14  C28 UNL     1      -1.609  50.173 -19.809  1.00  0.00    -0.026 C 
HETATM   15  C29 UNL     1      -0.571  49.216 -20.474  1.00  0.00     0.016 C 
HETATM   16  C30 UNL     1      -1.621  49.864 -18.271  1.00  0.00     0.026 C 
HETATM   17  C31 UNL     1      -2.860  50.346 -17.493  1.00  0.00     0.011 C 
HETATM   18  C32 UNL     1      -2.620  50.607 -15.990  1.00  0.00     0.014 C 
HETATM   19  C33 UNL     1      -1.541  49.716 -15.323  1.00  0.00    -0.002 C 
HETATM   20  C34 UNL     1      -2.133  48.280 -15.235  1.00  0.00     0.019 C 
ENDROOT
BRANCH   1  21
HETATM   21  C6  UNL     1      -1.520  51.502 -13.212  1.00  0.00     0.087 C 
HETATM   22  C7  UNL     1      -3.046  51.712 -13.338  1.00  0.00     0.049 C 
BRANCH  21  23
HETATM   23  C5  UNL     1      -1.143  51.753 -11.698  1.00  0.00     0.181 C 
BRANCH  23  24
HETATM   24  C4  UNL     1      -0.795  53.207 -11.307  1.00  0.00     0.159 C 
HETATM   25  O1  UNL     1      -1.108  53.484  -9.930  1.00  0.00    -0.382 OA
HETATM   26  C3  UNL     1      -0.090  54.327  -9.375  1.00  0.00     0.173 C 
HETATM   27  C2  UNL     1       0.723  54.845 -10.547  1.00  0.00     0.014 C 
HETATM   28  C1  UNL     1       2.098  55.355 -10.155  1.00  0.00     0.012 C 
HETATM   29  C35 UNL     1       0.656  53.682 -11.542  1.00  0.00     0.046 C 
BRANCH  29  30
HETATM   30  C36 UNL     1       1.764  52.632 -11.384  1.00  0.00     0.172 C 
BRANCH  30  31
HETATM   31  O7  UNL     1       2.683  52.632 -12.462  1.00  0.00    -0.400 OA
HETATM   32  H52 UNL     1       3.194  53.468 -12.371  1.00  0.00     0.209 HD
ENDBRANCH  30  31
ENDBRANCH  29  30
ENDBRANCH  23  24
BRANCH  23  33
HETATM   33  O2  UNL     1      -2.156  51.189 -10.847  1.00  0.00    -0.390 OA
HETATM   34  H9  UNL     1      -2.550  50.459 -11.370  1.00  0.00     0.210 HD
ENDBRANCH  23  33
ENDBRANCH  21  23
BRANCH  21  35
HETATM   35  O3  UNL     1      -0.848  52.557 -13.931  1.00  0.00    -0.387 OA
HETATM   36  H13 UNL     1      -1.319  53.393 -13.759  1.00  0.00     0.210 HD
ENDBRANCH  21  35
ENDBRANCH   1  21
BRANCH   4  37
HETATM   37  O4  UNL     1       0.241  48.411 -16.448  1.00  0.00    -0.384 OA
HETATM   38  H19 UNL     1       1.082  48.476 -16.931  1.00  0.00     0.211 HD
ENDBRANCH   4  37
BRANCH  11  39
HETATM   39  O6  UNL     1      -2.471  52.010 -23.556  1.00  0.00    -0.386 OA
BRANCH  39  40
HETATM   40  C18 UNL     1      -1.166  51.753 -24.077  1.00  0.00     0.172 C 
BRANCH  40  41
HETATM   41  C19 UNL     1      -1.248  51.030 -25.423  1.00  0.00     0.064 C 
BRANCH  41  42
HETATM   42  C20 UNL     1      -0.039  51.288 -26.285  1.00  0.00    -0.056 A 
HETATM   43  C21 UNL     1       1.245  51.315 -25.722  1.00  0.00     0.007 A 
HETATM   44  C22 UNL     1       2.360  51.566 -26.521  1.00  0.00     0.001 A 
HETATM   45  C23 UNL     1       2.205  51.796 -27.887  1.00  0.00     0.000 A 
HETATM   46  C24 UNL     1       0.932  51.777 -28.455  1.00  0.00     0.001 A 
HETATM   47  C25 UNL     1      -0.186  51.526 -27.657  1.00  0.00     0.007 A 
ENDBRANCH  41  42
ENDBRANCH  40  41
ENDBRANCH  39  40
ENDBRANCH  11  39
TORSDOF 12
ENDMDL
MODEL 5
REMARK minimizedAffinity -8.86133671
REMARK CNNscore 0.418833047
REMARK CNNaffinity 6.31032944
REMARK  12 active torsions:
REMARK  status: ('A' for Active; 'I' for Inactive)
REMARK    1  A    between atoms: C4_5  and  C5_6 
REMARK    2  A    between atoms: C5_6  and  O2_7 
REMARK    3  A    between atoms: C5_6  and  C6_8 
REMARK    4  A    between atoms: C6_8  and  O3_10 
REMARK    5  A    between atoms: C6_8  and  C8_11 
REMARK    6  A    between atoms: C11_14  and  O4_15 
REMARK    7  A    between atoms: C17_22  and  O6_23 
REMARK    8  A    between atoms: O6_23  and  C18_24 
REMARK    9  A    between atoms: C18_24  and  C19_25 
REMARK   10  A    between atoms: C19_25  and  C20_26 
REMARK   11  A    between atoms: C35_41  and  C36_42 
REMARK   12  A    between atoms: C36_42  and  O7_43 
ROOT
HETATM    1  C8  UNL     1      -8.669  43.004 -32.976  1.00  0.00     0.034 C 
HETATM    2  C9  UNL     1      -9.027  44.070 -34.033  1.00  0.00     0.012 C 
HETATM    3  C10 UNL     1      -8.230  45.294 -33.627  1.00  0.00     0.044 C 
HETATM    4  C11 UNL     1      -8.505  45.392 -32.124  1.00  0.00     0.089 C 
HETATM    5  C12 UNL     1      -7.526  46.211 -31.305  1.00  0.00    -0.037 C 
HETATM    6  C13 UNL     1      -6.556  46.985 -31.821  1.00  0.00     0.057 C 
HETATM    7  C14 UNL     1      -5.574  47.684 -30.952  1.00  0.00     0.154 C 
HETATM    8  O5  UNL     1      -4.754  48.433 -31.474  1.00  0.00    -0.293 OA
HETATM    9  C15 UNL     1      -5.584  47.358 -29.466  1.00  0.00     0.071 C 
HETATM   10  C16 UNL     1      -4.815  48.400 -28.648  1.00  0.00     0.045 C 
HETATM   11  C17 UNL     1      -4.795  48.050 -27.160  1.00  0.00     0.122 C 
HETATM   12  C26 UNL     1      -6.201  47.802 -26.608  1.00  0.00     0.033 C 
HETATM   13  C27 UNL     1      -6.980  46.783 -27.445  1.00  0.00     0.013 C 
HETATM   14  C28 UNL     1      -7.033  47.148 -28.954  1.00  0.00    -0.026 C 
HETATM   15  C29 UNL     1      -7.884  48.446 -29.105  1.00  0.00     0.016 C 
HETATM   16  C30 UNL     1      -7.722  46.027 -29.809  1.00  0.00     0.026 C 
HETATM   17  C31 UNL     1      -7.337  44.577 -29.461  1.00  0.00     0.011 C 
HETATM   18  C32 UNL     1      -7.494  43.570 -30.621  1.00  0.00     0.014 C 
HETATM   19  C33 UNL     1      -8.627  43.887 -31.630  1.00  0.00    -0.002 C 
HETATM   20  C34 UNL     1      -9.972  43.630 -30.894  1.00  0.00     0.019 C 
ENDROOT
BRANCH   1  21
HETATM   21  C6  UNL     1      -7.451  42.077 -33.360  1.00  0.00     0.087 C 
HETATM   22  C7  UNL     1      -7.299  41.978 -34.895  1.00  0.00     0.049 C 
BRANCH  21  23
HETATM   23  C5  UNL     1      -6.038  42.485 -32.782  1.00  0.00     0.181 C 
BRANCH  23  24
HETATM   24  C4  UNL     1      -5.048  41.331 -32.504  1.00  0.00     0.159 C 
HETATM   25  O1  UNL     1      -5.530  40.073 -33.011  1.00  0.00    -0.382 OA
HETATM   26  C3  UNL     1      -4.430  39.330 -33.551  1.00  0.00     0.173 C 
HETATM   27  C2  UNL     1      -3.168  40.026 -33.076  1.00  0.00     0.014 C 
HETATM   28  C1  UNL     1      -1.940  39.689 -33.903  1.00  0.00     0.012 C 
HETATM   29  C35 UNL     1      -3.598  41.495 -33.013  1.00  0.00     0.046 C 
BRANCH  29  30
HETATM   30  C36 UNL     1      -3.405  42.281 -34.317  1.00  0.00     0.172 C 
BRANCH  30  31
HETATM   31  O7  UNL     1      -4.046  41.677 -35.426  1.00  0.00    -0.400 OA
HETATM   32  H52 UNL     1      -5.010  41.796 -35.269  1.00  0.00     0.209 HD
ENDBRANCH  30  31
ENDBRANCH  29  30
ENDBRANCH  23  24
BRANCH  23  33
HETATM   33  O2  UNL     1      -5.456  43.513 -33.604  1.00  0.00    -0.390 OA
HETATM   34  H9  UNL     1      -6.220  43.977 -34.008  1.00  0.00     0.210 HD
ENDBRANCH  23  33
ENDBRANCH  21  23
BRANCH  21  35
HETATM   35  O3  UNL     1      -7.689  40.755 -32.833  1.00  0.00    -0.387 OA
HETATM   36  H13 UNL     1      -7.109  40.130 -33.304  1.00  0.00     0.210 HD
ENDBRANCH  21  35
ENDBRANCH   1  21
BRANCH   4  37
HETATM   37  O4  UNL     1      -9.767  46.060 -31.980  1.00  0.00    -0.384 OA
HETATM   38  H19 UNL     1      -9.663  46.958 -32.338  1.00  0.00     0.211 HD
ENDBRANCH   4  37
BRANCH  11  39
HETATM   39  O6  UNL     1      -4.223  49.155 -26.457  1.00  0.00    -0.386 OA
BRANCH  39  40
HETATM   40  C18 UNL     1      -2.872  49.444 -26.818  1.00  0.00     0.172 C 
BRANCH  40  41
HETATM   41  C19 UNL     1      -2.398  50.744 -26.164  1.00  0.00     0.064 C 
BRANCH  41  42
HETATM   42  C20 UNL     1      -1.010  51.132 -26.603  1.00  0.00    -0.056 A 
HETATM   43  C21 UNL     1      -0.772  51.562 -27.916  1.00  0.00     0.007 A 
HETATM   44  C22 UNL     1       0.516  51.908 -28.322  1.00  0.00     0.001 A 
HETATM   45  C23 UNL     1       1.579  51.827 -27.424  1.00  0.00     0.000 A 
HETATM   46  C24 UNL     1       1.353  51.396 -26.118  1.00  0.00     0.001 A 
HETATM   47  C25 UNL     1       0.065  51.048 -25.709  1.00  0.00     0.007 A 
ENDBRANCH  41  42
ENDBRANCH  40  41
ENDBRANCH  39  40
ENDBRANCH  11  39
TORSDOF 12
ENDMDL
MODEL 6
REMARK minimizedAffinity -10.4289141
REMARK CNNscore 0.409118742
REMARK CNNaffinity 7.01219559
REMARK  12 active torsions:
REMARK  status: ('A' for Active; 'I' for Inactive)
REMARK    1  A    between atoms: C4_5  and  C5_6 
REMARK    2  A    between atoms: C5_6  and  O2_7 
REMARK    3  A    between atoms: C5_6  and  C6_8 
REMARK    4  A    between atoms: C6_8  and  O3_10 
REMARK    5  A    between atoms: C6_8  and  C8_11 
REMARK    6  A    between atoms: C11_14  and  O4_15 
REMARK    7  A    between atoms: C17_22  and  O6_23 
REMARK    8  A    between atoms: O6_23  and  C18_24 
REMARK    9  A    between atoms: C18_24  and  C19_25 
REMARK   10  A    between atoms: C19_25  and  C20_26 
REMARK   11  A    between atoms: C35_41  and  C36_42 
REMARK   12  A    between atoms: C36_42  and  O7_43 
ROOT
HETATM    1  C8  UNL     1      -4.722  50.328 -24.277  1.00  0.00     0.034 C 
HETATM    2  C9  UNL     1      -4.741  51.871 -24.256  1.00  0.00     0.012 C 
HETATM    3  C10 UNL     1      -3.699  52.252 -23.223  1.00  0.00     0.044 C 
HETATM    4  C11 UNL     1      -4.040  51.334 -22.046  1.00  0.00     0.089 C 
HETATM    5  C12 UNL     1      -2.947  51.111 -21.019  1.00  0.00    -0.037 C 
HETATM    6  C13 UNL     1      -1.787  51.788 -20.975  1.00  0.00     0.057 C 
HETATM    7  C14 UNL     1      -0.724  51.447 -19.995  1.00  0.00     0.154 C 
HETATM    8  O5  UNL     1       0.286  52.143 -19.955  1.00  0.00    -0.293 OA
HETATM    9  C15 UNL     1      -0.910  50.192 -19.154  1.00  0.00     0.071 C 
HETATM   10  C16 UNL     1       0.033  50.169 -17.948  1.00  0.00     0.045 C 
HETATM   11  C17 UNL     1      -0.130  48.889 -17.126  1.00  0.00     0.122 C 
HETATM   12  C26 UNL     1      -1.587  48.643 -16.728  1.00  0.00     0.033 C 
HETATM   13  C27 UNL     1      -2.533  48.699 -17.930  1.00  0.00     0.013 C 
HETATM   14  C28 UNL     1      -2.397  50.009 -18.753  1.00  0.00    -0.026 C 
HETATM   15  C29 UNL     1      -2.896  51.189 -17.863  1.00  0.00     0.016 C 
HETATM   16  C30 UNL     1      -3.280  49.988 -20.050  1.00  0.00     0.026 C 
HETATM   17  C31 UNL     1      -3.281  48.669 -20.845  1.00  0.00     0.011 C 
HETATM   18  C32 UNL     1      -3.602  48.821 -22.348  1.00  0.00     0.014 C 
HETATM   19  C33 UNL     1      -4.555  49.987 -22.712  1.00  0.00    -0.002 C 
HETATM   20  C34 UNL     1      -5.968  49.594 -22.196  1.00  0.00     0.019 C 
ENDROOT
BRANCH   1  21
HETATM   21  C6  UNL     1      -3.742  49.694 -25.340  1.00  0.00     0.087 C 
HETATM   22  C7  UNL     1      -4.479  48.654 -26.214  1.00  0.00     0.049 C 
BRANCH  21  23
HETATM   23  C5  UNL     1      -3.018  50.695 -26.325  1.00  0.00     0.181 C 
BRANCH  23  24
HETATM   24  C4  UNL     1      -1.520  50.431 -26.597  1.00  0.00     0.159 C 
HETATM   25  O1  UNL     1      -1.109  50.932 -27.882  1.00  0.00    -0.382 OA
HETATM   26  C3  UNL     1       0.208  51.487 -27.772  1.00  0.00     0.173 C 
HETATM   27  C2  UNL     1       0.756  51.027 -26.433  1.00  0.00     0.014 C 
HETATM   28  C1  UNL     1       1.914  51.870 -25.929  1.00  0.00     0.012 C 
HETATM   29  C35 UNL     1      -0.502  50.958 -25.561  1.00  0.00     0.046 C 
BRANCH  29  30
HETATM   30  C36 UNL     1      -0.860  52.263 -24.839  1.00  0.00     0.172 C 
BRANCH  30  31
HETATM   31  O7  UNL     1      -1.316  53.276 -25.719  1.00  0.00    -0.400 OA
HETATM   32  H52 UNL     1      -2.200  52.975 -26.028  1.00  0.00     0.209 HD
ENDBRANCH  30  31
ENDBRANCH  29  30
ENDBRANCH  23  24
BRANCH  23  33
HETATM   33  O2  UNL     1      -3.779  50.815 -27.540  1.00  0.00    -0.390 OA
HETATM   34  H9  UNL     1      -4.703  50.616 -27.281  1.00  0.00     0.210 HD
ENDBRANCH  23  33
ENDBRANCH  21  23
BRANCH  21  35
HETATM   35  O3  UNL     1      -2.667  49.032 -24.642  1.00  0.00    -0.387 OA
HETATM   36  H13 UNL     1      -2.241  48.409 -25.259  1.00  0.00     0.210 HD
ENDBRANCH  21  35
ENDBRANCH   1  21
BRANCH   4  37
HETATM   37  O4  UNL     1      -5.109  51.967 -21.328  1.00  0.00    -0.384 OA
HETATM   38  H19 UNL     1      -4.767  52.808 -20.979  1.00  0.00     0.211 HD
ENDBRANCH   4  37
BRANCH  11  39
HETATM   39  O6  UNL     1       0.646  49.032 -15.935  1.00  0.00    -0.386 OA
BRANCH  39  40
HETATM   40  C18 UNL     1      -0.034  49.695 -14.868  1.00  0.00     0.172 C 
BRANCH  40  41
HETATM   41  C19 UNL     1       0.148  51.212 -14.963  1.00  0.00     0.064 C 
BRANCH  41  42
HETATM   42  C20 UNL     1       1.574  51.599 -15.259  1.00  0.00    -0.056 A 
HETATM   43  C21 UNL     1       2.629  51.058 -14.511  1.00  0.00     0.007 A 
HETATM   44  C22 UNL     1       3.947  51.429 -14.780  1.00  0.00     0.001 A 
HETATM   45  C23 UNL     1       4.223  52.343 -15.794  1.00  0.00     0.000 A 
HETATM   46  C24 UNL     1       3.180  52.890 -16.540  1.00  0.00     0.001 A 
HETATM   47  C25 UNL     1       1.860  52.522 -16.273  1.00  0.00     0.007 A 
ENDBRANCH  41  42
ENDBRANCH  40  41
ENDBRANCH  39  40
ENDBRANCH  11  39
TORSDOF 12
ENDMDL
MODEL 7
REMARK minimizedAffinity -8.03338623
REMARK CNNscore 0.380416512
REMARK CNNaffinity 6.05608034
REMARK  12 active torsions:
REMARK  status: ('A' for Active; 'I' for Inactive)
REMARK    1  A    between atoms: C4_5  and  C5_6 
REMARK    2  A    between atoms: C5_6  and  O2_7 
REMARK    3  A    between atoms: C5_6  and  C6_8 
REMARK    4  A    between atoms: C6_8  and  O3_10 
REMARK    5  A    between atoms: C6_8  and  C8_11 
REMARK    6  A    between atoms: C11_14  and  O4_15 
REMARK    7  A    between atoms: C17_22  and  O6_23 
REMARK    8  A    between atoms: O6_23  and  C18_24 
REMARK    9  A    between atoms: C18_24  and  C19_25 
REMARK   10  A    between atoms: C19_25  and  C20_26 
REMARK   11  A    between atoms: C35_41  and  C36_42 
REMARK   12  A    between atoms: C36_42  and  O7_43 
ROOT
HETATM    1  C8  UNL     1      -7.021  47.583 -24.314  1.00  0.00     0.034 C 
HETATM    2  C9  UNL     1      -6.410  47.638 -25.730  1.00  0.00     0.012 C 
HETATM    3  C10 UNL     1      -7.606  47.681 -26.661  1.00  0.00     0.044 C 
HETATM    4  C11 UNL     1      -8.501  46.568 -26.112  1.00  0.00     0.089 C 
HETATM    5  C12 UNL     1      -9.967  46.620 -26.500  1.00  0.00    -0.037 C 
HETATM    6  C13 UNL     1     -10.487  47.455 -27.415  1.00  0.00     0.057 C 
HETATM    7  C14 UNL     1     -11.949  47.513 -27.672  1.00  0.00     0.154 C 
HETATM    8  O5  UNL     1     -12.362  48.244 -28.568  1.00  0.00    -0.293 OA
HETATM    9  C15 UNL     1     -12.864  46.726 -26.745  1.00  0.00     0.071 C 
HETATM   10  C16 UNL     1     -14.267  46.558 -27.337  1.00  0.00     0.045 C 
HETATM   11  C17 UNL     1     -15.195  45.799 -26.386  1.00  0.00     0.122 C 
HETATM   12  C26 UNL     1     -14.592  44.467 -25.934  1.00  0.00     0.033 C 
HETATM   13  C27 UNL     1     -13.177  44.633 -25.373  1.00  0.00     0.013 C 
HETATM   14  C28 UNL     1     -12.219  45.374 -26.345  1.00  0.00    -0.026 C 
HETATM   15  C29 UNL     1     -11.995  44.460 -27.589  1.00  0.00     0.016 C 
HETATM   16  C30 UNL     1     -10.816  45.646 -25.698  1.00  0.00     0.026 C 
HETATM   17  C31 UNL     1     -10.827  46.130 -24.236  1.00  0.00     0.011 C 
HETATM   18  C32 UNL     1      -9.592  46.958 -23.819  1.00  0.00     0.014 C 
HETATM   19  C33 UNL     1      -8.270  46.593 -24.541  1.00  0.00    -0.002 C 
HETATM   20  C34 UNL     1      -7.830  45.202 -24.003  1.00  0.00     0.019 C 
ENDROOT
BRANCH   1  21
HETATM   21  C6  UNL     1      -7.233  48.990 -23.632  1.00  0.00     0.087 C 
HETATM   22  C7  UNL     1      -7.914  48.836 -22.254  1.00  0.00     0.049 C 
BRANCH  21  23
HETATM   23  C5  UNL     1      -5.943  49.875 -23.412  1.00  0.00     0.181 C 
BRANCH  23  24
HETATM   24  C4  UNL     1      -4.582  49.155 -23.548  1.00  0.00     0.159 C 
HETATM   25  O1  UNL     1      -3.535  50.054 -23.956  1.00  0.00    -0.382 OA
HETATM   26  C3  UNL     1      -2.326  49.713 -23.265  1.00  0.00     0.173 C 
HETATM   27  C2  UNL     1      -2.560  48.351 -22.639  1.00  0.00     0.014 C 
HETATM   28  C1  UNL     1      -1.605  48.033 -21.502  1.00  0.00     0.012 C 
HETATM   29  C35 UNL     1      -4.058  48.382 -22.318  1.00  0.00     0.046 C 
BRANCH  29  30
HETATM   30  C36 UNL     1      -4.411  48.951 -20.938  1.00  0.00     0.172 C 
BRANCH  30  31
HETATM   31  O7  UNL     1      -4.926  47.974 -20.052  1.00  0.00    -0.400 OA
HETATM   32  H52 UNL     1      -4.165  47.391 -19.832  1.00  0.00     0.209 HD
ENDBRANCH  30  31
ENDBRANCH  29  30
ENDBRANCH  23  24
BRANCH  23  33
HETATM   33  O2  UNL     1      -6.018  51.054 -24.233  1.00  0.00    -0.390 OA
HETATM   34  H9  UNL     1      -6.977  51.214 -24.360  1.00  0.00     0.210 HD
ENDBRANCH  23  33
ENDBRANCH  21  23
BRANCH  21  35
HETATM   35  O3  UNL     1      -8.082  49.793 -24.479  1.00  0.00    -0.387 OA
HETATM   36  H13 UNL     1      -8.446  50.521 -23.944  1.00  0.00     0.210 HD
ENDBRANCH  21  35
ENDBRANCH   1  21
BRANCH   4  37
HETATM   37  O4  UNL     1      -8.010  45.337 -26.662  1.00  0.00    -0.384 OA
HETATM   38  H19 UNL     1      -8.125  45.383 -27.626  1.00  0.00     0.211 HD
ENDBRANCH   4  37
BRANCH  11  39
HETATM   39  O6  UNL     1     -16.412  45.530 -27.084  1.00  0.00    -0.386 OA
BRANCH  39  40
HETATM   40  C18 UNL     1     -17.165  44.439 -26.552  1.00  0.00     0.172 C 
BRANCH  40  41
HETATM   41  C19 UNL     1     -18.642  44.554 -26.938  1.00  0.00     0.064 C 
BRANCH  41  42
HETATM   42  C20 UNL     1     -18.981  43.731 -28.153  1.00  0.00    -0.056 A 
HETATM   43  C21 UNL     1     -18.049  43.570 -29.187  1.00  0.00     0.007 A 
HETATM   44  C22 UNL     1     -18.371  42.817 -30.317  1.00  0.00     0.001 A 
HETATM   45  C23 UNL     1     -19.626  42.220 -30.425  1.00  0.00     0.000 A 
HETATM   46  C24 UNL     1     -20.562  42.379 -29.404  1.00  0.00     0.001 A 
HETATM   47  C25 UNL     1     -20.242  43.133 -28.273  1.00  0.00     0.007 A 
ENDBRANCH  41  42
ENDBRANCH  40  41
ENDBRANCH  39  40
ENDBRANCH  11  39
TORSDOF 12
ENDMDL
MODEL 8
REMARK minimizedAffinity -8.11627769
REMARK CNNscore 0.378702015
REMARK CNNaffinity 7.20240021
REMARK  12 active torsions:
REMARK  status: ('A' for Active; 'I' for Inactive)
REMARK    1  A    between atoms: C4_5  and  C5_6 
REMARK    2  A    between atoms: C5_6  and  O2_7 
REMARK    3  A    between atoms: C5_6  and  C6_8 
REMARK    4  A    between atoms: C6_8  and  O3_10 
REMARK    5  A    between atoms: C6_8  and  C8_11 
REMARK    6  A    between atoms: C11_14  and  O4_15 
REMARK    7  A    between atoms: C17_22  and  O6_23 
REMARK    8  A    between atoms: O6_23  and  C18_24 
REMARK    9  A    between atoms: C18_24  and  C19_25 
REMARK   10  A    between atoms: C19_25  and  C20_26 
REMARK   11  A    between atoms: C35_41  and  C36_42 
REMARK   12  A    between atoms: C36_42  and  O7_43 
ROOT
HETATM    1  C8  UNL     1      -4.458  50.357 -24.376  1.00  0.00     0.034 C 
HETATM    2  C9  UNL     1      -4.743  51.764 -23.810  1.00  0.00     0.012 C 
HETATM    3  C10 UNL     1      -4.525  51.628 -22.317  1.00  0.00     0.044 C 
HETATM    4  C11 UNL     1      -5.299  50.351 -21.979  1.00  0.00     0.089 C 
HETATM    5  C12 UNL     1      -4.934  49.659 -20.679  1.00  0.00    -0.037 C 
HETATM    6  C13 UNL     1      -4.123  50.173 -19.739  1.00  0.00     0.057 C 
HETATM    7  C14 UNL     1      -3.738  49.394 -18.534  1.00  0.00     0.154 C 
HETATM    8  O5  UNL     1      -3.050  49.938 -17.675  1.00  0.00    -0.293 OA
HETATM    9  C15 UNL     1      -4.143  47.928 -18.478  1.00  0.00     0.071 C 
HETATM   10  C16 UNL     1      -4.033  47.361 -17.059  1.00  0.00     0.045 C 
HETATM   11  C17 UNL     1      -4.405  45.878 -17.012  1.00  0.00     0.122 C 
HETATM   12  C26 UNL     1      -5.774  45.608 -17.640  1.00  0.00     0.033 C 
HETATM   13  C27 UNL     1      -5.894  46.204 -19.045  1.00  0.00     0.013 C 
HETATM   14  C28 UNL     1      -5.549  47.717 -19.097  1.00  0.00    -0.026 C 
HETATM   15  C29 UNL     1      -6.645  48.488 -18.298  1.00  0.00     0.016 C 
HETATM   16  C30 UNL     1      -5.552  48.274 -20.564  1.00  0.00     0.026 C 
HETATM   17  C31 UNL     1      -4.894  47.378 -21.630  1.00  0.00     0.011 C 
HETATM   18  C32 UNL     1      -4.353  48.132 -22.864  1.00  0.00     0.014 C 
HETATM   19  C33 UNL     1      -5.127  49.417 -23.253  1.00  0.00    -0.002 C 
HETATM   20  C34 UNL     1      -6.501  48.963 -23.821  1.00  0.00     0.019 C 
ENDROOT
BRANCH   1  21
HETATM   21  C6  UNL     1      -2.965  50.118 -24.829  1.00  0.00     0.087 C 
HETATM   22  C7  UNL     1      -2.829  48.778 -25.587  1.00  0.00     0.049 C 
BRANCH  21  23
HETATM   23  C5  UNL     1      -2.312  51.231 -25.741  1.00  0.00     0.181 C 
BRANCH  23  24
HETATM   24  C4  UNL     1      -1.045  50.823 -26.526  1.00  0.00     0.159 C 
HETATM   25  O1  UNL     1      -0.995  51.439 -27.825  1.00  0.00    -0.382 OA
HETATM   26  C3  UNL     1       0.359  51.807 -28.120  1.00  0.00     0.173 C 
HETATM   27  C2  UNL     1       1.227  51.107 -27.091  1.00  0.00     0.014 C 
HETATM   28  C1  UNL     1       2.606  51.724 -26.937  1.00  0.00     0.012 C 
HETATM   29  C35 UNL     1       0.323  51.076 -25.854  1.00  0.00     0.046 C 
BRANCH  29  30
HETATM   30  C36 UNL     1       0.433  52.306 -24.944  1.00  0.00     0.172 C 
BRANCH  30  31
HETATM   31  O7  UNL     1       0.289  51.991 -23.570  1.00  0.00    -0.400 OA
HETATM   32  H52 UNL     1       1.104  51.497 -23.327  1.00  0.00     0.209 HD
ENDBRANCH  30  31
ENDBRANCH  29  30
ENDBRANCH  23  24
BRANCH  23  33
HETATM   33  O2  UNL     1      -3.316  51.811 -26.592  1.00  0.00    -0.390 OA
HETATM   34  H9  UNL     1      -4.160  51.695 -26.106  1.00  0.00     0.210 HD
ENDBRANCH  23  33
ENDBRANCH  21  23
BRANCH  21  35
HETATM   35  O3  UNL     1      -2.126  50.072 -23.657  1.00  0.00    -0.387 OA
HETATM   36  H13 UNL     1      -1.285  49.643 -23.899  1.00  0.00     0.210 HD
ENDBRANCH  21  35
ENDBRANCH   1  21
BRANCH   4  37
HETATM   37  O4  UNL     1      -6.674  50.731 -21.830  1.00  0.00    -0.384 OA
HETATM   38  H19 UNL     1      -6.728  51.339 -21.073  1.00  0.00     0.211 HD
ENDBRANCH   4  37
BRANCH  11  39
HETATM   39  O6  UNL     1      -4.452  45.481 -15.640  1.00  0.00    -0.386 OA
BRANCH  39  40
HETATM   40  C18 UNL     1      -5.772  45.306 -15.124  1.00  0.00     0.172 C 
BRANCH  40  41
HETATM   41  C19 UNL     1      -5.732  44.821 -13.674  1.00  0.00     0.064 C 
BRANCH  41  42
HETATM   42  C20 UNL     1      -6.392  45.790 -12.728  1.00  0.00    -0.056 A 
HETATM   43  C21 UNL     1      -7.581  46.439 -13.088  1.00  0.00     0.007 A 
HETATM   44  C22 UNL     1      -8.183  47.346 -12.215  1.00  0.00     0.001 A 
HETATM   45  C23 UNL     1      -7.603  47.614 -10.976  1.00  0.00     0.000 A 
HETATM   46  C24 UNL     1      -6.418  46.977 -10.611  1.00  0.00     0.001 A 
HETATM   47  C25 UNL     1      -5.813  46.070 -11.484  1.00  0.00     0.007 A 
ENDBRANCH  41  42
ENDBRANCH  40  41
ENDBRANCH  39  40
ENDBRANCH  11  39
TORSDOF 12
ENDMDL
MODEL 9
REMARK minimizedAffinity -8.84527397
REMARK CNNscore 0.377448857
REMARK CNNaffinity 6.88606262
REMARK  12 active torsions:
REMARK  status: ('A' for Active; 'I' for Inactive)
REMARK    1  A    between atoms: C4_5  and  C5_6 
REMARK    2  A    between atoms: C5_6  and  O2_7 
REMARK    3  A    between atoms: C5_6  and  C6_8 
REMARK    4  A    between atoms: C6_8  and  O3_10 
REMARK    5  A    between atoms: C6_8  and  C8_11 
REMARK    6  A    between atoms: C11_14  and  O4_15 
REMARK    7  A    between atoms: C17_22  and  O6_23 
REMARK    8  A    between atoms: O6_23  and  C18_24 
REMARK    9  A    between atoms: C18_24  and  C19_25 
REMARK   10  A    between atoms: C19_25  and  C20_26 
REMARK   11  A    between atoms: C35_41  and  C36_42 
REMARK   12  A    between atoms: C36_42  and  O7_43 
ROOT
HETATM    1  C8  UNL     1      -2.392  50.082 -22.970  1.00  0.00     0.034 C 
HETATM    2  C9  UNL     1      -2.391  48.542 -23.077  1.00  0.00     0.012 C 
HETATM    3  C10 UNL     1      -2.686  48.061 -21.670  1.00  0.00     0.044 C 
HETATM    4  C11 UNL     1      -1.732  48.902 -20.819  1.00  0.00     0.089 C 
HETATM    5  C12 UNL     1      -2.063  49.023 -19.344  1.00  0.00    -0.037 C 
HETATM    6  C13 UNL     1      -3.014  48.313 -18.712  1.00  0.00     0.057 C 
HETATM    7  C14 UNL     1      -3.344  48.555 -17.284  1.00  0.00     0.154 C 
HETATM    8  O5  UNL     1      -4.173  47.831 -16.739  1.00  0.00    -0.293 OA
HETATM    9  C15 UNL     1      -2.700  49.752 -16.599  1.00  0.00     0.071 C 
HETATM   10  C16 UNL     1      -2.811  49.664 -15.074  1.00  0.00     0.045 C 
HETATM   11  C17 UNL     1      -2.196  50.886 -14.391  1.00  0.00     0.122 C 
HETATM   12  C26 UNL     1      -0.760  51.143 -14.854  1.00  0.00     0.033 C 
HETATM   13  C27 UNL     1      -0.645  51.198 -16.380  1.00  0.00     0.013 C 
HETATM   14  C28 UNL     1      -1.239  49.946 -17.081  1.00  0.00    -0.026 C 
HETATM   15  C29 UNL     1      -0.349  48.720 -16.710  1.00  0.00     0.016 C 
HETATM   16  C30 UNL     1      -1.228  50.083 -18.644  1.00  0.00     0.026 C 
HETATM   17  C31 UNL     1      -1.648  51.454 -19.206  1.00  0.00     0.011 C 
HETATM   18  C32 UNL     1      -2.222  51.418 -20.639  1.00  0.00     0.014 C 
HETATM   19  C33 UNL     1      -1.653  50.307 -21.557  1.00  0.00    -0.002 C 
HETATM   20  C34 UNL     1      -0.185  50.701 -21.887  1.00  0.00     0.019 C 
ENDROOT
BRANCH   1  21
HETATM   21  C6  UNL     1      -3.787  50.762 -23.257  1.00  0.00     0.087 C 
HETATM   22  C7  UNL     1      -4.003  51.982 -22.334  1.00  0.00     0.049 C 
BRANCH  21  23
HETATM   23  C5  UNL     1      -4.048  51.251 -24.737  1.00  0.00     0.181 C 
BRANCH  23  24
HETATM   24  C4  UNL     1      -3.016  52.239 -25.328  1.00  0.00     0.159 C 
HETATM   25  O1  UNL     1      -1.782  52.235 -24.589  1.00  0.00    -0.382 OA
HETATM   26  C3  UNL     1      -0.685  52.362 -25.503  1.00  0.00     0.173 C 
HETATM   27  C2  UNL     1      -1.283  52.772 -26.836  1.00  0.00     0.014 C 
HETATM   28  C1  UNL     1      -0.371  52.502 -28.020  1.00  0.00     0.012 C 
HETATM   29  C35 UNL     1      -2.648  52.078 -26.820  1.00  0.00     0.046 C 
BRANCH  29  30
HETATM   30  C36 UNL     1      -2.653  50.651 -27.386  1.00  0.00     0.172 C 
BRANCH  30  31
HETATM   31  O7  UNL     1      -3.344  50.548 -28.618  1.00  0.00    -0.400 OA
HETATM   32  H52 UNL     1      -2.780  51.015 -29.275  1.00  0.00     0.209 HD
ENDBRANCH  30  31
ENDBRANCH  29  30
ENDBRANCH  23  24
BRANCH  23  33
HETATM   33  O2  UNL     1      -4.265  50.115 -25.592  1.00  0.00    -0.390 OA
HETATM   34  H9  UNL     1      -4.618  49.417 -25.001  1.00  0.00     0.210 HD
ENDBRANCH  23  33
ENDBRANCH  21  23
BRANCH  21  35
HETATM   35  O3  UNL     1      -4.832  49.801 -23.004  1.00  0.00    -0.387 OA
HETATM   36  H13 UNL     1      -5.671  50.284 -22.894  1.00  0.00     0.210 HD
ENDBRANCH  21  35
ENDBRANCH   1  21
BRANCH   4  37
HETATM   37  O4  UNL     1      -0.455  48.250 -20.866  1.00  0.00    -0.384 OA
HETATM   38  H19 UNL     1      -0.559  47.377 -20.450  1.00  0.00     0.211 HD
ENDBRANCH   4  37
BRANCH  11  39
HETATM   39  O6  UNL     1      -2.178  50.639 -12.983  1.00  0.00    -0.386 OA
BRANCH  39  40
HETATM   40  C18 UNL     1      -3.189  51.334 -12.252  1.00  0.00     0.172 C 
BRANCH  40  41
HETATM   41  C19 UNL     1      -2.961  51.204 -10.745  1.00  0.00     0.064 C 
BRANCH  41  42
HETATM   42  C20 UNL     1      -2.267  52.409 -10.165  1.00  0.00    -0.056 A 
HETATM   43  C21 UNL     1      -1.655  52.341  -8.905  1.00  0.00     0.007 A 
HETATM   44  C22 UNL     1      -1.025  53.462  -8.366  1.00  0.00     0.001 A 
HETATM   45  C23 UNL     1      -1.002  54.661  -9.076  1.00  0.00     0.000 A 
HETATM   46  C24 UNL     1      -1.612  54.740 -10.327  1.00  0.00     0.001 A 
HETATM   47  C25 UNL     1      -2.244  53.619 -10.869  1.00  0.00     0.007 A 
ENDBRANCH  41  42
ENDBRANCH  40  41
ENDBRANCH  39  40
ENDBRANCH  11  39
TORSDOF 12
ENDMDL
