MODEL 1
REMARK minimizedAffinity -9.60905457
REMARK CNNscore 0.6679672
REMARK CNNaffinity 7.29879236
REMARK  12 active torsions:
REMARK  status: ('A' for Active; 'I' for Inactive)
REMARK    1  A    between atoms: C3_3  and  O1_4 
REMARK    2  A    between atoms: N1_14  and  O2_16 
REMARK    3  A    between atoms: O2_16  and  C13_17 
REMARK    4  A    between atoms: C13_17  and  C14_18 
REMARK       I    between atoms: C14_18  and  N2_20 
REMARK    5  A    between atoms: N2_20  and  C15_21 
REMARK    6  A    between atoms: C15_21  and  C16_22 
REMARK    7  A    between atoms: C15_21  and  C26_36 
REMARK       I    between atoms: C16_22  and  N3_24 
REMARK    8  A    between atoms: N3_24  and  C17_25 
REMARK    9  A    between atoms: C17_25  and  C18_26 
REMARK   10  A    between atoms: C17_25  and  C25_33 
REMARK   11  A    between atoms: C18_26  and  C19_27 
REMARK   12  A    between atoms: C25_33  and  O6_35 
ROOT
HETATM    1  C1  UNL     1       0.233  51.897 -27.925  1.00  0.00     0.015 C 
HETATM    2  C2  UNL     1      -0.349  52.247 -26.934  1.00  0.00    -0.078 C 
HETATM    3  C3  UNL     1      -1.067  52.695 -25.718  1.00  0.00     0.128 C 
HETATM    4  C4  UNL     1      -2.567  52.572 -25.945  1.00  0.00     0.052 C 
HETATM    5  C5  UNL     1      -2.950  51.171 -25.469  1.00  0.00     0.010 C 
HETATM    6  C6  UNL     1      -1.737  50.593 -24.688  1.00  0.00     0.002 C 
HETATM    7  C7  UNL     1      -2.079  49.722 -23.430  1.00  0.00    -0.004 C 
HETATM    8  C8  UNL     1      -3.575  49.679 -23.041  1.00  0.00     0.010 C 
HETATM    9  C9  UNL     1      -3.871  48.791 -21.831  1.00  0.00     0.035 C 
HETATM   10  C10 UNL     1      -3.001  49.202 -20.672  1.00  0.00    -0.069 C 
HETATM   11  C11 UNL     1      -3.559  49.648 -19.536  1.00  0.00     0.030 C 
HETATM   12  C12 UNL     1      -2.756  50.263 -18.451  1.00  0.00     0.032 C 
HETATM   13  N1  UNL     1      -3.379  50.583 -17.351  1.00  0.00    -0.271 N 
ATOM     14  H1  UNL     1      -4.374  50.422 -17.190  1.00  0.00     0.194 HD
HETATM   15  C29 UNL     1      -1.305  50.579 -18.743  1.00  0.00     0.060 C 
HETATM   16  C30 UNL     1      -0.675  49.553 -19.674  1.00  0.00     0.020 C 
HETATM   17  C31 UNL     1      -1.503  49.164 -20.939  1.00  0.00    -0.016 C 
HETATM   18  C32 UNL     1      -1.064  47.703 -21.254  1.00  0.00     0.020 C 
HETATM   19  C33 UNL     1      -1.193  50.065 -22.198  1.00  0.00     0.002 C 
HETATM   20  C34 UNL     1      -1.227  51.582 -21.912  1.00  0.00     0.007 C 
HETATM   21  C35 UNL     1      -1.215  52.507 -23.143  1.00  0.00     0.014 C 
HETATM   22  C36 UNL     1      -0.795  51.810 -24.456  1.00  0.00     0.003 C 
HETATM   23  C37 UNL     1       0.711  51.460 -24.375  1.00  0.00     0.020 C 
ENDROOT
BRANCH   3  24
HETATM   24  O1  UNL     1      -0.724  54.052 -25.475  1.00  0.00    -0.377 OA
HETATM   25  H2  UNL     1      -0.890  54.538 -26.302  1.00  0.00     0.211 HD
ENDBRANCH   3  24
BRANCH  13  26
HETATM   26  O2  UNL     1      -2.518  51.177 -16.416  1.00  0.00    -0.271 OA
BRANCH  26  27
HETATM   27  C13 UNL     1      -2.833  50.681 -15.120  1.00  0.00     0.303 C 
BRANCH  27  28
HETATM   28  C14 UNL     1      -3.074  51.824 -14.145  1.00  0.00     0.244 C 
HETATM   29  O3  UNL     1      -3.994  52.628 -14.285  1.00  0.00    -0.271 OA
HETATM   30  N2  UNL     1      -2.225  51.847 -13.066  1.00  0.00    -0.346 N 
HETATM   31  H16 UNL     1      -1.435  51.204 -13.045  1.00  0.00     0.163 HD
BRANCH  30  32
HETATM   32  C15 UNL     1      -2.324  52.835 -11.995  1.00  0.00     0.180 C 
BRANCH  32  33
HETATM   33  C16 UNL     1      -0.917  52.952 -11.365  1.00  0.00     0.241 C 
HETATM   34  O4  UNL     1      -0.055  52.086 -11.516  1.00  0.00    -0.271 OA
HETATM   35  N3  UNL     1      -0.695  54.099 -10.638  1.00  0.00    -0.345 N 
HETATM   36  H18 UNL     1      -1.504  54.599 -10.289  1.00  0.00     0.163 HD
BRANCH  35  37
HETATM   37  C17 UNL     1       0.545  54.291  -9.876  1.00  0.00     0.186 C 
BRANCH  37  38
HETATM   38  C18 UNL     1       1.545  55.190 -10.629  1.00  0.00     0.074 C 
BRANCH  38  39
HETATM   39  C19 UNL     1       2.927  55.246 -10.008  1.00  0.00    -0.056 A 
HETATM   40  C20 UNL     1       3.890  54.284 -10.343  1.00  0.00     0.007 A 
HETATM   41  C21 UNL     1       5.180  54.364  -9.818  1.00  0.00     0.001 A 
HETATM   42  C22 UNL     1       5.520  55.400  -8.954  1.00  0.00     0.000 A 
HETATM   43  C23 UNL     1       4.567  56.353  -8.604  1.00  0.00     0.001 A 
HETATM   44  C24 UNL     1       3.275  56.275  -9.125  1.00  0.00     0.007 A 
ENDBRANCH  38  39
ENDBRANCH  37  38
BRANCH  37  45
HETATM   45  C25 UNL     1       0.306  54.846  -8.467  1.00  0.00     0.163 C 
HETATM   46  O5  UNL     1      -0.327  55.855  -8.197  1.00  0.00    -0.648 OA
BRANCH  45  47
HETATM   47  O6  UNL     1       0.816  54.093  -7.471  1.00  0.00    -0.775 OA
HETATM   48  H27 UNL     1       0.571  54.579  -6.656  1.00  0.00     0.167 HD
ENDBRANCH  45  47
ENDBRANCH  37  45
ENDBRANCH  35  37
ENDBRANCH  32  33
BRANCH  32  49
HETATM   49  C26 UNL     1      -3.451  52.456 -11.007  1.00  0.00     0.009 C 
HETATM   50  C27 UNL     1      -2.966  51.571  -9.855  1.00  0.00     0.012 C 
HETATM   51  C28 UNL     1      -4.196  53.672 -10.459  1.00  0.00     0.012 C 
ENDBRANCH  32  49
ENDBRANCH  30  32
ENDBRANCH  27  28
ENDBRANCH  26  27
ENDBRANCH  13  26
TORSDOF 12
ENDMDL
MODEL 2
REMARK minimizedAffinity -8.86388779
REMARK CNNscore 0.377002716
REMARK CNNaffinity 7.14956427
REMARK  12 active torsions:
REMARK  status: ('A' for Active; 'I' for Inactive)
REMARK    1  A    between atoms: C3_3  and  O1_4 
REMARK    2  A    between atoms: N1_14  and  O2_16 
REMARK    3  A    between atoms: O2_16  and  C13_17 
REMARK    4  A    between atoms: C13_17  and  C14_18 
REMARK       I    between atoms: C14_18  and  N2_20 
REMARK    5  A    between atoms: N2_20  and  C15_21 
REMARK    6  A    between atoms: C15_21  and  C16_22 
REMARK    7  A    between atoms: C15_21  and  C26_36 
REMARK       I    between atoms: C16_22  and  N3_24 
REMARK    8  A    between atoms: N3_24  and  C17_25 
REMARK    9  A    between atoms: C17_25  and  C18_26 
REMARK   10  A    between atoms: C17_25  and  C25_33 
REMARK   11  A    between atoms: C18_26  and  C19_27 
REMARK   12  A    between atoms: C25_33  and  O6_35 
ROOT
HETATM    1  C1  UNL     1      -1.332  51.331 -27.645  1.00  0.00     0.015 C 
HETATM    2  C2  UNL     1      -2.032  51.464 -26.679  1.00  0.00    -0.078 C 
HETATM    3  C3  UNL     1      -2.906  51.640 -25.495  1.00  0.00     0.128 C 
HETATM    4  C4  UNL     1      -4.056  50.647 -25.566  1.00  0.00     0.052 C 
HETATM    5  C5  UNL     1      -3.575  49.395 -24.833  1.00  0.00     0.010 C 
HETATM    6  C6  UNL     1      -2.269  49.767 -24.077  1.00  0.00     0.002 C 
HETATM    7  C7  UNL     1      -2.077  49.109 -22.666  1.00  0.00    -0.004 C 
HETATM    8  C8  UNL     1      -3.285  48.296 -22.145  1.00  0.00     0.010 C 
HETATM    9  C9  UNL     1      -3.044  47.641 -20.784  1.00  0.00     0.035 C 
HETATM   10  C10 UNL     1      -2.596  48.681 -19.790  1.00  0.00    -0.069 C 
HETATM   11  C11 UNL     1      -3.337  48.932 -18.698  1.00  0.00     0.030 C 
HETATM   12  C12 UNL     1      -3.059  50.084 -17.806  1.00  0.00     0.032 C 
HETATM   13  N1  UNL     1      -3.779  50.190 -16.723  1.00  0.00    -0.271 N 
ATOM     14  H1  UNL     1      -4.503  49.524 -16.451  1.00  0.00     0.194 HD
HETATM   15  C29 UNL     1      -2.048  51.108 -18.273  1.00  0.00     0.060 C 
HETATM   16  C30 UNL     1      -0.920  50.471 -19.073  1.00  0.00     0.020 C 
HETATM   17  C31 UNL     1      -1.344  49.453 -20.178  1.00  0.00    -0.016 C 
HETATM   18  C32 UNL     1      -0.137  48.474 -20.284  1.00  0.00     0.020 C 
HETATM   19  C33 UNL     1      -1.579  50.117 -21.591  1.00  0.00     0.002 C 
HETATM   20  C34 UNL     1      -2.486  51.366 -21.558  1.00  0.00     0.007 C 
HETATM   21  C35 UNL     1      -2.980  51.885 -22.921  1.00  0.00     0.014 C 
HETATM   22  C36 UNL     1      -2.205  51.321 -24.133  1.00  0.00     0.003 C 
HETATM   23  C37 UNL     1      -0.774  51.913 -24.128  1.00  0.00     0.020 C 
ENDROOT
BRANCH   3  24
HETATM   24  O1  UNL     1      -3.412  52.968 -25.511  1.00  0.00    -0.377 OA
HETATM   25  H2  UNL     1      -3.808  53.109 -26.389  1.00  0.00     0.211 HD
ENDBRANCH   3  24
BRANCH  13  26
HETATM   26  O2  UNL     1      -3.439  51.329 -15.979  1.00  0.00    -0.271 OA
BRANCH  26  27
HETATM   27  C13 UNL     1      -2.938  50.920 -14.711  1.00  0.00     0.303 C 
BRANCH  27  28
HETATM   28  C14 UNL     1      -2.978  52.069 -13.715  1.00  0.00     0.244 C 
HETATM   29  O3  UNL     1      -3.814  52.969 -13.779  1.00  0.00    -0.271 OA
HETATM   30  N2  UNL     1      -2.051  51.986 -12.705  1.00  0.00    -0.346 N 
HETATM   31  H16 UNL     1      -1.336  51.261 -12.749  1.00  0.00     0.163 HD
BRANCH  30  32
HETATM   32  C15 UNL     1      -1.959  52.964 -11.625  1.00  0.00     0.180 C 
BRANCH  32  33
HETATM   33  C16 UNL     1      -0.459  53.291 -11.446  1.00  0.00     0.241 C 
HETATM   34  O4  UNL     1      -0.065  54.408 -11.113  1.00  0.00    -0.271 OA
HETATM   35  N3  UNL     1       0.400  52.239 -11.672  1.00  0.00    -0.345 N 
HETATM   36  H18 UNL     1       0.062  51.468 -12.234  1.00  0.00     0.163 HD
BRANCH  35  37
HETATM   37  C17 UNL     1       1.855  52.429 -11.667  1.00  0.00     0.186 C 
BRANCH  37  38
HETATM   38  C18 UNL     1       2.412  52.540 -10.234  1.00  0.00     0.074 C 
BRANCH  38  39
HETATM   39  C19 UNL     1       3.636  53.425 -10.104  1.00  0.00    -0.056 A 
HETATM   40  C20 UNL     1       3.590  54.759 -10.534  1.00  0.00     0.007 A 
HETATM   41  C21 UNL     1       4.696  55.593 -10.365  1.00  0.00     0.001 A 
HETATM   42  C22 UNL     1       5.854  55.105  -9.770  1.00  0.00     0.000 A 
HETATM   43  C23 UNL     1       5.915  53.778  -9.352  1.00  0.00     0.001 A 
HETATM   44  C24 UNL     1       4.813  52.940  -9.522  1.00  0.00     0.007 A 
ENDBRANCH  38  39
ENDBRANCH  37  38
BRANCH  37  45
HETATM   45  C25 UNL     1       2.608  51.335 -12.433  1.00  0.00     0.163 C 
HETATM   46  O5  UNL     1       3.533  50.668 -11.997  1.00  0.00    -0.648 OA
BRANCH  45  47
HETATM   47  O6  UNL     1       2.137  51.091 -13.672  1.00  0.00    -0.775 OA
HETATM   48  H27 UNL     1       2.715  50.375 -14.010  1.00  0.00     0.167 HD
ENDBRANCH  45  47
ENDBRANCH  37  45
ENDBRANCH  35  37
ENDBRANCH  32  33
BRANCH  32  49
HETATM   49  C26 UNL     1      -2.669  52.440 -10.355  1.00  0.00     0.009 C 
HETATM   50  C27 UNL     1      -2.999  50.946 -10.427  1.00  0.00     0.012 C 
HETATM   51  C28 UNL     1      -1.898  52.747  -9.072  1.00  0.00     0.012 C 
ENDBRANCH  32  49
ENDBRANCH  30  32
ENDBRANCH  27  28
ENDBRANCH  26  27
ENDBRANCH  13  26
TORSDOF 12
ENDMDL
MODEL 3
REMARK minimizedAffinity -8.35827923
REMARK CNNscore 0.3586725
REMARK CNNaffinity 7.32398224
REMARK  12 active torsions:
REMARK  status: ('A' for Active; 'I' for Inactive)
REMARK    1  A    between atoms: C3_3  and  O1_4 
REMARK    2  A    between atoms: N1_14  and  O2_16 
REMARK    3  A    between atoms: O2_16  and  C13_17 
REMARK    4  A    between atoms: C13_17  and  C14_18 
REMARK       I    between atoms: C14_18  and  N2_20 
REMARK    5  A    between atoms: N2_20  and  C15_21 
REMARK    6  A    between atoms: C15_21  and  C16_22 
REMARK    7  A    between atoms: C15_21  and  C26_36 
REMARK       I    between atoms: C16_22  and  N3_24 
REMARK    8  A    between atoms: N3_24  and  C17_25 
REMARK    9  A    between atoms: C17_25  and  C18_26 
REMARK   10  A    between atoms: C17_25  and  C25_33 
REMARK   11  A    between atoms: C18_26  and  C19_27 
REMARK   12  A    between atoms: C25_33  and  O6_35 
ROOT
HETATM    1  C1  UNL     1      -2.933  51.036 -27.274  1.00  0.00     0.015 C 
HETATM    2  C2  UNL     1      -3.469  51.029 -26.200  1.00  0.00    -0.078 C 
HETATM    3  C3  UNL     1      -4.145  51.029 -24.882  1.00  0.00     0.128 C 
HETATM    4  C4  UNL     1      -5.003  49.778 -24.756  1.00  0.00     0.052 C 
HETATM    5  C5  UNL     1      -4.105  48.715 -24.124  1.00  0.00     0.010 C 
HETATM    6  C6  UNL     1      -2.827  49.429 -23.605  1.00  0.00     0.002 C 
HETATM    7  C7  UNL     1      -2.239  48.895 -22.253  1.00  0.00    -0.004 C 
HETATM    8  C8  UNL     1      -3.096  47.828 -21.534  1.00  0.00     0.010 C 
HETATM    9  C9  UNL     1      -2.471  47.308 -20.238  1.00  0.00     0.035 C 
HETATM   10  C10 UNL     1      -2.138  48.464 -19.332  1.00  0.00    -0.069 C 
HETATM   11  C11 UNL     1      -2.721  48.566 -18.127  1.00  0.00     0.030 C 
HETATM   12  C12 UNL     1      -2.595  49.784 -17.291  1.00  0.00     0.032 C 
HETATM   13  N1  UNL     1      -3.124  49.750 -16.099  1.00  0.00    -0.271 N 
ATOM     14  H1  UNL     1      -3.600  48.936 -15.708  1.00  0.00     0.194 HD
HETATM   15  C29 UNL     1      -1.969  51.008 -17.922  1.00  0.00     0.060 C 
HETATM   16  C30 UNL     1      -0.870  50.642 -18.909  1.00  0.00     0.020 C 
HETATM   17  C31 UNL     1      -1.204  49.508 -19.928  1.00  0.00    -0.016 C 
HETATM   18  C32 UNL     1       0.174  48.857 -20.248  1.00  0.00     0.020 C 
HETATM   19  C33 UNL     1      -1.836  50.037 -21.275  1.00  0.00     0.002 C 
HETATM   20  C34 UNL     1      -3.009  51.022 -21.079  1.00  0.00     0.007 C 
HETATM   21  C35 UNL     1      -3.841  51.347 -22.333  1.00  0.00     0.014 C 
HETATM   22  C36 UNL     1      -3.166  50.947 -23.664  1.00  0.00     0.003 C 
HETATM   23  C37 UNL     1      -1.951  51.876 -23.905  1.00  0.00     0.020 C 
ENDROOT
BRANCH   3  24
HETATM   24  O1  UNL     1      -4.965  52.187 -24.803  1.00  0.00    -0.377 OA
HETATM   25  H2  UNL     1      -5.526  52.190 -25.597  1.00  0.00     0.211 HD
ENDBRANCH   3  24
BRANCH  13  26
HETATM   26  O2  UNL     1      -2.961  50.966 -15.420  1.00  0.00    -0.271 OA
BRANCH  26  27
HETATM   27  C13 UNL     1      -2.488  50.700 -14.104  1.00  0.00     0.303 C 
BRANCH  27  28
HETATM   28  C14 UNL     1      -1.088  51.261 -13.906  1.00  0.00     0.244 C 
HETATM   29  O3  UNL     1      -0.887  52.405 -13.500  1.00  0.00    -0.271 OA
HETATM   30  N2  UNL     1      -0.072  50.370 -14.152  1.00  0.00    -0.346 N 
HETATM   31  H16 UNL     1      -0.298  49.464 -14.559  1.00  0.00     0.163 HD
BRANCH  30  32
HETATM   32  C15 UNL     1       1.339  50.701 -13.973  1.00  0.00     0.180 C 
BRANCH  32  33
HETATM   33  C16 UNL     1       1.507  51.153 -12.505  1.00  0.00     0.241 C 
HETATM   34  O4  UNL     1       1.519  50.355 -11.568  1.00  0.00    -0.271 OA
HETATM   35  N3  UNL     1       1.657  52.510 -12.324  1.00  0.00    -0.345 N 
HETATM   36  H18 UNL     1       1.328  53.122 -13.061  1.00  0.00     0.163 HD
BRANCH  35  37
HETATM   37  C17 UNL     1       1.698  53.100 -10.981  1.00  0.00     0.186 C 
BRANCH  37  38
HETATM   38  C18 UNL     1       0.705  52.411 -10.024  1.00  0.00     0.074 C 
BRANCH  38  39
HETATM   39  C19 UNL     1      -0.709  52.952 -10.095  1.00  0.00    -0.056 A 
HETATM   40  C20 UNL     1      -0.932  54.311 -10.358  1.00  0.00     0.007 A 
HETATM   41  C21 UNL     1      -2.232  54.802 -10.480  1.00  0.00     0.001 A 
HETATM   42  C22 UNL     1      -3.319  53.945 -10.339  1.00  0.00     0.000 A 
HETATM   43  C23 UNL     1      -3.109  52.596 -10.064  1.00  0.00     0.001 A 
HETATM   44  C24 UNL     1      -1.811  52.102  -9.938  1.00  0.00     0.007 A 
ENDBRANCH  38  39
ENDBRANCH  37  38
BRANCH  37  45
HETATM   45  C25 UNL     1       3.101  53.095 -10.364  1.00  0.00     0.163 C 
HETATM   46  O5  UNL     1       3.635  52.144  -9.815  1.00  0.00    -0.648 OA
BRANCH  45  47
HETATM   47  O6  UNL     1       3.784  54.249 -10.510  1.00  0.00    -0.775 OA
HETATM   48  H27 UNL     1       4.644  54.073 -10.074  1.00  0.00     0.167 HD
ENDBRANCH  45  47
ENDBRANCH  37  45
ENDBRANCH  35  37
ENDBRANCH  32  33
BRANCH  32  49
HETATM   49  C26 UNL     1       1.795  51.733 -15.030  1.00  0.00     0.009 C 
HETATM   50  C27 UNL     1       3.319  51.860 -15.124  1.00  0.00     0.012 C 
HETATM   51  C28 UNL     1       1.202  51.470 -16.413  1.00  0.00     0.012 C 
ENDBRANCH  32  49
ENDBRANCH  30  32
ENDBRANCH  27  28
ENDBRANCH  26  27
ENDBRANCH  13  26
TORSDOF 12
ENDMDL
MODEL 4
REMARK minimizedAffinity -9.77341461
REMARK CNNscore 0.321369588
REMARK CNNaffinity 7.31079149
REMARK  12 active torsions:
REMARK  status: ('A' for Active; 'I' for Inactive)
REMARK    1  A    between atoms: C3_3  and  O1_4 
REMARK    2  A    between atoms: N1_14  and  O2_16 
REMARK    3  A    between atoms: O2_16  and  C13_17 
REMARK    4  A    between atoms: C13_17  and  C14_18 
REMARK       I    between atoms: C14_18  and  N2_20 
REMARK    5  A    between atoms: N2_20  and  C15_21 
REMARK    6  A    between atoms: C15_21  and  C16_22 
REMARK    7  A    between atoms: C15_21  and  C26_36 
REMARK       I    between atoms: C16_22  and  N3_24 
REMARK    8  A    between atoms: N3_24  and  C17_25 
REMARK    9  A    between atoms: C17_25  and  C18_26 
REMARK   10  A    between atoms: C17_25  and  C25_33 
REMARK   11  A    between atoms: C18_26  and  C19_27 
REMARK   12  A    between atoms: C25_33  and  O6_35 
ROOT
HETATM    1  C1  UNL     1       0.171  51.728 -28.239  1.00  0.00     0.015 C 
HETATM    2  C2  UNL     1      -0.410  52.104 -27.257  1.00  0.00    -0.078 C 
HETATM    3  C3  UNL     1      -1.127  52.584 -26.053  1.00  0.00     0.128 C 
HETATM    4  C4  UNL     1      -2.626  52.425 -26.263  1.00  0.00     0.052 C 
HETATM    5  C5  UNL     1      -2.979  51.036 -25.732  1.00  0.00     0.010 C 
HETATM    6  C6  UNL     1      -1.750  50.510 -24.940  1.00  0.00     0.002 C 
HETATM    7  C7  UNL     1      -2.066  49.681 -23.647  1.00  0.00    -0.004 C 
HETATM    8  C8  UNL     1      -3.558  49.625 -23.244  1.00  0.00     0.010 C 
HETATM    9  C9  UNL     1      -3.827  48.778 -22.000  1.00  0.00     0.035 C 
HETATM   10  C10 UNL     1      -2.957  49.248 -20.864  1.00  0.00    -0.069 C 
HETATM   11  C11 UNL     1      -3.516  49.727 -19.741  1.00  0.00     0.030 C 
HETATM   12  C12 UNL     1      -2.716  50.397 -18.687  1.00  0.00     0.032 C 
HETATM   13  N1  UNL     1      -3.337  50.747 -17.594  1.00  0.00    -0.271 N 
ATOM     14  H1  UNL     1      -4.327  50.572 -17.419  1.00  0.00     0.194 HD
HETATM   15  C29 UNL     1      -1.274  50.729 -19.002  1.00  0.00     0.060 C 
HETATM   16  C30 UNL     1      -0.631  49.680 -19.899  1.00  0.00     0.020 C 
HETATM   17  C31 UNL     1      -1.461  49.228 -21.141  1.00  0.00    -0.016 C 
HETATM   18  C32 UNL     1      -0.996  47.766 -21.404  1.00  0.00     0.020 C 
HETATM   19  C33 UNL     1      -1.177  50.087 -22.435  1.00  0.00     0.002 C 
HETATM   20  C34 UNL     1      -1.238  51.613 -22.206  1.00  0.00     0.007 C 
HETATM   21  C35 UNL     1      -1.253  52.491 -23.471  1.00  0.00     0.014 C 
HETATM   22  C36 UNL     1      -0.829  51.753 -24.761  1.00  0.00     0.003 C 
HETATM   23  C37 UNL     1       0.683  51.435 -24.679  1.00  0.00     0.020 C 
ENDROOT
BRANCH   3  24
HETATM   24  O1  UNL     1      -0.809  53.956 -25.864  1.00  0.00    -0.377 OA
HETATM   25  H2  UNL     1      -0.990  54.407 -26.707  1.00  0.00     0.211 HD
ENDBRANCH   3  24
BRANCH  13  26
HETATM   26  O2  UNL     1      -2.481  51.391 -16.690  1.00  0.00    -0.271 OA
BRANCH  26  27
HETATM   27  C13 UNL     1      -2.245  50.528 -15.583  1.00  0.00     0.303 C 
BRANCH  27  28
HETATM   28  C14 UNL     1      -0.754  50.306 -15.376  1.00  0.00     0.244 C 
HETATM   29  O3  UNL     1      -0.215  49.219 -15.577  1.00  0.00    -0.271 OA
HETATM   30  N2  UNL     1      -0.052  51.428 -15.011  1.00  0.00    -0.346 N 
HETATM   31  H16 UNL     1      -0.563  52.279 -14.784  1.00  0.00     0.163 HD
BRANCH  30  32
HETATM   32  C15 UNL     1       1.395  51.433 -14.811  1.00  0.00     0.180 C 
BRANCH  32  33
HETATM   33  C16 UNL     1       1.637  51.704 -13.309  1.00  0.00     0.241 C 
HETATM   34  O4  UNL     1       2.493  51.102 -12.661  1.00  0.00    -0.271 OA
HETATM   35  N3  UNL     1       0.836  52.677 -12.754  1.00  0.00    -0.345 N 
HETATM   36  H18 UNL     1      -0.032  52.899 -13.227  1.00  0.00     0.163 HD
BRANCH  35  37
HETATM   37  C17 UNL     1       0.861  52.954 -11.313  1.00  0.00     0.186 C 
BRANCH  37  38
HETATM   38  C18 UNL     1       0.511  54.424 -11.007  1.00  0.00     0.074 C 
BRANCH  38  39
HETATM   39  C19 UNL     1       1.589  55.181 -10.257  1.00  0.00    -0.056 A 
HETATM   40  C20 UNL     1       2.752  55.596 -10.923  1.00  0.00     0.007 A 
HETATM   41  C21 UNL     1       3.721  56.341 -10.251  1.00  0.00     0.001 A 
HETATM   42  C22 UNL     1       3.541  56.677  -8.913  1.00  0.00     0.000 A 
HETATM   43  C23 UNL     1       2.396  56.259  -8.240  1.00  0.00     0.001 A 
HETATM   44  C24 UNL     1       1.426  55.510  -8.907  1.00  0.00     0.007 A 
ENDBRANCH  38  39
ENDBRANCH  37  38
BRANCH  37  45
HETATM   45  C25 UNL     1      -0.053  52.024 -10.506  1.00  0.00     0.163 C 
HETATM   46  O5  UNL     1       0.222  50.889 -10.149  1.00  0.00    -0.648 OA
BRANCH  45  47
HETATM   47  O6  UNL     1      -1.230  52.571 -10.141  1.00  0.00    -0.775 OA
HETATM   48  H27 UNL     1      -1.677  51.858  -9.638  1.00  0.00     0.167 HD
ENDBRANCH  45  47
ENDBRANCH  37  45
ENDBRANCH  35  37
ENDBRANCH  32  33
BRANCH  32  49
HETATM   49  C26 UNL     1       2.074  52.436 -15.773  1.00  0.00     0.009 C 
HETATM   50  C27 UNL     1       3.577  52.187 -15.934  1.00  0.00     0.012 C 
HETATM   51  C28 UNL     1       1.401  52.496 -17.143  1.00  0.00     0.012 C 
ENDBRANCH  32  49
ENDBRANCH  30  32
ENDBRANCH  27  28
ENDBRANCH  26  27
ENDBRANCH  13  26
TORSDOF 12
ENDMDL
MODEL 5
REMARK minimizedAffinity -8.60488319
REMARK CNNscore 0.288367659
REMARK CNNaffinity 5.84311533
REMARK  12 active torsions:
REMARK  status: ('A' for Active; 'I' for Inactive)
REMARK    1  A    between atoms: C3_3  and  O1_4 
REMARK    2  A    between atoms: N1_14  and  O2_16 
REMARK    3  A    between atoms: O2_16  and  C13_17 
REMARK    4  A    between atoms: C13_17  and  C14_18 
REMARK       I    between atoms: C14_18  and  N2_20 
REMARK    5  A    between atoms: N2_20  and  C15_21 
REMARK    6  A    between atoms: C15_21  and  C16_22 
REMARK    7  A    between atoms: C15_21  and  C26_36 
REMARK       I    between atoms: C16_22  and  N3_24 
REMARK    8  A    between atoms: N3_24  and  C17_25 
REMARK    9  A    between atoms: C17_25  and  C18_26 
REMARK   10  A    between atoms: C17_25  and  C25_33 
REMARK   11  A    between atoms: C18_26  and  C19_27 
REMARK   12  A    between atoms: C25_33  and  O6_35 
ROOT
HETATM    1  C1  UNL     1      -1.037  71.845 -44.873  1.00  0.00     0.015 C 
HETATM    2  C2  UNL     1       0.006  71.402 -44.474  1.00  0.00    -0.078 C 
HETATM    3  C3  UNL     1       1.298  70.855 -43.999  1.00  0.00     0.128 C 
HETATM    4  C4  UNL     1       2.287  71.995 -43.805  1.00  0.00     0.052 C 
HETATM    5  C5  UNL     1       2.122  72.451 -42.355  1.00  0.00     0.010 C 
HETATM    6  C6  UNL     1       1.261  71.385 -41.623  1.00  0.00     0.002 C 
HETATM    7  C7  UNL     1       1.658  71.080 -40.137  1.00  0.00    -0.004 C 
HETATM    8  C8  UNL     1       2.951  71.769 -39.642  1.00  0.00     0.010 C 
HETATM    9  C9  UNL     1       3.282  71.476 -38.178  1.00  0.00     0.035 C 
HETATM   10  C10 UNL     1       3.318  69.987 -37.952  1.00  0.00    -0.069 C 
HETATM   11  C11 UNL     1       4.453  69.394 -37.547  1.00  0.00     0.030 C 
HETATM   12  C12 UNL     1       4.604  67.919 -37.516  1.00  0.00     0.032 C 
HETATM   13  N1  UNL     1       5.712  67.440 -37.023  1.00  0.00    -0.271 N 
ATOM     14  H1  UNL     1       6.466  68.016 -36.646  1.00  0.00     0.194 HD
HETATM   15  C29 UNL     1       3.517  67.087 -38.163  1.00  0.00     0.060 C 
HETATM   16  C30 UNL     1       2.142  67.719 -37.999  1.00  0.00     0.020 C 
HETATM   17  C31 UNL     1       2.039  69.245 -38.311  1.00  0.00    -0.016 C 
HETATM   18  C32 UNL     1       0.872  69.745 -37.409  1.00  0.00     0.020 C 
HETATM   19  C33 UNL     1       1.681  69.558 -39.817  1.00  0.00     0.002 C 
HETATM   20  C34 UNL     1       2.552  68.801 -40.843  1.00  0.00     0.007 C 
HETATM   21  C35 UNL     1       2.445  69.273 -42.305  1.00  0.00     0.014 C 
HETATM   22  C36 UNL     1       1.221  70.169 -42.594  1.00  0.00     0.003 C 
HETATM   23  C37 UNL     1      -0.061  69.306 -42.502  1.00  0.00     0.020 C 
ENDROOT
BRANCH   3  24
HETATM   24  O1  UNL     1       1.787  69.953 -44.983  1.00  0.00    -0.377 OA
HETATM   25  H2  UNL     1       1.784  70.431 -45.830  1.00  0.00     0.211 HD
ENDBRANCH   3  24
BRANCH  13  26
HETATM   26  O2  UNL     1       5.744  66.039 -37.073  1.00  0.00    -0.271 OA
BRANCH  26  27
HETATM   27  C13 UNL     1       7.093  65.613 -37.235  1.00  0.00     0.303 C 
BRANCH  27  28
HETATM   28  C14 UNL     1       7.397  64.422 -36.339  1.00  0.00     0.244 C 
HETATM   29  O3  UNL     1       8.362  63.683 -36.530  1.00  0.00    -0.271 OA
HETATM   30  N2  UNL     1       6.551  64.278 -35.267  1.00  0.00    -0.346 N 
HETATM   31  H16 UNL     1       5.727  64.873 -35.205  1.00  0.00     0.163 HD
BRANCH  30  32
HETATM   32  C15 UNL     1       6.706  63.228 -34.265  1.00  0.00     0.180 C 
BRANCH  32  33
HETATM   33  C16 UNL     1       8.172  63.288 -33.779  1.00  0.00     0.241 C 
HETATM   34  O4  UNL     1       8.639  64.279 -33.219  1.00  0.00    -0.271 OA
HETATM   35  N3  UNL     1       8.910  62.148 -34.006  1.00  0.00    -0.345 N 
HETATM   36  H18 UNL     1       8.589  61.515 -34.728  1.00  0.00     0.163 HD
BRANCH  35  37
HETATM   37  C17 UNL     1      10.349  62.102 -33.717  1.00  0.00     0.186 C 
BRANCH  37  38
HETATM   38  C18 UNL     1      11.105  63.260 -34.398  1.00  0.00     0.074 C 
BRANCH  38  39
HETATM   39  C19 UNL     1      11.940  62.845 -35.593  1.00  0.00    -0.056 A 
HETATM   40  C20 UNL     1      11.346  62.172 -36.670  1.00  0.00     0.007 A 
HETATM   41  C21 UNL     1      12.099  61.838 -37.796  1.00  0.00     0.001 A 
HETATM   42  C22 UNL     1      13.448  62.170 -37.857  1.00  0.00     0.000 A 
HETATM   43  C23 UNL     1      14.052  62.826 -36.787  1.00  0.00     0.001 A 
HETATM   44  C24 UNL     1      13.303  63.159 -35.658  1.00  0.00     0.007 A 
ENDBRANCH  38  39
ENDBRANCH  37  38
BRANCH  37  45
HETATM   45  C25 UNL     1      10.661  62.089 -32.217  1.00  0.00     0.163 C 
HETATM   46  O5  UNL     1      11.555  62.715 -31.669  1.00  0.00    -0.648 OA
BRANCH  45  47
HETATM   47  O6  UNL     1       9.816  61.347 -31.473  1.00  0.00    -0.775 OA
HETATM   48  H27 UNL     1      10.149  61.454 -30.557  1.00  0.00     0.167 HD
ENDBRANCH  45  47
ENDBRANCH  37  45
ENDBRANCH  35  37
ENDBRANCH  32  33
BRANCH  32  49
HETATM   49  C26 UNL     1       6.263  61.861 -34.836  1.00  0.00     0.009 C 
HETATM   50  C27 UNL     1       7.308  60.759 -34.630  1.00  0.00     0.012 C 
HETATM   51  C28 UNL     1       4.905  61.405 -34.305  1.00  0.00     0.012 C 
ENDBRANCH  32  49
ENDBRANCH  30  32
ENDBRANCH  27  28
ENDBRANCH  26  27
ENDBRANCH  13  26
TORSDOF 12
ENDMDL
MODEL 6
REMARK minimizedAffinity -8.59907818
REMARK CNNscore 0.281737804
REMARK CNNaffinity 6.92247725
REMARK  12 active torsions:
REMARK  status: ('A' for Active; 'I' for Inactive)
REMARK    1  A    between atoms: C3_3  and  O1_4 
REMARK    2  A    between atoms: N1_14  and  O2_16 
REMARK    3  A    between atoms: O2_16  and  C13_17 
REMARK    4  A    between atoms: C13_17  and  C14_18 
REMARK       I    between atoms: C14_18  and  N2_20 
REMARK    5  A    between atoms: N2_20  and  C15_21 
REMARK    6  A    between atoms: C15_21  and  C16_22 
REMARK    7  A    between atoms: C15_21  and  C26_36 
REMARK       I    between atoms: C16_22  and  N3_24 
REMARK    8  A    between atoms: N3_24  and  C17_25 
REMARK    9  A    between atoms: C17_25  and  C18_26 
REMARK   10  A    between atoms: C17_25  and  C25_33 
REMARK   11  A    between atoms: C18_26  and  C19_27 
REMARK   12  A    between atoms: C25_33  and  O6_35 
ROOT
HETATM    1  C1  UNL     1      -2.830  50.942 -27.514  1.00  0.00     0.015 C 
HETATM    2  C2  UNL     1      -2.934  51.386 -26.403  1.00  0.00    -0.078 C 
HETATM    3  C3  UNL     1      -3.061  51.950 -25.039  1.00  0.00     0.128 C 
HETATM    4  C4  UNL     1      -4.534  52.157 -24.715  1.00  0.00     0.052 C 
HETATM    5  C5  UNL     1      -5.005  50.860 -24.057  1.00  0.00     0.010 C 
HETATM    6  C6  UNL     1      -3.743  50.018 -23.723  1.00  0.00     0.002 C 
HETATM    7  C7  UNL     1      -3.787  49.212 -22.379  1.00  0.00    -0.004 C 
HETATM    8  C8  UNL     1      -5.019  49.482 -21.485  1.00  0.00     0.010 C 
HETATM    9  C9  UNL     1      -5.042  48.651 -20.201  1.00  0.00     0.035 C 
HETATM   10  C10 UNL     1      -3.751  48.839 -19.448  1.00  0.00    -0.069 C 
HETATM   11  C11 UNL     1      -3.762  49.370 -18.215  1.00  0.00     0.030 C 
HETATM   12  C12 UNL     1      -2.515  49.773 -17.520  1.00  0.00     0.032 C 
HETATM   13  N1  UNL     1      -2.625  50.195 -16.290  1.00  0.00    -0.271 N 
ATOM     14  H1  UNL     1      -3.507  50.246 -15.780  1.00  0.00     0.194 HD
HETATM   15  C29 UNL     1      -1.233  49.778 -18.322  1.00  0.00     0.060 C 
HETATM   16  C30 UNL     1      -1.204  48.661 -19.357  1.00  0.00     0.020 C 
HETATM   17  C31 UNL     1      -2.490  48.488 -20.224  1.00  0.00    -0.016 C 
HETATM   18  C32 UNL     1      -2.506  46.974 -20.591  1.00  0.00     0.020 C 
HETATM   19  C33 UNL     1      -2.469  49.330 -21.559  1.00  0.00     0.002 C 
HETATM   20  C34 UNL     1      -2.082  50.812 -21.365  1.00  0.00     0.007 C 
HETATM   21  C35 UNL     1      -2.318  51.740 -22.571  1.00  0.00     0.014 C 
HETATM   22  C36 UNL     1      -2.548  50.999 -23.907  1.00  0.00     0.003 C 
HETATM   23  C37 UNL     1      -1.220  50.333 -24.342  1.00  0.00     0.020 C 
ENDROOT
BRANCH   3  24
HETATM   24  O1  UNL     1      -2.380  53.196 -25.009  1.00  0.00    -0.377 OA
HETATM   25  H2  UNL     1      -2.725  53.725 -25.749  1.00  0.00     0.211 HD
ENDBRANCH   3  24
BRANCH  13  26
HETATM   26  O2  UNL     1      -1.384  50.569 -15.754  1.00  0.00    -0.271 OA
BRANCH  26  27
HETATM   27  C13 UNL     1      -1.579  51.046 -14.427  1.00  0.00     0.303 C 
BRANCH  27  28
HETATM   28  C14 UNL     1      -0.438  50.611 -13.520  1.00  0.00     0.244 C 
HETATM   29  O3  UNL     1      -0.461  49.553 -12.893  1.00  0.00    -0.271 OA
HETATM   30  N2  UNL     1       0.642  51.459 -13.509  1.00  0.00    -0.346 N 
HETATM   31  H16 UNL     1       0.571  52.356 -13.987  1.00  0.00     0.163 HD
BRANCH  30  32
HETATM   32  C15 UNL     1       1.855  51.194 -12.741  1.00  0.00     0.180 C 
BRANCH  32  33
HETATM   33  C16 UNL     1       1.803  52.108 -11.496  1.00  0.00     0.241 C 
HETATM   34  O4  UNL     1       2.321  51.792 -10.425  1.00  0.00    -0.271 OA
HETATM   35  N3  UNL     1       1.149  53.306 -11.678  1.00  0.00    -0.345 N 
HETATM   36  H18 UNL     1       0.490  53.371 -12.444  1.00  0.00     0.163 HD
BRANCH  35  37
HETATM   37  C17 UNL     1       0.907  54.220 -10.555  1.00  0.00     0.186 C 
BRANCH  37  38
HETATM   38  C18 UNL     1       1.817  55.462 -10.623  1.00  0.00     0.074 C 
BRANCH  38  39
HETATM   39  C19 UNL     1       2.530  55.788  -9.325  1.00  0.00    -0.056 A 
HETATM   40  C20 UNL     1       3.659  56.620  -9.330  1.00  0.00     0.007 A 
HETATM   41  C21 UNL     1       4.284  56.968  -8.132  1.00  0.00     0.001 A 
HETATM   42  C22 UNL     1       3.792  56.488  -6.923  1.00  0.00     0.000 A 
HETATM   43  C23 UNL     1       2.681  55.650  -6.908  1.00  0.00     0.001 A 
HETATM   44  C24 UNL     1       2.054  55.297  -8.104  1.00  0.00     0.007 A 
ENDBRANCH  38  39
ENDBRANCH  37  38
BRANCH  37  45
HETATM   45  C25 UNL     1      -0.558  54.655 -10.439  1.00  0.00     0.163 C 
HETATM   46  O5  UNL     1      -0.983  55.542  -9.714  1.00  0.00    -0.648 OA
BRANCH  45  47
HETATM   47  O6  UNL     1      -1.404  54.008 -11.265  1.00  0.00    -0.775 OA
HETATM   48  H27 UNL     1      -2.279  54.406 -11.069  1.00  0.00     0.167 HD
ENDBRANCH  45  47
ENDBRANCH  37  45
ENDBRANCH  35  37
ENDBRANCH  32  33
BRANCH  32  49
HETATM   49  C26 UNL     1       3.110  51.369 -13.628  1.00  0.00     0.009 C 
HETATM   50  C27 UNL     1       4.018  50.135 -13.630  1.00  0.00     0.012 C 
HETATM   51  C28 UNL     1       2.774  51.778 -15.060  1.00  0.00     0.012 C 
ENDBRANCH  32  49
ENDBRANCH  30  32
ENDBRANCH  27  28
ENDBRANCH  26  27
ENDBRANCH  13  26
TORSDOF 12
ENDMDL
MODEL 7
REMARK minimizedAffinity -9.55422401
REMARK CNNscore 0.266815335
REMARK CNNaffinity 7.23910904
REMARK  12 active torsions:
REMARK  status: ('A' for Active; 'I' for Inactive)
REMARK    1  A    between atoms: C3_3  and  O1_4 
REMARK    2  A    between atoms: N1_14  and  O2_16 
REMARK    3  A    between atoms: O2_16  and  C13_17 
REMARK    4  A    between atoms: C13_17  and  C14_18 
REMARK       I    between atoms: C14_18  and  N2_20 
REMARK    5  A    between atoms: N2_20  and  C15_21 
REMARK    6  A    between atoms: C15_21  and  C16_22 
REMARK    7  A    between atoms: C15_21  and  C26_36 
REMARK       I    between atoms: C16_22  and  N3_24 
REMARK    8  A    between atoms: N3_24  and  C17_25 
REMARK    9  A    between atoms: C17_25  and  C18_26 
REMARK   10  A    between atoms: C17_25  and  C25_33 
REMARK   11  A    between atoms: C18_26  and  C19_27 
REMARK   12  A    between atoms: C25_33  and  O6_35 
ROOT
HETATM    1  C1  UNL     1       0.170  51.756 -28.250  1.00  0.00     0.015 C 
HETATM    2  C2  UNL     1      -0.392  52.137 -27.259  1.00  0.00    -0.078 C 
HETATM    3  C3  UNL     1      -1.085  52.623 -26.044  1.00  0.00     0.128 C 
HETATM    4  C4  UNL     1      -2.589  52.521 -26.247  1.00  0.00     0.052 C 
HETATM    5  C5  UNL     1      -2.989  51.137 -25.734  1.00  0.00     0.010 C 
HETATM    6  C6  UNL     1      -1.774  50.556 -24.958  1.00  0.00     0.002 C 
HETATM    7  C7  UNL     1      -2.112  49.719 -23.676  1.00  0.00    -0.004 C 
HETATM    8  C8  UNL     1      -3.602  49.710 -23.265  1.00  0.00     0.010 C 
HETATM    9  C9  UNL     1      -3.895  48.853 -22.032  1.00  0.00     0.035 C 
HETATM   10  C10 UNL     1      -3.002  49.275 -20.894  1.00  0.00    -0.069 C 
HETATM   11  C11 UNL     1      -3.536  49.756 -19.760  1.00  0.00     0.030 C 
HETATM   12  C12 UNL     1      -2.707  50.381 -18.701  1.00  0.00     0.032 C 
HETATM   13  N1  UNL     1      -3.310  50.736 -17.600  1.00  0.00    -0.271 N 
ATOM     14  H1  UNL     1      -4.304  50.594 -17.421  1.00  0.00     0.194 HD
HETATM   15  C29 UNL     1      -1.256  50.666 -19.021  1.00  0.00     0.060 C 
HETATM   16  C30 UNL     1      -0.656  49.610 -19.938  1.00  0.00     0.020 C 
HETATM   17  C31 UNL     1      -1.509  49.206 -21.181  1.00  0.00    -0.016 C 
HETATM   18  C32 UNL     1      -1.098  47.732 -21.470  1.00  0.00     0.020 C 
HETATM   19  C33 UNL     1      -1.203  50.075 -22.464  1.00  0.00     0.002 C 
HETATM   20  C34 UNL     1      -1.208  51.598 -22.212  1.00  0.00     0.007 C 
HETATM   21  C35 UNL     1      -1.199  52.495 -23.463  1.00  0.00     0.014 C 
HETATM   22  C36 UNL     1      -0.809  51.762 -24.766  1.00  0.00     0.003 C 
HETATM   23  C37 UNL     1       0.692  51.390 -24.698  1.00  0.00     0.020 C 
ENDROOT
BRANCH   3  24
HETATM   24  O1  UNL     1      -0.716  53.980 -25.836  1.00  0.00    -0.377 OA
HETATM   25  H2  UNL     1      -0.887  54.450 -26.671  1.00  0.00     0.211 HD
ENDBRANCH   3  24
BRANCH  13  26
HETATM   26  O2  UNL     1      -2.426  51.336 -16.691  1.00  0.00    -0.271 OA
BRANCH  26  27
HETATM   27  C13 UNL     1      -2.122  50.403 -15.659  1.00  0.00     0.303 C 
BRANCH  27  28
HETATM   28  C14 UNL     1      -0.618  50.247 -15.494  1.00  0.00     0.244 C 
HETATM   29  O3  UNL     1      -0.060  49.152 -15.546  1.00  0.00    -0.271 OA
HETATM   30  N2  UNL     1       0.070  51.426 -15.349  1.00  0.00    -0.346 N 
HETATM   31  H16 UNL     1      -0.454  52.293 -15.235  1.00  0.00     0.163 HD
BRANCH  30  32
HETATM   32  C15 UNL     1       1.523  51.492 -15.225  1.00  0.00     0.180 C 
BRANCH  32  33
HETATM   33  C16 UNL     1       1.832  51.762 -13.735  1.00  0.00     0.241 C 
HETATM   34  O4  UNL     1       2.873  51.382 -13.200  1.00  0.00    -0.271 OA
HETATM   35  N3  UNL     1       0.867  52.472 -13.057  1.00  0.00    -0.345 N 
HETATM   36  H18 UNL     1      -0.071  52.475 -13.441  1.00  0.00     0.163 HD
BRANCH  35  37
HETATM   37  C17 UNL     1       0.960  52.693 -11.609  1.00  0.00     0.186 C 
BRANCH  37  38
HETATM   38  C18 UNL     1       0.030  53.831 -11.144  1.00  0.00     0.074 C 
BRANCH  38  39
HETATM   39  C19 UNL     1      -1.448  53.498 -11.213  1.00  0.00    -0.056 A 
HETATM   40  C20 UNL     1      -1.949  52.724 -12.270  1.00  0.00     0.007 A 
HETATM   41  C21 UNL     1      -3.297  52.369 -12.306  1.00  0.00     0.001 A 
HETATM   42  C22 UNL     1      -4.156  52.781 -11.294  1.00  0.00     0.000 A 
HETATM   43  C23 UNL     1      -3.672  53.561 -10.247  1.00  0.00     0.001 A 
HETATM   44  C24 UNL     1      -2.325  53.922 -10.207  1.00  0.00     0.007 A 
ENDBRANCH  38  39
ENDBRANCH  37  38
BRANCH  37  45
HETATM   45  C25 UNL     1       0.682  51.428 -10.788  1.00  0.00     0.163 C 
HETATM   46  O5  UNL     1      -0.006  50.484 -11.145  1.00  0.00    -0.648 OA
BRANCH  45  47
HETATM   47  O6  UNL     1       1.316  51.379  -9.599  1.00  0.00    -0.775 OA
HETATM   48  H27 UNL     1       1.039  50.519  -9.218  1.00  0.00     0.167 HD
ENDBRANCH  45  47
ENDBRANCH  37  45
ENDBRANCH  35  37
ENDBRANCH  32  33
BRANCH  32  49
HETATM   49  C26 UNL     1       2.107  52.529 -16.212  1.00  0.00     0.009 C 
HETATM   50  C27 UNL     1       3.622  52.394 -16.396  1.00  0.00     0.012 C 
HETATM   51  C28 UNL     1       1.409  52.518 -17.571  1.00  0.00     0.012 C 
ENDBRANCH  32  49
ENDBRANCH  30  32
ENDBRANCH  27  28
ENDBRANCH  26  27
ENDBRANCH  13  26
TORSDOF 12
ENDMDL
MODEL 8
REMARK minimizedAffinity -9.24125862
REMARK CNNscore 0.211775064
REMARK CNNaffinity 7.22336054
REMARK  12 active torsions:
REMARK  status: ('A' for Active; 'I' for Inactive)
REMARK    1  A    between atoms: C3_3  and  O1_4 
REMARK    2  A    between atoms: N1_14  and  O2_16 
REMARK    3  A    between atoms: O2_16  and  C13_17 
REMARK    4  A    between atoms: C13_17  and  C14_18 
REMARK       I    between atoms: C14_18  and  N2_20 
REMARK    5  A    between atoms: N2_20  and  C15_21 
REMARK    6  A    between atoms: C15_21  and  C16_22 
REMARK    7  A    between atoms: C15_21  and  C26_36 
REMARK       I    between atoms: C16_22  and  N3_24 
REMARK    8  A    between atoms: N3_24  and  C17_25 
REMARK    9  A    between atoms: C17_25  and  C18_26 
REMARK   10  A    between atoms: C17_25  and  C25_33 
REMARK   11  A    between atoms: C18_26  and  C19_27 
REMARK   12  A    between atoms: C25_33  and  O6_35 
ROOT
HETATM    1  C1  UNL     1      -2.246  50.165  -7.901  1.00  0.00     0.015 C 
HETATM    2  C2  UNL     1      -2.091  50.928  -8.816  1.00  0.00    -0.078 C 
HETATM    3  C3  UNL     1      -1.912  51.880  -9.937  1.00  0.00     0.128 C 
HETATM    4  C4  UNL     1      -0.795  52.855  -9.595  1.00  0.00     0.052 C 
HETATM    5  C5  UNL     1       0.492  52.224 -10.127  1.00  0.00     0.010 C 
HETATM    6  C6  UNL     1       0.087  51.035 -11.041  1.00  0.00     0.002 C 
HETATM    7  C7  UNL     1       0.967  50.817 -12.320  1.00  0.00    -0.004 C 
HETATM    8  C8  UNL     1       2.029  51.909 -12.586  1.00  0.00     0.010 C 
HETATM    9  C9  UNL     1       2.890  51.641 -13.822  1.00  0.00     0.035 C 
HETATM   10  C10 UNL     1       2.006  51.415 -15.021  1.00  0.00    -0.069 C 
HETATM   11  C11 UNL     1       2.076  52.243 -16.076  1.00  0.00     0.030 C 
HETATM   12  C12 UNL     1       1.088  52.196 -17.181  1.00  0.00     0.032 C 
HETATM   13  N1  UNL     1       1.294  52.980 -18.203  1.00  0.00    -0.271 N 
ATOM     14  H1  UNL     1       2.096  53.604 -18.291  1.00  0.00     0.194 HD
HETATM   15  C29 UNL     1      -0.141  51.334 -16.990  1.00  0.00     0.060 C 
HETATM   16  C30 UNL     1       0.162  50.080 -16.182  1.00  0.00     0.020 C 
HETATM   17  C31 UNL     1       1.002  50.280 -14.881  1.00  0.00    -0.016 C 
HETATM   18  C32 UNL     1       1.759  48.931 -14.699  1.00  0.00     0.020 C 
HETATM   19  C33 UNL     1       0.121  50.541 -13.597  1.00  0.00     0.002 C 
HETATM   20  C34 UNL     1      -0.955  51.632 -13.781  1.00  0.00     0.007 C 
HETATM   21  C35 UNL     1      -1.648  52.127 -12.498  1.00  0.00     0.014 C 
HETATM   22  C36 UNL     1      -1.443  51.210 -11.272  1.00  0.00     0.003 C 
HETATM   23  C37 UNL     1      -2.222  49.892 -11.500  1.00  0.00     0.020 C 
ENDROOT
BRANCH   3  24
HETATM   24  O1  UNL     1      -3.131  52.586 -10.119  1.00  0.00    -0.377 OA
HETATM   25  H2  UNL     1      -3.378  52.952  -9.252  1.00  0.00     0.211 HD
ENDBRANCH   3  24
BRANCH  13  26
HETATM   26  O2  UNL     1       0.281  52.862 -19.165  1.00  0.00    -0.271 OA
BRANCH  26  27
HETATM   27  C13 UNL     1       0.783  53.306 -20.421  1.00  0.00     0.303 C 
BRANCH  27  28
HETATM   28  C14 UNL     1       0.424  52.325 -21.527  1.00  0.00     0.244 C 
HETATM   29  O3  UNL     1       0.889  52.412 -22.662  1.00  0.00    -0.271 OA
HETATM   30  N2  UNL     1      -0.405  51.301 -21.139  1.00  0.00    -0.346 N 
HETATM   31  H16 UNL     1      -0.818  51.325 -20.208  1.00  0.00     0.163 HD
BRANCH  30  32
HETATM   32  C15 UNL     1      -0.825  50.231 -22.040  1.00  0.00     0.180 C 
BRANCH  32  33
HETATM   33  C16 UNL     1      -2.060  50.755 -22.808  1.00  0.00     0.241 C 
HETATM   34  O4  UNL     1      -2.851  51.558 -22.313  1.00  0.00    -0.271 OA
HETATM   35  N3  UNL     1      -2.201  50.271 -24.089  1.00  0.00    -0.345 N 
HETATM   36  H18 UNL     1      -1.729  49.405 -24.319  1.00  0.00     0.163 HD
BRANCH  35  37
HETATM   37  C17 UNL     1      -3.390  50.577 -24.893  1.00  0.00     0.186 C 
BRANCH  37  38
HETATM   38  C18 UNL     1      -3.084  50.538 -26.403  1.00  0.00     0.074 C 
BRANCH  38  39
HETATM   39  C19 UNL     1      -1.838  51.301 -26.809  1.00  0.00    -0.056 A 
HETATM   40  C20 UNL     1      -0.575  50.702 -26.692  1.00  0.00     0.007 A 
HETATM   41  C21 UNL     1       0.568  51.378 -27.117  1.00  0.00     0.001 A 
HETATM   42  C22 UNL     1       0.464  52.655 -27.658  1.00  0.00     0.000 A 
HETATM   43  C23 UNL     1      -0.783  53.264 -27.766  1.00  0.00     0.001 A 
HETATM   44  C24 UNL     1      -1.929  52.593 -27.340  1.00  0.00     0.007 A 
ENDBRANCH  38  39
ENDBRANCH  37  38
BRANCH  37  45
HETATM   45  C25 UNL     1      -4.579  49.661 -24.581  1.00  0.00     0.163 C 
HETATM   46  O5  UNL     1      -4.771  48.554 -25.059  1.00  0.00    -0.648 OA
BRANCH  45  47
HETATM   47  O6  UNL     1      -5.432  50.143 -23.654  1.00  0.00    -0.775 OA
HETATM   48  H27 UNL     1      -6.114  49.444 -23.572  1.00  0.00     0.167 HD
ENDBRANCH  45  47
ENDBRANCH  37  45
ENDBRANCH  35  37
ENDBRANCH  32  33
BRANCH  32  49
HETATM   49  C26 UNL     1      -1.054  48.917 -21.257  1.00  0.00     0.009 C 
HETATM   50  C27 UNL     1      -1.090  49.124 -19.739  1.00  0.00     0.012 C 
HETATM   51  C28 UNL     1      -2.298  48.159 -21.715  1.00  0.00     0.012 C 
ENDBRANCH  32  49
ENDBRANCH  30  32
ENDBRANCH  27  28
ENDBRANCH  26  27
ENDBRANCH  13  26
TORSDOF 12
ENDMDL
MODEL 9
REMARK minimizedAffinity -8.95365047
REMARK CNNscore 0.204282463
REMARK CNNaffinity 6.45654488
REMARK  12 active torsions:
REMARK  status: ('A' for Active; 'I' for Inactive)
REMARK    1  A    between atoms: C3_3  and  O1_4 
REMARK    2  A    between atoms: N1_14  and  O2_16 
REMARK    3  A    between atoms: O2_16  and  C13_17 
REMARK    4  A    between atoms: C13_17  and  C14_18 
REMARK       I    between atoms: C14_18  and  N2_20 
REMARK    5  A    between atoms: N2_20  and  C15_21 
REMARK    6  A    between atoms: C15_21  and  C16_22 
REMARK    7  A    between atoms: C15_21  and  C26_36 
REMARK       I    between atoms: C16_22  and  N3_24 
REMARK    8  A    between atoms: N3_24  and  C17_25 
REMARK    9  A    between atoms: C17_25  and  C18_26 
REMARK   10  A    between atoms: C17_25  and  C25_33 
REMARK   11  A    between atoms: C18_26  and  C19_27 
REMARK   12  A    between atoms: C25_33  and  O6_35 
ROOT
HETATM    1  C1  UNL     1     -10.120  47.163 -20.980  1.00  0.00     0.015 C 
HETATM    2  C2  UNL     1      -9.141  47.618 -20.453  1.00  0.00    -0.078 C 
HETATM    3  C3  UNL     1      -7.944  48.183 -19.788  1.00  0.00     0.128 C 
HETATM    4  C4  UNL     1      -7.230  47.083 -19.017  1.00  0.00     0.052 C 
HETATM    5  C5  UNL     1      -6.216  46.479 -19.989  1.00  0.00     0.010 C 
HETATM    6  C6  UNL     1      -6.128  47.422 -21.220  1.00  0.00     0.002 C 
HETATM    7  C7  UNL     1      -4.704  47.600 -21.852  1.00  0.00    -0.004 C 
HETATM    8  C8  UNL     1      -3.546  46.934 -21.073  1.00  0.00     0.010 C 
HETATM    9  C9  UNL     1      -2.180  47.100 -21.741  1.00  0.00     0.035 C 
HETATM   10  C10 UNL     1      -1.914  48.559 -22.003  1.00  0.00    -0.069 C 
HETATM   11  C11 UNL     1      -0.868  49.168 -21.422  1.00  0.00     0.030 C 
HETATM   12  C12 UNL     1      -0.684  50.639 -21.473  1.00  0.00     0.032 C 
HETATM   13  N1  UNL     1       0.411  51.125 -20.956  1.00  0.00    -0.271 N 
ATOM     14  H1  UNL     1       1.147  50.555 -20.538  1.00  0.00     0.194 HD
HETATM   15  C29 UNL     1      -1.827  51.472 -22.011  1.00  0.00     0.060 C 
HETATM   16  C30 UNL     1      -2.578  50.757 -23.125  1.00  0.00     0.020 C 
HETATM   17  C31 UNL     1      -2.955  49.265 -22.860  1.00  0.00    -0.016 C 
HETATM   18  C32 UNL     1      -2.993  48.619 -24.276  1.00  0.00     0.020 C 
HETATM   19  C33 UNL     1      -4.371  49.083 -22.185  1.00  0.00     0.002 C 
HETATM   20  C34 UNL     1      -4.602  49.981 -20.950  1.00  0.00     0.007 C 
HETATM   21  C35 UNL     1      -5.834  49.649 -20.089  1.00  0.00     0.014 C 
HETATM   22  C36 UNL     1      -6.860  48.723 -20.780  1.00  0.00     0.003 C 
HETATM   23  C37 UNL     1      -7.543  49.506 -21.928  1.00  0.00     0.020 C 
ENDROOT
BRANCH   3  24
HETATM   24  O1  UNL     1      -8.372  49.201 -18.893  1.00  0.00    -0.377 OA
HETATM   25  H2  UNL     1      -9.059  48.809 -18.327  1.00  0.00     0.211 HD
ENDBRANCH   3  24
BRANCH  13  26
HETATM   26  O2  UNL     1       0.453  52.524 -21.042  1.00  0.00    -0.271 OA
BRANCH  26  27
HETATM   27  C13 UNL     1       0.873  53.051 -19.789  1.00  0.00     0.303 C 
BRANCH  27  28
HETATM   28  C14 UNL     1       0.047  52.470 -18.651  1.00  0.00     0.244 C 
HETATM   29  O3  UNL     1      -1.180  52.553 -18.619  1.00  0.00    -0.271 OA
HETATM   30  N2  UNL     1       0.772  51.793 -17.702  1.00  0.00    -0.346 N 
HETATM   31  H16 UNL     1       1.789  51.825 -17.742  1.00  0.00     0.163 HD
BRANCH  30  32
HETATM   32  C15 UNL     1       0.158  51.123 -16.558  1.00  0.00     0.180 C 
BRANCH  32  33
HETATM   33  C16 UNL     1       0.925  51.595 -15.302  1.00  0.00     0.241 C 
HETATM   34  O4  UNL     1       0.774  52.719 -14.824  1.00  0.00    -0.271 OA
HETATM   35  N3  UNL     1       1.774  50.662 -14.750  1.00  0.00    -0.345 N 
HETATM   36  H18 UNL     1       2.091  49.905 -15.344  1.00  0.00     0.163 HD
BRANCH  35  37
HETATM   37  C17 UNL     1       2.663  51.008 -13.634  1.00  0.00     0.186 C 
BRANCH  37  38
HETATM   38  C18 UNL     1       1.896  51.096 -12.300  1.00  0.00     0.074 C 
BRANCH  38  39
HETATM   39  C19 UNL     1       1.871  52.481 -11.683  1.00  0.00    -0.056 A 
HETATM   40  C20 UNL     1       0.649  53.122 -11.437  1.00  0.00     0.007 A 
HETATM   41  C21 UNL     1       0.619  54.371 -10.818  1.00  0.00     0.001 A 
HETATM   42  C22 UNL     1       1.805  54.993 -10.441  1.00  0.00     0.000 A 
HETATM   43  C23 UNL     1       3.025  54.371 -10.694  1.00  0.00     0.001 A 
HETATM   44  C24 UNL     1       3.060  53.123 -11.315  1.00  0.00     0.007 A 
ENDBRANCH  38  39
ENDBRANCH  37  38
BRANCH  37  45
HETATM   45  C25 UNL     1       3.848  50.046 -13.489  1.00  0.00     0.163 C 
HETATM   46  O5  UNL     1       4.871  50.071 -14.155  1.00  0.00    -0.648 OA
BRANCH  45  47
HETATM   47  O6  UNL     1       3.723  49.146 -12.493  1.00  0.00    -0.775 OA
HETATM   48  H27 UNL     1       4.553  48.627 -12.536  1.00  0.00     0.167 HD
ENDBRANCH  45  47
ENDBRANCH  37  45
ENDBRANCH  35  37
ENDBRANCH  32  33
BRANCH  32  49
HETATM   49  C26 UNL     1       0.136  49.591 -16.772  1.00  0.00     0.009 C 
HETATM   50  C27 UNL     1      -0.263  48.817 -15.512  1.00  0.00     0.012 C 
HETATM   51  C28 UNL     1      -0.739  49.167 -17.950  1.00  0.00     0.012 C 
ENDBRANCH  32  49
ENDBRANCH  30  32
ENDBRANCH  27  28
ENDBRANCH  26  27
ENDBRANCH  13  26
TORSDOF 12
ENDMDL
