MODEL 1
REMARK minimizedAffinity -9.45445824
REMARK CNNscore 0.763566256
REMARK CNNaffinity 6.48430109
REMARK  6 active torsions:
REMARK  status: ('A' for Active; 'I' for Inactive)
REMARK    1  A    between atoms: C11_13  and  C12_14 
REMARK    2  A    between atoms: C12_14  and  O3_15 
REMARK    3  A    between atoms: C13_16  and  O4_17 
REMARK    4  A    between atoms: C22_27  and  O6_28 
REMARK    5  A    between atoms: C23_29  and  O7_30 
REMARK    6  A    between atoms: C29_37  and  C30_38 
ROOT
HETATM    1  C1  UNL     1       1.096  54.329 -24.441  1.00  0.00     0.046 C 
HETATM    2  C2  UNL     1       0.375  53.125 -23.896  1.00  0.00    -0.056 C 
HETATM    3  C3  UNL     1       0.671  52.625 -22.675  1.00  0.00    -0.004 C 
HETATM    4  C4  UNL     1      -0.087  51.483 -22.006  1.00  0.00     0.150 C 
HETATM    5  C5  UNL     1      -0.353  51.837 -20.541  1.00  0.00     0.270 C 
HETATM    6  O1  UNL     1      -0.656  52.954 -20.140  1.00  0.00    -0.264 OA
HETATM    7  O2  UNL     1      -0.248  50.728 -19.758  1.00  0.00    -0.315 OA
HETATM    8  C6  UNL     1      -0.636  50.840 -18.374  1.00  0.00     0.139 C 
HETATM    9  C7  UNL     1      -2.158  50.882 -18.237  1.00  0.00     0.065 C 
HETATM   10  C8  UNL     1      -2.629  50.562 -16.814  1.00  0.00     0.131 C 
HETATM   11  C9  UNL     1      -3.676  49.435 -16.612  1.00  0.00     0.059 C 
HETATM   12  C10 UNL     1      -3.767  48.313 -17.624  1.00  0.00    -0.017 C 
HETATM   13  C11 UNL     1      -4.829  48.009 -18.408  1.00  0.00    -0.031 C 
HETATM   14  C13 UNL     1      -4.911  46.792 -19.334  1.00  0.00     0.156 C 
HETATM   15  C14 UNL     1      -3.603  46.074 -19.788  1.00  0.00     0.037 C 
HETATM   16  C15 UNL     1      -3.901  44.907 -20.738  1.00  0.00     0.017 C 
HETATM   17  C16 UNL     1      -2.611  47.037 -20.395  1.00  0.00    -0.020 C 
HETATM   18  C17 UNL     1      -2.844  47.834 -21.452  1.00  0.00    -0.003 C 
HETATM   19  C18 UNL     1      -1.986  48.968 -21.695  1.00  0.00     0.008 C 
HETATM   20  C19 UNL     1      -2.166  49.924 -22.617  1.00  0.00    -0.019 C 
HETATM   21  C20 UNL     1      -3.067  49.878 -23.820  1.00  0.00     0.206 C 
HETATM   22  O5  UNL     1      -2.441  50.724 -24.816  1.00  0.00    -0.375 OA
HETATM   23  C21 UNL     1      -1.196  51.178 -24.243  1.00  0.00     0.194 C 
HETATM   24  C22 UNL     1      -0.721  52.539 -24.776  1.00  0.00     0.179 C 
HETATM   25  C23 UNL     1      -1.424  51.223 -22.731  1.00  0.00     0.128 C 
HETATM   26  O8  UNL     1      -1.569  50.455 -15.864  1.00  0.00    -0.349 OA
HETATM   27  C24 UNL     1      -0.407  49.694 -16.170  1.00  0.00     0.167 C 
HETATM   28  C25 UNL     1      -0.473  48.315 -15.513  1.00  0.00     0.069 C 
HETATM   29  C26 UNL     1      -0.658  48.425 -14.002  1.00  0.00     0.012 C 
HETATM   30  C27 UNL     1      -0.068  49.725 -13.426  1.00  0.00     0.011 C 
HETATM   31  C28 UNL     1       0.241  49.525 -11.944  1.00  0.00     0.012 C 
HETATM   32  C29 UNL     1       1.119  50.195 -14.301  1.00  0.00     0.132 C 
HETATM   33  O9  UNL     1       0.720  50.421 -15.663  1.00  0.00    -0.349 OA
HETATM   34  C33 UNL     1      -0.151  49.579 -17.673  1.00  0.00     0.101 C 
ENDROOT
BRANCH  32  35
HETATM   35  C30 UNL     1       1.821  51.487 -13.782  1.00  0.00     0.007 C 
HETATM   36  C31 UNL     1       2.956  51.202 -12.786  1.00  0.00     0.012 C 
HETATM   37  C32 UNL     1       0.827  52.442 -13.106  1.00  0.00     0.012 C 
ENDBRANCH  32  35
BRANCH  13  38
HETATM   38  C12 UNL     1      -6.092  48.843 -18.459  1.00  0.00     0.200 C 
BRANCH  38  39
HETATM   39  O3  UNL     1      -7.010  48.363 -17.488  1.00  0.00    -0.397 OA
HETATM   40  H15 UNL     1      -7.025  47.390 -17.578  1.00  0.00     0.209 HD
ENDBRANCH  38  39
ENDBRANCH  13  38
BRANCH  14  41
HETATM   41  O4  UNL     1      -5.767  45.858 -18.660  1.00  0.00    -0.390 OA
HETATM   42  H17 UNL     1      -5.296  45.581 -17.852  1.00  0.00     0.210 HD
ENDBRANCH  14  41
BRANCH  25  43
HETATM   43  O7  UNL     1      -2.405  52.230 -22.404  1.00  0.00    -0.381 OA
HETATM   44  H30 UNL     1      -1.958  53.054 -22.135  1.00  0.00     0.211 HD
ENDBRANCH  25  43
BRANCH  24  45
HETATM   45  O6  UNL     1      -0.210  52.396 -26.104  1.00  0.00    -0.389 OA
HETATM   46  H29 UNL     1       0.493  51.727 -26.082  1.00  0.00     0.210 HD
ENDBRANCH  24  45
TORSDOF 6
ENDMDL
MODEL 2
REMARK minimizedAffinity -10.9609509
REMARK CNNscore 0.715968788
REMARK CNNaffinity 6.79941607
REMARK  6 active torsions:
REMARK  status: ('A' for Active; 'I' for Inactive)
REMARK    1  A    between atoms: C11_13  and  C12_14 
REMARK    2  A    between atoms: C12_14  and  O3_15 
REMARK    3  A    between atoms: C13_16  and  O4_17 
REMARK    4  A    between atoms: C22_27  and  O6_28 
REMARK    5  A    between atoms: C23_29  and  O7_30 
REMARK    6  A    between atoms: C29_37  and  C30_38 
ROOT
HETATM    1  C1  UNL     1       0.307  53.442 -26.863  1.00  0.00     0.046 C 
HETATM    2  C2  UNL     1      -0.445  52.401 -26.076  1.00  0.00    -0.056 C 
HETATM    3  C3  UNL     1      -0.058  52.053 -24.828  1.00  0.00    -0.004 C 
HETATM    4  C4  UNL     1      -0.829  51.094 -23.925  1.00  0.00     0.150 C 
HETATM    5  C5  UNL     1      -0.904  51.676 -22.511  1.00  0.00     0.270 C 
HETATM    6  O1  UNL     1      -1.072  52.862 -22.256  1.00  0.00    -0.264 OA
HETATM    7  O2  UNL     1      -0.803  50.684 -21.584  1.00  0.00    -0.315 OA
HETATM    8  C6  UNL     1      -1.029  51.027 -20.201  1.00  0.00     0.139 C 
HETATM    9  C7  UNL     1      -2.519  51.233 -19.928  1.00  0.00     0.065 C 
HETATM   10  C8  UNL     1      -2.856  51.163 -18.434  1.00  0.00     0.131 C 
HETATM   11  C9  UNL     1      -3.962  50.180 -17.966  1.00  0.00     0.059 C 
HETATM   12  C10 UNL     1      -4.252  48.941 -18.783  1.00  0.00    -0.017 C 
HETATM   13  C11 UNL     1      -5.413  48.631 -19.407  1.00  0.00    -0.031 C 
HETATM   14  C13 UNL     1      -5.692  47.308 -20.127  1.00  0.00     0.156 C 
HETATM   15  C14 UNL     1      -4.503  46.412 -20.592  1.00  0.00     0.037 C 
HETATM   16  C15 UNL     1      -4.994  45.157 -21.322  1.00  0.00     0.017 C 
HETATM   17  C16 UNL     1      -3.509  47.181 -21.429  1.00  0.00    -0.020 C 
HETATM   18  C17 UNL     1      -3.791  47.839 -22.567  1.00  0.00    -0.003 C 
HETATM   19  C18 UNL     1      -2.877  48.841 -23.058  1.00  0.00     0.008 C 
HETATM   20  C19 UNL     1      -3.079  49.670 -24.093  1.00  0.00    -0.019 C 
HETATM   21  C20 UNL     1      -4.107  49.540 -25.183  1.00  0.00     0.206 C 
HETATM   22  O5  UNL     1      -3.527  50.173 -26.350  1.00  0.00    -0.375 OA
HETATM   23  C21 UNL     1      -2.195  50.582 -25.974  1.00  0.00     0.194 C 
HETATM   24  C22 UNL     1      -1.673  51.803 -26.749  1.00  0.00     0.179 C 
HETATM   25  C23 UNL     1      -2.252  50.862 -24.471  1.00  0.00     0.128 C 
HETATM   26  O8  UNL     1      -1.711  51.092 -17.585  1.00  0.00    -0.349 OA
HETATM   27  C24 UNL     1      -0.654  50.188 -17.883  1.00  0.00     0.167 C 
HETATM   28  C25 UNL     1      -0.758  48.929 -17.023  1.00  0.00     0.069 C 
HETATM   29  C26 UNL     1      -0.768  49.268 -15.534  1.00  0.00     0.012 C 
HETATM   30  C27 UNL     1      -0.018  50.575 -15.220  1.00  0.00     0.011 C 
HETATM   31  C28 UNL     1       0.434  50.558 -13.761  1.00  0.00     0.012 C 
HETATM   32  C29 UNL     1       1.101  50.801 -16.266  1.00  0.00     0.132 C 
HETATM   33  O9  UNL     1       0.576  50.869 -17.601  1.00  0.00    -0.349 OA
HETATM   34  C33 UNL     1      -0.573  49.838 -19.369  1.00  0.00     0.101 C 
ENDROOT
BRANCH  32  35
HETATM   35  C30 UNL     1       1.956  52.082 -16.017  1.00  0.00     0.007 C 
HETATM   36  C31 UNL     1       2.206  52.901 -17.293  1.00  0.00     0.012 C 
HETATM   37  C32 UNL     1       3.321  51.743 -15.399  1.00  0.00     0.012 C 
ENDBRANCH  32  35
BRANCH  13  38
HETATM   38  C12 UNL     1      -6.604  49.566 -19.462  1.00  0.00     0.200 C 
BRANCH  38  39
HETATM   39  O3  UNL     1      -6.465  50.437 -20.573  1.00  0.00    -0.397 OA
HETATM   40  H15 UNL     1      -5.545  50.768 -20.552  1.00  0.00     0.209 HD
ENDBRANCH  38  39
ENDBRANCH  13  38
BRANCH  14  41
HETATM   41  O4  UNL     1      -6.542  46.565 -19.242  1.00  0.00    -0.390 OA
HETATM   42  H17 UNL     1      -6.009  46.361 -18.451  1.00  0.00     0.210 HD
ENDBRANCH  14  41
BRANCH  25  43
HETATM   43  O7  UNL     1      -3.108  51.994 -24.207  1.00  0.00    -0.381 OA
HETATM   44  H30 UNL     1      -2.570  52.802 -24.110  1.00  0.00     0.211 HD
ENDBRANCH  25  43
BRANCH  24  45
HETATM   45  O6  UNL     1      -1.322  51.426 -28.083  1.00  0.00    -0.389 OA
HETATM   46  H29 UNL     1      -0.677  50.702 -28.028  1.00  0.00     0.210 HD
ENDBRANCH  24  45
TORSDOF 6
ENDMDL
MODEL 3
REMARK minimizedAffinity -8.52657318
REMARK CNNscore 0.585906446
REMARK CNNaffinity 5.92322493
REMARK  6 active torsions:
REMARK  status: ('A' for Active; 'I' for Inactive)
REMARK    1  A    between atoms: C11_13  and  C12_14 
REMARK    2  A    between atoms: C12_14  and  O3_15 
REMARK    3  A    between atoms: C13_16  and  O4_17 
REMARK    4  A    between atoms: C22_27  and  O6_28 
REMARK    5  A    between atoms: C23_29  and  O7_30 
REMARK    6  A    between atoms: C29_37  and  C30_38 
ROOT
HETATM    1  C1  UNL     1      -9.235  48.084 -31.326  1.00  0.00     0.046 C 
HETATM    2  C2  UNL     1     -10.006  47.861 -30.051  1.00  0.00    -0.056 C 
HETATM    3  C3  UNL     1     -11.299  47.469 -30.075  1.00  0.00    -0.004 C 
HETATM    4  C4  UNL     1     -12.113  47.114 -28.835  1.00  0.00     0.150 C 
HETATM    5  C5  UNL     1     -12.904  45.829 -29.095  1.00  0.00     0.270 C 
HETATM    6  O1  UNL     1     -12.478  44.864 -29.717  1.00  0.00    -0.264 OA
HETATM    7  O2  UNL     1     -14.127  45.896 -28.499  1.00  0.00    -0.315 OA
HETATM    8  C6  UNL     1     -14.940  44.704 -28.492  1.00  0.00     0.139 C 
HETATM    9  C7  UNL     1     -14.415  43.693 -27.472  1.00  0.00     0.065 C 
HETATM   10  C8  UNL     1     -15.459  42.630 -27.111  1.00  0.00     0.131 C 
HETATM   11  C9  UNL     1     -15.804  42.404 -25.615  1.00  0.00     0.059 C 
HETATM   12  C10 UNL     1     -15.624  43.538 -24.629  1.00  0.00    -0.017 C 
HETATM   13  C11 UNL     1     -14.786  43.565 -23.566  1.00  0.00    -0.031 C 
HETATM   14  C13 UNL     1     -14.725  44.693 -22.531  1.00  0.00     0.156 C 
HETATM   15  C14 UNL     1     -15.293  46.102 -22.885  1.00  0.00     0.037 C 
HETATM   16  C15 UNL     1     -15.102  47.093 -21.731  1.00  0.00     0.017 C 
HETATM   17  C16 UNL     1     -14.715  46.638 -24.173  1.00  0.00    -0.020 C 
HETATM   18  C17 UNL     1     -13.407  46.821 -24.423  1.00  0.00    -0.003 C 
HETATM   19  C18 UNL     1     -12.953  46.959 -25.785  1.00  0.00     0.008 C 
HETATM   20  C19 UNL     1     -11.680  47.011 -26.203  1.00  0.00    -0.019 C 
HETATM   21  C20 UNL     1     -10.455  47.288 -25.375  1.00  0.00     0.206 C 
HETATM   22  O5  UNL     1      -9.507  47.918 -26.271  1.00  0.00    -0.375 OA
HETATM   23  C21 UNL     1     -10.180  48.067 -27.540  1.00  0.00     0.194 C 
HETATM   24  C22 UNL     1      -9.236  48.063 -28.753  1.00  0.00     0.179 C 
HETATM   25  C23 UNL     1     -11.187  46.919 -27.617  1.00  0.00     0.128 C 
HETATM   26  O8  UNL     1     -16.642  42.684 -27.909  1.00  0.00    -0.349 OA
HETATM   27  C24 UNL     1     -17.286  43.930 -28.150  1.00  0.00     0.167 C 
HETATM   28  C25 UNL     1     -18.493  44.103 -27.228  1.00  0.00     0.069 C 
HETATM   29  C26 UNL     1     -19.482  42.950 -27.380  1.00  0.00     0.012 C 
HETATM   30  C27 UNL     1     -19.439  42.314 -28.782  1.00  0.00     0.011 C 
HETATM   31  C28 UNL     1     -20.770  41.618 -29.059  1.00  0.00     0.012 C 
HETATM   32  C29 UNL     1     -19.006  43.373 -29.824  1.00  0.00     0.132 C 
HETATM   33  O9  UNL     1     -17.715  43.925 -29.518  1.00  0.00    -0.349 OA
HETATM   34  C33 UNL     1     -16.334  45.121 -28.046  1.00  0.00     0.101 C 
ENDROOT
BRANCH  32  35
HETATM   35  C30 UNL     1     -18.970  42.845 -31.291  1.00  0.00     0.007 C 
HETATM   36  C31 UNL     1     -20.083  43.431 -32.174  1.00  0.00     0.012 C 
HETATM   37  C32 UNL     1     -19.079  41.314 -31.348  1.00  0.00     0.012 C 
ENDBRANCH  32  35
BRANCH  13  38
HETATM   38  C12 UNL     1     -13.797  42.460 -23.255  1.00  0.00     0.200 C 
BRANCH  38  39
HETATM   39  O3  UNL     1     -12.478  42.977 -23.334  1.00  0.00    -0.397 OA
HETATM   40  H15 UNL     1     -12.433  43.499 -24.159  1.00  0.00     0.209 HD
ENDBRANCH  38  39
ENDBRANCH  13  38
BRANCH  14  41
HETATM   41  O4  UNL     1     -15.390  44.180 -21.368  1.00  0.00    -0.390 OA
HETATM   42  H17 UNL     1     -16.327  44.058 -21.615  1.00  0.00     0.210 HD
ENDBRANCH  14  41
BRANCH  25  43
HETATM   43  O7  UNL     1     -10.497  45.653 -27.677  1.00  0.00    -0.381 OA
HETATM   44  H30 UNL     1     -10.428  45.356 -28.604  1.00  0.00     0.211 HD
ENDBRANCH  25  43
BRANCH  24  45
HETATM   45  O6  UNL     1      -8.530  49.305 -28.832  1.00  0.00    -0.389 OA
HETATM   46  H29 UNL     1      -9.186  50.019 -28.860  1.00  0.00     0.210 HD
ENDBRANCH  24  45
TORSDOF 6
ENDMDL
MODEL 4
REMARK minimizedAffinity -8.17103195
REMARK CNNscore 0.552633047
REMARK CNNaffinity 6.63832283
REMARK  6 active torsions:
REMARK  status: ('A' for Active; 'I' for Inactive)
REMARK    1  A    between atoms: C11_13  and  C12_14 
REMARK    2  A    between atoms: C12_14  and  O3_15 
REMARK    3  A    between atoms: C13_16  and  O4_17 
REMARK    4  A    between atoms: C22_27  and  O6_28 
REMARK    5  A    between atoms: C23_29  and  O7_30 
REMARK    6  A    between atoms: C29_37  and  C30_38 
ROOT
HETATM    1  C1  UNL     1      -3.767  51.852 -25.174  1.00  0.00     0.046 C 
HETATM    2  C2  UNL     1      -3.794  50.718 -24.184  1.00  0.00    -0.056 C 
HETATM    3  C3  UNL     1      -2.889  50.641 -23.183  1.00  0.00    -0.004 C 
HETATM    4  C4  UNL     1      -2.918  49.590 -22.077  1.00  0.00     0.150 C 
HETATM    5  C5  UNL     1      -2.658  50.265 -20.727  1.00  0.00     0.270 C 
HETATM    6  O1  UNL     1      -3.099  51.360 -20.401  1.00  0.00    -0.264 OA
HETATM    7  O2  UNL     1      -1.907  49.456 -19.929  1.00  0.00    -0.315 OA
HETATM    8  C6  UNL     1      -1.713  49.856 -18.557  1.00  0.00     0.139 C 
HETATM    9  C7  UNL     1      -2.979  49.616 -17.735  1.00  0.00     0.065 C 
HETATM   10  C8  UNL     1      -2.705  49.602 -16.227  1.00  0.00     0.131 C 
HETATM   11  C9  UNL     1      -3.177  48.379 -15.396  1.00  0.00     0.059 C 
HETATM   12  C10 UNL     1      -3.322  47.032 -16.069  1.00  0.00    -0.017 C 
HETATM   13  C11 UNL     1      -4.461  46.314 -16.214  1.00  0.00    -0.031 C 
HETATM   14  C13 UNL     1      -4.533  44.901 -16.803  1.00  0.00     0.156 C 
HETATM   15  C14 UNL     1      -3.373  44.376 -17.702  1.00  0.00     0.037 C 
HETATM   16  C15 UNL     1      -3.657  42.960 -18.219  1.00  0.00     0.017 C 
HETATM   17  C16 UNL     1      -3.063  45.323 -18.837  1.00  0.00    -0.020 C 
HETATM   18  C17 UNL     1      -3.939  45.738 -19.768  1.00  0.00    -0.003 C 
HETATM   19  C18 UNL     1      -3.650  46.916 -20.548  1.00  0.00     0.008 C 
HETATM   20  C19 UNL     1      -4.474  47.527 -21.410  1.00  0.00    -0.019 C 
HETATM   21  C20 UNL     1      -5.725  46.971 -22.033  1.00  0.00     0.206 C 
HETATM   22  O5  UNL     1      -5.852  47.626 -23.318  1.00  0.00    -0.375 OA
HETATM   23  C21 UNL     1      -4.688  48.467 -23.466  1.00  0.00     0.194 C 
HETATM   24  C22 UNL     1      -4.915  49.701 -24.354  1.00  0.00     0.179 C 
HETATM   25  C23 UNL     1      -4.282  48.871 -22.047  1.00  0.00     0.128 C 
HETATM   26  O8  UNL     1      -1.374  49.980 -15.876  1.00  0.00    -0.349 OA
HETATM   27  C24 UNL     1      -0.265  49.423 -16.572  1.00  0.00     0.167 C 
HETATM   28  C25 UNL     1       0.370  48.292 -15.764  1.00  0.00     0.069 C 
HETATM   29  C26 UNL     1       0.792  48.765 -14.376  1.00  0.00     0.012 C 
HETATM   30  C27 UNL     1       1.133  50.267 -14.341  1.00  0.00     0.011 C 
HETATM   31  C28 UNL     1       2.064  50.544 -13.163  1.00  0.00     0.012 C 
HETATM   32  C29 UNL     1       1.653  50.718 -15.727  1.00  0.00     0.132 C 
HETATM   33  O9  UNL     1       0.686  50.478 -16.763  1.00  0.00    -0.349 OA
HETATM   34  C33 UNL     1      -0.622  48.962 -17.985  1.00  0.00     0.101 C 
ENDROOT
BRANCH  32  35
HETATM   35  C30 UNL     1       2.071  52.219 -15.793  1.00  0.00     0.007 C 
HETATM   36  C31 UNL     1       1.451  52.968 -16.984  1.00  0.00     0.012 C 
HETATM   37  C32 UNL     1       3.595  52.383 -15.873  1.00  0.00     0.012 C 
ENDBRANCH  32  35
BRANCH  13  38
HETATM   38  C12 UNL     1      -5.825  46.820 -15.793  1.00  0.00     0.200 C 
BRANCH  38  39
HETATM   39  O3  UNL     1      -6.489  47.370 -16.920  1.00  0.00    -0.397 OA
HETATM   40  H15 UNL     1      -5.838  47.941 -17.373  1.00  0.00     0.209 HD
ENDBRANCH  38  39
ENDBRANCH  13  38
BRANCH  14  41
HETATM   41  O4  UNL     1      -4.708  44.028 -15.678  1.00  0.00    -0.390 OA
HETATM   42  H17 UNL     1      -3.889  44.084 -15.152  1.00  0.00     0.210 HD
ENDBRANCH  14  41
BRANCH  25  43
HETATM   43  O7  UNL     1      -5.302  49.702 -21.454  1.00  0.00    -0.381 OA
HETATM   44  H30 UNL     1      -5.062  50.643 -21.551  1.00  0.00     0.211 HD
ENDBRANCH  25  43
BRANCH  24  45
HETATM   45  O6  UNL     1      -4.972  49.313 -25.730  1.00  0.00    -0.389 OA
HETATM   46  H29 UNL     1      -4.153  48.836 -25.939  1.00  0.00     0.210 HD
ENDBRANCH  24  45
TORSDOF 6
ENDMDL
MODEL 5
REMARK minimizedAffinity -9.21723652
REMARK CNNscore 0.483860016
REMARK CNNaffinity 6.78592682
REMARK  6 active torsions:
REMARK  status: ('A' for Active; 'I' for Inactive)
REMARK    1  A    between atoms: C11_13  and  C12_14 
REMARK    2  A    between atoms: C12_14  and  O3_15 
REMARK    3  A    between atoms: C13_16  and  O4_17 
REMARK    4  A    between atoms: C22_27  and  O6_28 
REMARK    5  A    between atoms: C23_29  and  O7_30 
REMARK    6  A    between atoms: C29_37  and  C30_38 
ROOT
HETATM    1  C1  UNL     1      -6.282  49.158  -9.370  1.00  0.00     0.046 C 
HETATM    2  C2  UNL     1      -5.161  49.518 -10.308  1.00  0.00    -0.056 C 
HETATM    3  C3  UNL     1      -4.377  50.595 -10.081  1.00  0.00    -0.004 C 
HETATM    4  C4  UNL     1      -3.155  50.961 -10.919  1.00  0.00     0.150 C 
HETATM    5  C5  UNL     1      -2.000  51.348  -9.991  1.00  0.00     0.270 C 
HETATM    6  O1  UNL     1      -1.743  50.790  -8.932  1.00  0.00    -0.264 OA
HETATM    7  O2  UNL     1      -1.277  52.366 -10.534  1.00  0.00    -0.315 OA
HETATM    8  C6  UNL     1      -0.047  52.743  -9.881  1.00  0.00     0.139 C 
HETATM    9  C7  UNL     1       1.052  51.717 -10.155  1.00  0.00     0.065 C 
HETATM   10  C8  UNL     1       2.454  52.268  -9.869  1.00  0.00     0.131 C 
HETATM   11  C9  UNL     1       3.528  52.184 -10.986  1.00  0.00     0.059 C 
HETATM   12  C10 UNL     1       3.095  52.154 -12.436  1.00  0.00    -0.017 C 
HETATM   13  C11 UNL     1       3.300  51.153 -13.324  1.00  0.00    -0.031 C 
HETATM   14  C13 UNL     1       2.943  51.220 -14.813  1.00  0.00     0.156 C 
HETATM   15  C14 UNL     1       1.897  52.264 -15.313  1.00  0.00     0.037 C 
HETATM   16  C15 UNL     1       1.655  52.141 -16.822  1.00  0.00     0.017 C 
HETATM   17  C16 UNL     1       0.602  52.182 -14.540  1.00  0.00    -0.020 C 
HETATM   18  C17 UNL     1      -0.168  51.087 -14.423  1.00  0.00    -0.003 C 
HETATM   19  C18 UNL     1      -1.148  51.012 -13.367  1.00  0.00     0.008 C 
HETATM   20  C19 UNL     1      -1.890  49.946 -13.038  1.00  0.00    -0.019 C 
HETATM   21  C20 UNL     1      -2.147  48.717 -13.867  1.00  0.00     0.206 C 
HETATM   22  O5  UNL     1      -3.454  48.236 -13.468  1.00  0.00    -0.375 OA
HETATM   23  C21 UNL     1      -3.963  49.186 -12.507  1.00  0.00     0.194 C 
HETATM   24  C22 UNL     1      -4.944  48.582 -11.490  1.00  0.00     0.179 C 
HETATM   25  C23 UNL     1      -2.735  49.775 -11.810  1.00  0.00     0.128 C 
HETATM   26  O8  UNL     1       2.455  53.554  -9.250  1.00  0.00    -0.349 OA
HETATM   27  C24 UNL     1       1.621  54.592  -9.753  1.00  0.00     0.167 C 
HETATM   28  C25 UNL     1       2.424  55.557 -10.625  1.00  0.00     0.069 C 
HETATM   29  C26 UNL     1       3.610  56.144  -9.864  1.00  0.00     0.012 C 
HETATM   30  C27 UNL     1       3.362  56.216  -8.346  1.00  0.00     0.011 C 
HETATM   31  C28 UNL     1       4.263  57.289  -7.739  1.00  0.00     0.012 C 
HETATM   32  C29 UNL     1       1.847  56.378  -8.070  1.00  0.00     0.132 C 
HETATM   33  O9  UNL     1       1.086  55.290  -8.621  1.00  0.00    -0.349 OA
HETATM   34  C33 UNL     1       0.396  54.062 -10.497  1.00  0.00     0.101 C 
ENDROOT
BRANCH  32  35
HETATM   35  C30 UNL     1       1.485  56.504  -6.558  1.00  0.00     0.007 C 
HETATM   36  C31 UNL     1      -0.003  56.248  -6.268  1.00  0.00     0.012 C 
HETATM   37  C32 UNL     1       1.843  57.890  -6.002  1.00  0.00     0.012 C 
ENDBRANCH  32  35
BRANCH  13  38
HETATM   38  C12 UNL     1       3.929  49.826 -12.954  1.00  0.00     0.200 C 
BRANCH  38  39
HETATM   39  O3  UNL     1       5.139  49.663 -13.676  1.00  0.00    -0.397 OA
HETATM   40  H15 UNL     1       4.944  49.906 -14.603  1.00  0.00     0.209 HD
ENDBRANCH  38  39
ENDBRANCH  13  38
BRANCH  14  41
HETATM   41  O4  UNL     1       4.189  51.417 -15.495  1.00  0.00    -0.390 OA
HETATM   42  H17 UNL     1       4.514  52.298 -15.232  1.00  0.00     0.210 HD
ENDBRANCH  14  41
BRANCH  25  43
HETATM   43  O7  UNL     1      -2.058  48.755 -11.045  1.00  0.00    -0.381 OA
HETATM   44  H30 UNL     1      -2.334  48.804 -10.110  1.00  0.00     0.211 HD
ENDBRANCH  25  43
BRANCH  24  45
HETATM   45  O6  UNL     1      -6.208  48.335 -12.113  1.00  0.00    -0.389 OA
HETATM   46  H29 UNL     1      -6.520  49.171 -12.496  1.00  0.00     0.210 HD
ENDBRANCH  24  45
TORSDOF 6
ENDMDL
MODEL 6
REMARK minimizedAffinity -8.78250217
REMARK CNNscore 0.34103471
REMARK CNNaffinity 6.2012887
REMARK  6 active torsions:
REMARK  status: ('A' for Active; 'I' for Inactive)
REMARK    1  A    between atoms: C11_13  and  C12_14 
REMARK    2  A    between atoms: C12_14  and  O3_15 
REMARK    3  A    between atoms: C13_16  and  O4_17 
REMARK    4  A    between atoms: C22_27  and  O6_28 
REMARK    5  A    between atoms: C23_29  and  O7_30 
REMARK    6  A    between atoms: C29_37  and  C30_38 
ROOT
HETATM    1  C1  UNL     1       0.561  52.865 -24.584  1.00  0.00     0.046 C 
HETATM    2  C2  UNL     1       0.122  52.607 -23.167  1.00  0.00    -0.056 C 
HETATM    3  C3  UNL     1      -1.005  51.911 -22.899  1.00  0.00    -0.004 C 
HETATM    4  C4  UNL     1      -1.456  51.512 -21.497  1.00  0.00     0.150 C 
HETATM    5  C5  UNL     1      -1.916  50.052 -21.507  1.00  0.00     0.270 C 
HETATM    6  O1  UNL     1      -1.374  49.156 -22.142  1.00  0.00    -0.264 OA
HETATM    7  O2  UNL     1      -2.983  49.886 -20.677  1.00  0.00    -0.315 OA
HETATM    8  C6  UNL     1      -3.440  48.540 -20.428  1.00  0.00     0.139 C 
HETATM    9  C7  UNL     1      -2.492  47.811 -19.476  1.00  0.00     0.065 C 
HETATM   10  C8  UNL     1      -3.136  46.573 -18.841  1.00  0.00     0.131 C 
HETATM   11  C9  UNL     1      -3.129  46.442 -17.294  1.00  0.00     0.059 C 
HETATM   12  C10 UNL     1      -3.076  47.690 -16.441  1.00  0.00    -0.017 C 
HETATM   13  C11 UNL     1      -2.094  48.042 -15.577  1.00  0.00    -0.031 C 
HETATM   14  C13 UNL     1      -2.142  49.261 -14.650  1.00  0.00     0.156 C 
HETATM   15  C14 UNL     1      -3.115  50.438 -14.968  1.00  0.00     0.037 C 
HETATM   16  C15 UNL     1      -2.981  51.572 -13.944  1.00  0.00     0.017 C 
HETATM   17  C16 UNL     1      -2.942  50.950 -16.379  1.00  0.00    -0.020 C 
HETATM   18  C17 UNL     1      -1.797  51.417 -16.905  1.00  0.00    -0.003 C 
HETATM   19  C18 UNL     1      -1.652  51.505 -18.337  1.00  0.00     0.008 C 
HETATM   20  C19 UNL     1      -0.536  51.819 -19.010  1.00  0.00    -0.019 C 
HETATM   21  C20 UNL     1       0.703  52.479 -18.472  1.00  0.00     0.206 C 
HETATM   22  O5  UNL     1       1.273  53.215 -19.583  1.00  0.00    -0.375 OA
HETATM   23  C21 UNL     1       0.364  53.050 -20.692  1.00  0.00     0.194 C 
HETATM   24  C22 UNL     1       1.037  53.138 -22.071  1.00  0.00     0.179 C 
HETATM   25  C23 UNL     1      -0.304  51.689 -20.487  1.00  0.00     0.128 C 
HETATM   26  O8  UNL     1      -4.417  46.246 -19.380  1.00  0.00    -0.349 OA
HETATM   27  C24 UNL     1      -5.398  47.260 -19.561  1.00  0.00     0.167 C 
HETATM   28  C25 UNL     1      -6.418  47.238 -18.423  1.00  0.00     0.069 C 
HETATM   29  C26 UNL     1      -7.081  45.869 -18.294  1.00  0.00     0.012 C 
HETATM   30  C27 UNL     1      -7.131  45.107 -19.632  1.00  0.00     0.011 C 
HETATM   31  C28 UNL     1      -8.260  44.080 -19.584  1.00  0.00     0.012 C 
HETATM   32  C29 UNL     1      -7.188  46.113 -20.806  1.00  0.00     0.132 C 
HETATM   33  O9  UNL     1      -6.053  46.995 -20.808  1.00  0.00    -0.349 OA
HETATM   34  C33 UNL     1      -4.789  48.652 -19.731  1.00  0.00     0.101 C 
ENDROOT
BRANCH  32  35
HETATM   35  C30 UNL     1      -7.284  45.446 -22.212  1.00  0.00     0.007 C 
HETATM   36  C31 UNL     1      -8.730  45.290 -22.712  1.00  0.00     0.012 C 
HETATM   37  C32 UNL     1      -6.625  44.059 -22.231  1.00  0.00     0.012 C 
ENDBRANCH  32  35
BRANCH  13  38
HETATM   38  C12 UNL     1      -0.811  47.255 -15.408  1.00  0.00     0.200 C 
BRANCH  38  39
HETATM   39  O3  UNL     1       0.275  48.016 -15.915  1.00  0.00    -0.397 OA
HETATM   40  H15 UNL     1      -0.011  48.364 -16.782  1.00  0.00     0.209 HD
ENDBRANCH  38  39
ENDBRANCH  13  38
BRANCH  14  41
HETATM   41  O4  UNL     1      -2.425  48.737 -13.346  1.00  0.00    -0.390 OA
HETATM   42  H17 UNL     1      -3.326  48.363 -13.385  1.00  0.00     0.210 HD
ENDBRANCH  14  41
BRANCH  25  43
HETATM   43  O7  UNL     1       0.670  50.632 -20.608  1.00  0.00    -0.381 OA
HETATM   44  H30 UNL     1       0.644  50.257 -21.509  1.00  0.00     0.211 HD
ENDBRANCH  25  43
BRANCH  24  45
HETATM   45  O6  UNL     1       1.367  54.497 -22.372  1.00  0.00    -0.389 OA
HETATM   46  H29 UNL     1       0.552  55.022 -22.309  1.00  0.00     0.210 HD
ENDBRANCH  24  45
TORSDOF 6
ENDMDL
MODEL 7
REMARK minimizedAffinity -8.48058033
REMARK CNNscore 0.329753727
REMARK CNNaffinity 5.65500879
REMARK  6 active torsions:
REMARK  status: ('A' for Active; 'I' for Inactive)
REMARK    1  A    between atoms: C11_13  and  C12_14 
REMARK    2  A    between atoms: C12_14  and  O3_15 
REMARK    3  A    between atoms: C13_16  and  O4_17 
REMARK    4  A    between atoms: C22_27  and  O6_28 
REMARK    5  A    between atoms: C23_29  and  O7_30 
REMARK    6  A    between atoms: C29_37  and  C30_38 
ROOT
HETATM    1  C1  UNL     1      -8.450  47.926 -18.583  1.00  0.00     0.046 C 
HETATM    2  C2  UNL     1      -9.941  47.733 -18.650  1.00  0.00    -0.056 C 
HETATM    3  C3  UNL     1     -10.589  47.687 -19.835  1.00  0.00    -0.004 C 
HETATM    4  C4  UNL     1     -12.076  47.383 -19.992  1.00  0.00     0.150 C 
HETATM    5  C5  UNL     1     -12.274  46.388 -21.139  1.00  0.00     0.270 C 
HETATM    6  O1  UNL     1     -11.533  45.442 -21.374  1.00  0.00    -0.264 OA
HETATM    7  O2  UNL     1     -13.412  46.680 -21.828  1.00  0.00    -0.315 OA
HETATM    8  C6  UNL     1     -13.849  45.744 -22.834  1.00  0.00     0.139 C 
HETATM    9  C7  UNL     1     -14.468  44.503 -22.191  1.00  0.00     0.065 C 
HETATM   10  C8  UNL     1     -15.326  43.699 -23.175  1.00  0.00     0.131 C 
HETATM   11  C9  UNL     1     -16.790  43.363 -22.783  1.00  0.00     0.059 C 
HETATM   12  C10 UNL     1     -17.530  44.268 -21.822  1.00  0.00    -0.017 C 
HETATM   13  C11 UNL     1     -18.012  43.936 -20.601  1.00  0.00    -0.031 C 
HETATM   14  C13 UNL     1     -18.856  44.859 -19.715  1.00  0.00     0.156 C 
HETATM   15  C14 UNL     1     -18.826  46.400 -19.951  1.00  0.00     0.037 C 
HETATM   16  C15 UNL     1     -19.706  47.143 -18.938  1.00  0.00     0.017 C 
HETATM   17  C16 UNL     1     -17.417  46.944 -19.958  1.00  0.00    -0.020 C 
HETATM   18  C17 UNL     1     -16.529  46.823 -18.957  1.00  0.00    -0.003 C 
HETATM   19  C18 UNL     1     -15.126  47.028 -19.218  1.00  0.00     0.008 C 
HETATM   20  C19 UNL     1     -14.114  46.813 -18.365  1.00  0.00    -0.019 C 
HETATM   21  C20 UNL     1     -14.192  46.655 -16.871  1.00  0.00     0.206 C 
HETATM   22  O5  UNL     1     -12.929  47.141 -16.355  1.00  0.00    -0.375 OA
HETATM   23  C21 UNL     1     -12.183  47.629 -17.491  1.00  0.00     0.194 C 
HETATM   24  C22 UNL     1     -10.658  47.552 -17.318  1.00  0.00     0.179 C 
HETATM   25  C23 UNL     1     -12.649  46.795 -18.686  1.00  0.00     0.128 C 
HETATM   26  O8  UNL     1     -15.247  44.159 -24.523  1.00  0.00    -0.349 OA
HETATM   27  C24 UNL     1     -15.355  45.548 -24.812  1.00  0.00     0.167 C 
HETATM   28  C25 UNL     1     -16.763  45.893 -25.297  1.00  0.00     0.069 C 
HETATM   29  C26 UNL     1     -17.155  45.060 -26.515  1.00  0.00     0.012 C 
HETATM   30  C27 UNL     1     -15.937  44.633 -27.356  1.00  0.00     0.011 C 
HETATM   31  C28 UNL     1     -16.390  44.342 -28.785  1.00  0.00     0.012 C 
HETATM   32  C29 UNL     1     -14.807  45.681 -27.211  1.00  0.00     0.132 C 
HETATM   33  O9  UNL     1     -14.401  45.840 -25.842  1.00  0.00    -0.349 OA
HETATM   34  C33 UNL     1     -14.942  46.434 -23.637  1.00  0.00     0.101 C 
ENDROOT
BRANCH  32  35
HETATM   35  C30 UNL     1     -13.536  45.367 -28.059  1.00  0.00     0.007 C 
HETATM   36  C31 UNL     1     -12.358  44.849 -27.217  1.00  0.00     0.012 C 
HETATM   37  C32 UNL     1     -13.054  46.600 -28.838  1.00  0.00     0.012 C 
ENDBRANCH  32  35
BRANCH  13  38
HETATM   38  C12 UNL     1     -17.785  42.585 -19.954  1.00  0.00     0.200 C 
BRANCH  38  39
HETATM   39  O3  UNL     1     -19.010  41.869 -19.923  1.00  0.00    -0.397 OA
HETATM   40  H15 UNL     1     -19.688  42.493 -19.599  1.00  0.00     0.209 HD
ENDBRANCH  38  39
ENDBRANCH  13  38
BRANCH  14  41
HETATM   41  O4  UNL     1     -20.201  44.375 -19.834  1.00  0.00    -0.390 OA
HETATM   42  H17 UNL     1     -20.472  44.530 -20.759  1.00  0.00     0.210 HD
ENDBRANCH  14  41
BRANCH  25  43
HETATM   43  O7  UNL     1     -12.258  45.416 -18.514  1.00  0.00    -0.381 OA
HETATM   44  H30 UNL     1     -11.431  45.242 -19.001  1.00  0.00     0.211 HD
ENDBRANCH  25  43
BRANCH  24  45
HETATM   45  O6  UNL     1     -10.213  48.574 -16.420  1.00  0.00    -0.389 OA
HETATM   46  H29 UNL     1     -10.517  49.428 -16.767  1.00  0.00     0.210 HD
ENDBRANCH  24  45
TORSDOF 6
ENDMDL
MODEL 8
REMARK minimizedAffinity -9.04353237
REMARK CNNscore 0.323149264
REMARK CNNaffinity 6.41716146
REMARK  6 active torsions:
REMARK  status: ('A' for Active; 'I' for Inactive)
REMARK    1  A    between atoms: C11_13  and  C12_14 
REMARK    2  A    between atoms: C12_14  and  O3_15 
REMARK    3  A    between atoms: C13_16  and  O4_17 
REMARK    4  A    between atoms: C22_27  and  O6_28 
REMARK    5  A    between atoms: C23_29  and  O7_30 
REMARK    6  A    between atoms: C29_37  and  C30_38 
ROOT
HETATM    1  C1  UNL     1      -7.087  47.459 -26.228  1.00  0.00     0.046 C 
HETATM    2  C2  UNL     1      -7.546  47.220 -27.642  1.00  0.00    -0.056 C 
HETATM    3  C3  UNL     1      -6.825  46.456 -28.492  1.00  0.00    -0.004 C 
HETATM    4  C4  UNL     1      -7.276  46.075 -29.899  1.00  0.00     0.150 C 
HETATM    5  C5  UNL     1      -7.005  44.587 -30.134  1.00  0.00     0.270 C 
HETATM    6  O1  UNL     1      -7.162  43.710 -29.294  1.00  0.00    -0.264 OA
HETATM    7  O2  UNL     1      -6.609  44.375 -31.420  1.00  0.00    -0.315 OA
HETATM    8  C6  UNL     1      -6.479  43.010 -31.869  1.00  0.00     0.139 C 
HETATM    9  C7  UNL     1      -7.851  42.382 -32.109  1.00  0.00     0.065 C 
HETATM   10  C8  UNL     1      -7.776  41.125 -32.984  1.00  0.00     0.131 C 
HETATM   11  C9  UNL     1      -8.664  41.047 -34.254  1.00  0.00     0.059 C 
HETATM   12  C10 UNL     1      -9.094  42.325 -34.941  1.00  0.00    -0.017 C 
HETATM   13  C11 UNL     1     -10.361  42.774 -35.103  1.00  0.00    -0.031 C 
HETATM   14  C13 UNL     1     -10.750  44.018 -35.909  1.00  0.00     0.156 C 
HETATM   15  C14 UNL     1      -9.681  45.113 -36.210  1.00  0.00     0.037 C 
HETATM   16  C15 UNL     1     -10.281  46.287 -36.992  1.00  0.00     0.017 C 
HETATM   17  C16 UNL     1      -8.986  45.586 -34.954  1.00  0.00    -0.020 C 
HETATM   18  C17 UNL     1      -9.595  46.114 -33.879  1.00  0.00    -0.003 C 
HETATM   19  C18 UNL     1      -8.899  46.163 -32.617  1.00  0.00     0.008 C 
HETATM   20  C19 UNL     1      -9.412  46.531 -31.434  1.00  0.00    -0.019 C 
HETATM   21  C20 UNL     1     -10.683  47.295 -31.184  1.00  0.00     0.206 C 
HETATM   22  O5  UNL     1     -10.468  48.030 -29.955  1.00  0.00    -0.375 OA
HETATM   23  C21 UNL     1      -9.107  47.764 -29.552  1.00  0.00     0.194 C 
HETATM   24  C22 UNL     1      -8.875  47.851 -28.035  1.00  0.00     0.179 C 
HETATM   25  C23 UNL     1      -8.779  46.367 -30.083  1.00  0.00     0.128 C 
HETATM   26  O8  UNL     1      -6.445  40.690 -33.259  1.00  0.00    -0.349 OA
HETATM   27  C24 UNL     1      -5.458  41.626 -33.676  1.00  0.00     0.167 C 
HETATM   28  C25 UNL     1      -5.263  41.571 -35.191  1.00  0.00     0.069 C 
HETATM   29  C26 UNL     1      -4.896  40.164 -35.656  1.00  0.00     0.012 C 
HETATM   30  C27 UNL     1      -4.160  39.356 -34.573  1.00  0.00     0.011 C 
HETATM   31  C28 UNL     1      -3.338  38.254 -35.239  1.00  0.00     0.012 C 
HETATM   32  C29 UNL     1      -3.372  40.314 -33.648  1.00  0.00     0.132 C 
HETATM   33  O9  UNL     1      -4.235  41.273 -33.015  1.00  0.00    -0.349 OA
HETATM   34  C33 UNL     1      -5.755  43.051 -33.207  1.00  0.00     0.101 C 
ENDROOT
BRANCH  32  35
HETATM   35  C30 UNL     1      -2.551  39.594 -32.535  1.00  0.00     0.007 C 
HETATM   36  C31 UNL     1      -1.150  39.164 -32.997  1.00  0.00     0.012 C 
HETATM   37  C32 UNL     1      -3.278  38.349 -32.007  1.00  0.00     0.012 C 
ENDBRANCH  32  35
BRANCH  13  38
HETATM   38  C12 UNL     1     -11.572  42.086 -34.508  1.00  0.00     0.200 C 
BRANCH  38  39
HETATM   39  O3  UNL     1     -12.750  42.643 -35.070  1.00  0.00    -0.397 OA
HETATM   40  H15 UNL     1     -12.638  43.613 -35.043  1.00  0.00     0.209 HD
ENDBRANCH  38  39
ENDBRANCH  13  38
BRANCH  14  41
HETATM   41  O4  UNL     1     -11.294  43.520 -37.139  1.00  0.00    -0.390 OA
HETATM   42  H17 UNL     1     -10.560  43.083 -37.611  1.00  0.00     0.210 HD
ENDBRANCH  14  41
BRANCH  25  43
HETATM   43  O7  UNL     1      -9.594  45.377 -29.420  1.00  0.00    -0.381 OA
HETATM   44  H30 UNL     1      -9.093  44.971 -28.688  1.00  0.00     0.211 HD
ENDBRANCH  25  43
BRANCH  24  45
HETATM   45  O6  UNL     1      -8.871  49.219 -27.615  1.00  0.00    -0.389 OA
HETATM   46  H29 UNL     1      -8.197  49.687 -28.134  1.00  0.00     0.210 HD
ENDBRANCH  24  45
TORSDOF 6
ENDMDL
MODEL 9
REMARK minimizedAffinity -6.88961267
REMARK CNNscore 0.301003456
REMARK CNNaffinity 5.72109365
REMARK  6 active torsions:
REMARK  status: ('A' for Active; 'I' for Inactive)
REMARK    1  A    between atoms: C11_13  and  C12_14 
REMARK    2  A    between atoms: C12_14  and  O3_15 
REMARK    3  A    between atoms: C13_16  and  O4_17 
REMARK    4  A    between atoms: C22_27  and  O6_28 
REMARK    5  A    between atoms: C23_29  and  O7_30 
REMARK    6  A    between atoms: C29_37  and  C30_38 
ROOT
HETATM    1  C1  UNL     1       1.122  54.344 -10.783  1.00  0.00     0.046 C 
HETATM    2  C2  UNL     1       2.149  54.990  -9.891  1.00  0.00    -0.056 C 
HETATM    3  C3  UNL     1       1.782  55.810  -8.881  1.00  0.00    -0.004 C 
HETATM    4  C4  UNL     1       2.751  56.411  -7.866  1.00  0.00     0.150 C 
HETATM    5  C5  UNL     1       2.159  56.283  -6.460  1.00  0.00     0.270 C 
HETATM    6  O1  UNL     1       1.535  55.311  -6.054  1.00  0.00    -0.264 OA
HETATM    7  O2  UNL     1       2.464  57.382  -5.716  1.00  0.00    -0.315 OA
HETATM    8  C6  UNL     1       2.136  57.357  -4.311  1.00  0.00     0.139 C 
HETATM    9  C7  UNL     1       3.115  56.472  -3.540  1.00  0.00     0.065 C 
HETATM   10  C8  UNL     1       3.093  56.749  -2.032  1.00  0.00     0.131 C 
HETATM   11  C9  UNL     1       4.431  57.073  -1.316  1.00  0.00     0.059 C 
HETATM   12  C10 UNL     1       5.565  57.695  -2.102  1.00  0.00    -0.017 C 
HETATM   13  C11 UNL     1       6.787  57.156  -2.330  1.00  0.00    -0.031 C 
HETATM   14  C13 UNL     1       7.940  57.876  -3.035  1.00  0.00     0.156 C 
HETATM   15  C14 UNL     1       7.644  59.104  -3.950  1.00  0.00     0.037 C 
HETATM   16  C15 UNL     1       8.926  59.654  -4.589  1.00  0.00     0.017 C 
HETATM   17  C16 UNL     1       6.600  58.792  -4.995  1.00  0.00    -0.020 C 
HETATM   18  C17 UNL     1       6.679  57.809  -5.908  1.00  0.00    -0.003 C 
HETATM   19  C18 UNL     1       5.484  57.360  -6.580  1.00  0.00     0.008 C 
HETATM   20  C19 UNL     1       5.378  56.310  -7.407  1.00  0.00    -0.019 C 
HETATM   21  C20 UNL     1       6.491  55.574  -8.101  1.00  0.00     0.206 C 
HETATM   22  O5  UNL     1       5.920  55.062  -9.330  1.00  0.00    -0.375 OA
HETATM   23  C21 UNL     1       4.561  55.544  -9.382  1.00  0.00     0.194 C 
HETATM   24  C22 UNL     1       3.604  54.635 -10.169  1.00  0.00     0.179 C 
HETATM   25  C23 UNL     1       4.114  55.692  -7.926  1.00  0.00     0.128 C 
HETATM   26  O8  UNL     1       2.060  57.644  -1.622  1.00  0.00    -0.349 OA
HETATM   27  C24 UNL     1       1.835  58.853  -2.338  1.00  0.00     0.167 C 
HETATM   28  C25 UNL     1       2.471  60.039  -1.613  1.00  0.00     0.069 C 
HETATM   29  C26 UNL     1       1.955  60.161  -0.181  1.00  0.00     0.012 C 
HETATM   30  C27 UNL     1       0.533  59.596  -0.015  1.00  0.00     0.011 C 
HETATM   31  C28 UNL     1      -0.126  60.242   1.203  1.00  0.00     0.012 C 
HETATM   32  C29 UNL     1      -0.243  59.730  -1.347  1.00  0.00     0.132 C 
HETATM   33  O9  UNL     1       0.415  59.038  -2.420  1.00  0.00    -0.349 OA
HETATM   34  C33 UNL     1       2.301  58.779  -3.792  1.00  0.00     0.101 C 
ENDROOT
BRANCH  32  35
HETATM   35  C30 UNL     1      -1.718  59.226  -1.279  1.00  0.00     0.007 C 
HETATM   36  C31 UNL     1      -1.830  57.713  -1.031  1.00  0.00     0.012 C 
HETATM   37  C32 UNL     1      -2.490  59.552  -2.566  1.00  0.00     0.012 C 
ENDBRANCH  32  35
BRANCH  13  38
HETATM   38  C12 UNL     1       7.174  55.757  -1.898  1.00  0.00     0.200 C 
BRANCH  38  39
HETATM   39  O3  UNL     1       7.843  55.105  -2.967  1.00  0.00    -0.397 OA
HETATM   40  H15 UNL     1       7.311  55.274  -3.770  1.00  0.00     0.209 HD
ENDBRANCH  38  39
ENDBRANCH  13  38
BRANCH  14  41
HETATM   41  O4  UNL     1       8.847  58.257  -1.991  1.00  0.00    -0.390 OA
HETATM   42  H17 UNL     1       8.381  58.917  -1.444  1.00  0.00     0.210 HD
ENDBRANCH  14  41
BRANCH  25  43
HETATM   43  O7  UNL     1       4.055  54.398  -7.289  1.00  0.00    -0.381 OA
HETATM   44  H30 UNL     1       3.139  54.063  -7.301  1.00  0.00     0.211 HD
ENDBRANCH  25  43
BRANCH  24  45
HETATM   45  O6  UNL     1       3.843  54.766 -11.573  1.00  0.00    -0.389 OA
HETATM   46  H29 UNL     1       3.756  55.705 -11.803  1.00  0.00     0.210 HD
ENDBRANCH  24  45
TORSDOF 6
ENDMDL
