MODEL 1
REMARK minimizedAffinity -7.84268904
REMARK CNNscore 0.765996099
REMARK CNNaffinity 7.05457687
REMARK  6 active torsions:
REMARK  status: ('A' for Active; 'I' for Inactive)
REMARK    1  A    between atoms: C2_2  and  C30_32 
REMARK    2  A    between atoms: C3_3  and  C4_4 
REMARK    3  A    between atoms: C4_4  and  C5_5 
REMARK    4  A    between atoms: C5_5  and  C6_6 
REMARK    5  A    between atoms: C6_6  and  C8_8 
REMARK    6  A    between atoms: C30_32  and  O3_33 
ROOT
HETATM    1  C8  UNL     1       4.857  55.829  -8.446  1.00  0.00    -0.002 C 
HETATM    2  C9  UNL     1       5.681  54.835  -9.308  1.00  0.00     0.007 C 
HETATM    3  C10 UNL     1       4.670  54.009 -10.126  1.00  0.00     0.015 C 
HETATM    4  C11 UNL     1       3.331  54.763 -10.002  1.00  0.00    -0.005 C 
HETATM    5  C12 UNL     1       3.349  55.905 -11.064  1.00  0.00     0.021 C 
HETATM    6  C13 UNL     1       2.015  54.038 -10.245  1.00  0.00    -0.000 C 
HETATM    7  C14 UNL     1       0.873  54.418  -9.613  1.00  0.00    -0.060 C 
HETATM    8  C15 UNL     1       0.896  55.556  -8.578  1.00  0.00     0.036 C 
HETATM    9  C16 UNL     1       2.260  56.201  -8.247  1.00  0.00     0.015 C 
HETATM   10  C17 UNL     1       3.420  55.231  -8.492  1.00  0.00    -0.028 C 
HETATM   11  C18 UNL     1       3.292  54.057  -7.477  1.00  0.00     0.016 C 
HETATM   12  C19 UNL     1      -0.502  53.731  -9.852  1.00  0.00    -0.014 C 
HETATM   13  C20 UNL     1      -0.761  52.808  -8.640  1.00  0.00     0.020 C 
HETATM   14  C21 UNL     1      -1.626  54.795  -9.955  1.00  0.00     0.021 C 
HETATM   15  C22 UNL     1      -2.957  54.323 -10.532  1.00  0.00     0.080 C 
HETATM   16  C23 UNL     1      -3.027  52.849 -10.850  1.00  0.00     0.135 C 
HETATM   17  O1  UNL     1      -4.070  52.229 -10.635  1.00  0.00    -0.297 OA
HETATM   18  C24 UNL     1      -1.827  52.203 -11.553  1.00  0.00     0.018 C 
HETATM   19  C25 UNL     1      -2.101  52.300 -13.068  1.00  0.00     0.023 C 
HETATM   20  C26 UNL     1      -1.792  50.705 -11.183  1.00  0.00     0.023 C 
HETATM   21  C27 UNL     1      -0.498  52.963 -11.212  1.00  0.00     0.020 C 
HETATM   22  C28 UNL     1       0.747  52.085 -11.342  1.00  0.00     0.090 C 
HETATM   23  C29 UNL     1       1.995  52.919 -11.236  1.00  0.00     0.157 C 
HETATM   24  O2  UNL     1       2.974  52.657 -11.931  1.00  0.00    -0.293 OA
ENDROOT
BRANCH   1  25
HETATM   25  C6  UNL     1       5.567  56.256  -7.124  1.00  0.00    -0.014 C 
HETATM   26  C7  UNL     1       5.307  57.688  -6.642  1.00  0.00     0.010 C 
BRANCH  25  27
HETATM   27  C5  UNL     1       7.082  55.941  -7.172  1.00  0.00     0.008 C 
BRANCH  27  28
HETATM   28  C4  UNL     1       7.750  55.746  -5.799  1.00  0.00     0.028 C 
BRANCH  28  29
HETATM   29  C3  UNL     1       8.506  56.949  -5.306  1.00  0.00    -0.022 C 
HETATM   30  C2  UNL     1       9.827  57.060  -5.042  1.00  0.00    -0.064 C 
HETATM   31  C1  UNL     1      10.823  55.939  -5.185  1.00  0.00     0.045 C 
BRANCH  30  32
HETATM   32  C30 UNL     1      10.464  58.337  -4.534  1.00  0.00     0.197 C 
BRANCH  32  33
HETATM   33  O3  UNL     1      10.354  59.408  -5.462  1.00  0.00    -0.397 OA
HETATM   34  H46 UNL     1      10.835  59.125  -6.258  1.00  0.00     0.209 HD
ENDBRANCH  32  33
ENDBRANCH  30  32
ENDBRANCH  28  29
ENDBRANCH  27  28
ENDBRANCH  25  27
ENDBRANCH   1  25
TORSDOF 6
ENDMDL
MODEL 2
REMARK minimizedAffinity -7.40641069
REMARK CNNscore 0.744731545
REMARK CNNaffinity 7.00472641
REMARK  6 active torsions:
REMARK  status: ('A' for Active; 'I' for Inactive)
REMARK    1  A    between atoms: C2_2  and  C30_32 
REMARK    2  A    between atoms: C3_3  and  C4_4 
REMARK    3  A    between atoms: C4_4  and  C5_5 
REMARK    4  A    between atoms: C5_5  and  C6_6 
REMARK    5  A    between atoms: C6_6  and  C8_8 
REMARK    6  A    between atoms: C30_32  and  O3_33 
ROOT
HETATM    1  C8  UNL     1       5.768  55.741  -8.401  1.00  0.00    -0.002 C 
HETATM    2  C9  UNL     1       6.454  54.499  -9.033  1.00  0.00     0.007 C 
HETATM    3  C10 UNL     1       5.344  53.665  -9.700  1.00  0.00     0.015 C 
HETATM    4  C11 UNL     1       4.115  54.595  -9.759  1.00  0.00    -0.005 C 
HETATM    5  C12 UNL     1       4.282  55.495 -11.022  1.00  0.00     0.021 C 
HETATM    6  C13 UNL     1       2.715  54.013  -9.889  1.00  0.00    -0.000 C 
HETATM    7  C14 UNL     1       1.633  54.652  -9.372  1.00  0.00    -0.060 C 
HETATM    8  C15 UNL     1       1.806  55.959  -8.577  1.00  0.00     0.036 C 
HETATM    9  C16 UNL     1       3.243  56.475  -8.345  1.00  0.00     0.015 C 
HETATM   10  C17 UNL     1       4.266  55.334  -8.367  1.00  0.00    -0.028 C 
HETATM   11  C18 UNL     1       3.985  54.409  -7.146  1.00  0.00     0.016 C 
HETATM   12  C19 UNL     1       0.179  54.115  -9.507  1.00  0.00    -0.014 C 
HETATM   13  C20 UNL     1      -0.198  53.489  -8.145  1.00  0.00     0.020 C 
HETATM   14  C21 UNL     1      -0.795  55.274  -9.844  1.00  0.00     0.021 C 
HETATM   15  C22 UNL     1      -2.177  54.874 -10.351  1.00  0.00     0.080 C 
HETATM   16  C23 UNL     1      -2.440  53.388 -10.377  1.00  0.00     0.135 C 
HETATM   17  O1  UNL     1      -3.555  52.961 -10.072  1.00  0.00    -0.297 OA
HETATM   18  C24 UNL     1      -1.335  52.467 -10.911  1.00  0.00     0.018 C 
HETATM   19  C25 UNL     1      -1.596  52.299 -12.422  1.00  0.00     0.023 C 
HETATM   20  C26 UNL     1      -1.497  51.078 -10.255  1.00  0.00     0.023 C 
HETATM   21  C27 UNL     1       0.082  53.101 -10.691  1.00  0.00     0.020 C 
HETATM   22  C28 UNL     1       1.201  52.062 -10.616  1.00  0.00     0.090 C 
HETATM   23  C29 UNL     1       2.548  52.732 -10.643  1.00  0.00     0.157 C 
HETATM   24  O2  UNL     1       3.483  52.215 -11.249  1.00  0.00    -0.293 OA
ENDROOT
BRANCH   1  25
HETATM   25  C6  UNL     1       6.529  56.323  -7.171  1.00  0.00    -0.014 C 
HETATM   26  C7  UNL     1       6.990  55.314  -6.113  1.00  0.00     0.010 C 
BRANCH  25  27
HETATM   27  C5  UNL     1       5.750  57.499  -6.531  1.00  0.00     0.008 C 
BRANCH  27  28
HETATM   28  C4  UNL     1       6.196  57.877  -5.108  1.00  0.00     0.028 C 
BRANCH  28  29
HETATM   29  C3  UNL     1       7.306  58.890  -5.060  1.00  0.00    -0.022 C 
HETATM   30  C2  UNL     1       7.338  60.070  -4.402  1.00  0.00    -0.064 C 
HETATM   31  C1  UNL     1       6.203  60.618  -3.576  1.00  0.00     0.045 C 
BRANCH  30  32
HETATM   32  C30 UNL     1       8.524  61.011  -4.447  1.00  0.00     0.197 C 
BRANCH  32  33
HETATM   33  O3  UNL     1       9.418  60.813  -3.360  1.00  0.00    -0.397 OA
HETATM   34  H46 UNL     1       8.908  61.006  -2.554  1.00  0.00     0.209 HD
ENDBRANCH  32  33
ENDBRANCH  30  32
ENDBRANCH  28  29
ENDBRANCH  27  28
ENDBRANCH  25  27
ENDBRANCH   1  25
TORSDOF 6
ENDMDL
MODEL 3
REMARK minimizedAffinity -7.46853876
REMARK CNNscore 0.722828925
REMARK CNNaffinity 6.42469406
REMARK  6 active torsions:
REMARK  status: ('A' for Active; 'I' for Inactive)
REMARK    1  A    between atoms: C2_2  and  C30_32 
REMARK    2  A    between atoms: C3_3  and  C4_4 
REMARK    3  A    between atoms: C4_4  and  C5_5 
REMARK    4  A    between atoms: C5_5  and  C6_6 
REMARK    5  A    between atoms: C6_6  and  C8_8 
REMARK    6  A    between atoms: C30_32  and  O3_33 
ROOT
HETATM    1  C8  UNL     1       5.825  63.810 -34.150  1.00  0.00    -0.002 C 
HETATM    2  C9  UNL     1       5.556  63.146 -35.528  1.00  0.00     0.007 C 
HETATM    3  C10 UNL     1       5.924  64.184 -36.605  1.00  0.00     0.015 C 
HETATM    4  C11 UNL     1       6.723  65.275 -35.863  1.00  0.00    -0.005 C 
HETATM    5  C12 UNL     1       8.196  64.772 -35.759  1.00  0.00     0.021 C 
HETATM    6  C13 UNL     1       6.840  66.674 -36.449  1.00  0.00    -0.000 C 
HETATM    7  C14 UNL     1       6.981  67.765 -35.651  1.00  0.00    -0.060 C 
HETATM    8  C15 UNL     1       6.958  67.617 -34.119  1.00  0.00     0.036 C 
HETATM    9  C16 UNL     1       6.714  66.208 -33.535  1.00  0.00     0.015 C 
HETATM   10  C17 UNL     1       5.919  65.324 -34.501  1.00  0.00    -0.028 C 
HETATM   11  C18 UNL     1       4.493  65.932 -34.652  1.00  0.00     0.016 C 
HETATM   12  C19 UNL     1       7.137  69.211 -36.201  1.00  0.00    -0.014 C 
HETATM   13  C20 UNL     1       5.770  69.910 -36.024  1.00  0.00     0.020 C 
HETATM   14  C21 UNL     1       8.228  69.976 -35.407  1.00  0.00     0.021 C 
HETATM   15  C22 UNL     1       8.747  71.266 -36.036  1.00  0.00     0.080 C 
HETATM   16  C23 UNL     1       8.062  71.670 -37.318  1.00  0.00     0.135 C 
HETATM   17  O1  UNL     1       7.835  72.861 -37.538  1.00  0.00    -0.297 OA
HETATM   18  C24 UNL     1       7.785  70.583 -38.365  1.00  0.00     0.018 C 
HETATM   19  C25 UNL     1       9.008  70.558 -39.305  1.00  0.00     0.023 C 
HETATM   20  C26 UNL     1       6.562  71.012 -39.204  1.00  0.00     0.023 C 
HETATM   21  C27 UNL     1       7.617  69.179 -37.688  1.00  0.00     0.020 C 
HETATM   22  C28 UNL     1       6.772  68.210 -38.514  1.00  0.00     0.090 C 
HETATM   23  C29 UNL     1       6.842  66.822 -37.937  1.00  0.00     0.157 C 
HETATM   24  O2  UNL     1       6.871  65.844 -38.681  1.00  0.00    -0.293 OA
ENDROOT
BRANCH   1  25
HETATM   25  C6  UNL     1       4.938  63.250 -32.996  1.00  0.00    -0.014 C 
HETATM   26  C7  UNL     1       3.713  62.429 -33.414  1.00  0.00     0.010 C 
BRANCH  25  27
HETATM   27  C5  UNL     1       4.558  64.360 -31.987  1.00  0.00     0.008 C 
BRANCH  27  28
HETATM   28  C4  UNL     1       3.150  64.233 -31.379  1.00  0.00     0.028 C 
BRANCH  28  29
HETATM   29  C3  UNL     1       2.980  64.944 -30.065  1.00  0.00    -0.022 C 
HETATM   30  C2  UNL     1       1.902  64.958 -29.250  1.00  0.00    -0.064 C 
HETATM   31  C1  UNL     1       0.607  64.243 -29.537  1.00  0.00     0.045 C 
BRANCH  30  32
HETATM   32  C30 UNL     1       1.858  65.733 -27.949  1.00  0.00     0.197 C 
BRANCH  32  33
HETATM   33  O3  UNL     1       1.522  64.912 -26.838  1.00  0.00    -0.397 OA
HETATM   34  H46 UNL     1       0.630  64.568 -27.017  1.00  0.00     0.209 HD
ENDBRANCH  32  33
ENDBRANCH  30  32
ENDBRANCH  28  29
ENDBRANCH  27  28
ENDBRANCH  25  27
ENDBRANCH   1  25
TORSDOF 6
ENDMDL
MODEL 4
REMARK minimizedAffinity -7.4039607
REMARK CNNscore 0.622497976
REMARK CNNaffinity 6.90389633
REMARK  6 active torsions:
REMARK  status: ('A' for Active; 'I' for Inactive)
REMARK    1  A    between atoms: C2_2  and  C30_32 
REMARK    2  A    between atoms: C3_3  and  C4_4 
REMARK    3  A    between atoms: C4_4  and  C5_5 
REMARK    4  A    between atoms: C5_5  and  C6_6 
REMARK    5  A    between atoms: C6_6  and  C8_8 
REMARK    6  A    between atoms: C30_32  and  O3_33 
ROOT
HETATM    1  C8  UNL     1       4.522  56.320  -8.209  1.00  0.00    -0.002 C 
HETATM    2  C9  UNL     1       5.461  55.357  -8.985  1.00  0.00     0.007 C 
HETATM    3  C10 UNL     1       4.559  54.432  -9.825  1.00  0.00     0.015 C 
HETATM    4  C11 UNL     1       3.166  55.094  -9.804  1.00  0.00    -0.005 C 
HETATM    5  C12 UNL     1       3.166  56.196 -10.907  1.00  0.00     0.021 C 
HETATM    6  C13 UNL     1       1.919  54.270 -10.090  1.00  0.00    -0.000 C 
HETATM    7  C14 UNL     1       0.719  54.589  -9.538  1.00  0.00    -0.060 C 
HETATM    8  C15 UNL     1       0.604  55.761  -8.548  1.00  0.00     0.036 C 
HETATM    9  C16 UNL     1       1.899  56.513  -8.168  1.00  0.00     0.015 C 
HETATM   10  C17 UNL     1       3.135  55.619  -8.311  1.00  0.00    -0.028 C 
HETATM   11  C18 UNL     1       3.030  54.476  -7.260  1.00  0.00     0.016 C 
HETATM   12  C19 UNL     1      -0.590  53.798  -9.824  1.00  0.00    -0.014 C 
HETATM   13  C20 UNL     1      -0.854  52.903  -8.593  1.00  0.00     0.020 C 
HETATM   14  C21 UNL     1      -1.777  54.776 -10.031  1.00  0.00     0.021 C 
HETATM   15  C22 UNL     1      -3.037  54.190 -10.661  1.00  0.00     0.080 C 
HETATM   16  C23 UNL     1      -2.986  52.705 -10.924  1.00  0.00     0.135 C 
HETATM   17  O1  UNL     1      -3.995  52.020 -10.743  1.00  0.00    -0.297 OA
HETATM   18  C24 UNL     1      -1.706  52.121 -11.535  1.00  0.00     0.018 C 
HETATM   19  C25 UNL     1      -1.899  52.145 -13.065  1.00  0.00     0.023 C 
HETATM   20  C26 UNL     1      -1.589  50.643 -11.105  1.00  0.00     0.023 C 
HETATM   21  C27 UNL     1      -0.455  52.985 -11.152  1.00  0.00     0.020 C 
HETATM   22  C28 UNL     1       0.853  52.194 -11.178  1.00  0.00     0.090 C 
HETATM   23  C29 UNL     1       2.033  53.117 -11.036  1.00  0.00     0.157 C 
HETATM   24  O2  UNL     1       3.066  52.901 -11.665  1.00  0.00    -0.293 OA
ENDROOT
BRANCH   1  25
HETATM   25  C6  UNL     1       5.124  56.842  -6.869  1.00  0.00    -0.014 C 
HETATM   26  C7  UNL     1       5.674  55.781  -5.908  1.00  0.00     0.010 C 
BRANCH  25  27
HETATM   27  C5  UNL     1       4.147  57.805  -6.150  1.00  0.00     0.008 C 
BRANCH  27  28
HETATM   28  C4  UNL     1       3.571  57.277  -4.824  1.00  0.00     0.028 C 
BRANCH  28  29
HETATM   29  C3  UNL     1       2.073  57.153  -4.810  1.00  0.00    -0.022 C 
HETATM   30  C2  UNL     1       1.183  57.807  -4.031  1.00  0.00    -0.064 C 
HETATM   31  C1  UNL     1       1.553  58.813  -2.972  1.00  0.00     0.045 C 
BRANCH  30  32
HETATM   32  C30 UNL     1      -0.312  57.577  -4.111  1.00  0.00     0.197 C 
BRANCH  32  33
HETATM   33  O3  UNL     1      -0.678  56.753  -5.209  1.00  0.00    -0.397 OA
HETATM   34  H46 UNL     1      -0.402  57.231  -6.009  1.00  0.00     0.209 HD
ENDBRANCH  32  33
ENDBRANCH  30  32
ENDBRANCH  28  29
ENDBRANCH  27  28
ENDBRANCH  25  27
ENDBRANCH   1  25
TORSDOF 6
ENDMDL
MODEL 5
REMARK minimizedAffinity -7.49131536
REMARK CNNscore 0.394729704
REMARK CNNaffinity 6.55628204
REMARK  6 active torsions:
REMARK  status: ('A' for Active; 'I' for Inactive)
REMARK    1  A    between atoms: C2_2  and  C30_32 
REMARK    2  A    between atoms: C3_3  and  C4_4 
REMARK    3  A    between atoms: C4_4  and  C5_5 
REMARK    4  A    between atoms: C5_5  and  C6_6 
REMARK    5  A    between atoms: C6_6  and  C8_8 
REMARK    6  A    between atoms: C30_32  and  O3_33 
ROOT
HETATM    1  C8  UNL     1      -6.092  47.348 -20.616  1.00  0.00    -0.002 C 
HETATM    2  C9  UNL     1      -6.380  47.593 -19.109  1.00  0.00     0.007 C 
HETATM    3  C10 UNL     1      -5.379  48.663 -18.631  1.00  0.00     0.015 C 
HETATM    4  C11 UNL     1      -4.785  49.270 -19.918  1.00  0.00    -0.005 C 
HETATM    5  C12 UNL     1      -5.791  50.350 -20.422  1.00  0.00     0.021 C 
HETATM    6  C13 UNL     1      -3.443  49.988 -19.881  1.00  0.00    -0.000 C 
HETATM    7  C14 UNL     1      -2.623  50.008 -20.965  1.00  0.00    -0.060 C 
HETATM    8  C15 UNL     1      -3.003  49.242 -22.244  1.00  0.00     0.036 C 
HETATM    9  C16 UNL     1      -4.308  48.414 -22.228  1.00  0.00     0.015 C 
HETATM   10  C17 UNL     1      -4.676  47.966 -20.810  1.00  0.00    -0.028 C 
HETATM   11  C18 UNL     1      -3.583  46.974 -20.315  1.00  0.00     0.016 C 
HETATM   12  C19 UNL     1      -1.259  50.754 -20.988  1.00  0.00    -0.014 C 
HETATM   13  C20 UNL     1      -0.157  49.683 -20.830  1.00  0.00     0.020 C 
HETATM   14  C21 UNL     1      -1.077  51.504 -22.334  1.00  0.00     0.021 C 
HETATM   15  C22 UNL     1       0.027  52.557 -22.381  1.00  0.00     0.080 C 
HETATM   16  C23 UNL     1       0.855  52.668 -21.124  1.00  0.00     0.135 C 
HETATM   17  O1  UNL     1       2.067  52.872 -21.210  1.00  0.00    -0.297 OA
HETATM   18  C24 UNL     1       0.128  52.648 -19.774  1.00  0.00     0.018 C 
HETATM   19  C25 UNL     1      -0.178  54.117 -19.418  1.00  0.00     0.023 C 
HETATM   20  C26 UNL     1       1.098  52.103 -18.703  1.00  0.00     0.023 C 
HETATM   21  C27 UNL     1      -1.215  51.843 -19.869  1.00  0.00     0.020 C 
HETATM   22  C28 UNL     1      -1.667  51.267 -18.527  1.00  0.00     0.090 C 
HETATM   23  C29 UNL     1      -3.063  50.715 -18.631  1.00  0.00     0.157 C 
HETATM   24  O2  UNL     1      -3.849  50.842 -17.696  1.00  0.00    -0.293 OA
ENDROOT
BRANCH   1  25
HETATM   25  C6  UNL     1      -6.481  45.920 -21.107  1.00  0.00    -0.014 C 
HETATM   26  C7  UNL     1      -5.323  44.950 -21.369  1.00  0.00     0.010 C 
BRANCH  25  27
HETATM   27  C5  UNL     1      -7.450  45.984 -22.313  1.00  0.00     0.008 C 
BRANCH  27  28
HETATM   28  C4  UNL     1      -6.832  46.520 -23.617  1.00  0.00     0.028 C 
BRANCH  28  29
HETATM   29  C3  UNL     1      -7.838  47.036 -24.608  1.00  0.00    -0.022 C 
HETATM   30  C2  UNL     1      -8.323  48.291 -24.736  1.00  0.00    -0.064 C 
HETATM   31  C1  UNL     1      -7.937  49.449 -23.852  1.00  0.00     0.045 C 
BRANCH  30  32
HETATM   32  C30 UNL     1      -9.351  48.679 -25.778  1.00  0.00     0.197 C 
BRANCH  32  33
HETATM   33  O3  UNL     1      -9.534  50.085 -25.867  1.00  0.00    -0.397 OA
HETATM   34  H46 UNL     1      -9.862  50.370 -24.997  1.00  0.00     0.209 HD
ENDBRANCH  32  33
ENDBRANCH  30  32
ENDBRANCH  28  29
ENDBRANCH  27  28
ENDBRANCH  25  27
ENDBRANCH   1  25
TORSDOF 6
ENDMDL
MODEL 6
REMARK minimizedAffinity -8.75162315
REMARK CNNscore 0.394223541
REMARK CNNaffinity 6.96019888
REMARK  6 active torsions:
REMARK  status: ('A' for Active; 'I' for Inactive)
REMARK    1  A    between atoms: C2_2  and  C30_32 
REMARK    2  A    between atoms: C3_3  and  C4_4 
REMARK    3  A    between atoms: C4_4  and  C5_5 
REMARK    4  A    between atoms: C5_5  and  C6_6 
REMARK    5  A    between atoms: C6_6  and  C8_8 
REMARK    6  A    between atoms: C30_32  and  O3_33 
ROOT
HETATM    1  C8  UNL     1      -0.679  51.295 -17.141  1.00  0.00    -0.002 C 
HETATM    2  C9  UNL     1       0.853  51.538 -17.224  1.00  0.00     0.007 C 
HETATM    3  C10 UNL     1       1.178  51.843 -18.699  1.00  0.00     0.015 C 
HETATM    4  C11 UNL     1      -0.184  52.124 -19.367  1.00  0.00    -0.005 C 
HETATM    5  C12 UNL     1      -0.539  53.614 -19.074  1.00  0.00     0.021 C 
HETATM    6  C13 UNL     1      -0.344  51.983 -20.874  1.00  0.00    -0.000 C 
HETATM    7  C14 UNL     1      -1.535  51.635 -21.428  1.00  0.00    -0.060 C 
HETATM    8  C15 UNL     1      -2.744  51.306 -20.534  1.00  0.00     0.036 C 
HETATM    9  C16 UNL     1      -2.536  51.331 -19.003  1.00  0.00     0.015 C 
HETATM   10  C17 UNL     1      -1.078  51.048 -18.625  1.00  0.00    -0.028 C 
HETATM   11  C18 UNL     1      -0.746  49.584 -19.037  1.00  0.00     0.016 C 
HETATM   12  C19 UNL     1      -1.759  51.511 -22.962  1.00  0.00    -0.014 C 
HETATM   13  C20 UNL     1      -1.760  50.002 -23.296  1.00  0.00     0.020 C 
HETATM   14  C21 UNL     1      -3.119  52.141 -23.362  1.00  0.00     0.021 C 
HETATM   15  C22 UNL     1      -3.328  52.416 -24.848  1.00  0.00     0.080 C 
HETATM   16  C23 UNL     1      -2.205  51.956 -25.746  1.00  0.00     0.135 C 
HETATM   17  O1  UNL     1      -2.467  51.469 -26.847  1.00  0.00    -0.297 OA
HETATM   18  C24 UNL     1      -0.764  52.233 -25.301  1.00  0.00     0.018 C 
HETATM   19  C25 UNL     1      -0.371  53.596 -25.907  1.00  0.00     0.023 C 
HETATM   20  C26 UNL     1       0.156  51.163 -25.930  1.00  0.00     0.023 C 
HETATM   21  C27 UNL     1      -0.660  52.306 -23.738  1.00  0.00     0.020 C 
HETATM   22  C28 UNL     1       0.734  51.969 -23.211  1.00  0.00     0.090 C 
HETATM   23  C29 UNL     1       0.835  52.283 -21.743  1.00  0.00     0.157 C 
HETATM   24  O2  UNL     1       1.875  52.746 -21.280  1.00  0.00    -0.293 OA
ENDROOT
BRANCH   1  25
HETATM   25  C6  UNL     1      -1.105  50.357 -15.970  1.00  0.00    -0.014 C 
HETATM   26  C7  UNL     1      -2.517  49.765 -16.049  1.00  0.00     0.010 C 
BRANCH  25  27
HETATM   27  C5  UNL     1      -0.846  51.020 -14.594  1.00  0.00     0.008 C 
BRANCH  27  28
HETATM   28  C4  UNL     1       0.483  51.788 -14.482  1.00  0.00     0.028 C 
BRANCH  28  29
HETATM   29  C3  UNL     1       1.539  51.078 -13.681  1.00  0.00    -0.022 C 
HETATM   30  C2  UNL     1       2.873  51.041 -13.896  1.00  0.00    -0.064 C 
HETATM   31  C1  UNL     1       3.572  51.723 -15.043  1.00  0.00     0.045 C 
BRANCH  30  32
HETATM   32  C30 UNL     1       3.832  50.271 -13.012  1.00  0.00     0.197 C 
BRANCH  32  33
HETATM   33  O3  UNL     1       4.855  49.622 -13.754  1.00  0.00    -0.397 OA
HETATM   34  H46 UNL     1       4.405  48.988 -14.338  1.00  0.00     0.209 HD
ENDBRANCH  32  33
ENDBRANCH  30  32
ENDBRANCH  28  29
ENDBRANCH  27  28
ENDBRANCH  25  27
ENDBRANCH   1  25
TORSDOF 6
ENDMDL
MODEL 7
REMARK minimizedAffinity -7.57117367
REMARK CNNscore 0.376494825
REMARK CNNaffinity 6.5690589
REMARK  6 active torsions:
REMARK  status: ('A' for Active; 'I' for Inactive)
REMARK    1  A    between atoms: C2_2  and  C30_32 
REMARK    2  A    between atoms: C3_3  and  C4_4 
REMARK    3  A    between atoms: C4_4  and  C5_5 
REMARK    4  A    between atoms: C5_5  and  C6_6 
REMARK    5  A    between atoms: C6_6  and  C8_8 
REMARK    6  A    between atoms: C30_32  and  O3_33 
ROOT
HETATM    1  C8  UNL     1      -3.904  48.996 -23.939  1.00  0.00    -0.002 C 
HETATM    2  C9  UNL     1      -3.196  49.957 -22.946  1.00  0.00     0.007 C 
HETATM    3  C10 UNL     1      -3.865  49.753 -21.573  1.00  0.00     0.015 C 
HETATM    4  C11 UNL     1      -4.682  48.452 -21.706  1.00  0.00    -0.005 C 
HETATM    5  C12 UNL     1      -3.696  47.266 -21.469  1.00  0.00     0.021 C 
HETATM    6  C13 UNL     1      -5.845  48.174 -20.765  1.00  0.00    -0.000 C 
HETATM    7  C14 UNL     1      -6.909  47.427 -21.159  1.00  0.00    -0.060 C 
HETATM    8  C15 UNL     1      -6.998  46.896 -22.601  1.00  0.00     0.036 C 
HETATM    9  C16 UNL     1      -5.873  47.288 -23.583  1.00  0.00     0.015 C 
HETATM   10  C17 UNL     1      -5.213  48.614 -23.189  1.00  0.00    -0.028 C 
HETATM   11  C18 UNL     1      -6.272  49.746 -23.341  1.00  0.00     0.016 C 
HETATM   12  C19 UNL     1      -8.106  47.088 -20.225  1.00  0.00    -0.014 C 
HETATM   13  C20 UNL     1      -9.273  48.015 -20.632  1.00  0.00     0.020 C 
HETATM   14  C21 UNL     1      -8.524  45.604 -20.400  1.00  0.00     0.021 C 
HETATM   15  C22 UNL     1      -9.433  45.022 -19.321  1.00  0.00     0.080 C 
HETATM   16  C23 UNL     1      -9.874  46.004 -18.263  1.00  0.00     0.135 C 
HETATM   17  O1  UNL     1     -11.022  45.944 -17.818  1.00  0.00    -0.297 OA
HETATM   18  C24 UNL     1      -8.827  46.964 -17.685  1.00  0.00     0.018 C 
HETATM   19  C25 UNL     1      -8.225  46.266 -16.449  1.00  0.00     0.023 C 
HETATM   20  C26 UNL     1      -9.550  48.237 -17.193  1.00  0.00     0.023 C 
HETATM   21  C27 UNL     1      -7.692  47.253 -18.727  1.00  0.00     0.020 C 
HETATM   22  C28 UNL     1      -6.991  48.592 -18.498  1.00  0.00     0.090 C 
HETATM   23  C29 UNL     1      -5.769  48.707 -19.370  1.00  0.00     0.157 C 
HETATM   24  O2  UNL     1      -4.755  49.251 -18.943  1.00  0.00    -0.293 OA
ENDROOT
BRANCH   1  25
HETATM   25  C6  UNL     1      -3.874  49.486 -25.419  1.00  0.00    -0.014 C 
HETATM   26  C7  UNL     1      -3.647  48.412 -26.490  1.00  0.00     0.010 C 
BRANCH  25  27
HETATM   27  C5  UNL     1      -2.902  50.678 -25.599  1.00  0.00     0.008 C 
BRANCH  27  28
HETATM   28  C4  UNL     1      -1.726  50.421 -26.558  1.00  0.00     0.028 C 
BRANCH  28  29
HETATM   29  C3  UNL     1      -0.392  50.869 -26.030  1.00  0.00    -0.022 C 
HETATM   30  C2  UNL     1       0.626  51.449 -26.704  1.00  0.00    -0.064 C 
HETATM   31  C1  UNL     1       0.612  51.746 -28.181  1.00  0.00     0.045 C 
BRANCH  30  32
HETATM   32  C30 UNL     1       1.934  51.844 -26.048  1.00  0.00     0.197 C 
BRANCH  32  33
HETATM   33  O3  UNL     1       2.990  50.944 -26.355  1.00  0.00    -0.397 OA
HETATM   34  H46 UNL     1       2.721  50.080 -25.998  1.00  0.00     0.209 HD
ENDBRANCH  32  33
ENDBRANCH  30  32
ENDBRANCH  28  29
ENDBRANCH  27  28
ENDBRANCH  25  27
ENDBRANCH   1  25
TORSDOF 6
ENDMDL
MODEL 8
REMARK minimizedAffinity -7.63677883
REMARK CNNscore 0.376196742
REMARK CNNaffinity 5.63455343
REMARK  6 active torsions:
REMARK  status: ('A' for Active; 'I' for Inactive)
REMARK    1  A    between atoms: C2_2  and  C30_32 
REMARK    2  A    between atoms: C3_3  and  C4_4 
REMARK    3  A    between atoms: C4_4  and  C5_5 
REMARK    4  A    between atoms: C5_5  and  C6_6 
REMARK    5  A    between atoms: C6_6  and  C8_8 
REMARK    6  A    between atoms: C30_32  and  O3_33 
ROOT
HETATM    1  C8  UNL     1       3.356  66.426 -37.076  1.00  0.00    -0.002 C 
HETATM    2  C9  UNL     1       2.066  66.591 -36.228  1.00  0.00     0.007 C 
HETATM    3  C10 UNL     1       1.093  67.451 -37.057  1.00  0.00     0.015 C 
HETATM    4  C11 UNL     1       1.676  67.466 -38.484  1.00  0.00    -0.005 C 
HETATM    5  C12 UNL     1       1.208  66.154 -39.185  1.00  0.00     0.021 C 
HETATM    6  C13 UNL     1       1.298  68.573 -39.458  1.00  0.00    -0.000 C 
HETATM    7  C14 UNL     1       2.155  68.982 -40.430  1.00  0.00    -0.060 C 
HETATM    8  C15 UNL     1       3.567  68.378 -40.528  1.00  0.00     0.036 C 
HETATM    9  C16 UNL     1       3.985  67.346 -39.459  1.00  0.00     0.015 C 
HETATM   10  C17 UNL     1       3.221  67.549 -38.146  1.00  0.00    -0.028 C 
HETATM   11  C18 UNL     1       3.646  68.921 -37.545  1.00  0.00     0.016 C 
HETATM   12  C19 UNL     1       1.803  70.085 -41.469  1.00  0.00    -0.014 C 
HETATM   13  C20 UNL     1       2.527  71.375 -41.019  1.00  0.00     0.020 C 
HETATM   14  C21 UNL     1       2.291  69.671 -42.882  1.00  0.00     0.021 C 
HETATM   15  C22 UNL     1       1.722  70.463 -44.056  1.00  0.00     0.080 C 
HETATM   16  C23 UNL     1       0.816  71.608 -43.672  1.00  0.00     0.135 C 
HETATM   17  O1  UNL     1       0.862  72.660 -44.311  1.00  0.00    -0.297 OA
HETATM   18  C24 UNL     1      -0.226  71.369 -42.572  1.00  0.00     0.018 C 
HETATM   19  C25 UNL     1      -1.513  70.900 -43.281  1.00  0.00     0.023 C 
HETATM   20  C26 UNL     1      -0.536  72.720 -41.892  1.00  0.00     0.023 C 
HETATM   21  C27 UNL     1       0.254  70.261 -41.572  1.00  0.00     0.020 C 
HETATM   22  C28 UNL     1      -0.376  70.388 -40.186  1.00  0.00     0.090 C 
HETATM   23  C29 UNL     1      -0.067  69.175 -39.350  1.00  0.00     0.157 C 
HETATM   24  O2  UNL     1      -0.912  68.720 -38.584  1.00  0.00    -0.293 OA
ENDROOT
BRANCH   1  25
HETATM   25  C6  UNL     1       4.644  66.201 -36.225  1.00  0.00    -0.014 C 
HETATM   26  C7  UNL     1       5.382  67.461 -35.758  1.00  0.00     0.010 C 
BRANCH  25  27
HETATM   27  C5  UNL     1       5.607  65.204 -36.915  1.00  0.00     0.008 C 
BRANCH  27  28
HETATM   28  C4  UNL     1       6.358  64.258 -35.960  1.00  0.00     0.028 C 
BRANCH  28  29
HETATM   29  C3  UNL     1       5.475  63.264 -35.258  1.00  0.00    -0.022 C 
HETATM   30  C2  UNL     1       4.858  63.388 -34.061  1.00  0.00    -0.064 C 
HETATM   31  C1  UNL     1       4.967  64.594 -33.165  1.00  0.00     0.045 C 
BRANCH  30  32
HETATM   32  C30 UNL     1       3.999  62.296 -33.457  1.00  0.00     0.197 C 
BRANCH  32  33
HETATM   33  O3  UNL     1       4.007  62.321 -32.036  1.00  0.00    -0.397 OA
HETATM   34  H46 UNL     1       4.928  62.164 -31.768  1.00  0.00     0.209 HD
ENDBRANCH  32  33
ENDBRANCH  30  32
ENDBRANCH  28  29
ENDBRANCH  27  28
ENDBRANCH  25  27
ENDBRANCH   1  25
TORSDOF 6
ENDMDL
MODEL 9
REMARK minimizedAffinity -8.08733749
REMARK CNNscore 0.363933206
REMARK CNNaffinity 6.63769102
REMARK  6 active torsions:
REMARK  status: ('A' for Active; 'I' for Inactive)
REMARK    1  A    between atoms: C2_2  and  C30_32 
REMARK    2  A    between atoms: C3_3  and  C4_4 
REMARK    3  A    between atoms: C4_4  and  C5_5 
REMARK    4  A    between atoms: C5_5  and  C6_6 
REMARK    5  A    between atoms: C6_6  and  C8_8 
REMARK    6  A    between atoms: C30_32  and  O3_33 
ROOT
HETATM    1  C8  UNL     1      -3.553  49.403 -22.992  1.00  0.00    -0.002 C 
HETATM    2  C9  UNL     1      -4.134  48.768 -24.285  1.00  0.00     0.007 C 
HETATM    3  C10 UNL     1      -5.563  48.302 -23.951  1.00  0.00     0.015 C 
HETATM    4  C11 UNL     1      -5.912  48.981 -22.611  1.00  0.00    -0.005 C 
HETATM    5  C12 UNL     1      -6.397  50.426 -22.943  1.00  0.00     0.021 C 
HETATM    6  C13 UNL     1      -7.005  48.410 -21.720  1.00  0.00    -0.000 C 
HETATM    7  C14 UNL     1      -6.964  48.556 -20.369  1.00  0.00    -0.060 C 
HETATM    8  C15 UNL     1      -5.766  49.251 -19.697  1.00  0.00     0.036 C 
HETATM    9  C16 UNL     1      -4.604  49.717 -20.601  1.00  0.00     0.015 C 
HETATM   10  C17 UNL     1      -4.511  48.881 -21.881  1.00  0.00    -0.028 C 
HETATM   11  C18 UNL     1      -4.130  47.425 -21.482  1.00  0.00     0.016 C 
HETATM   12  C19 UNL     1      -8.071  48.018 -19.418  1.00  0.00    -0.014 C 
HETATM   13  C20 UNL     1      -7.521  46.729 -18.769  1.00  0.00     0.020 C 
HETATM   14  C21 UNL     1      -8.395  49.066 -18.321  1.00  0.00     0.021 C 
HETATM   15  C22 UNL     1      -9.685  48.849 -17.535  1.00  0.00     0.080 C 
HETATM   16  C23 UNL     1     -10.435  47.585 -17.878  1.00  0.00     0.135 C 
HETATM   17  O1  UNL     1     -10.989  46.944 -16.984  1.00  0.00    -0.297 OA
HETATM   18  C24 UNL     1     -10.588  47.214 -19.359  1.00  0.00     0.018 C 
HETATM   19  C25 UNL     1     -11.911  47.847 -19.836  1.00  0.00     0.023 C 
HETATM   20  C26 UNL     1     -10.741  45.681 -19.465  1.00  0.00     0.023 C 
HETATM   21  C27 UNL     1      -9.399  47.784 -20.208  1.00  0.00     0.020 C 
HETATM   22  C28 UNL     1      -9.142  46.992 -21.490  1.00  0.00     0.090 C 
HETATM   23  C29 UNL     1      -8.159  47.716 -22.370  1.00  0.00     0.157 C 
HETATM   24  O2  UNL     1      -8.298  47.704 -23.591  1.00  0.00    -0.293 OA
ENDROOT
BRANCH   1  25
HETATM   25  C6  UNL     1      -1.999  49.323 -22.893  1.00  0.00    -0.014 C 
HETATM   26  C7  UNL     1      -1.427  48.712 -21.609  1.00  0.00     0.010 C 
BRANCH  25  27
HETATM   27  C5  UNL     1      -1.342  50.688 -23.212  1.00  0.00     0.008 C 
BRANCH  27  28
HETATM   28  C4  UNL     1      -1.250  51.659 -22.022  1.00  0.00     0.028 C 
BRANCH  28  29
HETATM   29  C3  UNL     1      -0.004  52.501 -22.009  1.00  0.00    -0.022 C 
HETATM   30  C2  UNL     1       0.570  53.135 -20.963  1.00  0.00    -0.064 C 
HETATM   31  C1  UNL     1       0.027  53.128 -19.558  1.00  0.00     0.045 C 
BRANCH  30  32
HETATM   32  C30 UNL     1       1.829  53.968 -21.091  1.00  0.00     0.197 C 
BRANCH  32  33
HETATM   33  O3  UNL     1       1.732  54.948 -22.115  1.00  0.00    -0.397 OA
HETATM   34  H46 UNL     1       1.607  54.459 -22.946  1.00  0.00     0.209 HD
ENDBRANCH  32  33
ENDBRANCH  30  32
ENDBRANCH  28  29
ENDBRANCH  27  28
ENDBRANCH  25  27
ENDBRANCH   1  25
TORSDOF 6
ENDMDL
