MODEL 1
REMARK minimizedAffinity -10.0032454
REMARK  9 active torsions:
REMARK  status: ('A' for Active; 'I' for Inactive)
REMARK    1  A    between atoms: C2_2  and  C3_3 
REMARK    2  A    between atoms: C2_2  and  C9_12 
REMARK    3  A    between atoms: C3_3  and  C4_4 
REMARK    4  A    between atoms: C4_4  and  C5_5 
REMARK    5  A    between atoms: C5_5  and  O1_6 
REMARK    6  A    between atoms: C5_5  and  C6_7 
REMARK    7  A    between atoms: C6_7  and  O2_9 
REMARK    8  A    between atoms: C6_7  and  C8_10 
REMARK    9  A    between atoms: C8_10  and  O3_11 
ROOT
HETATM    1  C9  UNL     1      -0.781  50.166 -21.388  1.00  0.00    -0.002 C 
HETATM    2  C10 UNL     1      -0.919  49.657 -19.927  1.00  0.00     0.007 C 
HETATM    3  C11 UNL     1      -2.241  48.868 -19.847  1.00  0.00     0.015 C 
HETATM    4  C12 UNL     1      -2.633  48.591 -21.313  1.00  0.00    -0.005 C 
HETATM    5  C13 UNL     1      -1.810  47.347 -21.774  1.00  0.00     0.021 C 
HETATM    6  C14 UNL     1      -4.067  48.248 -21.691  1.00  0.00    -0.000 C 
HETATM    7  C15 UNL     1      -4.563  48.566 -22.917  1.00  0.00    -0.060 C 
HETATM    8  C16 UNL     1      -3.713  49.342 -23.930  1.00  0.00     0.036 C 
HETATM    9  C17 UNL     1      -2.307  49.799 -23.492  1.00  0.00     0.015 C 
HETATM   10  C18 UNL     1      -2.211  49.967 -21.972  1.00  0.00    -0.028 C 
HETATM   11  C19 UNL     1      -3.133  51.149 -21.555  1.00  0.00     0.016 C 
HETATM   12  C20 UNL     1      -6.013  48.219 -23.349  1.00  0.00    -0.014 C 
HETATM   13  C21 UNL     1      -6.864  49.457 -22.987  1.00  0.00     0.020 C 
HETATM   14  C22 UNL     1      -6.115  47.956 -24.874  1.00  0.00     0.021 C 
HETATM   15  C23 UNL     1      -7.484  47.467 -25.318  1.00  0.00     0.080 C 
HETATM   16  C24 UNL     1      -7.846  46.196 -24.594  1.00  0.00     0.135 C 
HETATM   17  O4  UNL     1      -8.262  45.226 -25.230  1.00  0.00    -0.297 OA
HETATM   18  C25 UNL     1      -7.763  46.204 -23.061  1.00  0.00     0.018 C 
HETATM   19  C26 UNL     1      -7.754  44.729 -22.584  1.00  0.00     0.023 C 
HETATM   20  C27 UNL     1      -9.047  46.844 -22.515  1.00  0.00     0.023 C 
HETATM   21  C28 UNL     1      -6.428  46.898 -22.613  1.00  0.00     0.020 C 
HETATM   22  C29 UNL     1      -6.311  47.087 -21.098  1.00  0.00     0.090 C 
HETATM   23  C30 UNL     1      -4.916  47.505 -20.701  1.00  0.00     0.157 C 
HETATM   24  O5  UNL     1      -4.505  47.253 -19.570  1.00  0.00    -0.293 OA
ENDROOT
BRANCH   1  25
HETATM   25  C2  UNL     1       0.021  51.498 -21.517  1.00  0.00    -0.014 C 
HETATM   26  C1  UNL     1       0.199  52.317 -20.236  1.00  0.00     0.010 C 
BRANCH  25  27
HETATM   27  C3  UNL     1      -0.516  52.371 -22.675  1.00  0.00     0.007 C 
BRANCH  27  28
HETATM   28  C4  UNL     1      -0.281  51.792 -24.084  1.00  0.00     0.035 C 
BRANCH  28  29
HETATM   29  C5  UNL     1       0.959  52.350 -24.797  1.00  0.00     0.154 C 
BRANCH  29  30
HETATM   30  O1  UNL     1       0.868  53.784 -24.829  1.00  0.00    -0.392 OA
HETATM   31  H10 UNL     1       1.601  54.059 -25.422  1.00  0.00     0.210 HD
ENDBRANCH  29  30
BRANCH  29  32
HETATM   32  C6  UNL     1       1.163  51.835 -26.247  1.00  0.00     0.101 C 
HETATM   33  C7  UNL     1       0.087  50.832 -26.684  1.00  0.00     0.051 C 
BRANCH  32  34
HETATM   34  O2  UNL     1       1.018  52.989 -27.113  1.00  0.00    -0.385 OA
HETATM   35  H14 UNL     1       1.514  52.765 -27.928  1.00  0.00     0.210 HD
ENDBRANCH  32  34
BRANCH  32  36
HETATM   36  C8  UNL     1       2.580  51.266 -26.454  1.00  0.00     0.204 C 
BRANCH  36  37
HETATM   37  O3  UNL     1       3.323  52.121 -27.330  1.00  0.00    -0.398 OA
HETATM   38  H17 UNL     1       3.090  51.879 -28.244  1.00  0.00     0.209 HD
ENDBRANCH  36  37
ENDBRANCH  32  36
ENDBRANCH  29  32
ENDBRANCH  28  29
ENDBRANCH  27  28
ENDBRANCH  25  27
ENDBRANCH   1  25
TORSDOF 9
ENDMDL
MODEL 2
REMARK minimizedAffinity -9.77712917
REMARK  9 active torsions:
REMARK  status: ('A' for Active; 'I' for Inactive)
REMARK    1  A    between atoms: C2_2  and  C3_3 
REMARK    2  A    between atoms: C2_2  and  C9_12 
REMARK    3  A    between atoms: C3_3  and  C4_4 
REMARK    4  A    between atoms: C4_4  and  C5_5 
REMARK    5  A    between atoms: C5_5  and  O1_6 
REMARK    6  A    between atoms: C5_5  and  C6_7 
REMARK    7  A    between atoms: C6_7  and  O2_9 
REMARK    8  A    between atoms: C6_7  and  C8_10 
REMARK    9  A    between atoms: C8_10  and  O3_11 
ROOT
HETATM    1  C9  UNL     1      -1.315  50.689 -23.021  1.00  0.00    -0.002 C 
HETATM    2  C10 UNL     1      -0.860  52.163 -23.205  1.00  0.00     0.007 C 
HETATM    3  C11 UNL     1      -0.324  52.642 -21.841  1.00  0.00     0.015 C 
HETATM    4  C12 UNL     1      -0.100  51.355 -21.022  1.00  0.00    -0.005 C 
HETATM    5  C13 UNL     1       1.279  50.771 -21.464  1.00  0.00     0.021 C 
HETATM    6  C14 UNL     1      -0.016  51.396 -19.502  1.00  0.00    -0.000 C 
HETATM    7  C15 UNL     1      -0.399  50.329 -18.750  1.00  0.00    -0.060 C 
HETATM    8  C16 UNL     1      -0.994  49.079 -19.410  1.00  0.00     0.036 C 
HETATM    9  C17 UNL     1      -1.197  49.096 -20.938  1.00  0.00     0.015 C 
HETATM   10  C18 UNL     1      -1.368  50.521 -21.474  1.00  0.00    -0.028 C 
HETATM   11  C19 UNL     1      -2.703  51.094 -20.915  1.00  0.00     0.016 C 
HETATM   12  C20 UNL     1      -0.314  50.323 -17.201  1.00  0.00    -0.014 C 
HETATM   13  C21 UNL     1      -1.690  50.820 -16.704  1.00  0.00     0.020 C 
HETATM   14  C22 UNL     1      -0.050  48.900 -16.642  1.00  0.00     0.021 C 
HETATM   15  C23 UNL     1       0.190  48.870 -15.142  1.00  0.00     0.080 C 
HETATM   16  C24 UNL     1       1.365  49.743 -14.782  1.00  0.00     0.135 C 
HETATM   17  O4  UNL     1       2.253  49.304 -14.049  1.00  0.00    -0.297 OA
HETATM   18  C25 UNL     1       1.348  51.195 -15.282  1.00  0.00     0.018 C 
HETATM   19  C26 UNL     1       2.794  51.745 -15.171  1.00  0.00     0.023 C 
HETATM   20  C27 UNL     1       0.479  52.022 -14.324  1.00  0.00     0.023 C 
HETATM   21  C28 UNL     1       0.900  51.225 -16.786  1.00  0.00     0.020 C 
HETATM   22  C29 UNL     1       0.713  52.639 -17.343  1.00  0.00     0.090 C 
HETATM   23  C30 UNL     1       0.547  52.622 -18.844  1.00  0.00     0.157 C 
HETATM   24  O5  UNL     1       0.852  53.616 -19.500  1.00  0.00    -0.293 OA
ENDROOT
BRANCH   1  25
HETATM   25  C2  UNL     1      -2.477  50.266 -23.971  1.00  0.00    -0.014 C 
HETATM   26  C1  UNL     1      -3.021  48.846 -23.798  1.00  0.00     0.010 C 
BRANCH  25  27
HETATM   27  C3  UNL     1      -2.135  50.564 -25.449  1.00  0.00     0.007 C 
BRANCH  27  28
HETATM   28  C4  UNL     1      -2.445  52.002 -25.907  1.00  0.00     0.035 C 
BRANCH  28  29
HETATM   29  C5  UNL     1      -2.003  52.317 -27.343  1.00  0.00     0.154 C 
BRANCH  29  30
HETATM   30  O1  UNL     1      -2.291  51.182 -28.176  1.00  0.00    -0.392 OA
HETATM   31  H10 UNL     1      -1.852  51.391 -29.029  1.00  0.00     0.210 HD
ENDBRANCH  29  30
BRANCH  29  32
HETATM   32  C6  UNL     1      -0.501  52.676 -27.499  1.00  0.00     0.101 C 
HETATM   33  C7  UNL     1       0.395  51.441 -27.673  1.00  0.00     0.051 C 
BRANCH  32  34
HETATM   34  O2  UNL     1      -0.389  53.436 -28.727  1.00  0.00    -0.385 OA
HETATM   35  H14 UNL     1       0.424  53.973 -28.626  1.00  0.00     0.210 HD
ENDBRANCH  32  34
BRANCH  32  36
HETATM   36  C8  UNL     1      -0.007  53.570 -26.344  1.00  0.00     0.204 C 
BRANCH  36  37
HETATM   37  O3  UNL     1       0.073  54.930 -26.785  1.00  0.00    -0.398 OA
HETATM   38  H17 UNL     1       0.927  55.041 -27.240  1.00  0.00     0.209 HD
ENDBRANCH  36  37
ENDBRANCH  32  36
ENDBRANCH  29  32
ENDBRANCH  28  29
ENDBRANCH  27  28
ENDBRANCH  25  27
ENDBRANCH   1  25
TORSDOF 9
ENDMDL
MODEL 3
REMARK minimizedAffinity -9.45122337
REMARK  9 active torsions:
REMARK  status: ('A' for Active; 'I' for Inactive)
REMARK    1  A    between atoms: C2_2  and  C3_3 
REMARK    2  A    between atoms: C2_2  and  C9_12 
REMARK    3  A    between atoms: C3_3  and  C4_4 
REMARK    4  A    between atoms: C4_4  and  C5_5 
REMARK    5  A    between atoms: C5_5  and  O1_6 
REMARK    6  A    between atoms: C5_5  and  C6_7 
REMARK    7  A    between atoms: C6_7  and  O2_9 
REMARK    8  A    between atoms: C6_7  and  C8_10 
REMARK    9  A    between atoms: C8_10  and  O3_11 
ROOT
HETATM    1  C9  UNL     1      -4.002  50.336 -24.363  1.00  0.00    -0.002 C 
HETATM    2  C10 UNL     1      -5.476  50.027 -23.979  1.00  0.00     0.007 C 
HETATM    3  C11 UNL     1      -5.511  49.830 -22.450  1.00  0.00     0.015 C 
HETATM    4  C12 UNL     1      -4.180  50.415 -21.938  1.00  0.00    -0.005 C 
HETATM    5  C13 UNL     1      -4.373  51.961 -21.837  1.00  0.00     0.021 C 
HETATM    6  C14 UNL     1      -3.621  50.020 -20.578  1.00  0.00    -0.000 C 
HETATM    7  C15 UNL     1      -2.280  50.019 -20.345  1.00  0.00    -0.060 C 
HETATM    8  C16 UNL     1      -1.290  50.347 -21.468  1.00  0.00     0.036 C 
HETATM    9  C17 UNL     1      -1.858  50.618 -22.876  1.00  0.00     0.015 C 
HETATM   10  C18 UNL     1      -3.208  49.925 -23.088  1.00  0.00    -0.028 C 
HETATM   11  C19 UNL     1      -2.972  48.387 -23.072  1.00  0.00     0.016 C 
HETATM   12  C20 UNL     1      -1.670  49.641 -18.969  1.00  0.00    -0.014 C 
HETATM   13  C21 UNL     1      -1.382  48.124 -19.042  1.00  0.00     0.020 C 
HETATM   14  C22 UNL     1      -0.346  50.402 -18.696  1.00  0.00     0.021 C 
HETATM   15  C23 UNL     1       0.208  50.177 -17.298  1.00  0.00     0.080 C 
HETATM   16  C24 UNL     1      -0.801  50.597 -16.261  1.00  0.00     0.135 C 
HETATM   17  O4  UNL     1      -0.456  51.328 -15.331  1.00  0.00    -0.297 OA
HETATM   18  C25 UNL     1      -2.215  50.007 -16.366  1.00  0.00     0.018 C 
HETATM   19  C26 UNL     1      -3.154  50.882 -15.497  1.00  0.00     0.023 C 
HETATM   20  C27 UNL     1      -2.198  48.606 -15.739  1.00  0.00     0.023 C 
HETATM   21  C28 UNL     1      -2.694  50.063 -17.860  1.00  0.00     0.020 C 
HETATM   22  C29 UNL     1      -4.039  49.369 -18.101  1.00  0.00     0.090 C 
HETATM   23  C30 UNL     1      -4.580  49.679 -19.476  1.00  0.00     0.157 C 
HETATM   24  O5  UNL     1      -5.791  49.624 -19.677  1.00  0.00    -0.293 OA
ENDROOT
BRANCH   1  25
HETATM   25  C2  UNL     1      -3.617  49.873 -25.801  1.00  0.00    -0.014 C 
HETATM   26  C1  UNL     1      -3.103  48.438 -25.944  1.00  0.00     0.010 C 
BRANCH  25  27
HETATM   27  C3  UNL     1      -2.666  50.884 -26.484  1.00  0.00     0.007 C 
BRANCH  27  28
HETATM   28  C4  UNL     1      -1.179  50.479 -26.476  1.00  0.00     0.035 C 
BRANCH  28  29
HETATM   29  C5  UNL     1      -0.242  51.528 -25.861  1.00  0.00     0.154 C 
BRANCH  29  30
HETATM   30  O1  UNL     1      -1.022  52.663 -25.452  1.00  0.00    -0.392 OA
HETATM   31  H10 UNL     1      -0.355  53.342 -25.214  1.00  0.00     0.210 HD
ENDBRANCH  29  30
BRANCH  29  32
HETATM   32  C6  UNL     1       0.891  52.021 -26.801  1.00  0.00     0.101 C 
HETATM   33  C7  UNL     1       0.571  51.810 -28.287  1.00  0.00     0.051 C 
BRANCH  32  34
HETATM   34  O2  UNL     1       0.989  53.453 -26.605  1.00  0.00    -0.385 OA
HETATM   35  H14 UNL     1       1.903  53.688 -26.867  1.00  0.00     0.210 HD
ENDBRANCH  32  34
BRANCH  32  36
HETATM   36  C8  UNL     1       2.251  51.400 -26.425  1.00  0.00     0.204 C 
BRANCH  36  37
HETATM   37  O3  UNL     1       3.294  52.021 -27.186  1.00  0.00    -0.398 OA
HETATM   38  H17 UNL     1       3.328  51.578 -28.052  1.00  0.00     0.209 HD
ENDBRANCH  36  37
ENDBRANCH  32  36
ENDBRANCH  29  32
ENDBRANCH  28  29
ENDBRANCH  27  28
ENDBRANCH  25  27
ENDBRANCH   1  25
TORSDOF 9
ENDMDL
MODEL 4
REMARK minimizedAffinity -9.33873844
REMARK  9 active torsions:
REMARK  status: ('A' for Active; 'I' for Inactive)
REMARK    1  A    between atoms: C2_2  and  C3_3 
REMARK    2  A    between atoms: C2_2  and  C9_12 
REMARK    3  A    between atoms: C3_3  and  C4_4 
REMARK    4  A    between atoms: C4_4  and  C5_5 
REMARK    5  A    between atoms: C5_5  and  O1_6 
REMARK    6  A    between atoms: C5_5  and  C6_7 
REMARK    7  A    between atoms: C6_7  and  O2_9 
REMARK    8  A    between atoms: C6_7  and  C8_10 
REMARK    9  A    between atoms: C8_10  and  O3_11 
ROOT
HETATM    1  C9  UNL     1      -1.423  49.418 -17.978  1.00  0.00    -0.002 C 
HETATM    2  C10 UNL     1      -2.657  48.480 -18.083  1.00  0.00     0.007 C 
HETATM    3  C11 UNL     1      -3.127  48.516 -19.552  1.00  0.00     0.015 C 
HETATM    4  C12 UNL     1      -1.949  49.130 -20.335  1.00  0.00    -0.005 C 
HETATM    5  C13 UNL     1      -0.927  47.977 -20.592  1.00  0.00     0.021 C 
HETATM    6  C14 UNL     1      -2.159  49.753 -21.708  1.00  0.00    -0.000 C 
HETATM    7  C15 UNL     1      -1.362  50.764 -22.148  1.00  0.00    -0.060 C 
HETATM    8  C16 UNL     1      -0.272  51.353 -21.244  1.00  0.00     0.036 C 
HETATM    9  C17 UNL     1      -0.151  50.804 -19.808  1.00  0.00     0.015 C 
HETATM   10  C18 UNL     1      -1.481  50.235 -19.302  1.00  0.00    -0.028 C 
HETATM   11  C19 UNL     1      -2.493  51.409 -19.168  1.00  0.00     0.016 C 
HETATM   12  C20 UNL     1      -1.531  51.415 -23.546  1.00  0.00    -0.014 C 
HETATM   13  C21 UNL     1      -2.476  52.619 -23.336  1.00  0.00     0.020 C 
HETATM   14  C22 UNL     1      -0.179  51.918 -24.117  1.00  0.00     0.021 C 
HETATM   15  C23 UNL     1      -0.273  52.427 -25.546  1.00  0.00     0.080 C 
HETATM   16  C24 UNL     1      -0.794  51.343 -26.454  1.00  0.00     0.135 C 
HETATM   17  O4  UNL     1      -0.208  51.094 -27.509  1.00  0.00    -0.297 OA
HETATM   18  C25 UNL     1      -2.106  50.654 -26.055  1.00  0.00     0.018 C 
HETATM   19  C26 UNL     1      -2.209  49.336 -26.866  1.00  0.00     0.023 C 
HETATM   20  C27 UNL     1      -3.272  51.547 -26.502  1.00  0.00     0.023 C 
HETATM   21  C28 UNL     1      -2.075  50.315 -24.523  1.00  0.00     0.020 C 
HETATM   22  C29 UNL     1      -3.396  49.752 -23.990  1.00  0.00     0.090 C 
HETATM   23  C30 UNL     1      -3.235  49.198 -22.595  1.00  0.00     0.157 C 
HETATM   24  O5  UNL     1      -3.999  48.320 -22.199  1.00  0.00    -0.293 OA
ENDROOT
BRANCH   1  25
HETATM   25  C2  UNL     1      -1.248  50.072 -16.573  1.00  0.00    -0.014 C 
HETATM   26  C1  UNL     1      -2.513  50.627 -15.914  1.00  0.00     0.010 C 
BRANCH  25  27
HETATM   27  C3  UNL     1      -0.107  51.116 -16.574  1.00  0.00     0.007 C 
BRANCH  27  28
HETATM   28  C4  UNL     1       1.169  50.680 -15.830  1.00  0.00     0.035 C 
BRANCH  28  29
HETATM   29  C5  UNL     1       1.420  51.426 -14.512  1.00  0.00     0.154 C 
BRANCH  29  30
HETATM   30  O1  UNL     1       0.807  52.723 -14.591  1.00  0.00    -0.392 OA
HETATM   31  H10 UNL     1       1.131  53.192 -13.792  1.00  0.00     0.210 HD
ENDBRANCH  29  30
BRANCH  29  32
HETATM   32  C6  UNL     1       2.916  51.608 -14.140  1.00  0.00     0.101 C 
HETATM   33  C7  UNL     1       3.774  52.076 -15.323  1.00  0.00     0.051 C 
BRANCH  32  34
HETATM   34  O2  UNL     1       2.964  52.671 -13.157  1.00  0.00    -0.385 OA
HETATM   35  H14 UNL     1       3.792  52.522 -12.655  1.00  0.00     0.210 HD
ENDBRANCH  32  34
BRANCH  32  36
HETATM   36  C8  UNL     1       3.498  50.338 -13.490  1.00  0.00     0.204 C 
BRANCH  36  37
HETATM   37  O3  UNL     1       4.747  50.006 -14.107  1.00  0.00    -0.398 OA
HETATM   38  H17 UNL     1       4.549  49.503 -14.917  1.00  0.00     0.209 HD
ENDBRANCH  36  37
ENDBRANCH  32  36
ENDBRANCH  29  32
ENDBRANCH  28  29
ENDBRANCH  27  28
ENDBRANCH  25  27
ENDBRANCH   1  25
TORSDOF 9
ENDMDL
MODEL 5
REMARK minimizedAffinity -9.2226696
REMARK  9 active torsions:
REMARK  status: ('A' for Active; 'I' for Inactive)
REMARK    1  A    between atoms: C2_2  and  C3_3 
REMARK    2  A    between atoms: C2_2  and  C9_12 
REMARK    3  A    between atoms: C3_3  and  C4_4 
REMARK    4  A    between atoms: C4_4  and  C5_5 
REMARK    5  A    between atoms: C5_5  and  O1_6 
REMARK    6  A    between atoms: C5_5  and  C6_7 
REMARK    7  A    between atoms: C6_7  and  O2_9 
REMARK    8  A    between atoms: C6_7  and  C8_10 
REMARK    9  A    between atoms: C8_10  and  O3_11 
ROOT
HETATM    1  C9  UNL     1      -5.902  49.121 -21.860  1.00  0.00    -0.002 C 
HETATM    2  C10 UNL     1      -5.026  48.927 -20.592  1.00  0.00     0.007 C 
HETATM    3  C11 UNL     1      -3.648  49.550 -20.897  1.00  0.00     0.015 C 
HETATM    4  C12 UNL     1      -3.872  50.430 -22.143  1.00  0.00    -0.005 C 
HETATM    5  C13 UNL     1      -4.475  51.780 -21.640  1.00  0.00     0.021 C 
HETATM    6  C14 UNL     1      -2.706  50.850 -23.026  1.00  0.00    -0.000 C 
HETATM    7  C15 UNL     1      -2.884  51.089 -24.354  1.00  0.00    -0.060 C 
HETATM    8  C16 UNL     1      -4.252  50.873 -25.013  1.00  0.00     0.036 C 
HETATM    9  C17 UNL     1      -5.395  50.322 -24.138  1.00  0.00     0.015 C 
HETATM   10  C18 UNL     1      -4.865  49.503 -22.956  1.00  0.00    -0.028 C 
HETATM   11  C19 UNL     1      -4.180  48.225 -23.520  1.00  0.00     0.016 C 
HETATM   12  C20 UNL     1      -1.727  51.535 -25.287  1.00  0.00    -0.014 C 
HETATM   13  C21 UNL     1      -1.141  50.233 -25.879  1.00  0.00     0.020 C 
HETATM   14  C22 UNL     1      -2.231  52.441 -26.441  1.00  0.00     0.021 C 
HETATM   15  C23 UNL     1      -1.113  53.024 -27.290  1.00  0.00     0.080 C 
HETATM   16  C24 UNL     1      -0.171  53.830 -26.435  1.00  0.00     0.135 C 
HETATM   17  O4  UNL     1       0.157  54.964 -26.786  1.00  0.00    -0.297 OA
HETATM   18  C25 UNL     1       0.417  53.148 -25.191  1.00  0.00     0.018 C 
HETATM   19  C26 UNL     1       0.982  54.261 -24.270  1.00  0.00     0.023 C 
HETATM   20  C27 UNL     1       1.606  52.284 -25.634  1.00  0.00     0.023 C 
HETATM   21  C28 UNL     1      -0.721  52.379 -24.430  1.00  0.00     0.020 C 
HETATM   22  C29 UNL     1      -0.215  51.545 -23.249  1.00  0.00     0.090 C 
HETATM   23  C30 UNL     1      -1.358  51.047 -22.397  1.00  0.00     0.157 C 
HETATM   24  O5  UNL     1      -1.163  50.789 -21.211  1.00  0.00    -0.293 OA
ENDROOT
BRANCH   1  25
HETATM   25  C2  UNL     1      -6.985  48.015 -22.051  1.00  0.00    -0.014 C 
HETATM   26  C1  UNL     1      -6.535  46.729 -22.749  1.00  0.00     0.010 C 
BRANCH  25  27
HETATM   27  C3  UNL     1      -8.270  48.587 -22.695  1.00  0.00     0.007 C 
BRANCH  27  28
HETATM   28  C4  UNL     1      -8.076  49.183 -24.103  1.00  0.00     0.035 C 
BRANCH  28  29
HETATM   29  C5  UNL     1      -8.309  48.187 -25.248  1.00  0.00     0.154 C 
BRANCH  29  30
HETATM   30  O1  UNL     1      -7.107  48.089 -26.029  1.00  0.00    -0.392 OA
HETATM   31  H10 UNL     1      -7.371  47.565 -26.816  1.00  0.00     0.210 HD
ENDBRANCH  29  30
BRANCH  29  32
HETATM   32  C6  UNL     1      -9.485  48.546 -26.195  1.00  0.00     0.101 C 
HETATM   33  C7  UNL     1     -10.816  47.915 -25.763  1.00  0.00     0.051 C 
BRANCH  32  34
HETATM   34  O2  UNL     1      -9.665  49.981 -26.095  1.00  0.00    -0.385 OA
HETATM   35  H14 UNL     1     -10.098  50.247 -26.932  1.00  0.00     0.210 HD
ENDBRANCH  32  34
BRANCH  32  36
HETATM   36  C8  UNL     1      -9.155  48.214 -27.664  1.00  0.00     0.204 C 
BRANCH  36  37
HETATM   37  O3  UNL     1      -8.683  49.389 -28.332  1.00  0.00    -0.398 OA
HETATM   38  H17 UNL     1      -9.463  49.896 -28.619  1.00  0.00     0.209 HD
ENDBRANCH  36  37
ENDBRANCH  32  36
ENDBRANCH  29  32
ENDBRANCH  28  29
ENDBRANCH  27  28
ENDBRANCH  25  27
ENDBRANCH   1  25
TORSDOF 9
ENDMDL
MODEL 6
REMARK minimizedAffinity -9.03937435
REMARK  9 active torsions:
REMARK  status: ('A' for Active; 'I' for Inactive)
REMARK    1  A    between atoms: C2_2  and  C3_3 
REMARK    2  A    between atoms: C2_2  and  C9_12 
REMARK    3  A    between atoms: C3_3  and  C4_4 
REMARK    4  A    between atoms: C4_4  and  C5_5 
REMARK    5  A    between atoms: C5_5  and  O1_6 
REMARK    6  A    between atoms: C5_5  and  C6_7 
REMARK    7  A    between atoms: C6_7  and  O2_9 
REMARK    8  A    between atoms: C6_7  and  C8_10 
REMARK    9  A    between atoms: C8_10  and  O3_11 
ROOT
HETATM    1  C9  UNL     1      -0.566  51.629 -16.767  1.00  0.00    -0.002 C 
HETATM    2  C10 UNL     1       0.937  51.992 -16.918  1.00  0.00     0.007 C 
HETATM    3  C11 UNL     1       1.221  52.117 -18.429  1.00  0.00     0.015 C 
HETATM    4  C12 UNL     1      -0.167  52.227 -19.091  1.00  0.00    -0.005 C 
HETATM    5  C13 UNL     1      -0.615  53.717 -18.957  1.00  0.00     0.021 C 
HETATM    6  C14 UNL     1      -0.359  51.913 -20.568  1.00  0.00    -0.000 C 
HETATM    7  C15 UNL     1      -1.546  51.439 -21.034  1.00  0.00    -0.060 C 
HETATM    8  C16 UNL     1      -2.703  51.140 -20.073  1.00  0.00     0.036 C 
HETATM    9  C17 UNL     1      -2.457  51.337 -18.564  1.00  0.00     0.015 C 
HETATM   10  C18 UNL     1      -0.975  51.192 -18.205  1.00  0.00    -0.028 C 
HETATM   11  C19 UNL     1      -0.554  49.716 -18.461  1.00  0.00     0.016 C 
HETATM   12  C20 UNL     1      -1.790  51.122 -22.534  1.00  0.00    -0.014 C 
HETATM   13  C21 UNL     1      -1.436  49.628 -22.709  1.00  0.00     0.020 C 
HETATM   14  C22 UNL     1      -3.270  51.350 -22.940  1.00  0.00     0.021 C 
HETATM   15  C23 UNL     1      -3.522  51.197 -24.431  1.00  0.00     0.080 C 
HETATM   16  C24 UNL     1      -2.666  52.162 -25.209  1.00  0.00     0.135 C 
HETATM   17  O4  UNL     1      -3.174  52.865 -26.084  1.00  0.00    -0.297 OA
HETATM   18  C25 UNL     1      -1.156  52.155 -24.929  1.00  0.00     0.018 C 
HETATM   19  C26 UNL     1      -0.568  53.472 -25.498  1.00  0.00     0.023 C 
HETATM   20  C27 UNL     1      -0.526  51.003 -25.724  1.00  0.00     0.023 C 
HETATM   21  C28 UNL     1      -0.912  52.108 -23.379  1.00  0.00     0.020 C 
HETATM   22  C29 UNL     1       0.563  51.955 -22.994  1.00  0.00     0.090 C 
HETATM   23  C30 UNL     1       0.772  52.184 -21.516  1.00  0.00     0.157 C 
HETATM   24  O5  UNL     1       1.868  52.564 -21.110  1.00  0.00    -0.293 OA
ENDROOT
BRANCH   1  25
HETATM   25  C2  UNL     1      -0.886  50.789 -15.492  1.00  0.00    -0.014 C 
HETATM   26  C1  UNL     1      -0.032  49.540 -15.264  1.00  0.00     0.010 C 
BRANCH  25  27
HETATM   27  C3  UNL     1      -2.395  50.468 -15.391  1.00  0.00     0.007 C 
BRANCH  27  28
HETATM   28  C4  UNL     1      -3.179  51.350 -14.400  1.00  0.00     0.035 C 
BRANCH  28  29
HETATM   29  C5  UNL     1      -2.972  50.981 -12.925  1.00  0.00     0.154 C 
BRANCH  29  30
HETATM   30  O1  UNL     1      -4.126  50.261 -12.461  1.00  0.00    -0.392 OA
HETATM   31  H10 UNL     1      -3.995  50.193 -11.491  1.00  0.00     0.210 HD
ENDBRANCH  29  30
BRANCH  29  32
HETATM   32  C6  UNL     1      -2.729  52.187 -11.979  1.00  0.00     0.101 C 
HETATM   33  C7  UNL     1      -2.186  51.771 -10.604  1.00  0.00     0.051 C 
BRANCH  32  34
HETATM   34  O2  UNL     1      -1.693  52.988 -12.599  1.00  0.00    -0.385 OA
HETATM   35  H14 UNL     1      -1.816  53.892 -12.242  1.00  0.00     0.210 HD
ENDBRANCH  32  34
BRANCH  32  36
HETATM   36  C8  UNL     1      -3.987  53.067 -11.844  1.00  0.00     0.204 C 
BRANCH  36  37
HETATM   37  O3  UNL     1      -4.203  53.793 -13.059  1.00  0.00    -0.398 OA
HETATM   38  H17 UNL     1      -3.641  54.588 -13.029  1.00  0.00     0.209 HD
ENDBRANCH  36  37
ENDBRANCH  32  36
ENDBRANCH  29  32
ENDBRANCH  28  29
ENDBRANCH  27  28
ENDBRANCH  25  27
ENDBRANCH   1  25
TORSDOF 9
ENDMDL
MODEL 7
REMARK minimizedAffinity -8.8674469
REMARK  9 active torsions:
REMARK  status: ('A' for Active; 'I' for Inactive)
REMARK    1  A    between atoms: C2_2  and  C3_3 
REMARK    2  A    between atoms: C2_2  and  C9_12 
REMARK    3  A    between atoms: C3_3  and  C4_4 
REMARK    4  A    between atoms: C4_4  and  C5_5 
REMARK    5  A    between atoms: C5_5  and  O1_6 
REMARK    6  A    between atoms: C5_5  and  C6_7 
REMARK    7  A    between atoms: C6_7  and  O2_9 
REMARK    8  A    between atoms: C6_7  and  C8_10 
REMARK    9  A    between atoms: C8_10  and  O3_11 
ROOT
HETATM    1  C9  UNL     1      -2.232  48.590 -18.449  1.00  0.00    -0.002 C 
HETATM    2  C10 UNL     1      -3.151  47.543 -19.137  1.00  0.00     0.007 C 
HETATM    3  C11 UNL     1      -3.153  47.867 -20.644  1.00  0.00     0.015 C 
HETATM    4  C12 UNL     1      -1.951  48.810 -20.855  1.00  0.00    -0.005 C 
HETATM    5  C13 UNL     1      -0.680  47.908 -20.955  1.00  0.00     0.021 C 
HETATM    6  C14 UNL     1      -1.866  49.710 -22.079  1.00  0.00    -0.000 C 
HETATM    7  C15 UNL     1      -1.205  50.899 -22.029  1.00  0.00    -0.060 C 
HETATM    8  C16 UNL     1      -0.588  51.398 -20.717  1.00  0.00     0.036 C 
HETATM    9  C17 UNL     1      -0.792  50.541 -19.452  1.00  0.00     0.015 C 
HETATM   10  C18 UNL     1      -2.060  49.686 -19.541  1.00  0.00    -0.028 C 
HETATM   11  C19 UNL     1      -3.290  50.640 -19.547  1.00  0.00     0.016 C 
HETATM   12  C20 UNL     1      -1.079  51.839 -23.258  1.00  0.00    -0.014 C 
HETATM   13  C21 UNL     1      -2.276  52.812 -23.164  1.00  0.00     0.020 C 
HETATM   14  C22 UNL     1       0.244  52.649 -23.232  1.00  0.00     0.021 C 
HETATM   15  C23 UNL     1       0.479  53.469 -24.490  1.00  0.00     0.080 C 
HETATM   16  C24 UNL     1       0.496  52.576 -25.703  1.00  0.00     0.135 C 
HETATM   17  O4  UNL     1       1.411  52.673 -26.523  1.00  0.00    -0.297 OA
HETATM   18  C25 UNL     1      -0.699  51.634 -25.907  1.00  0.00     0.018 C 
HETATM   19  C26 UNL     1      -0.272  50.550 -26.930  1.00  0.00     0.023 C 
HETATM   20  C27 UNL     1      -1.838  52.437 -26.552  1.00  0.00     0.023 C 
HETATM   21  C28 UNL     1      -1.059  50.943 -24.544  1.00  0.00     0.020 C 
HETATM   22  C29 UNL     1      -2.329  50.089 -24.605  1.00  0.00     0.090 C 
HETATM   23  C30 UNL     1      -2.482  49.241 -23.364  1.00  0.00     0.157 C 
HETATM   24  O5  UNL     1      -3.126  48.196 -23.419  1.00  0.00    -0.293 OA
ENDROOT
BRANCH   1  25
HETATM   25  C2  UNL     1      -2.630  48.903 -16.973  1.00  0.00    -0.014 C 
HETATM   26  C1  UNL     1      -3.007  50.353 -16.659  1.00  0.00     0.010 C 
BRANCH  25  27
HETATM   27  C3  UNL     1      -1.577  48.364 -15.978  1.00  0.00     0.007 C 
BRANCH  27  28
HETATM   28  C4  UNL     1      -0.910  49.439 -15.097  1.00  0.00     0.035 C 
BRANCH  28  29
HETATM   29  C5  UNL     1       0.577  49.672 -15.401  1.00  0.00     0.154 C 
BRANCH  29  30
HETATM   30  O1  UNL     1       1.361  48.802 -14.569  1.00  0.00    -0.392 OA
HETATM   31  H10 UNL     1       2.284  49.108 -14.703  1.00  0.00     0.210 HD
ENDBRANCH  29  30
BRANCH  29  32
HETATM   32  C6  UNL     1       1.064  51.131 -15.189  1.00  0.00     0.101 C 
HETATM   33  C7  UNL     1       0.230  51.896 -14.153  1.00  0.00     0.051 C 
BRANCH  32  34
HETATM   34  O2  UNL     1       2.403  51.037 -14.644  1.00  0.00    -0.385 OA
HETATM   35  H14 UNL     1       2.837  51.885 -14.876  1.00  0.00     0.210 HD
ENDBRANCH  32  34
BRANCH  32  36
HETATM   36  C8  UNL     1       1.150  51.900 -16.522  1.00  0.00     0.204 C 
BRANCH  36  37
HETATM   37  O3  UNL     1       1.456  53.276 -16.269  1.00  0.00    -0.398 OA
HETATM   38  H17 UNL     1       0.619  53.728 -16.059  1.00  0.00     0.209 HD
ENDBRANCH  36  37
ENDBRANCH  32  36
ENDBRANCH  29  32
ENDBRANCH  28  29
ENDBRANCH  27  28
ENDBRANCH  25  27
ENDBRANCH   1  25
TORSDOF 9
ENDMDL
MODEL 8
REMARK minimizedAffinity -8.82720661
REMARK  9 active torsions:
REMARK  status: ('A' for Active; 'I' for Inactive)
REMARK    1  A    between atoms: C2_2  and  C3_3 
REMARK    2  A    between atoms: C2_2  and  C9_12 
REMARK    3  A    between atoms: C3_3  and  C4_4 
REMARK    4  A    between atoms: C4_4  and  C5_5 
REMARK    5  A    between atoms: C5_5  and  O1_6 
REMARK    6  A    between atoms: C5_5  and  C6_7 
REMARK    7  A    between atoms: C6_7  and  O2_9 
REMARK    8  A    between atoms: C6_7  and  C8_10 
REMARK    9  A    between atoms: C8_10  and  O3_11 
ROOT
HETATM    1  C9  UNL     1      -5.403  49.223 -24.594  1.00  0.00    -0.002 C 
HETATM    2  C10 UNL     1      -6.412  49.297 -23.416  1.00  0.00     0.007 C 
HETATM    3  C11 UNL     1      -5.665  49.922 -22.220  1.00  0.00     0.015 C 
HETATM    4  C12 UNL     1      -4.398  50.557 -22.827  1.00  0.00    -0.005 C 
HETATM    5  C13 UNL     1      -4.820  51.944 -23.407  1.00  0.00     0.021 C 
HETATM    6  C14 UNL     1      -3.186  50.871 -21.961  1.00  0.00    -0.000 C 
HETATM    7  C15 UNL     1      -1.930  50.863 -22.484  1.00  0.00    -0.060 C 
HETATM    8  C16 UNL     1      -1.693  50.469 -23.947  1.00  0.00     0.036 C 
HETATM    9  C17 UNL     1      -2.911  50.027 -24.782  1.00  0.00     0.015 C 
HETATM   10  C18 UNL     1      -4.028  49.455 -23.902  1.00  0.00    -0.028 C 
HETATM   11  C19 UNL     1      -3.514  48.132 -23.264  1.00  0.00     0.016 C 
HETATM   12  C20 UNL     1      -0.669  51.193 -21.641  1.00  0.00    -0.014 C 
HETATM   13  C21 UNL     1      -0.158  49.837 -21.104  1.00  0.00     0.020 C 
HETATM   14  C22 UNL     1       0.441  51.857 -22.497  1.00  0.00     0.021 C 
HETATM   15  C23 UNL     1       1.633  52.334 -21.684  1.00  0.00     0.080 C 
HETATM   16  C24 UNL     1       1.191  53.322 -20.636  1.00  0.00     0.135 C 
HETATM   17  O4  UNL     1       1.790  54.392 -20.511  1.00  0.00    -0.297 OA
HETATM   18  C25 UNL     1       0.052  52.899 -19.698  1.00  0.00     0.018 C 
HETATM   19  C26 UNL     1      -0.502  54.182 -19.026  1.00  0.00     0.023 C 
HETATM   20  C27 UNL     1       0.647  52.029 -18.582  1.00  0.00     0.023 C 
HETATM   21  C28 UNL     1      -1.090  52.222 -20.535  1.00  0.00     0.020 C 
HETATM   22  C29 UNL     1      -2.215  51.634 -19.677  1.00  0.00     0.090 C 
HETATM   23  C30 UNL     1      -3.403  51.240 -20.522  1.00  0.00     0.157 C 
HETATM   24  O5  UNL     1      -4.522  51.204 -20.016  1.00  0.00    -0.293 OA
ENDROOT
BRANCH   1  25
HETATM   25  C2  UNL     1      -5.677  48.049 -25.585  1.00  0.00    -0.014 C 
HETATM   26  C1  UNL     1      -5.032  48.156 -26.969  1.00  0.00     0.010 C 
BRANCH  25  27
HETATM   27  C3  UNL     1      -7.189  47.740 -25.689  1.00  0.00     0.007 C 
BRANCH  27  28
HETATM   28  C4  UNL     1      -7.589  46.866 -26.893  1.00  0.00     0.035 C 
BRANCH  28  29
HETATM   29  C5  UNL     1      -8.635  47.505 -27.818  1.00  0.00     0.154 C 
BRANCH  29  30
HETATM   30  O1  UNL     1      -8.392  48.920 -27.884  1.00  0.00    -0.392 OA
HETATM   31  H10 UNL     1      -9.174  49.277 -28.358  1.00  0.00     0.210 HD
ENDBRANCH  29  30
BRANCH  29  32
HETATM   32  C6  UNL     1     -10.109  47.276 -27.390  1.00  0.00     0.101 C 
HETATM   33  C7  UNL     1     -11.083  47.264 -28.577  1.00  0.00     0.051 C 
BRANCH  32  34
HETATM   34  O2  UNL     1     -10.163  45.950 -26.807  1.00  0.00    -0.385 OA
HETATM   35  H14 UNL     1     -10.939  45.961 -26.210  1.00  0.00     0.210 HD
ENDBRANCH  32  34
BRANCH  32  36
HETATM   36  C8  UNL     1     -10.551  48.283 -26.310  1.00  0.00     0.204 C 
BRANCH  36  37
HETATM   37  O3  UNL     1     -11.690  49.018 -26.770  1.00  0.00    -0.398 OA
HETATM   38  H17 UNL     1     -11.363  49.750 -27.323  1.00  0.00     0.209 HD
ENDBRANCH  36  37
ENDBRANCH  32  36
ENDBRANCH  29  32
ENDBRANCH  28  29
ENDBRANCH  27  28
ENDBRANCH  25  27
ENDBRANCH   1  25
TORSDOF 9
ENDMDL
MODEL 9
REMARK minimizedAffinity -8.70254612
REMARK  9 active torsions:
REMARK  status: ('A' for Active; 'I' for Inactive)
REMARK    1  A    between atoms: C2_2  and  C3_3 
REMARK    2  A    between atoms: C2_2  and  C9_12 
REMARK    3  A    between atoms: C3_3  and  C4_4 
REMARK    4  A    between atoms: C4_4  and  C5_5 
REMARK    5  A    between atoms: C5_5  and  O1_6 
REMARK    6  A    between atoms: C5_5  and  C6_7 
REMARK    7  A    between atoms: C6_7  and  O2_9 
REMARK    8  A    between atoms: C6_7  and  C8_10 
REMARK    9  A    between atoms: C8_10  and  O3_11 
ROOT
HETATM    1  C9  UNL     1      -4.197  47.874 -19.990  1.00  0.00    -0.002 C 
HETATM    2  C10 UNL     1      -4.941  47.051 -21.077  1.00  0.00     0.007 C 
HETATM    3  C11 UNL     1      -4.476  47.587 -22.446  1.00  0.00     0.015 C 
HETATM    4  C12 UNL     1      -3.203  48.404 -22.145  1.00  0.00    -0.005 C 
HETATM    5  C13 UNL     1      -2.025  47.385 -22.039  1.00  0.00     0.021 C 
HETATM    6  C14 UNL     1      -2.697  49.456 -23.123  1.00  0.00    -0.000 C 
HETATM    7  C15 UNL     1      -2.001  50.540 -22.686  1.00  0.00    -0.060 C 
HETATM    8  C16 UNL     1      -1.766  50.770 -21.189  1.00  0.00     0.036 C 
HETATM    9  C17 UNL     1      -2.393  49.769 -20.198  1.00  0.00     0.015 C 
HETATM   10  C18 UNL     1      -3.634  49.089 -20.784  1.00  0.00    -0.028 C 
HETATM   11  C19 UNL     1      -4.738  50.170 -20.971  1.00  0.00     0.016 C 
HETATM   12  C20 UNL     1      -1.452  51.627 -23.649  1.00  0.00    -0.014 C 
HETATM   13  C21 UNL     1      -2.553  52.709 -23.730  1.00  0.00     0.020 C 
HETATM   14  C22 UNL     1      -0.143  52.265 -23.115  1.00  0.00     0.021 C 
HETATM   15  C23 UNL     1       0.509  53.226 -24.096  1.00  0.00     0.080 C 
HETATM   16  C24 UNL     1       0.823  52.521 -25.391  1.00  0.00     0.135 C 
HETATM   17  O4  UNL     1       1.943  52.628 -25.891  1.00  0.00    -0.297 OA
HETATM   18  C25 UNL     1      -0.321  51.763 -26.080  1.00  0.00     0.018 C 
HETATM   19  C26 UNL     1       0.313  50.796 -27.113  1.00  0.00     0.023 C 
HETATM   20  C27 UNL     1      -1.160  52.778 -26.871  1.00  0.00     0.023 C 
HETATM   21  C28 UNL     1      -1.115  50.929 -25.013  1.00  0.00     0.020 C 
HETATM   22  C29 UNL     1      -2.366  50.246 -25.573  1.00  0.00     0.090 C 
HETATM   23  C30 UNL     1      -2.937  49.252 -24.590  1.00  0.00     0.157 C 
HETATM   24  O5  UNL     1      -3.607  48.308 -25.002  1.00  0.00    -0.293 OA
ENDROOT
BRANCH   1  25
HETATM   25  C2  UNL     1      -4.991  48.015 -18.655  1.00  0.00    -0.014 C 
HETATM   26  C1  UNL     1      -6.481  48.342 -18.775  1.00  0.00     0.010 C 
BRANCH  25  27
HETATM   27  C3  UNL     1      -4.280  48.977 -17.674  1.00  0.00     0.007 C 
BRANCH  27  28
HETATM   28  C4  UNL     1      -3.208  48.317 -16.785  1.00  0.00     0.035 C 
BRANCH  28  29
HETATM   29  C5  UNL     1      -1.828  48.986 -16.857  1.00  0.00     0.154 C 
BRANCH  29  30
HETATM   30  O1  UNL     1      -0.848  48.086 -16.314  1.00  0.00    -0.392 OA
HETATM   31  H10 UNL     1      -0.032  48.627 -16.252  1.00  0.00     0.210 HD
ENDBRANCH  29  30
BRANCH  29  32
HETATM   32  C6  UNL     1      -1.721  50.342 -16.110  1.00  0.00     0.101 C 
HETATM   33  C7  UNL     1      -0.270  50.775 -15.857  1.00  0.00     0.051 C 
BRANCH  32  34
HETATM   34  O2  UNL     1      -2.294  51.339 -16.993  1.00  0.00    -0.385 OA
HETATM   35  H14 UNL     1      -2.581  52.069 -16.406  1.00  0.00     0.210 HD
ENDBRANCH  32  34
BRANCH  32  36
HETATM   36  C8  UNL     1      -2.543  50.339 -14.806  1.00  0.00     0.204 C 
BRANCH  36  37
HETATM   37  O3  UNL     1      -3.579  51.324 -14.884  1.00  0.00    -0.398 OA
HETATM   38  H17 UNL     1      -3.188  52.182 -14.638  1.00  0.00     0.209 HD
ENDBRANCH  36  37
ENDBRANCH  32  36
ENDBRANCH  29  32
ENDBRANCH  28  29
ENDBRANCH  27  28
ENDBRANCH  25  27
ENDBRANCH   1  25
TORSDOF 9
ENDMDL
