MODEL 1
REMARK minimizedAffinity -8.71132469
REMARK  12 active torsions:
REMARK  status: ('A' for Active; 'I' for Inactive)
REMARK    1  A    between atoms: C2_2  and  C17_19 
REMARK    2  A    between atoms: C3_3  and  C4_4 
REMARK    3  A    between atoms: C4_4  and  C5_5 
REMARK    4  A    between atoms: C5_5  and  C6_6 
REMARK    5  A    between atoms: C12_12  and  O1_13 
REMARK    6  A    between atoms: C17_19  and  C18_20 
REMARK    7  A    between atoms: C19_21  and  C20_22 
REMARK    8  A    between atoms: C20_22  and  C22_24 
REMARK    9  A    between atoms: C22_24  and  C23_26 
REMARK   10  A    between atoms: C23_26  and  O4_27 
REMARK   11  A    between atoms: C23_26  and  C24_28 
REMARK   12  A    between atoms: C24_28  and  C25_29 
ROOT
HETATM    1  C1  UNL     1      -2.491   7.839  12.879  1.00  0.00     0.043 C 
HETATM    2  C2  UNL     1      -3.198   6.534  13.140  1.00  0.00    -0.084 C 
HETATM    3  C3  UNL     1      -4.521   6.426  13.381  1.00  0.00    -0.024 C 
ENDROOT
BRANCH   3   4
HETATM    4  C4  UNL     1      -5.541   7.529  13.341  1.00  0.00     0.030 C 
BRANCH   4   5
HETATM    5  C5  UNL     1      -6.085   8.007  14.692  1.00  0.00     0.042 C 
BRANCH   5   6
HETATM    6  C6  UNL     1      -7.552   7.663  15.064  1.00  0.00     0.065 C 
HETATM    7  C7  UNL     1      -8.371   8.941  15.315  1.00  0.00     0.046 C 
HETATM    8  C8  UNL     1      -7.717   6.739  16.279  1.00  0.00     0.043 C 
HETATM    9  C9  UNL     1      -7.096   5.376  16.019  1.00  0.00     0.044 C 
HETATM   10  C10 UNL     1      -7.523   4.857  14.678  1.00  0.00    -0.021 A 
HETATM   11  C11 UNL     1      -7.404   3.488  14.396  1.00  0.00     0.046 A 
HETATM   12  C16 UNL     1      -8.015   5.725  13.694  1.00  0.00     0.082 A 
HETATM   13  C12 UNL     1      -7.796   3.002  13.153  1.00  0.00     0.066 A 
HETATM   14  C13 UNL     1      -8.300   3.858  12.181  1.00  0.00     0.046 A 
HETATM   15  C14 UNL     1      -8.414   5.229  12.441  1.00  0.00    -0.025 A 
HETATM   16  C15 UNL     1      -8.960   6.148  11.386  1.00  0.00     0.051 C 
HETATM   17  O2  UNL     1      -8.162   7.074  13.891  1.00  0.00    -0.340 OA
BRANCH  13  18
HETATM   18  O1  UNL     1      -7.706   1.678  12.847  1.00  0.00    -0.361 OA
HETATM   19  H17 UNL     1      -7.368   1.202  13.622  1.00  0.00     0.217 HD
ENDBRANCH  13  18
ENDBRANCH   5   6
ENDBRANCH   4   5
ENDBRANCH   3   4
BRANCH   2  20
HETATM   20  C17 UNL     1      -2.301   5.305  13.143  1.00  0.00     0.060 C 
BRANCH  20  21
HETATM   21  C18 UNL     1      -1.757   5.021  11.770  1.00  0.00    -0.026 C 
HETATM   22  C19 UNL     1      -0.577   5.326  11.205  1.00  0.00    -0.019 C 
BRANCH  22  23
HETATM   23  C20 UNL     1       0.637   6.085  11.693  1.00  0.00     0.076 C 
HETATM   24  C21 UNL     1       0.993   5.964  13.175  1.00  0.00     0.022 C 
BRANCH  23  25
HETATM   25  C22 UNL     1       1.837   5.725  10.806  1.00  0.00     0.162 C 
HETATM   26  O3  UNL     1       2.064   4.567  10.431  1.00  0.00    -0.294 OA
BRANCH  25  27
HETATM   27  C23 UNL     1       2.733   6.870  10.292  1.00  0.00     0.188 C 
BRANCH  27  28
HETATM   28  O4  UNL     1       2.253   8.134  10.743  1.00  0.00    -0.388 OA
HETATM   29  H31 UNL     1       1.528   7.944  11.376  1.00  0.00     0.210 HD
ENDBRANCH  27  28
BRANCH  27  30
HETATM   30  C24 UNL     1       2.954   6.912   8.773  1.00  0.00     0.043 C 
BRANCH  30  31
HETATM   31  C25 UNL     1       1.997   7.740   7.885  1.00  0.00    -0.020 C 
HETATM   32  C26 UNL     1       0.619   7.971   8.501  1.00  0.00     0.009 C 
HETATM   33  C27 UNL     1       1.858   7.191   6.466  1.00  0.00     0.009 C 
ENDBRANCH  30  31
ENDBRANCH  27  30
ENDBRANCH  25  27
ENDBRANCH  23  25
ENDBRANCH  22  23
ENDBRANCH  20  21
ENDBRANCH   2  20
TORSDOF 12
ENDMDL
MODEL 2
REMARK minimizedAffinity -8.68968868
REMARK  12 active torsions:
REMARK  status: ('A' for Active; 'I' for Inactive)
REMARK    1  A    between atoms: C2_2  and  C17_19 
REMARK    2  A    between atoms: C3_3  and  C4_4 
REMARK    3  A    between atoms: C4_4  and  C5_5 
REMARK    4  A    between atoms: C5_5  and  C6_6 
REMARK    5  A    between atoms: C12_12  and  O1_13 
REMARK    6  A    between atoms: C17_19  and  C18_20 
REMARK    7  A    between atoms: C19_21  and  C20_22 
REMARK    8  A    between atoms: C20_22  and  C22_24 
REMARK    9  A    between atoms: C22_24  and  C23_26 
REMARK   10  A    between atoms: C23_26  and  O4_27 
REMARK   11  A    between atoms: C23_26  and  C24_28 
REMARK   12  A    between atoms: C24_28  and  C25_29 
ROOT
HETATM    1  C1  UNL     1      -0.252   8.488  10.432  1.00  0.00     0.043 C 
HETATM    2  C2  UNL     1      -0.469   7.505  11.553  1.00  0.00    -0.084 C 
HETATM    3  C3  UNL     1      -1.402   7.651  12.517  1.00  0.00    -0.024 C 
ENDROOT
BRANCH   3   4
HETATM    4  C4  UNL     1      -2.444   8.730  12.611  1.00  0.00     0.030 C 
BRANCH   4   5
HETATM    5  C5  UNL     1      -3.845   8.290  13.051  1.00  0.00     0.042 C 
BRANCH   5   6
HETATM    6  C6  UNL     1      -4.011   7.631  14.447  1.00  0.00     0.065 C 
HETATM    7  C7  UNL     1      -3.388   8.508  15.547  1.00  0.00     0.046 C 
HETATM    8  C8  UNL     1      -3.431   6.215  14.572  1.00  0.00     0.043 C 
HETATM    9  C9  UNL     1      -4.144   5.247  13.644  1.00  0.00     0.044 C 
HETATM   10  C10 UNL     1      -5.631   5.410  13.764  1.00  0.00    -0.021 A 
HETATM   11  C11 UNL     1      -6.478   4.386  13.316  1.00  0.00     0.046 A 
HETATM   12  C16 UNL     1      -6.184   6.584  14.294  1.00  0.00     0.082 A 
HETATM   13  C12 UNL     1      -7.857   4.534  13.424  1.00  0.00     0.066 A 
HETATM   14  C13 UNL     1      -8.409   5.689  13.963  1.00  0.00     0.046 A 
HETATM   15  C14 UNL     1      -7.578   6.727  14.403  1.00  0.00    -0.025 A 
HETATM   16  C15 UNL     1      -8.182   7.973  14.986  1.00  0.00     0.051 C 
HETATM   17  O2  UNL     1      -5.426   7.630  14.752  1.00  0.00    -0.340 OA
BRANCH  13  18
HETATM   18  O1  UNL     1      -8.711   3.556  13.010  1.00  0.00    -0.361 OA
HETATM   19  H17 UNL     1      -8.190   2.805  12.686  1.00  0.00     0.217 HD
ENDBRANCH  13  18
ENDBRANCH   5   6
ENDBRANCH   4   5
ENDBRANCH   3   4
BRANCH   2  20
HETATM   20  C17 UNL     1       0.473   6.310  11.553  1.00  0.00     0.060 C 
BRANCH  20  21
HETATM   21  C18 UNL     1       1.572   6.480  12.566  1.00  0.00    -0.026 C 
HETATM   22  C19 UNL     1       2.820   6.964  12.447  1.00  0.00    -0.019 C 
BRANCH  22  23
HETATM   23  C20 UNL     1       3.615   7.489  11.272  1.00  0.00     0.076 C 
HETATM   24  C21 UNL     1       4.753   8.464  11.572  1.00  0.00     0.022 C 
BRANCH  23  25
HETATM   25  C22 UNL     1       4.114   6.298  10.440  1.00  0.00     0.162 C 
HETATM   26  O3  UNL     1       5.289   5.909  10.473  1.00  0.00    -0.294 OA
BRANCH  25  27
HETATM   27  C23 UNL     1       3.085   5.508   9.609  1.00  0.00     0.188 C 
BRANCH  27  28
HETATM   28  O4  UNL     1       3.328   4.105   9.696  1.00  0.00    -0.388 OA
HETATM   29  H31 UNL     1       4.031   3.989  10.370  1.00  0.00     0.210 HD
ENDBRANCH  27  28
BRANCH  27  30
HETATM   30  C24 UNL     1       2.959   5.920   8.135  1.00  0.00     0.043 C 
BRANCH  30  31
HETATM   31  C25 UNL     1       2.164   7.193   7.764  1.00  0.00    -0.020 C 
HETATM   32  C26 UNL     1       1.522   7.143   6.378  1.00  0.00     0.009 C 
HETATM   33  C27 UNL     1       2.967   8.481   7.929  1.00  0.00     0.009 C 
ENDBRANCH  30  31
ENDBRANCH  27  30
ENDBRANCH  25  27
ENDBRANCH  23  25
ENDBRANCH  22  23
ENDBRANCH  20  21
ENDBRANCH   2  20
TORSDOF 12
ENDMDL
MODEL 3
REMARK minimizedAffinity -8.66854382
REMARK  12 active torsions:
REMARK  status: ('A' for Active; 'I' for Inactive)
REMARK    1  A    between atoms: C2_2  and  C17_19 
REMARK    2  A    between atoms: C3_3  and  C4_4 
REMARK    3  A    between atoms: C4_4  and  C5_5 
REMARK    4  A    between atoms: C5_5  and  C6_6 
REMARK    5  A    between atoms: C12_12  and  O1_13 
REMARK    6  A    between atoms: C17_19  and  C18_20 
REMARK    7  A    between atoms: C19_21  and  C20_22 
REMARK    8  A    between atoms: C20_22  and  C22_24 
REMARK    9  A    between atoms: C22_24  and  C23_26 
REMARK   10  A    between atoms: C23_26  and  O4_27 
REMARK   11  A    between atoms: C23_26  and  C24_28 
REMARK   12  A    between atoms: C24_28  and  C25_29 
ROOT
HETATM    1  C1  UNL     1      -3.136   3.604   9.799  1.00  0.00     0.043 C 
HETATM    2  C2  UNL     1      -2.704   3.059  11.136  1.00  0.00    -0.084 C 
HETATM    3  C3  UNL     1      -1.586   3.447  11.785  1.00  0.00    -0.024 C 
ENDROOT
BRANCH   3   4
HETATM    4  C4  UNL     1      -0.633   4.534  11.375  1.00  0.00     0.030 C 
BRANCH   4   5
HETATM    5  C5  UNL     1      -0.863   5.916  11.998  1.00  0.00     0.042 C 
BRANCH   5   6
HETATM    6  C6  UNL     1       0.363   6.841  12.222  1.00  0.00     0.065 C 
HETATM    7  C7  UNL     1       0.882   6.726  13.666  1.00  0.00     0.046 C 
HETATM    8  C8  UNL     1       0.125   8.325  11.912  1.00  0.00     0.043 C 
HETATM    9  C9  UNL     1      -0.202   8.533  10.443  1.00  0.00     0.044 C 
HETATM   10  C10 UNL     1       0.772   7.783   9.583  1.00  0.00    -0.021 A 
HETATM   11  C11 UNL     1       0.912   8.131   8.231  1.00  0.00     0.046 A 
HETATM   12  C16 UNL     1       1.524   6.722  10.105  1.00  0.00     0.082 A 
HETATM   13  C12 UNL     1       1.812   7.437   7.429  1.00  0.00     0.066 A 
HETATM   14  C13 UNL     1       2.571   6.395   7.947  1.00  0.00     0.046 A 
HETATM   15  C14 UNL     1       2.434   6.026   9.291  1.00  0.00    -0.025 A 
HETATM   16  C15 UNL     1       3.259   4.899   9.845  1.00  0.00     0.051 C 
HETATM   17  O2  UNL     1       1.445   6.320  11.413  1.00  0.00    -0.340 OA
BRANCH  13  18
HETATM   18  O1  UNL     1       1.984   7.755   6.115  1.00  0.00    -0.361 OA
HETATM   19  H17 UNL     1       1.416   8.512   5.901  1.00  0.00     0.217 HD
ENDBRANCH  13  18
ENDBRANCH   5   6
ENDBRANCH   4   5
ENDBRANCH   3   4
BRANCH   2  20
HETATM   20  C17 UNL     1      -3.614   1.989  11.720  1.00  0.00     0.060 C 
BRANCH  20  21
HETATM   21  C18 UNL     1      -5.062   2.303  11.461  1.00  0.00    -0.026 C 
HETATM   22  C19 UNL     1      -5.906   3.155  12.068  1.00  0.00    -0.019 C 
BRANCH  22  23
HETATM   23  C20 UNL     1      -5.755   4.094  13.245  1.00  0.00     0.076 C 
HETATM   24  C21 UNL     1      -4.819   5.290  13.076  1.00  0.00     0.022 C 
BRANCH  23  25
HETATM   25  C22 UNL     1      -7.151   4.546  13.700  1.00  0.00     0.162 C 
HETATM   26  O3  UNL     1      -8.176   4.296  13.052  1.00  0.00    -0.294 OA
BRANCH  25  27
HETATM   27  C23 UNL     1      -7.278   5.255  15.062  1.00  0.00     0.188 C 
BRANCH  27  28
HETATM   28  O4  UNL     1      -8.042   4.470  15.976  1.00  0.00    -0.388 OA
HETATM   29  H31 UNL     1      -8.197   3.607  15.535  1.00  0.00     0.210 HD
ENDBRANCH  27  28
BRANCH  27  30
HETATM   30  C24 UNL     1      -7.834   6.686  15.020  1.00  0.00     0.043 C 
BRANCH  30  31
HETATM   31  C25 UNL     1      -9.304   6.947  15.424  1.00  0.00    -0.020 C 
HETATM   32  C26 UNL     1     -10.269   7.023  14.243  1.00  0.00     0.009 C 
HETATM   33  C27 UNL     1      -9.478   8.164  16.330  1.00  0.00     0.009 C 
ENDBRANCH  30  31
ENDBRANCH  27  30
ENDBRANCH  25  27
ENDBRANCH  23  25
ENDBRANCH  22  23
ENDBRANCH  20  21
ENDBRANCH   2  20
TORSDOF 12
ENDMDL
MODEL 4
REMARK minimizedAffinity -8.6626339
REMARK  12 active torsions:
REMARK  status: ('A' for Active; 'I' for Inactive)
REMARK    1  A    between atoms: C2_2  and  C17_19 
REMARK    2  A    between atoms: C3_3  and  C4_4 
REMARK    3  A    between atoms: C4_4  and  C5_5 
REMARK    4  A    between atoms: C5_5  and  C6_6 
REMARK    5  A    between atoms: C12_12  and  O1_13 
REMARK    6  A    between atoms: C17_19  and  C18_20 
REMARK    7  A    between atoms: C19_21  and  C20_22 
REMARK    8  A    between atoms: C20_22  and  C22_24 
REMARK    9  A    between atoms: C22_24  and  C23_26 
REMARK   10  A    between atoms: C23_26  and  O4_27 
REMARK   11  A    between atoms: C23_26  and  C24_28 
REMARK   12  A    between atoms: C24_28  and  C25_29 
ROOT
HETATM    1  C1  UNL     1      -0.867   8.725  13.993  1.00  0.00     0.043 C 
HETATM    2  C2  UNL     1      -1.536   8.644  12.645  1.00  0.00    -0.084 C 
HETATM    3  C3  UNL     1      -2.872   8.682  12.460  1.00  0.00    -0.024 C 
ENDROOT
BRANCH   3   4
HETATM    4  C4  UNL     1      -3.924   8.906  13.510  1.00  0.00     0.030 C 
BRANCH   4   5
HETATM    5  C5  UNL     1      -5.168   8.013  13.432  1.00  0.00     0.042 C 
BRANCH   5   6
HETATM    6  C6  UNL     1      -5.397   6.961  14.551  1.00  0.00     0.065 C 
HETATM    7  C7  UNL     1      -6.183   7.569  15.725  1.00  0.00     0.046 C 
HETATM    8  C8  UNL     1      -4.121   6.314  15.107  1.00  0.00     0.043 C 
HETATM    9  C9  UNL     1      -3.393   5.525  14.032  1.00  0.00     0.044 C 
HETATM   10  C10 UNL     1      -4.357   4.650  13.286  1.00  0.00    -0.021 A 
HETATM   11  C11 UNL     1      -3.872   3.567  12.537  1.00  0.00     0.046 A 
HETATM   12  C16 UNL     1      -5.732   4.916  13.306  1.00  0.00     0.082 A 
HETATM   13  C12 UNL     1      -4.761   2.755  11.843  1.00  0.00     0.066 A 
HETATM   14  C13 UNL     1      -6.128   3.005  11.873  1.00  0.00     0.046 A 
HETATM   15  C14 UNL     1      -6.627   4.090  12.605  1.00  0.00    -0.025 A 
HETATM   16  C15 UNL     1      -8.106   4.354  12.634  1.00  0.00     0.051 C 
HETATM   17  O2  UNL     1      -6.285   5.953  14.012  1.00  0.00    -0.340 OA
BRANCH  13  18
HETATM   18  O1  UNL     1      -4.328   1.687  11.115  1.00  0.00    -0.361 OA
HETATM   19  H17 UNL     1      -3.365   1.618  11.207  1.00  0.00     0.217 HD
ENDBRANCH  13  18
ENDBRANCH   5   6
ENDBRANCH   4   5
ENDBRANCH   3   4
BRANCH   2  20
HETATM   20  C17 UNL     1      -0.589   8.483  11.465  1.00  0.00     0.060 C 
BRANCH  20  21
HETATM   21  C18 UNL     1       0.843   8.673  11.884  1.00  0.00    -0.026 C 
HETATM   22  C19 UNL     1       1.793   7.785  12.220  1.00  0.00    -0.019 C 
BRANCH  22  23
HETATM   23  C20 UNL     1       1.798   6.277  12.343  1.00  0.00     0.076 C 
HETATM   24  C21 UNL     1       0.769   5.643  13.279  1.00  0.00     0.022 C 
BRANCH  23  25
HETATM   25  C22 UNL     1       1.717   5.664  10.938  1.00  0.00     0.162 C 
HETATM   26  O3  UNL     1       0.666   5.204  10.472  1.00  0.00    -0.294 OA
BRANCH  25  27
HETATM   27  C23 UNL     1       2.974   5.714  10.047  1.00  0.00     0.188 C 
BRANCH  27  28
HETATM   28  O4  UNL     1       4.159   5.759  10.839  1.00  0.00    -0.388 OA
HETATM   29  H31 UNL     1       3.874   5.626  11.768  1.00  0.00     0.210 HD
ENDBRANCH  27  28
BRANCH  27  30
HETATM   30  C24 UNL     1       3.006   6.840   9.003  1.00  0.00     0.043 C 
BRANCH  30  31
HETATM   31  C25 UNL     1       1.794   7.048   8.066  1.00  0.00    -0.020 C 
HETATM   32  C26 UNL     1       2.097   6.792   6.591  1.00  0.00     0.009 C 
HETATM   33  C27 UNL     1       1.119   8.407   8.240  1.00  0.00     0.009 C 
ENDBRANCH  30  31
ENDBRANCH  27  30
ENDBRANCH  25  27
ENDBRANCH  23  25
ENDBRANCH  22  23
ENDBRANCH  20  21
ENDBRANCH   2  20
TORSDOF 12
ENDMDL
MODEL 5
REMARK minimizedAffinity -8.65361786
REMARK  12 active torsions:
REMARK  status: ('A' for Active; 'I' for Inactive)
REMARK    1  A    between atoms: C2_2  and  C17_19 
REMARK    2  A    between atoms: C3_3  and  C4_4 
REMARK    3  A    between atoms: C4_4  and  C5_5 
REMARK    4  A    between atoms: C5_5  and  C6_6 
REMARK    5  A    between atoms: C12_12  and  O1_13 
REMARK    6  A    between atoms: C17_19  and  C18_20 
REMARK    7  A    between atoms: C19_21  and  C20_22 
REMARK    8  A    between atoms: C20_22  and  C22_24 
REMARK    9  A    between atoms: C22_24  and  C23_26 
REMARK   10  A    between atoms: C23_26  and  O4_27 
REMARK   11  A    between atoms: C23_26  and  C24_28 
REMARK   12  A    between atoms: C24_28  and  C25_29 
ROOT
HETATM    1  C1  UNL     1      -0.951   5.705  13.552  1.00  0.00     0.043 C 
HETATM    2  C2  UNL     1      -1.220   7.054  14.165  1.00  0.00    -0.084 C 
HETATM    3  C3  UNL     1      -2.274   7.326  14.963  1.00  0.00    -0.024 C 
ENDROOT
BRANCH   3   4
HETATM    4  C4  UNL     1      -3.301   6.351  15.468  1.00  0.00     0.030 C 
BRANCH   4   5
HETATM    5  C5  UNL     1      -4.760   6.821  15.441  1.00  0.00     0.042 C 
BRANCH   5   6
HETATM    6  C6  UNL     1      -5.396   7.188  14.073  1.00  0.00     0.065 C 
HETATM    7  C7  UNL     1      -4.778   8.479  13.509  1.00  0.00     0.046 C 
HETATM    8  C8  UNL     1      -6.922   7.348  14.087  1.00  0.00     0.043 C 
HETATM    9  C9  UNL     1      -7.608   6.042  14.447  1.00  0.00     0.044 C 
HETATM   10  C10 UNL     1      -7.026   4.912  13.650  1.00  0.00    -0.021 A 
HETATM   11  C11 UNL     1      -7.745   3.713  13.522  1.00  0.00     0.046 A 
HETATM   12  C16 UNL     1      -5.764   5.028  13.052  1.00  0.00     0.082 A 
HETATM   13  C12 UNL     1      -7.209   2.662  12.785  1.00  0.00     0.066 A 
HETATM   14  C13 UNL     1      -5.965   2.779  12.178  1.00  0.00     0.046 A 
HETATM   15  C14 UNL     1      -5.229   3.964  12.306  1.00  0.00    -0.025 A 
HETATM   16  C15 UNL     1      -3.885   4.084  11.646  1.00  0.00     0.051 C 
HETATM   17  O2  UNL     1      -5.000   6.163  13.130  1.00  0.00    -0.340 OA
BRANCH  13  18
HETATM   18  O1  UNL     1      -7.883   1.488  12.630  1.00  0.00    -0.361 OA
HETATM   19  H17 UNL     1      -8.740   1.559  13.079  1.00  0.00     0.217 HD
ENDBRANCH  13  18
ENDBRANCH   5   6
ENDBRANCH   4   5
ENDBRANCH   3   4
BRANCH   2  20
HETATM   20  C17 UNL     1      -0.218   8.139  13.799  1.00  0.00     0.060 C 
BRANCH  20  21
HETATM   21  C18 UNL     1      -0.255   8.444  12.327  1.00  0.00    -0.026 C 
HETATM   22  C19 UNL     1       0.573   8.094  11.329  1.00  0.00    -0.019 C 
BRANCH  22  23
HETATM   23  C20 UNL     1       1.861   7.301  11.286  1.00  0.00     0.076 C 
HETATM   24  C21 UNL     1       2.564   7.030  12.616  1.00  0.00     0.022 C 
BRANCH  23  25
HETATM   25  C22 UNL     1       1.614   5.995  10.517  1.00  0.00     0.162 C 
HETATM   26  O3  UNL     1       0.499   5.458  10.457  1.00  0.00    -0.294 OA
BRANCH  25  27
HETATM   27  C23 UNL     1       2.782   5.389   9.715  1.00  0.00     0.188 C 
BRANCH  27  28
HETATM   28  O4  UNL     1       3.989   5.413  10.475  1.00  0.00    -0.388 OA
HETATM   29  H31 UNL     1       3.740   5.707  11.377  1.00  0.00     0.210 HD
ENDBRANCH  27  28
BRANCH  27  30
HETATM   30  C24 UNL     1       3.030   6.005   8.331  1.00  0.00     0.043 C 
BRANCH  30  31
HETATM   31  C25 UNL     1       2.200   7.229   7.879  1.00  0.00    -0.020 C 
HETATM   32  C26 UNL     1       1.626   7.105   6.469  1.00  0.00     0.009 C 
HETATM   33  C27 UNL     1       2.940   8.556   8.034  1.00  0.00     0.009 C 
ENDBRANCH  30  31
ENDBRANCH  27  30
ENDBRANCH  25  27
ENDBRANCH  23  25
ENDBRANCH  22  23
ENDBRANCH  20  21
ENDBRANCH   2  20
TORSDOF 12
ENDMDL
MODEL 6
REMARK minimizedAffinity -8.48093796
REMARK  12 active torsions:
REMARK  status: ('A' for Active; 'I' for Inactive)
REMARK    1  A    between atoms: C2_2  and  C17_19 
REMARK    2  A    between atoms: C3_3  and  C4_4 
REMARK    3  A    between atoms: C4_4  and  C5_5 
REMARK    4  A    between atoms: C5_5  and  C6_6 
REMARK    5  A    between atoms: C12_12  and  O1_13 
REMARK    6  A    between atoms: C17_19  and  C18_20 
REMARK    7  A    between atoms: C19_21  and  C20_22 
REMARK    8  A    between atoms: C20_22  and  C22_24 
REMARK    9  A    between atoms: C22_24  and  C23_26 
REMARK   10  A    between atoms: C23_26  and  O4_27 
REMARK   11  A    between atoms: C23_26  and  C24_28 
REMARK   12  A    between atoms: C24_28  and  C25_29 
ROOT
HETATM    1  C1  UNL     1      -0.192   7.373  13.839  1.00  0.00     0.043 C 
HETATM    2  C2  UNL     1      -0.591   7.721  12.429  1.00  0.00    -0.084 C 
HETATM    3  C3  UNL     1      -1.792   8.235  12.089  1.00  0.00    -0.024 C 
ENDROOT
BRANCH   3   4
HETATM    4  C4  UNL     1      -2.897   8.645  13.020  1.00  0.00     0.030 C 
BRANCH   4   5
HETATM    5  C5  UNL     1      -4.163   7.780  13.001  1.00  0.00     0.042 C 
BRANCH   5   6
HETATM    6  C6  UNL     1      -4.442   6.847  14.211  1.00  0.00     0.065 C 
HETATM    7  C7  UNL     1      -4.863   7.660  15.447  1.00  0.00     0.046 C 
HETATM    8  C8  UNL     1      -3.276   5.932  14.609  1.00  0.00     0.043 C 
HETATM    9  C9  UNL     1      -2.935   4.959  13.493  1.00  0.00     0.044 C 
HETATM   10  C10 UNL     1      -4.184   4.317  12.964  1.00  0.00    -0.021 A 
HETATM   11  C11 UNL     1      -4.091   3.128  12.225  1.00  0.00     0.046 A 
HETATM   12  C16 UNL     1      -5.439   4.904  13.174  1.00  0.00     0.082 A 
HETATM   13  C12 UNL     1      -5.245   2.530  11.731  1.00  0.00     0.066 A 
HETATM   14  C13 UNL     1      -6.493   3.100  11.951  1.00  0.00     0.046 A 
HETATM   15  C14 UNL     1      -6.603   4.294  12.675  1.00  0.00    -0.025 A 
HETATM   16  C15 UNL     1      -7.955   4.904  12.910  1.00  0.00     0.051 C 
HETATM   17  O2  UNL     1      -5.615   6.064  13.883  1.00  0.00    -0.340 OA
BRANCH  13  18
HETATM   18  O1  UNL     1      -5.195   1.369  11.020  1.00  0.00    -0.361 OA
HETATM   19  H17 UNL     1      -4.272   1.074  10.969  1.00  0.00     0.217 HD
ENDBRANCH  13  18
ENDBRANCH   5   6
ENDBRANCH   4   5
ENDBRANCH   3   4
BRANCH   2  20
HETATM   20  C17 UNL     1       0.460   7.426  11.371  1.00  0.00     0.060 C 
BRANCH  20  21
HETATM   21  C18 UNL     1       0.251   8.268  10.142  1.00  0.00    -0.026 C 
HETATM   22  C19 UNL     1       0.758   8.167   8.902  1.00  0.00    -0.019 C 
BRANCH  22  23
HETATM   23  C20 UNL     1       1.743   7.211   8.264  1.00  0.00     0.076 C 
HETATM   24  C21 UNL     1       1.866   7.241   6.741  1.00  0.00     0.022 C 
BRANCH  23  25
HETATM   25  C22 UNL     1       3.113   7.392   8.933  1.00  0.00     0.162 C 
HETATM   26  O3  UNL     1       3.757   8.447   8.857  1.00  0.00    -0.294 OA
BRANCH  25  27
HETATM   27  C23 UNL     1       3.654   6.244   9.807  1.00  0.00     0.188 C 
BRANCH  27  28
HETATM   28  O4  UNL     1       2.747   5.143   9.824  1.00  0.00    -0.388 OA
HETATM   29  H31 UNL     1       2.049   5.353   9.167  1.00  0.00     0.210 HD
ENDBRANCH  27  28
BRANCH  27  30
HETATM   30  C24 UNL     1       4.034   6.623  11.246  1.00  0.00     0.043 C 
BRANCH  30  31
HETATM   31  C25 UNL     1       5.525   6.742  11.637  1.00  0.00    -0.020 C 
HETATM   32  C26 UNL     1       6.096   8.151  11.487  1.00  0.00     0.009 C 
HETATM   33  C27 UNL     1       6.421   5.729  10.929  1.00  0.00     0.009 C 
ENDBRANCH  30  31
ENDBRANCH  27  30
ENDBRANCH  25  27
ENDBRANCH  23  25
ENDBRANCH  22  23
ENDBRANCH  20  21
ENDBRANCH   2  20
TORSDOF 12
ENDMDL
MODEL 7
REMARK minimizedAffinity -8.44978428
REMARK  12 active torsions:
REMARK  status: ('A' for Active; 'I' for Inactive)
REMARK    1  A    between atoms: C2_2  and  C17_19 
REMARK    2  A    between atoms: C3_3  and  C4_4 
REMARK    3  A    between atoms: C4_4  and  C5_5 
REMARK    4  A    between atoms: C5_5  and  C6_6 
REMARK    5  A    between atoms: C12_12  and  O1_13 
REMARK    6  A    between atoms: C17_19  and  C18_20 
REMARK    7  A    between atoms: C19_21  and  C20_22 
REMARK    8  A    between atoms: C20_22  and  C22_24 
REMARK    9  A    between atoms: C22_24  and  C23_26 
REMARK   10  A    between atoms: C23_26  and  O4_27 
REMARK   11  A    between atoms: C23_26  and  C24_28 
REMARK   12  A    between atoms: C24_28  and  C25_29 
ROOT
HETATM    1  C1  UNL     1       0.366   7.370  15.737  1.00  0.00     0.043 C 
HETATM    2  C2  UNL     1       0.093   6.633  14.452  1.00  0.00    -0.084 C 
HETATM    3  C3  UNL     1      -1.058   5.982  14.184  1.00  0.00    -0.024 C 
ENDROOT
BRANCH   3   4
HETATM    4  C4  UNL     1      -2.295   5.943  15.036  1.00  0.00     0.030 C 
BRANCH   4   5
HETATM    5  C5  UNL     1      -3.254   7.132  14.903  1.00  0.00     0.042 C 
BRANCH   5   6
HETATM    6  C6  UNL     1      -3.821   7.473  13.498  1.00  0.00     0.065 C 
HETATM    7  C7  UNL     1      -2.802   8.279  12.675  1.00  0.00     0.046 C 
HETATM    8  C8  UNL     1      -5.152   8.239  13.502  1.00  0.00     0.043 C 
HETATM    9  C9  UNL     1      -6.259   7.411  14.131  1.00  0.00     0.044 C 
HETATM   10  C10 UNL     1      -6.250   6.019  13.570  1.00  0.00    -0.021 A 
HETATM   11  C11 UNL     1      -7.392   5.214  13.700  1.00  0.00     0.046 A 
HETATM   12  C16 UNL     1      -5.108   5.504  12.943  1.00  0.00     0.082 A 
HETATM   13  C12 UNL     1      -7.388   3.922  13.183  1.00  0.00     0.066 A 
HETATM   14  C13 UNL     1      -6.263   3.413  12.546  1.00  0.00     0.046 A 
HETATM   15  C14 UNL     1      -5.110   4.199  12.420  1.00  0.00    -0.025 A 
HETATM   16  C15 UNL     1      -3.898   3.643  11.729  1.00  0.00     0.051 C 
HETATM   17  O2  UNL     1      -3.954   6.225  12.777  1.00  0.00    -0.340 OA
BRANCH  13  18
HETATM   18  O1  UNL     1      -8.482   3.115  13.280  1.00  0.00    -0.361 OA
HETATM   19  H17 UNL     1      -9.194   3.607  13.718  1.00  0.00     0.217 HD
ENDBRANCH  13  18
ENDBRANCH   5   6
ENDBRANCH   4   5
ENDBRANCH   3   4
BRANCH   2  20
HETATM   20  C17 UNL     1       1.237   6.642  13.450  1.00  0.00     0.060 C 
BRANCH  20  21
HETATM   21  C18 UNL     1       1.337   7.967  12.745  1.00  0.00    -0.026 C 
HETATM   22  C19 UNL     1       0.975   8.341  11.506  1.00  0.00    -0.019 C 
BRANCH  22  23
HETATM   23  C20 UNL     1       0.369   7.594  10.338  1.00  0.00     0.076 C 
HETATM   24  C21 UNL     1      -0.136   8.423   9.158  1.00  0.00     0.022 C 
BRANCH  23  25
HETATM   25  C22 UNL     1       1.358   6.516   9.872  1.00  0.00     0.162 C 
HETATM   26  O3  UNL     1       1.412   5.392  10.390  1.00  0.00    -0.294 OA
BRANCH  25  27
HETATM   27  C23 UNL     1       2.247   6.822   8.650  1.00  0.00     0.188 C 
BRANCH  27  28
HETATM   28  O4  UNL     1       2.714   5.619   8.044  1.00  0.00    -0.388 OA
HETATM   29  H31 UNL     1       2.247   4.884   8.497  1.00  0.00     0.210 HD
ENDBRANCH  27  28
BRANCH  27  30
HETATM   30  C24 UNL     1       3.431   7.765   8.907  1.00  0.00     0.043 C 
BRANCH  30  31
HETATM   31  C25 UNL     1       4.106   7.783  10.299  1.00  0.00    -0.020 C 
HETATM   32  C26 UNL     1       5.069   8.950  10.508  1.00  0.00     0.009 C 
HETATM   33  C27 UNL     1       4.785   6.464  10.661  1.00  0.00     0.009 C 
ENDBRANCH  30  31
ENDBRANCH  27  30
ENDBRANCH  25  27
ENDBRANCH  23  25
ENDBRANCH  22  23
ENDBRANCH  20  21
ENDBRANCH   2  20
TORSDOF 12
ENDMDL
MODEL 8
REMARK minimizedAffinity -8.41401863
REMARK  12 active torsions:
REMARK  status: ('A' for Active; 'I' for Inactive)
REMARK    1  A    between atoms: C2_2  and  C17_19 
REMARK    2  A    between atoms: C3_3  and  C4_4 
REMARK    3  A    between atoms: C4_4  and  C5_5 
REMARK    4  A    between atoms: C5_5  and  C6_6 
REMARK    5  A    between atoms: C12_12  and  O1_13 
REMARK    6  A    between atoms: C17_19  and  C18_20 
REMARK    7  A    between atoms: C19_21  and  C20_22 
REMARK    8  A    between atoms: C20_22  and  C22_24 
REMARK    9  A    between atoms: C22_24  and  C23_26 
REMARK   10  A    between atoms: C23_26  and  O4_27 
REMARK   11  A    between atoms: C23_26  and  C24_28 
REMARK   12  A    between atoms: C24_28  and  C25_29 
ROOT
HETATM    1  C1  UNL     1      -2.737   3.487  10.779  1.00  0.00     0.043 C 
HETATM    2  C2  UNL     1      -3.566   4.129  11.861  1.00  0.00    -0.084 C 
HETATM    3  C3  UNL     1      -3.053   4.853  12.878  1.00  0.00    -0.024 C 
ENDROOT
BRANCH   3   4
HETATM    4  C4  UNL     1      -1.614   5.238  13.078  1.00  0.00     0.030 C 
BRANCH   4   5
HETATM    5  C5  UNL     1      -0.902   5.869  11.876  1.00  0.00     0.042 C 
BRANCH   5   6
HETATM    6  C6  UNL     1       0.299   6.817  12.139  1.00  0.00     0.065 C 
HETATM    7  C7  UNL     1       0.784   6.700  13.594  1.00  0.00     0.046 C 
HETATM    8  C8  UNL     1       0.038   8.299  11.835  1.00  0.00     0.043 C 
HETATM    9  C9  UNL     1      -0.256   8.513  10.359  1.00  0.00     0.044 C 
HETATM   10  C10 UNL     1       0.754   7.790   9.518  1.00  0.00    -0.021 A 
HETATM   11  C11 UNL     1       0.921   8.153   8.173  1.00  0.00     0.046 A 
HETATM   12  C16 UNL     1       1.514   6.740  10.050  1.00  0.00     0.082 A 
HETATM   13  C12 UNL     1       1.855   7.484   7.388  1.00  0.00     0.066 A 
HETATM   14  C13 UNL     1       2.621   6.453   7.916  1.00  0.00     0.046 A 
HETATM   15  C14 UNL     1       2.458   6.069   9.253  1.00  0.00    -0.025 A 
HETATM   16  C15 UNL     1       3.292   4.955   9.818  1.00  0.00     0.051 C 
HETATM   17  O2  UNL     1       1.410   6.324  11.352  1.00  0.00    -0.340 OA
BRANCH  13  18
HETATM   18  O1  UNL     1       2.052   7.816   6.081  1.00  0.00    -0.361 OA
HETATM   19  H17 UNL     1       1.475   8.563   5.859  1.00  0.00     0.217 HD
ENDBRANCH  13  18
ENDBRANCH   5   6
ENDBRANCH   4   5
ENDBRANCH   3   4
BRANCH   2  20
HETATM   20  C17 UNL     1      -5.064   3.885  11.754  1.00  0.00     0.060 C 
BRANCH  20  21
HETATM   21  C18 UNL     1      -5.708   3.839  13.112  1.00  0.00    -0.026 C 
HETATM   22  C19 UNL     1      -6.635   4.629  13.679  1.00  0.00    -0.019 C 
BRANCH  22  23
HETATM   23  C20 UNL     1      -7.362   5.871  13.209  1.00  0.00     0.076 C 
HETATM   24  C21 UNL     1      -8.568   5.675  12.291  1.00  0.00     0.022 C 
BRANCH  23  25
HETATM   25  C22 UNL     1      -7.732   6.722  14.433  1.00  0.00     0.162 C 
HETATM   26  O3  UNL     1      -8.906   6.981  14.732  1.00  0.00    -0.294 OA
BRANCH  25  27
HETATM   27  C23 UNL     1      -6.599   7.185  15.368  1.00  0.00     0.188 C 
BRANCH  27  28
HETATM   28  O4  UNL     1      -7.029   7.190  16.728  1.00  0.00    -0.388 OA
HETATM   29  H31 UNL     1      -7.919   6.777  16.736  1.00  0.00     0.210 HD
ENDBRANCH  27  28
BRANCH  27  30
HETATM   30  C24 UNL     1      -5.961   8.538  15.023  1.00  0.00     0.043 C 
BRANCH  30  31
HETATM   31  C25 UNL     1      -4.500   8.588  14.517  1.00  0.00    -0.020 C 
HETATM   32  C26 UNL     1      -4.347   8.285  13.028  1.00  0.00     0.009 C 
HETATM   33  C27 UNL     1      -3.545   7.721  15.335  1.00  0.00     0.009 C 
ENDBRANCH  30  31
ENDBRANCH  27  30
ENDBRANCH  25  27
ENDBRANCH  23  25
ENDBRANCH  22  23
ENDBRANCH  20  21
ENDBRANCH   2  20
TORSDOF 12
ENDMDL
MODEL 9
REMARK minimizedAffinity -8.39923
REMARK  12 active torsions:
REMARK  status: ('A' for Active; 'I' for Inactive)
REMARK    1  A    between atoms: C2_2  and  C17_19 
REMARK    2  A    between atoms: C3_3  and  C4_4 
REMARK    3  A    between atoms: C4_4  and  C5_5 
REMARK    4  A    between atoms: C5_5  and  C6_6 
REMARK    5  A    between atoms: C12_12  and  O1_13 
REMARK    6  A    between atoms: C17_19  and  C18_20 
REMARK    7  A    between atoms: C19_21  and  C20_22 
REMARK    8  A    between atoms: C20_22  and  C22_24 
REMARK    9  A    between atoms: C22_24  and  C23_26 
REMARK   10  A    between atoms: C23_26  and  O4_27 
REMARK   11  A    between atoms: C23_26  and  C24_28 
REMARK   12  A    between atoms: C24_28  and  C25_29 
ROOT
HETATM    1  C1  UNL     1      -0.001   9.070  14.406  1.00  0.00     0.043 C 
HETATM    2  C2  UNL     1      -0.217   8.836  12.933  1.00  0.00    -0.084 C 
HETATM    3  C3  UNL     1      -1.432   8.739  12.354  1.00  0.00    -0.024 C 
ENDROOT
BRANCH   3   4
HETATM    4  C4  UNL     1      -2.768   8.939  13.013  1.00  0.00     0.030 C 
BRANCH   4   5
HETATM    5  C5  UNL     1      -3.712   7.730  13.024  1.00  0.00     0.042 C 
BRANCH   5   6
HETATM    6  C6  UNL     1      -3.415   6.566  14.006  1.00  0.00     0.065 C 
HETATM    7  C7  UNL     1      -3.184   7.094  15.432  1.00  0.00     0.046 C 
HETATM    8  C8  UNL     1      -2.223   5.677  13.622  1.00  0.00     0.043 C 
HETATM    9  C9  UNL     1      -2.474   4.964  12.304  1.00  0.00     0.044 C 
HETATM   10  C10 UNL     1      -3.841   4.347  12.297  1.00  0.00    -0.021 A 
HETATM   11  C11 UNL     1      -4.138   3.331  11.376  1.00  0.00     0.046 A 
HETATM   12  C16 UNL     1      -4.834   4.790  13.182  1.00  0.00     0.082 A 
HETATM   13  C12 UNL     1      -5.405   2.758  11.366  1.00  0.00     0.066 A 
HETATM   14  C13 UNL     1      -6.387   3.183  12.251  1.00  0.00     0.046 A 
HETATM   15  C14 UNL     1      -6.112   4.205  13.168  1.00  0.00    -0.025 A 
HETATM   16  C15 UNL     1      -7.178   4.660  14.124  1.00  0.00     0.051 C 
HETATM   17  O2  UNL     1      -4.625   5.777  14.110  1.00  0.00    -0.340 OA
BRANCH  13  18
HETATM   18  O1  UNL     1      -5.726   1.761  10.493  1.00  0.00    -0.361 OA
HETATM   19  H17 UNL     1      -4.943   1.550   9.961  1.00  0.00     0.217 HD
ENDBRANCH  13  18
ENDBRANCH   5   6
ENDBRANCH   4   5
ENDBRANCH   3   4
BRANCH   2  20
HETATM   20  C17 UNL     1       1.054   8.681  12.113  1.00  0.00     0.060 C 
BRANCH  20  21
HETATM   21  C18 UNL     1       2.279   8.927  12.950  1.00  0.00    -0.026 C 
HETATM   22  C19 UNL     1       3.578   9.008  12.616  1.00  0.00    -0.019 C 
BRANCH  22  23
HETATM   23  C20 UNL     1       4.319   8.855  11.306  1.00  0.00     0.076 C 
HETATM   24  C21 UNL     1       5.752   9.382  11.242  1.00  0.00     0.022 C 
BRANCH  23  25
HETATM   25  C22 UNL     1       4.252   7.385  10.868  1.00  0.00     0.162 C 
HETATM   26  O3  UNL     1       4.844   6.481  11.474  1.00  0.00    -0.294 OA
BRANCH  25  27
HETATM   27  C23 UNL     1       3.336   7.018   9.684  1.00  0.00     0.188 C 
BRANCH  27  28
HETATM   28  O4  UNL     1       3.713   5.766   9.115  1.00  0.00    -0.388 OA
HETATM   29  H31 UNL     1       4.401   5.392   9.706  1.00  0.00     0.210 HD
ENDBRANCH  27  28
BRANCH  27  30
HETATM   30  C24 UNL     1       3.222   8.076   8.577  1.00  0.00     0.043 C 
BRANCH  30  31
HETATM   31  C25 UNL     1       1.914   8.187   7.758  1.00  0.00    -0.020 C 
HETATM   32  C26 UNL     1       0.645   8.171   8.608  1.00  0.00     0.009 C 
HETATM   33  C27 UNL     1       1.813   7.159   6.634  1.00  0.00     0.009 C 
ENDBRANCH  30  31
ENDBRANCH  27  30
ENDBRANCH  25  27
ENDBRANCH  23  25
ENDBRANCH  22  23
ENDBRANCH  20  21
ENDBRANCH   2  20
TORSDOF 12
ENDMDL
