MODEL 1
REMARK minimizedAffinity -8.12883186
REMARK CNNscore 0.888052583
REMARK CNNaffinity 7.31635857
REMARK  9 active torsions:
REMARK  status: ('A' for Active; 'I' for Inactive)
REMARK    1  A    between atoms: C2_2  and  O1_3 
REMARK    2  A    between atoms: O1_3  and  C3_4 
REMARK    3  A    between atoms: C14_15  and  O2_16 
REMARK    4  A    between atoms: O2_16  and  C15_17 
REMARK    5  A    between atoms: C21_24  and  O4_25 
REMARK    6  A    between atoms: O4_25  and  C22_26 
REMARK    7  A    between atoms: C24_29  and  O6_30 
REMARK    8  A    between atoms: C25_31  and  O7_32 
REMARK    9  A    between atoms: C26_33  and  O8_34 
ROOT
HETATM    1  C3  UNL     1      -4.117  49.717  -9.832  1.00  0.00     0.260 C 
HETATM    2  C4  UNL     1      -3.969  49.906 -11.351  1.00  0.00     0.065 C 
HETATM    3  C5  UNL     1      -2.567  50.414 -11.707  1.00  0.00    -0.007 C 
HETATM    4  C6  UNL     1      -2.386  50.482 -13.222  1.00  0.00     0.010 C 
HETATM    5  C7  UNL     1      -2.390  51.792 -11.033  1.00  0.00     0.027 C 
HETATM    6  C8  UNL     1      -3.061  51.837  -9.624  1.00  0.00     0.130 C 
HETATM    7  C9  UNL     1      -2.124  52.672  -8.716  1.00  0.00     0.042 C 
HETATM    8  C10 UNL     1      -1.229  53.449  -9.699  1.00  0.00    -0.029 C 
HETATM    9  C11 UNL     1      -2.107  54.635 -10.240  1.00  0.00     0.016 C 
HETATM   10  C12 UNL     1       0.088  54.108  -9.167  1.00  0.00     0.006 C 
HETATM   11  C13 UNL     1       0.556  53.678  -7.771  1.00  0.00     0.039 C 
HETATM   12  C14 UNL     1       1.813  54.455  -7.283  1.00  0.00     0.138 C 
HETATM   13  C17 UNL     1       2.442  55.426  -8.337  1.00  0.00     0.035 C 
HETATM   14  C18 UNL     1       3.816  56.122  -7.935  1.00  0.00    -0.015 C 
HETATM   15  C19 UNL     1       4.153  56.027  -6.429  1.00  0.00     0.018 C 
HETATM   16  C20 UNL     1       3.725  57.647  -8.223  1.00  0.00     0.018 C 
HETATM   17  C21 UNL     1       5.014  55.522  -8.741  1.00  0.00     0.133 C 
HETATM   18  C27 UNL     1       4.812  55.594 -10.267  1.00  0.00     0.034 C 
HETATM   19  C28 UNL     1       3.353  55.554 -10.724  1.00  0.00     0.013 C 
HETATM   20  C29 UNL     1       2.507  54.785  -9.749  1.00  0.00    -0.025 A 
HETATM   21  C30 UNL     1       2.530  53.290  -9.914  1.00  0.00     0.021 A 
HETATM   22  C31 UNL     1       1.237  54.037 -10.197  1.00  0.00    -0.027 A 
HETATM   23  C32 UNL     1       0.784  54.056 -11.648  1.00  0.00     0.011 C 
HETATM   24  C33 UNL     1      -0.253  52.967 -11.994  1.00  0.00     0.011 C 
HETATM   25  C34 UNL     1      -0.950  52.340 -10.773  1.00  0.00    -0.030 C 
HETATM   26  C35 UNL     1      -0.072  51.167 -10.249  1.00  0.00     0.016 C 
HETATM   27  O9  UNL     1      -3.215  50.534  -9.081  1.00  0.00    -0.356 OA
ENDROOT
BRANCH  17  28
HETATM   28  O4  UNL     1       5.224  54.172  -8.294  1.00  0.00    -0.353 OA
BRANCH  28  29
HETATM   29  C22 UNL     1       6.599  53.760  -8.214  1.00  0.00     0.291 C 
HETATM   30  O5  UNL     1       7.061  53.112  -9.396  1.00  0.00    -0.356 OA
HETATM   31  C23 UNL     1       6.442  51.839  -9.612  1.00  0.00     0.205 C 
HETATM   32  C24 UNL     1       6.699  50.860  -8.460  1.00  0.00     0.173 C 
HETATM   33  C25 UNL     1       6.209  51.462  -7.145  1.00  0.00     0.182 C 
HETATM   34  C26 UNL     1       6.795  52.869  -6.958  1.00  0.00     0.204 C 
BRANCH  32  35
HETATM   35  O6  UNL     1       8.096  50.569  -8.359  1.00  0.00    -0.391 OA
HETATM   36  H39 UNL     1       8.402  50.288  -9.239  1.00  0.00     0.210 HD
ENDBRANCH  32  35
BRANCH  33  37
HETATM   37  O7  UNL     1       4.777  51.484  -7.129  1.00  0.00    -0.390 OA
HETATM   38  H41 UNL     1       4.530  52.000  -6.336  1.00  0.00     0.210 HD
ENDBRANCH  33  37
BRANCH  34  39
HETATM   39  O8  UNL     1       6.215  53.467  -5.787  1.00  0.00    -0.388 OA
HETATM   40  H43 UNL     1       5.590  54.141  -6.117  1.00  0.00     0.210 HD
ENDBRANCH  34  39
ENDBRANCH  28  29
ENDBRANCH  17  28
BRANCH  12  41
HETATM   41  O2  UNL     1       1.394  55.241  -6.137  1.00  0.00    -0.316 OA
BRANCH  41  42
HETATM   42  C15 UNL     1       0.136  55.764  -6.193  1.00  0.00     0.255 C 
HETATM   43  C16 UNL     1       0.163  57.091  -6.893  1.00  0.00     0.126 C 
HETATM   44  O3  UNL     1      -0.877  55.244  -5.747  1.00  0.00    -0.266 OA
ENDBRANCH  41  42
ENDBRANCH  12  41
BRANCH   1  45
HETATM   45  O1  UNL     1      -5.476  49.970  -9.479  1.00  0.00    -0.362 OA
BRANCH  45  46
HETATM   46  C2  UNL     1      -6.401  49.565 -10.486  1.00  0.00     0.166 C 
HETATM   47  C1  UNL     1      -7.823  49.597  -9.954  1.00  0.00     0.033 C 
ENDBRANCH  45  46
ENDBRANCH   1  45
TORSDOF 9
ENDMDL
MODEL 2
REMARK minimizedAffinity -7.02681398
REMARK CNNscore 0.727793634
REMARK CNNaffinity 7.24610949
REMARK  9 active torsions:
REMARK  status: ('A' for Active; 'I' for Inactive)
REMARK    1  A    between atoms: C2_2  and  O1_3 
REMARK    2  A    between atoms: O1_3  and  C3_4 
REMARK    3  A    between atoms: C14_15  and  O2_16 
REMARK    4  A    between atoms: O2_16  and  C15_17 
REMARK    5  A    between atoms: C21_24  and  O4_25 
REMARK    6  A    between atoms: O4_25  and  C22_26 
REMARK    7  A    between atoms: C24_29  and  O6_30 
REMARK    8  A    between atoms: C25_31  and  O7_32 
REMARK    9  A    between atoms: C26_33  and  O8_34 
ROOT
HETATM    1  C3  UNL     1       5.052  55.226  -6.619  1.00  0.00     0.260 C 
HETATM    2  C4  UNL     1       4.164  56.416  -6.221  1.00  0.00     0.065 C 
HETATM    3  C5  UNL     1       2.681  56.091  -6.433  1.00  0.00    -0.007 C 
HETATM    4  C6  UNL     1       1.800  57.228  -5.920  1.00  0.00     0.010 C 
HETATM    5  C7  UNL     1       2.477  55.824  -7.940  1.00  0.00     0.027 C 
HETATM    6  C8  UNL     1       3.691  55.064  -8.562  1.00  0.00     0.130 C 
HETATM    7  C9  UNL     1       3.104  54.059  -9.585  1.00  0.00     0.042 C 
HETATM    8  C10 UNL     1       1.681  54.579  -9.860  1.00  0.00    -0.029 C 
HETATM    9  C11 UNL     1       1.846  55.799 -10.837  1.00  0.00     0.016 C 
HETATM   10  C12 UNL     1       0.645  53.626 -10.547  1.00  0.00     0.006 C 
HETATM   11  C13 UNL     1       1.023  52.141 -10.622  1.00  0.00     0.039 C 
HETATM   12  C14 UNL     1      -0.015  51.287 -11.407  1.00  0.00     0.138 C 
HETATM   13  C17 UNL     1      -1.300  52.058 -11.860  1.00  0.00     0.035 C 
HETATM   14  C18 UNL     1      -2.454  51.189 -12.528  1.00  0.00    -0.015 C 
HETATM   15  C19 UNL     1      -2.006  49.775 -12.965  1.00  0.00     0.018 C 
HETATM   16  C20 UNL     1      -2.923  51.877 -13.841  1.00  0.00     0.018 C 
HETATM   17  C21 UNL     1      -3.679  51.037 -11.568  1.00  0.00     0.133 C 
HETATM   18  C27 UNL     1      -4.244  52.387 -11.089  1.00  0.00     0.034 C 
HETATM   19  C28 UNL     1      -3.221  53.522 -11.015  1.00  0.00     0.013 C 
HETATM   20  C29 UNL     1      -1.844  52.984 -10.740  1.00  0.00    -0.025 A 
HETATM   21  C30 UNL     1      -1.539  52.704  -9.294  1.00  0.00     0.021 A 
HETATM   22  C31 UNL     1      -0.785  53.821  -9.998  1.00  0.00    -0.027 A 
HETATM   23  C32 UNL     1      -1.090  55.232  -9.521  1.00  0.00     0.011 C 
HETATM   24  C33 UNL     1      -0.087  55.771  -8.480  1.00  0.00     0.011 C 
HETATM   25  C34 UNL     1       1.241  54.995  -8.412  1.00  0.00    -0.030 C 
HETATM   26  C35 UNL     1       1.064  53.792  -7.441  1.00  0.00     0.016 C 
HETATM   27  O9  UNL     1       4.426  54.361  -7.571  1.00  0.00    -0.356 OA
ENDROOT
BRANCH  17  28
HETATM   28  O4  UNL     1      -3.282  50.203 -10.464  1.00  0.00    -0.353 OA
BRANCH  28  29
HETATM   29  C22 UNL     1      -3.525  48.797 -10.641  1.00  0.00     0.291 C 
HETATM   30  O5  UNL     1      -4.909  48.459 -10.613  1.00  0.00    -0.356 OA
HETATM   31  C23 UNL     1      -5.503  48.645  -9.324  1.00  0.00     0.205 C 
HETATM   32  C24 UNL     1      -4.832  47.790  -8.241  1.00  0.00     0.173 C 
HETATM   33  C25 UNL     1      -3.339  48.104  -8.178  1.00  0.00     0.182 C 
HETATM   34  C26 UNL     1      -2.719  48.002  -9.580  1.00  0.00     0.204 C 
BRANCH  32  35
HETATM   35  O6  UNL     1      -5.014  46.399  -8.525  1.00  0.00    -0.391 OA
HETATM   36  H39 UNL     1      -5.965  46.249  -8.664  1.00  0.00     0.210 HD
ENDBRANCH  32  35
BRANCH  33  37
HETATM   37  O7  UNL     1      -3.145  49.406  -7.613  1.00  0.00    -0.390 OA
HETATM   38  H41 UNL     1      -2.194  49.604  -7.728  1.00  0.00     0.210 HD
ENDBRANCH  33  37
BRANCH  34  39
HETATM   39  O8  UNL     1      -1.349  48.433  -9.519  1.00  0.00    -0.388 OA
HETATM   40  H43 UNL     1      -1.330  49.311  -9.947  1.00  0.00     0.210 HD
ENDBRANCH  34  39
ENDBRANCH  28  29
ENDBRANCH  17  28
BRANCH  12  41
HETATM   41  O2  UNL     1       0.664  50.801 -12.595  1.00  0.00    -0.316 OA
BRANCH  41  42
HETATM   42  C15 UNL     1       1.147  51.753 -13.443  1.00  0.00     0.255 C 
HETATM   43  C16 UNL     1       2.639  51.636 -13.548  1.00  0.00     0.126 C 
HETATM   44  O3  UNL     1       0.480  52.585 -14.042  1.00  0.00    -0.266 OA
ENDBRANCH  41  42
ENDBRANCH  12  41
BRANCH   1  45
HETATM   45  O1  UNL     1       6.293  55.735  -7.107  1.00  0.00    -0.362 OA
BRANCH  45  46
HETATM   46  C2  UNL     1       7.011  56.487  -6.131  1.00  0.00     0.166 C 
HETATM   47  C1  UNL     1       8.429  55.963  -5.985  1.00  0.00     0.033 C 
ENDBRANCH  45  46
ENDBRANCH   1  45
TORSDOF 9
ENDMDL
MODEL 3
REMARK minimizedAffinity -7.00632477
REMARK CNNscore 0.699619651
REMARK CNNaffinity 7.21239233
REMARK  9 active torsions:
REMARK  status: ('A' for Active; 'I' for Inactive)
REMARK    1  A    between atoms: C2_2  and  O1_3 
REMARK    2  A    between atoms: O1_3  and  C3_4 
REMARK    3  A    between atoms: C14_15  and  O2_16 
REMARK    4  A    between atoms: O2_16  and  C15_17 
REMARK    5  A    between atoms: C21_24  and  O4_25 
REMARK    6  A    between atoms: O4_25  and  C22_26 
REMARK    7  A    between atoms: C24_29  and  O6_30 
REMARK    8  A    between atoms: C25_31  and  O7_32 
REMARK    9  A    between atoms: C26_33  and  O8_34 
ROOT
HETATM    1  C3  UNL     1       6.313  56.257  -5.887  1.00  0.00     0.260 C 
HETATM    2  C4  UNL     1       5.340  57.434  -6.069  1.00  0.00     0.065 C 
HETATM    3  C5  UNL     1       4.003  56.957  -6.646  1.00  0.00    -0.007 C 
HETATM    4  C6  UNL     1       2.999  58.107  -6.709  1.00  0.00     0.010 C 
HETATM    5  C7  UNL     1       4.289  56.352  -8.038  1.00  0.00     0.027 C 
HETATM    6  C8  UNL     1       5.641  55.571  -8.062  1.00  0.00     0.130 C 
HETATM    7  C9  UNL     1       5.413  54.324  -8.954  1.00  0.00     0.042 C 
HETATM    8  C10 UNL     1       4.149  54.661  -9.767  1.00  0.00    -0.029 C 
HETATM    9  C11 UNL     1       4.612  55.647 -10.900  1.00  0.00     0.016 C 
HETATM   10  C12 UNL     1       3.389  53.504 -10.500  1.00  0.00     0.006 C 
HETATM   11  C13 UNL     1       3.776  52.072 -10.109  1.00  0.00     0.039 C 
HETATM   12  C14 UNL     1       3.045  50.990 -10.955  1.00  0.00     0.138 C 
HETATM   13  C17 UNL     1       1.968  51.541 -11.948  1.00  0.00     0.035 C 
HETATM   14  C18 UNL     1       1.089  50.461 -12.718  1.00  0.00    -0.015 C 
HETATM   15  C19 UNL     1       1.659  49.025 -12.657  1.00  0.00     0.018 C 
HETATM   16  C20 UNL     1       1.059  50.808 -14.234  1.00  0.00     0.018 C 
HETATM   17  C21 UNL     1      -0.377  50.429 -12.175  1.00  0.00     0.133 C 
HETATM   18  C27 UNL     1      -1.070  51.803 -12.221  1.00  0.00     0.034 C 
HETATM   19  C28 UNL     1      -0.127  53.002 -12.100  1.00  0.00     0.013 C 
HETATM   20  C29 UNL     1       1.092  52.645 -11.297  1.00  0.00    -0.025 A 
HETATM   21  C30 UNL     1       0.923  52.712  -9.803  1.00  0.00     0.021 A 
HETATM   22  C31 UNL     1       1.858  53.703 -10.479  1.00  0.00    -0.027 A 
HETATM   23  C32 UNL     1       1.412  55.157 -10.460  1.00  0.00     0.011 C 
HETATM   24  C33 UNL     1       2.030  55.985  -9.315  1.00  0.00     0.011 C 
HETATM   25  C34 UNL     1       3.270  55.347  -8.663  1.00  0.00    -0.030 C 
HETATM   26  C35 UNL     1       2.798  54.376  -7.544  1.00  0.00     0.016 C 
HETATM   27  O9  UNL     1       6.025  55.160  -6.758  1.00  0.00    -0.356 OA
ENDROOT
BRANCH  17  28
HETATM   28  O4  UNL     1      -0.348  49.890 -10.842  1.00  0.00    -0.353 OA
BRANCH  28  29
HETATM   29  C22 UNL     1      -1.567  49.261 -10.409  1.00  0.00     0.291 C 
HETATM   30  O5  UNL     1      -2.534  50.187  -9.920  1.00  0.00    -0.356 OA
HETATM   31  C23 UNL     1      -2.137  50.812  -8.695  1.00  0.00     0.205 C 
HETATM   32  C24 UNL     1      -1.910  49.797  -7.567  1.00  0.00     0.173 C 
HETATM   33  C25 UNL     1      -0.862  48.771  -7.992  1.00  0.00     0.182 C 
HETATM   34  C26 UNL     1      -1.234  48.170  -9.356  1.00  0.00     0.204 C 
BRANCH  32  35
HETATM   35  O6  UNL     1      -3.133  49.125  -7.251  1.00  0.00    -0.391 OA
HETATM   36  H39 UNL     1      -3.808  49.805  -7.088  1.00  0.00     0.210 HD
ENDBRANCH  32  35
BRANCH  33  37
HETATM   37  O7  UNL     1       0.430  49.388  -8.027  1.00  0.00    -0.390 OA
HETATM   38  H41 UNL     1       1.026  48.729  -8.434  1.00  0.00     0.210 HD
ENDBRANCH  33  37
BRANCH  34  39
HETATM   39  O8  UNL     1      -0.169  47.313  -9.797  1.00  0.00    -0.388 OA
HETATM   40  H43 UNL     1       0.280  47.799 -10.517  1.00  0.00     0.210 HD
ENDBRANCH  34  39
ENDBRANCH  28  29
ENDBRANCH  17  28
BRANCH  12  41
HETATM   41  O2  UNL     1       4.068  50.310 -11.730  1.00  0.00    -0.316 OA
BRANCH  41  42
HETATM   42  C15 UNL     1       5.022  49.647 -11.016  1.00  0.00     0.255 C 
HETATM   43  C16 UNL     1       4.374  48.744 -10.008  1.00  0.00     0.126 C 
HETATM   44  O3  UNL     1       6.232  49.756 -11.162  1.00  0.00    -0.266 OA
ENDBRANCH  41  42
ENDBRANCH  12  41
BRANCH   1  45
HETATM   45  O1  UNL     1       7.642  56.742  -6.072  1.00  0.00    -0.362 OA
BRANCH  45  46
HETATM   46  C2  UNL     1       8.098  57.553  -4.991  1.00  0.00     0.166 C 
HETATM   47  C1  UNL     1       9.611  57.686  -5.020  1.00  0.00     0.033 C 
ENDBRANCH  45  46
ENDBRANCH   1  45
TORSDOF 9
ENDMDL
MODEL 4
REMARK minimizedAffinity -8.73236465
REMARK CNNscore 0.45681262
REMARK CNNaffinity 7.15497065
REMARK  9 active torsions:
REMARK  status: ('A' for Active; 'I' for Inactive)
REMARK    1  A    between atoms: C2_2  and  O1_3 
REMARK    2  A    between atoms: O1_3  and  C3_4 
REMARK    3  A    between atoms: C14_15  and  O2_16 
REMARK    4  A    between atoms: O2_16  and  C15_17 
REMARK    5  A    between atoms: C21_24  and  O4_25 
REMARK    6  A    between atoms: O4_25  and  C22_26 
REMARK    7  A    between atoms: C24_29  and  O6_30 
REMARK    8  A    between atoms: C25_31  and  O7_32 
REMARK    9  A    between atoms: C26_33  and  O8_34 
ROOT
HETATM    1  C3  UNL     1      -5.067  49.751 -23.949  1.00  0.00     0.260 C 
HETATM    2  C4  UNL     1      -5.445  48.304 -23.591  1.00  0.00     0.065 C 
HETATM    3  C5  UNL     1      -5.247  48.040 -22.094  1.00  0.00    -0.007 C 
HETATM    4  C6  UNL     1      -5.741  46.642 -21.722  1.00  0.00     0.010 C 
HETATM    5  C7  UNL     1      -3.748  48.234 -21.784  1.00  0.00     0.027 C 
HETATM    6  C8  UNL     1      -3.135  49.412 -22.605  1.00  0.00     0.130 C 
HETATM    7  C9  UNL     1      -2.137  50.133 -21.665  1.00  0.00     0.042 C 
HETATM    8  C10 UNL     1      -1.858  49.112 -20.546  1.00  0.00    -0.029 C 
HETATM    9  C11 UNL     1      -0.855  48.066 -21.154  1.00  0.00     0.016 C 
HETATM   10  C12 UNL     1      -1.197  49.607 -19.216  1.00  0.00     0.006 C 
HETATM   11  C13 UNL     1      -1.152  51.124 -18.994  1.00  0.00     0.039 C 
HETATM   12  C14 UNL     1      -0.391  51.528 -17.698  1.00  0.00     0.138 C 
HETATM   13  C17 UNL     1       0.072  50.333 -16.801  1.00  0.00     0.035 C 
HETATM   14  C18 UNL     1       0.715  50.704 -15.393  1.00  0.00    -0.015 C 
HETATM   15  C19 UNL     1       1.125  52.189 -15.260  1.00  0.00     0.018 C 
HETATM   16  C20 UNL     1       2.040  49.912 -15.207  1.00  0.00     0.018 C 
HETATM   17  C21 UNL     1      -0.254  50.358 -14.216  1.00  0.00     0.133 C 
HETATM   18  C27 UNL     1      -0.707  48.886 -14.218  1.00  0.00     0.034 C 
HETATM   19  C28 UNL     1      -0.751  48.229 -15.599  1.00  0.00     0.013 C 
HETATM   20  C29 UNL     1      -1.031  49.249 -16.668  1.00  0.00    -0.025 A 
HETATM   21  C30 UNL     1      -2.481  49.599 -16.861  1.00  0.00     0.021 A 
HETATM   22  C31 UNL     1      -1.749  48.869 -17.977  1.00  0.00    -0.027 A 
HETATM   23  C32 UNL     1      -2.198  47.441 -18.242  1.00  0.00     0.011 C 
HETATM   24  C33 UNL     1      -3.222  47.310 -19.388  1.00  0.00     0.011 C 
HETATM   25  C34 UNL     1      -3.299  48.534 -20.318  1.00  0.00    -0.030 C 
HETATM   26  C35 UNL     1      -4.296  49.560 -19.706  1.00  0.00     0.016 C 
HETATM   27  O9  UNL     1      -4.137  50.326 -23.028  1.00  0.00    -0.356 OA
ENDROOT
BRANCH  17  28
HETATM   28  O4  UNL     1      -1.373  51.261 -14.278  1.00  0.00    -0.353 OA
BRANCH  28  29
HETATM   29  C22 UNL     1      -1.462  52.200 -13.193  1.00  0.00     0.291 C 
HETATM   30  O5  UNL     1      -0.723  51.800 -12.042  1.00  0.00    -0.356 OA
HETATM   31  C23 UNL     1      -1.270  50.643 -11.402  1.00  0.00     0.205 C 
HETATM   32  C24 UNL     1      -2.712  50.862 -10.929  1.00  0.00     0.173 C 
HETATM   33  C25 UNL     1      -3.592  51.272 -12.108  1.00  0.00     0.182 C 
HETATM   34  C26 UNL     1      -2.956  52.453 -12.856  1.00  0.00     0.204 C 
BRANCH  32  35
HETATM   35  O6  UNL     1      -2.755  51.883  -9.927  1.00  0.00    -0.391 OA
HETATM   36  H39 UNL     1      -2.108  51.647  -9.240  1.00  0.00     0.210 HD
ENDBRANCH  32  35
BRANCH  33  37
HETATM   37  O7  UNL     1      -3.790  50.148 -12.974  1.00  0.00    -0.390 OA
HETATM   38  H41 UNL     1      -4.236  50.503 -13.768  1.00  0.00     0.210 HD
ENDBRANCH  33  37
BRANCH  34  39
HETATM   39  O8  UNL     1      -3.727  52.730 -14.036  1.00  0.00    -0.388 OA
HETATM   40  H43 UNL     1      -3.189  52.408 -14.785  1.00  0.00     0.210 HD
ENDBRANCH  34  39
ENDBRANCH  28  29
ENDBRANCH  17  28
BRANCH  12  41
HETATM   41  O2  UNL     1       0.791  52.258 -18.124  1.00  0.00    -0.316 OA
BRANCH  41  42
HETATM   42  C15 UNL     1       0.614  53.150 -19.139  1.00  0.00     0.255 C 
HETATM   43  C16 UNL     1       1.470  52.771 -20.311  1.00  0.00     0.126 C 
HETATM   44  O3  UNL     1      -0.130  54.122 -19.119  1.00  0.00    -0.266 OA
ENDBRANCH  41  42
ENDBRANCH  12  41
BRANCH   1  45
HETATM   45  O1  UNL     1      -4.562  49.765 -25.284  1.00  0.00    -0.362 OA
BRANCH  45  46
HETATM   46  C2  UNL     1      -4.454  48.462 -25.856  1.00  0.00     0.166 C 
HETATM   47  C1  UNL     1      -3.447  48.456 -26.992  1.00  0.00     0.033 C 
ENDBRANCH  45  46
ENDBRANCH   1  45
TORSDOF 9
ENDMDL
MODEL 5
REMARK minimizedAffinity -7.16270304
REMARK CNNscore 0.371177286
REMARK CNNaffinity 6.39385462
REMARK  9 active torsions:
REMARK  status: ('A' for Active; 'I' for Inactive)
REMARK    1  A    between atoms: C2_2  and  O1_3 
REMARK    2  A    between atoms: O1_3  and  C3_4 
REMARK    3  A    between atoms: C14_15  and  O2_16 
REMARK    4  A    between atoms: O2_16  and  C15_17 
REMARK    5  A    between atoms: C21_24  and  O4_25 
REMARK    6  A    between atoms: O4_25  and  C22_26 
REMARK    7  A    between atoms: C24_29  and  O6_30 
REMARK    8  A    between atoms: C25_31  and  O7_32 
REMARK    9  A    between atoms: C26_33  and  O8_34 
ROOT
HETATM    1  C3  UNL     1      -1.686  51.139 -18.711  1.00  0.00     0.260 C 
HETATM    2  C4  UNL     1      -0.732  50.024 -19.171  1.00  0.00     0.065 C 
HETATM    3  C5  UNL     1      -1.384  49.155 -20.253  1.00  0.00    -0.007 C 
HETATM    4  C6  UNL     1      -0.391  48.129 -20.794  1.00  0.00     0.010 C 
HETATM    5  C7  UNL     1      -2.629  48.492 -19.625  1.00  0.00     0.027 C 
HETATM    6  C8  UNL     1      -3.366  49.457 -18.643  1.00  0.00     0.130 C 
HETATM    7  C9  UNL     1      -4.883  49.211 -18.838  1.00  0.00     0.042 C 
HETATM    8  C10 UNL     1      -4.962  47.842 -19.540  1.00  0.00    -0.029 C 
HETATM    9  C11 UNL     1      -4.719  46.766 -18.421  1.00  0.00     0.016 C 
HETATM   10  C12 UNL     1      -6.299  47.426 -20.240  1.00  0.00     0.006 C 
HETATM   11  C13 UNL     1      -7.341  48.533 -20.446  1.00  0.00     0.039 C 
HETATM   12  C14 UNL     1      -8.673  48.011 -21.057  1.00  0.00     0.138 C 
HETATM   13  C17 UNL     1      -8.668  46.500 -21.465  1.00  0.00     0.035 C 
HETATM   14  C18 UNL     1      -9.955  45.965 -22.234  1.00  0.00    -0.015 C 
HETATM   15  C19 UNL     1     -11.176  46.909 -22.153  1.00  0.00     0.018 C 
HETATM   16  C20 UNL     1     -10.435  44.642 -21.575  1.00  0.00     0.018 C 
HETATM   17  C21 UNL     1      -9.644  45.698 -23.744  1.00  0.00     0.133 C 
HETATM   18  C27 UNL     1      -8.462  44.734 -23.957  1.00  0.00     0.034 C 
HETATM   19  C28 UNL     1      -7.411  44.751 -22.846  1.00  0.00     0.013 C 
HETATM   20  C29 UNL     1      -7.353  46.100 -22.185  1.00  0.00    -0.025 A 
HETATM   21  C30 UNL     1      -6.520  47.131 -22.897  1.00  0.00     0.021 A 
HETATM   22  C31 UNL     1      -6.057  46.627 -21.539  1.00  0.00    -0.027 A 
HETATM   23  C32 UNL     1      -4.783  45.796 -21.539  1.00  0.00     0.011 C 
HETATM   24  C33 UNL     1      -3.509  46.603 -21.215  1.00  0.00     0.011 C 
HETATM   25  C34 UNL     1      -3.771  47.969 -20.553  1.00  0.00    -0.030 C 
HETATM   26  C35 UNL     1      -4.009  49.023 -21.672  1.00  0.00     0.016 C 
HETATM   27  O9  UNL     1      -3.062  50.816 -18.926  1.00  0.00    -0.356 OA
ENDROOT
BRANCH  17  28
HETATM   28  O4  UNL     1      -9.422  46.965 -24.386  1.00  0.00    -0.353 OA
BRANCH  28  29
HETATM   29  C22 UNL     1     -10.375  47.310 -25.406  1.00  0.00     0.291 C 
HETATM   30  O5  UNL     1     -10.665  46.232 -26.291  1.00  0.00    -0.356 OA
HETATM   31  C23 UNL     1      -9.552  45.871 -27.115  1.00  0.00     0.205 C 
HETATM   32  C24 UNL     1      -9.077  47.031 -27.998  1.00  0.00     0.173 C 
HETATM   33  C25 UNL     1      -8.715  48.234 -27.129  1.00  0.00     0.182 C 
HETATM   34  C26 UNL     1      -9.872  48.562 -26.174  1.00  0.00     0.204 C 
BRANCH  32  35
HETATM   35  O6  UNL     1     -10.104  47.404 -28.922  1.00  0.00    -0.391 OA
HETATM   36  H39 UNL     1     -10.388  46.598 -29.387  1.00  0.00     0.210 HD
ENDBRANCH  32  35
BRANCH  33  37
HETATM   37  O7  UNL     1      -7.504  47.964 -26.413  1.00  0.00    -0.390 OA
HETATM   38  H41 UNL     1      -7.403  48.701 -25.779  1.00  0.00     0.210 HD
ENDBRANCH  33  37
BRANCH  34  39
HETATM   39  O8  UNL     1      -9.457  49.605 -25.276  1.00  0.00    -0.388 OA
HETATM   40  H43 UNL     1      -9.318  49.170 -24.412  1.00  0.00     0.210 HD
ENDBRANCH  34  39
ENDBRANCH  28  29
ENDBRANCH  17  28
BRANCH  12  41
HETATM   41  O2  UNL     1      -9.695  48.202 -20.043  1.00  0.00    -0.316 OA
BRANCH  41  42
HETATM   42  C15 UNL     1      -9.417  47.700 -18.806  1.00  0.00     0.255 C 
HETATM   43  C16 UNL     1      -9.161  48.820 -17.842  1.00  0.00     0.126 C 
HETATM   44  O3  UNL     1      -9.380  46.514 -18.506  1.00  0.00    -0.266 OA
ENDBRANCH  41  42
ENDBRANCH  12  41
BRANCH   1  45
HETATM   45  O1  UNL     1      -1.420  51.417 -17.336  1.00  0.00    -0.362 OA
BRANCH  45  46
HETATM   46  C2  UNL     1      -0.261  50.747 -16.844  1.00  0.00     0.166 C 
HETATM   47  C1  UNL     1       0.776  51.748 -16.365  1.00  0.00     0.033 C 
ENDBRANCH  45  46
ENDBRANCH   1  45
TORSDOF 9
ENDMDL
MODEL 6
REMARK minimizedAffinity -7.18787289
REMARK CNNscore 0.369330019
REMARK CNNaffinity 6.14871645
REMARK  9 active torsions:
REMARK  status: ('A' for Active; 'I' for Inactive)
REMARK    1  A    between atoms: C2_2  and  O1_3 
REMARK    2  A    between atoms: O1_3  and  C3_4 
REMARK    3  A    between atoms: C14_15  and  O2_16 
REMARK    4  A    between atoms: O2_16  and  C15_17 
REMARK    5  A    between atoms: C21_24  and  O4_25 
REMARK    6  A    between atoms: O4_25  and  C22_26 
REMARK    7  A    between atoms: C24_29  and  O6_30 
REMARK    8  A    between atoms: C25_31  and  O7_32 
REMARK    9  A    between atoms: C26_33  and  O8_34 
ROOT
HETATM    1  C3  UNL     1      -5.820  47.379 -30.340  1.00  0.00     0.260 C 
HETATM    2  C4  UNL     1      -6.592  48.534 -31.001  1.00  0.00     0.065 C 
HETATM    3  C5  UNL     1      -7.977  48.702 -30.366  1.00  0.00    -0.007 C 
HETATM    4  C6  UNL     1      -8.689  49.926 -30.940  1.00  0.00     0.010 C 
HETATM    5  C7  UNL     1      -8.762  47.397 -30.616  1.00  0.00     0.027 C 
HETATM    6  C8  UNL     1      -7.842  46.140 -30.510  1.00  0.00     0.130 C 
HETATM    7  C9  UNL     1      -8.681  45.035 -29.821  1.00  0.00     0.042 C 
HETATM    8  C10 UNL     1     -10.139  45.507 -29.977  1.00  0.00    -0.029 C 
HETATM    9  C11 UNL     1     -10.544  45.181 -31.460  1.00  0.00     0.016 C 
HETATM   10  C12 UNL     1     -11.247  44.854 -29.084  1.00  0.00     0.006 C 
HETATM   11  C13 UNL     1     -10.765  44.007 -27.900  1.00  0.00     0.039 C 
HETATM   12  C14 UNL     1     -11.928  43.318 -27.129  1.00  0.00     0.138 C 
HETATM   13  C17 UNL     1     -13.364  43.707 -27.612  1.00  0.00     0.035 C 
HETATM   14  C18 UNL     1     -14.582  43.146 -26.753  1.00  0.00    -0.015 C 
HETATM   15  C19 UNL     1     -14.196  42.005 -25.783  1.00  0.00     0.018 C 
HETATM   16  C20 UNL     1     -15.635  42.514 -27.704  1.00  0.00     0.018 C 
HETATM   17  C21 UNL     1     -15.263  44.283 -25.922  1.00  0.00     0.133 C 
HETATM   18  C27 UNL     1     -15.729  45.468 -26.788  1.00  0.00     0.034 C 
HETATM   19  C28 UNL     1     -14.911  45.696 -28.060  1.00  0.00     0.013 C 
HETATM   20  C29 UNL     1     -13.493  45.231 -27.875  1.00  0.00    -0.025 A 
HETATM   21  C30 UNL     1     -12.578  46.210 -27.191  1.00  0.00     0.021 A 
HETATM   22  C31 UNL     1     -12.327  45.870 -28.652  1.00  0.00    -0.027 A 
HETATM   23  C32 UNL     1     -12.566  46.996 -29.646  1.00  0.00     0.011 C 
HETATM   24  C33 UNL     1     -11.290  47.771 -30.034  1.00  0.00     0.011 C 
HETATM   25  C34 UNL     1      -9.976  47.043 -29.698  1.00  0.00    -0.030 C 
HETATM   26  C35 UNL     1      -9.586  47.376 -28.229  1.00  0.00     0.016 C 
HETATM   27  O9  UNL     1      -6.681  46.410 -29.737  1.00  0.00    -0.356 OA
ENDROOT
BRANCH  17  28
HETATM   28  O4  UNL     1     -14.344  44.700 -24.897  1.00  0.00    -0.353 OA
BRANCH  28  29
HETATM   29  C22 UNL     1     -14.861  44.652 -23.556  1.00  0.00     0.291 C 
HETATM   30  O5  UNL     1     -16.033  45.443 -23.377  1.00  0.00    -0.356 OA
HETATM   31  C23 UNL     1     -15.781  46.847 -23.487  1.00  0.00     0.205 C 
HETATM   32  C24 UNL     1     -14.769  47.343 -22.447  1.00  0.00     0.173 C 
HETATM   33  C25 UNL     1     -13.461  46.567 -22.580  1.00  0.00     0.182 C 
HETATM   34  C26 UNL     1     -13.741  45.056 -22.561  1.00  0.00     0.204 C 
BRANCH  32  35
HETATM   35  O6  UNL     1     -15.292  47.173 -21.126  1.00  0.00    -0.391 OA
HETATM   36  H39 UNL     1     -16.171  47.588 -21.103  1.00  0.00     0.210 HD
ENDBRANCH  32  35
BRANCH  33  37
HETATM   37  O7  UNL     1     -12.786  46.960 -23.780  1.00  0.00    -0.390 OA
HETATM   38  H41 UNL     1     -12.039  46.338 -23.879  1.00  0.00     0.210 HD
ENDBRANCH  33  37
BRANCH  34  39
HETATM   39  O8  UNL     1     -12.517  44.350 -22.824  1.00  0.00    -0.388 OA
HETATM   40  H43 UNL     1     -12.599  44.009 -23.736  1.00  0.00     0.210 HD
ENDBRANCH  34  39
ENDBRANCH  28  29
ENDBRANCH  17  28
BRANCH  12  41
HETATM   41  O2  UNL     1     -11.758  41.888 -27.320  1.00  0.00    -0.316 OA
BRANCH  41  42
HETATM   42  C15 UNL     1     -11.713  41.454 -28.611  1.00  0.00     0.255 C 
HETATM   43  C16 UNL     1     -12.826  40.481 -28.866  1.00  0.00     0.126 C 
HETATM   44  O3  UNL     1     -10.896  41.797 -29.455  1.00  0.00    -0.266 OA
ENDBRANCH  41  42
ENDBRANCH  12  41
BRANCH   1  45
HETATM   45  O1  UNL     1      -4.968  46.790 -31.321  1.00  0.00    -0.362 OA
BRANCH  45  46
HETATM   46  C2  UNL     1      -5.093  47.395 -32.607  1.00  0.00     0.166 C 
HETATM   47  C1  UNL     1      -3.805  47.246 -33.397  1.00  0.00     0.033 C 
ENDBRANCH  45  46
ENDBRANCH   1  45
TORSDOF 9
ENDMDL
MODEL 7
REMARK minimizedAffinity -7.1208086
REMARK CNNscore 0.327402085
REMARK CNNaffinity 6.50504541
REMARK  9 active torsions:
REMARK  status: ('A' for Active; 'I' for Inactive)
REMARK    1  A    between atoms: C2_2  and  O1_3 
REMARK    2  A    between atoms: O1_3  and  C3_4 
REMARK    3  A    between atoms: C14_15  and  O2_16 
REMARK    4  A    between atoms: O2_16  and  C15_17 
REMARK    5  A    between atoms: C21_24  and  O4_25 
REMARK    6  A    between atoms: O4_25  and  C22_26 
REMARK    7  A    between atoms: C24_29  and  O6_30 
REMARK    8  A    between atoms: C25_31  and  O7_32 
REMARK    9  A    between atoms: C26_33  and  O8_34 
ROOT
HETATM    1  C3  UNL     1      -0.052  52.678 -19.114  1.00  0.00     0.260 C 
HETATM    2  C4  UNL     1      -0.001  52.810 -20.645  1.00  0.00     0.065 C 
HETATM    3  C5  UNL     1      -1.210  52.129 -21.296  1.00  0.00    -0.007 C 
HETATM    4  C6  UNL     1      -1.219  52.369 -22.804  1.00  0.00     0.010 C 
HETATM    5  C7  UNL     1      -1.142  50.628 -20.941  1.00  0.00     0.027 C 
HETATM    6  C8  UNL     1      -0.621  50.400 -19.487  1.00  0.00     0.130 C 
HETATM    7  C9  UNL     1      -1.434  49.214 -18.909  1.00  0.00     0.042 C 
HETATM    8  C10 UNL     1      -2.029  48.517 -20.147  1.00  0.00    -0.029 C 
HETATM    9  C11 UNL     1      -0.859  47.680 -20.778  1.00  0.00     0.016 C 
HETATM   10  C12 UNL     1      -3.212  47.509 -19.954  1.00  0.00     0.006 C 
HETATM   11  C13 UNL     1      -3.902  47.514 -18.584  1.00  0.00     0.039 C 
HETATM   12  C14 UNL     1      -4.996  46.415 -18.448  1.00  0.00     0.138 C 
HETATM   13  C17 UNL     1      -5.282  45.601 -19.754  1.00  0.00     0.035 C 
HETATM   14  C18 UNL     1      -6.499  44.576 -19.702  1.00  0.00    -0.015 C 
HETATM   15  C19 UNL     1      -6.998  44.261 -18.273  1.00  0.00     0.018 C 
HETATM   16  C20 UNL     1      -6.041  43.204 -20.270  1.00  0.00     0.018 C 
HETATM   17  C21 UNL     1      -7.714  45.093 -20.540  1.00  0.00     0.133 C 
HETATM   18  C27 UNL     1      -7.350  45.408 -22.003  1.00  0.00     0.034 C 
HETATM   19  C28 UNL     1      -5.898  45.837 -22.226  1.00  0.00     0.013 C 
HETATM   20  C29 UNL     1      -5.348  46.518 -21.004  1.00  0.00    -0.025 A 
HETATM   21  C30 UNL     1      -5.688  47.977 -20.872  1.00  0.00     0.021 A 
HETATM   22  C31 UNL     1      -4.239  47.582 -21.105  1.00  0.00    -0.027 A 
HETATM   23  C32 UNL     1      -3.650  47.980 -22.450  1.00  0.00     0.011 C 
HETATM   24  C33 UNL     1      -2.854  49.301 -22.418  1.00  0.00     0.011 C 
HETATM   25  C34 UNL     1      -2.441  49.763 -21.008  1.00  0.00    -0.030 C 
HETATM   26  C35 UNL     1      -3.607  50.591 -20.396  1.00  0.00     0.016 C 
HETATM   27  O9  UNL     1      -0.818  51.552 -18.679  1.00  0.00    -0.356 OA
ENDROOT
BRANCH  17  28
HETATM   28  O4  UNL     1      -8.265  46.240 -19.869  1.00  0.00    -0.353 OA
BRANCH  28  29
HETATM   29  C22 UNL     1      -9.341  46.896 -20.561  1.00  0.00     0.291 C 
HETATM   30  O5  UNL     1      -9.483  48.269 -20.206  1.00  0.00    -0.356 OA
HETATM   31  C23 UNL     1      -9.919  48.453 -18.855  1.00  0.00     0.205 C 
HETATM   32  C24 UNL     1     -11.279  47.800 -18.584  1.00  0.00     0.173 C 
HETATM   33  C25 UNL     1     -11.217  46.310 -18.914  1.00  0.00     0.182 C 
HETATM   34  C26 UNL     1     -10.656  46.106 -20.329  1.00  0.00     0.204 C 
BRANCH  32  35
HETATM   35  O6  UNL     1     -12.294  48.421 -19.379  1.00  0.00    -0.391 OA
HETATM   36  H39 UNL     1     -12.240  49.380 -19.227  1.00  0.00     0.210 HD
ENDBRANCH  32  35
BRANCH  33  37
HETATM   37  O7  UNL     1     -10.424  45.632 -17.932  1.00  0.00    -0.390 OA
HETATM   38  H41 UNL     1     -10.307  44.723 -18.270  1.00  0.00     0.210 HD
ENDBRANCH  33  37
BRANCH  34  39
HETATM   39  O8  UNL     1     -10.479  44.699 -20.564  1.00  0.00    -0.388 OA
HETATM   40  H43 UNL     1      -9.515  44.545 -20.528  1.00  0.00     0.210 HD
ENDBRANCH  34  39
ENDBRANCH  28  29
ENDBRANCH  17  28
BRANCH  12  41
HETATM   41  O2  UNL     1      -4.528  45.490 -17.432  1.00  0.00    -0.316 OA
BRANCH  41  42
HETATM   42  C15 UNL     1      -4.303  46.017 -16.195  1.00  0.00     0.255 C 
HETATM   43  C16 UNL     1      -5.590  46.097 -15.428  1.00  0.00     0.126 C 
HETATM   44  O3  UNL     1      -3.219  46.376 -15.755  1.00  0.00    -0.266 OA
ENDBRANCH  41  42
ENDBRANCH  12  41
BRANCH   1  45
HETATM   45  O1  UNL     1       1.287  52.624 -18.624  1.00  0.00    -0.362 OA
BRANCH  45  46
HETATM   46  C2  UNL     1       1.360  52.434 -17.212  1.00  0.00     0.166 C 
HETATM   47  C1  UNL     1       2.761  52.722 -16.703  1.00  0.00     0.033 C 
ENDBRANCH  45  46
ENDBRANCH   1  45
TORSDOF 9
ENDMDL
MODEL 8
REMARK minimizedAffinity -7.74236536
REMARK CNNscore 0.317191422
REMARK CNNaffinity 6.82107115
REMARK  9 active torsions:
REMARK  status: ('A' for Active; 'I' for Inactive)
REMARK    1  A    between atoms: C2_2  and  O1_3 
REMARK    2  A    between atoms: O1_3  and  C3_4 
REMARK    3  A    between atoms: C14_15  and  O2_16 
REMARK    4  A    between atoms: O2_16  and  C15_17 
REMARK    5  A    between atoms: C21_24  and  O4_25 
REMARK    6  A    between atoms: O4_25  and  C22_26 
REMARK    7  A    between atoms: C24_29  and  O6_30 
REMARK    8  A    between atoms: C25_31  and  O7_32 
REMARK    9  A    between atoms: C26_33  and  O8_34 
ROOT
HETATM    1  C3  UNL     1      -2.721  52.503 -24.173  1.00  0.00     0.260 C 
HETATM    2  C4  UNL     1      -2.547  51.305 -25.121  1.00  0.00     0.065 C 
HETATM    3  C5  UNL     1      -3.099  50.021 -24.491  1.00  0.00    -0.007 C 
HETATM    4  C6  UNL     1      -3.037  48.861 -25.483  1.00  0.00     0.010 C 
HETATM    5  C7  UNL     1      -2.280  49.744 -23.212  1.00  0.00     0.027 C 
HETATM    6  C8  UNL     1      -1.917  51.063 -22.460  1.00  0.00     0.130 C 
HETATM    7  C9  UNL     1      -2.029  50.754 -20.946  1.00  0.00     0.042 C 
HETATM    8  C10 UNL     1      -1.985  49.216 -20.865  1.00  0.00    -0.029 C 
HETATM    9  C11 UNL     1      -0.477  48.815 -21.048  1.00  0.00     0.016 C 
HETATM   10  C12 UNL     1      -2.451  48.513 -19.546  1.00  0.00     0.006 C 
HETATM   11  C13 UNL     1      -3.208  49.383 -18.534  1.00  0.00     0.039 C 
HETATM   12  C14 UNL     1      -3.543  48.630 -17.214  1.00  0.00     0.138 C 
HETATM   13  C17 UNL     1      -3.170  47.111 -17.204  1.00  0.00     0.035 C 
HETATM   14  C18 UNL     1      -3.636  46.269 -15.936  1.00  0.00    -0.015 C 
HETATM   15  C19 UNL     1      -4.070  47.136 -14.730  1.00  0.00     0.018 C 
HETATM   16  C20 UNL     1      -2.439  45.430 -15.406  1.00  0.00     0.018 C 
HETATM   17  C21 UNL     1      -4.814  45.306 -16.293  1.00  0.00     0.133 C 
HETATM   18  C27 UNL     1      -4.487  44.359 -17.464  1.00  0.00     0.034 C 
HETATM   19  C28 UNL     1      -3.482  44.912 -18.475  1.00  0.00     0.013 C 
HETATM   20  C29 UNL     1      -3.553  46.412 -18.536  1.00  0.00    -0.025 A 
HETATM   21  C30 UNL     1      -4.641  46.970 -19.413  1.00  0.00     0.021 A 
HETATM   22  C31 UNL     1      -3.191  47.185 -19.818  1.00  0.00    -0.027 A 
HETATM   23  C32 UNL     1      -2.738  46.458 -21.075  1.00  0.00     0.011 C 
HETATM   24  C33 UNL     1      -2.793  47.322 -22.352  1.00  0.00     0.011 C 
HETATM   25  C34 UNL     1      -2.885  48.837 -22.094  1.00  0.00    -0.030 C 
HETATM   26  C35 UNL     1      -4.382  49.219 -21.916  1.00  0.00     0.016 C 
HETATM   27  O9  UNL     1      -2.809  52.116 -22.799  1.00  0.00    -0.356 OA
ENDROOT
BRANCH  17  28
HETATM   28  O4  UNL     1      -5.979  46.105 -16.563  1.00  0.00    -0.353 OA
BRANCH  28  29
HETATM   29  C22 UNL     1      -7.233  45.407 -16.476  1.00  0.00     0.291 C 
HETATM   30  O5  UNL     1      -7.653  44.849 -17.719  1.00  0.00    -0.356 OA
HETATM   31  C23 UNL     1      -7.999  45.844 -18.688  1.00  0.00     0.205 C 
HETATM   32  C24 UNL     1      -9.145  46.747 -18.217  1.00  0.00     0.173 C 
HETATM   33  C25 UNL     1      -8.774  47.414 -16.895  1.00  0.00     0.182 C 
HETATM   34  C26 UNL     1      -8.308  46.357 -15.883  1.00  0.00     0.204 C 
BRANCH  32  35
HETATM   35  O6  UNL     1     -10.341  45.980 -18.044  1.00  0.00    -0.391 OA
HETATM   36  H39 UNL     1     -10.494  45.486 -18.867  1.00  0.00     0.210 HD
ENDBRANCH  32  35
BRANCH  33  37
HETATM   37  O7  UNL     1      -7.764  48.404 -17.121  1.00  0.00    -0.390 OA
HETATM   38  H41 UNL     1      -7.473  48.692 -16.234  1.00  0.00     0.210 HD
ENDBRANCH  33  37
BRANCH  34  39
HETATM   39  O8  UNL     1      -7.836  47.019 -14.698  1.00  0.00    -0.388 OA
HETATM   40  H43 UNL     1      -6.863  46.934 -14.718  1.00  0.00     0.210 HD
ENDBRANCH  34  39
ENDBRANCH  28  29
ENDBRANCH  17  28
BRANCH  12  41
HETATM   41  O2  UNL     1      -2.790  49.288 -16.161  1.00  0.00    -0.316 OA
BRANCH  41  42
HETATM   42  C15 UNL     1      -2.949  50.638 -16.060  1.00  0.00     0.255 C 
HETATM   43  C16 UNL     1      -3.031  51.039 -14.617  1.00  0.00     0.126 C 
HETATM   44  O3  UNL     1      -3.014  51.424 -16.996  1.00  0.00    -0.266 OA
ENDBRANCH  41  42
ENDBRANCH  12  41
BRANCH   1  45
HETATM   45  O1  UNL     1      -1.643  53.411 -24.397  1.00  0.00    -0.362 OA
BRANCH  45  46
HETATM   46  C2  UNL     1      -0.578  52.841 -25.154  1.00  0.00     0.166 C 
HETATM   47  C1  UNL     1       0.204  53.921 -25.881  1.00  0.00     0.033 C 
ENDBRANCH  45  46
ENDBRANCH   1  45
TORSDOF 9
ENDMDL
MODEL 9
REMARK minimizedAffinity -5.80823278
REMARK CNNscore 0.276418477
REMARK CNNaffinity 5.73419428
REMARK  9 active torsions:
REMARK  status: ('A' for Active; 'I' for Inactive)
REMARK    1  A    between atoms: C2_2  and  O1_3 
REMARK    2  A    between atoms: O1_3  and  C3_4 
REMARK    3  A    between atoms: C14_15  and  O2_16 
REMARK    4  A    between atoms: O2_16  and  C15_17 
REMARK    5  A    between atoms: C21_24  and  O4_25 
REMARK    6  A    between atoms: O4_25  and  C22_26 
REMARK    7  A    between atoms: C24_29  and  O6_30 
REMARK    8  A    between atoms: C25_31  and  O7_32 
REMARK    9  A    between atoms: C26_33  and  O8_34 
ROOT
HETATM    1  C3  UNL     1     -16.138  41.384 -24.912  1.00  0.00     0.260 C 
HETATM    2  C4  UNL     1     -17.127  42.510 -25.257  1.00  0.00     0.065 C 
HETATM    3  C5  UNL     1     -16.603  43.364 -26.418  1.00  0.00    -0.007 C 
HETATM    4  C6  UNL     1     -17.642  44.402 -26.837  1.00  0.00     0.010 C 
HETATM    5  C7  UNL     1     -15.280  44.011 -25.955  1.00  0.00     0.027 C 
HETATM    6  C8  UNL     1     -14.440  43.040 -25.066  1.00  0.00     0.130 C 
HETATM    7  C9  UNL     1     -12.956  43.263 -25.450  1.00  0.00     0.042 C 
HETATM    8  C10 UNL     1     -12.945  44.627 -26.166  1.00  0.00    -0.029 C 
HETATM    9  C11 UNL     1     -13.032  45.712 -25.032  1.00  0.00     0.016 C 
HETATM   10  C12 UNL     1     -11.701  45.020 -27.031  1.00  0.00     0.006 C 
HETATM   11  C13 UNL     1     -10.709  43.896 -27.358  1.00  0.00     0.039 C 
HETATM   12  C14 UNL     1      -9.456  44.396 -28.134  1.00  0.00     0.138 C 
HETATM   13  C17 UNL     1      -9.491  45.904 -28.547  1.00  0.00     0.035 C 
HETATM   14  C18 UNL     1      -8.303  46.417 -29.476  1.00  0.00    -0.015 C 
HETATM   15  C19 UNL     1      -7.095  45.455 -29.541  1.00  0.00     0.018 C 
HETATM   16  C20 UNL     1      -7.725  47.736 -28.890  1.00  0.00     0.018 C 
HETATM   17  C21 UNL     1      -8.796  46.682 -30.936  1.00  0.00     0.133 C 
HETATM   18  C27 UNL     1      -9.982  47.662 -31.006  1.00  0.00     0.034 C 
HETATM   19  C28 UNL     1     -10.886  47.666 -29.772  1.00  0.00     0.013 C 
HETATM   20  C29 UNL     1     -10.880  46.321 -29.100  1.00  0.00    -0.025 A 
HETATM   21  C30 UNL     1     -11.809  45.299 -29.696  1.00  0.00     0.021 A 
HETATM   22  C31 UNL     1     -12.092  45.816 -28.295  1.00  0.00    -0.027 A 
HETATM   23  C32 UNL     1     -13.344  46.666 -28.141  1.00  0.00     0.011 C 
HETATM   24  C33 UNL     1     -14.579  45.880 -27.654  1.00  0.00     0.011 C 
HETATM   25  C34 UNL     1     -14.256  44.513 -27.022  1.00  0.00    -0.030 C 
HETATM   26  C35 UNL     1     -14.175  43.450 -28.154  1.00  0.00     0.016 C 
HETATM   27  O9  UNL     1     -14.796  41.685 -25.300  1.00  0.00    -0.356 OA
ENDROOT
BRANCH  17  28
HETATM   28  O4  UNL     1      -9.115  45.414 -31.537  1.00  0.00    -0.353 OA
BRANCH  28  29
HETATM   29  C22 UNL     1      -9.639  45.486 -32.874  1.00  0.00     0.291 C 
HETATM   30  O5  UNL     1     -10.935  44.908 -33.001  1.00  0.00    -0.356 OA
HETATM   31  C23 UNL     1     -10.932  43.488 -32.820  1.00  0.00     0.205 C 
HETATM   32  C24 UNL     1     -10.043  42.769 -33.842  1.00  0.00     0.173 C 
HETATM   33  C25 UNL     1      -8.616  43.308 -33.761  1.00  0.00     0.182 C 
HETATM   34  C26 UNL     1      -8.625  44.841 -33.856  1.00  0.00     0.204 C 
BRANCH  32  35
HETATM   35  O6  UNL     1     -10.551  42.964 -35.165  1.00  0.00    -0.391 OA
HETATM   36  H39 UNL     1     -11.489  42.710 -35.159  1.00  0.00     0.210 HD
ENDBRANCH  32  35
BRANCH  33  37
HETATM   37  O7  UNL     1      -8.000  42.861 -32.547  1.00  0.00    -0.390 OA
HETATM   38  H41 UNL     1      -7.153  43.346 -32.488  1.00  0.00     0.210 HD
ENDBRANCH  33  37
BRANCH  34  39
HETATM   39  O8  UNL     1      -7.291  45.331 -33.641  1.00  0.00    -0.388 OA
HETATM   40  H43 UNL     1      -7.296  45.727 -32.748  1.00  0.00     0.210 HD
ENDBRANCH  34  39
ENDBRANCH  28  29
ENDBRANCH  17  28
BRANCH  12  41
HETATM   41  O2  UNL     1      -8.318  44.194 -27.254  1.00  0.00    -0.316 OA
BRANCH  41  42
HETATM   42  C15 UNL     1      -8.512  44.498 -25.940  1.00  0.00     0.255 C 
HETATM   43  C16 UNL     1      -8.061  45.903 -25.665  1.00  0.00     0.126 C 
HETATM   44  O3  UNL     1      -8.986  43.752 -25.093  1.00  0.00    -0.266 OA
ENDBRANCH  41  42
ENDBRANCH  12  41
BRANCH   1  45
HETATM   45  O1  UNL     1     -16.235  41.115 -23.514  1.00  0.00    -0.362 OA
BRANCH  45  46
HETATM   46  C2  UNL     1     -15.695  39.847 -23.148  1.00  0.00     0.166 C 
HETATM   47  C1  UNL     1     -14.517  40.016 -22.205  1.00  0.00     0.033 C 
ENDBRANCH  45  46
ENDBRANCH   1  45
TORSDOF 9
ENDMDL
