MODEL 1
REMARK minimizedAffinity -7.58557224
REMARK CNNscore 0.680848539
REMARK CNNaffinity 6.8538518
REMARK  5 active torsions:
REMARK  status: ('A' for Active; 'I' for Inactive)
REMARK    1  A    between atoms: C4_4  and  C5_5 
REMARK    2  A    between atoms: C5_5  and  C6_6 
REMARK    3  A    between atoms: C6_6  and  C7_7 
REMARK    4  A    between atoms: C7_7  and  C9_9 
REMARK    5  A    between atoms: C26_29  and  O4_30 
ROOT
HETATM    1  C9  UNL     1       4.189  54.938  -8.525  1.00  0.00    -0.001 C 
HETATM    2  C10 UNL     1       3.289  55.909  -7.699  1.00  0.00     0.007 C 
HETATM    3  C11 UNL     1       1.832  55.698  -8.145  1.00  0.00     0.024 C 
HETATM    4  C12 UNL     1       1.894  54.512  -9.077  1.00  0.00     0.092 C 
HETATM    5  C13 UNL     1       1.769  53.170  -8.314  1.00  0.00     0.272 C 
HETATM    6  O1  UNL     1       2.064  52.940  -7.153  1.00  0.00    -0.264 OA
HETATM    7  O2  UNL     1       1.261  52.221  -9.180  1.00  0.00    -0.305 OA
HETATM    8  C14 UNL     1       1.022  52.841 -10.469  1.00  0.00     0.113 C 
HETATM    9  C15 UNL     1       2.360  52.722 -11.264  1.00  0.00     0.043 C 
HETATM   10  C16 UNL     1       3.591  53.262 -10.481  1.00  0.00     0.014 C 
HETATM   11  C17 UNL     1       3.295  54.607  -9.765  1.00  0.00    -0.020 C 
HETATM   12  C18 UNL     1       3.373  55.749 -10.811  1.00  0.00     0.017 C 
HETATM   13  C19 UNL     1       0.822  54.271 -10.065  1.00  0.00     0.137 A 
HETATM   14  O3  UNL     1       0.411  55.258 -10.992  1.00  0.00    -0.364 OA
HETATM   15  C20 UNL     1      -0.553  54.895  -9.982  1.00  0.00     0.162 A 
HETATM   16  C21 UNL     1      -1.749  54.135 -10.474  1.00  0.00     0.041 C 
HETATM   17  C22 UNL     1      -1.519  52.611 -10.351  1.00  0.00     0.009 C 
HETATM   18  C23 UNL     1      -2.799  51.683 -10.514  1.00  0.00    -0.017 C 
HETATM   19  C24 UNL     1      -3.001  50.927  -9.168  1.00  0.00     0.018 C 
HETATM   20  C25 UNL     1      -4.102  52.487 -10.745  1.00  0.00     0.018 C 
HETATM   21  C26 UNL     1      -2.674  50.599 -11.621  1.00  0.00     0.126 C 
HETATM   22  C27 UNL     1      -1.315  49.902 -11.726  1.00  0.00     0.033 C 
HETATM   23  C28 UNL     1      -0.142  50.645 -11.089  1.00  0.00     0.015 C 
HETATM   24  C29 UNL     1      -0.236  52.185 -11.161  1.00  0.00    -0.004 C 
HETATM   25  C30 UNL     1      -0.281  52.633 -12.645  1.00  0.00     0.019 C 
ENDROOT
BRANCH   1  26
HETATM   26  C7  UNL     1       5.622  55.508  -8.744  1.00  0.00    -0.014 C 
HETATM   27  C8  UNL     1       6.611  54.411  -9.156  1.00  0.00     0.010 C 
BRANCH  26  28
HETATM   28  C6  UNL     1       6.150  56.215  -7.460  1.00  0.00     0.008 C 
BRANCH  28  29
HETATM   29  C5  UNL     1       6.934  55.290  -6.514  1.00  0.00     0.028 C 
BRANCH  29  30
HETATM   30  C4  UNL     1       8.246  55.859  -6.055  1.00  0.00    -0.025 C 
HETATM   31  C2  UNL     1       8.463  56.976  -5.332  1.00  0.00    -0.091 C 
HETATM   32  C1  UNL     1       7.397  57.906  -4.824  1.00  0.00     0.042 C 
HETATM   33  C3  UNL     1       9.867  57.398  -4.983  1.00  0.00     0.042 C 
ENDBRANCH  29  30
ENDBRANCH  28  29
ENDBRANCH  26  28
ENDBRANCH   1  26
BRANCH  21  34
HETATM   34  O4  UNL     1      -3.019  51.146 -12.894  1.00  0.00    -0.395 OA
HETATM   35  H39 UNL     1      -3.066  50.410 -13.530  1.00  0.00     0.210 HD
ENDBRANCH  21  34
TORSDOF 5
ENDMDL
MODEL 2
REMARK minimizedAffinity -7.59577274
REMARK CNNscore 0.458980858
REMARK CNNaffinity 6.43113327
REMARK  5 active torsions:
REMARK  status: ('A' for Active; 'I' for Inactive)
REMARK    1  A    between atoms: C4_4  and  C5_5 
REMARK    2  A    between atoms: C5_5  and  C6_6 
REMARK    3  A    between atoms: C6_6  and  C7_7 
REMARK    4  A    between atoms: C7_7  and  C9_9 
REMARK    5  A    between atoms: C26_29  and  O4_30 
ROOT
HETATM    1  C9  UNL     1      -7.786  46.127 -25.629  1.00  0.00    -0.001 C 
HETATM    2  C10 UNL     1      -9.106  45.295 -25.611  1.00  0.00     0.007 C 
HETATM    3  C11 UNL     1      -9.727  45.362 -27.017  1.00  0.00     0.024 C 
HETATM    4  C12 UNL     1      -8.689  46.074 -27.850  1.00  0.00     0.092 C 
HETATM    5  C13 UNL     1      -7.653  45.089 -28.446  1.00  0.00     0.272 C 
HETATM    6  O1  UNL     1      -7.317  44.002 -28.006  1.00  0.00    -0.264 OA
HETATM    7  O2  UNL     1      -7.128  45.649 -29.594  1.00  0.00    -0.305 OA
HETATM    8  C14 UNL     1      -7.756  46.937 -29.818  1.00  0.00     0.113 C 
HETATM    9  C15 UNL     1      -6.904  47.979 -29.027  1.00  0.00     0.043 C 
HETATM   10  C16 UNL     1      -6.687  47.593 -27.536  1.00  0.00     0.014 C 
HETATM   11  C17 UNL     1      -7.983  47.062 -26.866  1.00  0.00    -0.020 C 
HETATM   12  C18 UNL     1      -8.875  48.276 -26.494  1.00  0.00     0.017 C 
HETATM   13  C19 UNL     1      -9.064  46.743 -29.113  1.00  0.00     0.137 A 
HETATM   14  O3  UNL     1     -10.098  47.707 -29.182  1.00  0.00    -0.364 OA
HETATM   15  C20 UNL     1     -10.345  46.460 -29.866  1.00  0.00     0.162 A 
HETATM   16  C21 UNL     1     -10.364  46.539 -31.364  1.00  0.00     0.041 C 
HETATM   17  C22 UNL     1      -8.969  46.219 -31.947  1.00  0.00     0.009 C 
HETATM   18  C23 UNL     1      -8.899  45.934 -33.510  1.00  0.00    -0.017 C 
HETATM   19  C24 UNL     1      -8.403  44.470 -33.696  1.00  0.00     0.018 C 
HETATM   20  C25 UNL     1     -10.285  45.999 -34.197  1.00  0.00     0.018 C 
HETATM   21  C26 UNL     1      -7.908  46.844 -34.288  1.00  0.00     0.126 C 
HETATM   22  C27 UNL     1      -6.575  47.132 -33.593  1.00  0.00     0.033 C 
HETATM   23  C28 UNL     1      -6.557  46.906 -32.082  1.00  0.00     0.015 C 
HETATM   24  C29 UNL     1      -7.892  47.211 -31.366  1.00  0.00    -0.004 C 
HETATM   25  C30 UNL     1      -8.266  48.701 -31.580  1.00  0.00     0.019 C 
ENDROOT
BRANCH   1  26
HETATM   26  C7  UNL     1      -7.466  46.752 -24.238  1.00  0.00    -0.014 C 
HETATM   27  C8  UNL     1      -8.726  47.308 -23.564  1.00  0.00     0.010 C 
BRANCH  26  28
HETATM   28  C6  UNL     1      -6.409  47.889 -24.360  1.00  0.00     0.008 C 
BRANCH  28  29
HETATM   29  C5  UNL     1      -5.979  48.490 -23.012  1.00  0.00     0.028 C 
BRANCH  29  30
HETATM   30  C4  UNL     1      -4.777  47.826 -22.404  1.00  0.00    -0.025 C 
HETATM   31  C2  UNL     1      -3.478  48.153 -22.555  1.00  0.00    -0.091 C 
HETATM   32  C1  UNL     1      -2.957  49.288 -23.391  1.00  0.00     0.042 C 
HETATM   33  C3  UNL     1      -2.404  47.345 -21.873  1.00  0.00     0.042 C 
ENDBRANCH  29  30
ENDBRANCH  28  29
ENDBRANCH  26  28
ENDBRANCH   1  26
BRANCH  21  34
HETATM   34  O4  UNL     1      -8.534  48.081 -34.632  1.00  0.00    -0.395 OA
HETATM   35  H39 UNL     1      -7.936  48.559 -35.234  1.00  0.00     0.210 HD
ENDBRANCH  21  34
TORSDOF 5
ENDMDL
MODEL 3
REMARK minimizedAffinity -7.36804676
REMARK CNNscore 0.312210023
REMARK CNNaffinity 5.60157394
REMARK  5 active torsions:
REMARK  status: ('A' for Active; 'I' for Inactive)
REMARK    1  A    between atoms: C4_4  and  C5_5 
REMARK    2  A    between atoms: C5_5  and  C6_6 
REMARK    3  A    between atoms: C6_6  and  C7_7 
REMARK    4  A    between atoms: C7_7  and  C9_9 
REMARK    5  A    between atoms: C26_29  and  O4_30 
ROOT
HETATM    1  C9  UNL     1      -8.050  47.048 -28.989  1.00  0.00    -0.001 C 
HETATM    2  C10 UNL     1      -8.023  48.060 -27.802  1.00  0.00     0.007 C 
HETATM    3  C11 UNL     1      -9.412  48.051 -27.140  1.00  0.00     0.024 C 
HETATM    4  C12 UNL     1     -10.149  46.931 -27.835  1.00  0.00     0.092 C 
HETATM    5  C13 UNL     1      -9.903  45.565 -27.147  1.00  0.00     0.272 C 
HETATM    6  O1  UNL     1      -8.938  45.225 -26.484  1.00  0.00    -0.264 OA
HETATM    7  O2  UNL     1     -10.980  44.742 -27.414  1.00  0.00    -0.305 OA
HETATM    8  C14 UNL     1     -11.939  45.470 -28.222  1.00  0.00     0.113 C 
HETATM    9  C15 UNL     1     -11.514  45.249 -29.707  1.00  0.00     0.043 C 
HETATM   10  C16 UNL     1     -10.020  45.588 -29.978  1.00  0.00     0.014 C 
HETATM   11  C17 UNL     1      -9.578  46.907 -29.290  1.00  0.00    -0.020 C 
HETATM   12  C18 UNL     1     -10.075  48.099 -30.148  1.00  0.00     0.017 C 
HETATM   13  C19 UNL     1     -11.625  46.883 -27.832  1.00  0.00     0.137 A 
HETATM   14  O3  UNL     1     -12.419  47.971 -28.269  1.00  0.00    -0.364 OA
HETATM   15  C20 UNL     1     -12.490  47.657 -26.862  1.00  0.00     0.162 A 
HETATM   16  C21 UNL     1     -13.792  47.076 -26.395  1.00  0.00     0.041 C 
HETATM   17  C22 UNL     1     -13.742  45.531 -26.415  1.00  0.00     0.009 C 
HETATM   18  C23 UNL     1     -14.906  44.772 -25.642  1.00  0.00    -0.017 C 
HETATM   19  C24 UNL     1     -14.247  43.956 -24.491  1.00  0.00     0.018 C 
HETATM   20  C25 UNL     1     -15.904  45.736 -24.958  1.00  0.00     0.018 C 
HETATM   21  C26 UNL     1     -15.700  43.756 -26.511  1.00  0.00     0.126 C 
HETATM   22  C27 UNL     1     -14.872  42.915 -27.484  1.00  0.00     0.033 C 
HETATM   23  C28 UNL     1     -13.492  43.471 -27.829  1.00  0.00     0.015 C 
HETATM   24  C29 UNL     1     -13.407  45.013 -27.864  1.00  0.00    -0.004 C 
HETATM   25  C30 UNL     1     -14.379  45.561 -28.941  1.00  0.00     0.019 C 
ENDROOT
BRANCH   1  26
HETATM   26  C7  UNL     1      -7.077  47.460 -30.134  1.00  0.00    -0.014 C 
HETATM   27  C8  UNL     1      -6.525  46.237 -30.876  1.00  0.00     0.010 C 
BRANCH  26  28
HETATM   28  C6  UNL     1      -5.888  48.306 -29.588  1.00  0.00     0.008 C 
BRANCH  28  29
HETATM   29  C5  UNL     1      -5.125  47.638 -28.432  1.00  0.00     0.028 C 
BRANCH  29  30
HETATM   30  C4  UNL     1      -3.935  48.421 -27.956  1.00  0.00    -0.025 C 
HETATM   31  C2  UNL     1      -3.616  48.767 -26.693  1.00  0.00    -0.091 C 
HETATM   32  C1  UNL     1      -4.416  48.425 -25.467  1.00  0.00     0.042 C 
HETATM   33  C3  UNL     1      -2.378  49.579 -26.415  1.00  0.00     0.042 C 
ENDBRANCH  29  30
ENDBRANCH  28  29
ENDBRANCH  26  28
ENDBRANCH   1  26
BRANCH  21  34
HETATM   34  O4  UNL     1     -16.737  44.424 -27.233  1.00  0.00    -0.395 OA
HETATM   35  H39 UNL     1     -17.295  43.743 -27.648  1.00  0.00     0.210 HD
ENDBRANCH  21  34
TORSDOF 5
ENDMDL
MODEL 4
REMARK minimizedAffinity -7.47515297
REMARK CNNscore 0.302324861
REMARK CNNaffinity 6.03371429
REMARK  5 active torsions:
REMARK  status: ('A' for Active; 'I' for Inactive)
REMARK    1  A    between atoms: C4_4  and  C5_5 
REMARK    2  A    between atoms: C5_5  and  C6_6 
REMARK    3  A    between atoms: C6_6  and  C7_7 
REMARK    4  A    between atoms: C7_7  and  C9_9 
REMARK    5  A    between atoms: C26_29  and  O4_30 
ROOT
HETATM    1  C9  UNL     1      -6.116  46.687 -30.988  1.00  0.00    -0.001 C 
HETATM    2  C10 UNL     1      -5.458  47.196 -29.669  1.00  0.00     0.007 C 
HETATM    3  C11 UNL     1      -6.574  47.397 -28.630  1.00  0.00     0.024 C 
HETATM    4  C12 UNL     1      -7.811  46.849 -29.300  1.00  0.00     0.092 C 
HETATM    5  C13 UNL     1      -7.972  45.328 -29.057  1.00  0.00     0.272 C 
HETATM    6  O1  UNL     1      -7.097  44.511 -28.823  1.00  0.00    -0.264 OA
HETATM    7  O2  UNL     1      -9.313  45.009 -29.159  1.00  0.00    -0.305 OA
HETATM    8  C14 UNL     1     -10.063  46.218 -29.439  1.00  0.00     0.113 C 
HETATM    9  C15 UNL     1     -10.073  46.375 -30.991  1.00  0.00     0.043 C 
HETATM   10  C16 UNL     1      -8.654  46.309 -31.626  1.00  0.00     0.014 C 
HETATM   11  C17 UNL     1      -7.607  47.128 -30.825  1.00  0.00    -0.020 C 
HETATM   12  C18 UNL     1      -7.774  48.627 -31.187  1.00  0.00     0.017 C 
HETATM   13  C19 UNL     1      -9.158  47.258 -28.850  1.00  0.00     0.137 A 
HETATM   14  O3  UNL     1      -9.545  48.616 -28.756  1.00  0.00    -0.364 OA
HETATM   15  C20 UNL     1      -9.438  47.897 -27.509  1.00  0.00     0.162 A 
HETATM   16  C21 UNL     1     -10.736  47.625 -26.808  1.00  0.00     0.041 C 
HETATM   17  C22 UNL     1     -11.288  46.235 -27.198  1.00  0.00     0.009 C 
HETATM   18  C23 UNL     1     -12.467  45.660 -26.300  1.00  0.00    -0.017 C 
HETATM   19  C24 UNL     1     -11.950  44.353 -25.630  1.00  0.00     0.018 C 
HETATM   20  C25 UNL     1     -12.854  46.605 -25.136  1.00  0.00     0.018 C 
HETATM   21  C26 UNL     1     -13.752  45.280 -27.088  1.00  0.00     0.126 C 
HETATM   22  C27 UNL     1     -13.531  44.591 -28.437  1.00  0.00     0.033 C 
HETATM   23  C28 UNL     1     -12.147  44.778 -29.055  1.00  0.00     0.015 C 
HETATM   24  C29 UNL     1     -11.485  46.142 -28.758  1.00  0.00    -0.004 C 
HETATM   25  C30 UNL     1     -12.372  47.282 -29.324  1.00  0.00     0.019 C 
ENDROOT
BRANCH   1  26
HETATM   26  C7  UNL     1      -5.319  47.132 -32.252  1.00  0.00    -0.014 C 
HETATM   27  C8  UNL     1      -6.254  47.484 -33.416  1.00  0.00     0.010 C 
BRANCH  26  28
HETATM   28  C6  UNL     1      -4.327  46.024 -32.712  1.00  0.00     0.008 C 
BRANCH  28  29
HETATM   29  C5  UNL     1      -4.809  44.593 -32.423  1.00  0.00     0.028 C 
BRANCH  29  30
HETATM   30  C4  UNL     1      -3.800  43.530 -32.757  1.00  0.00    -0.025 C 
HETATM   31  C2  UNL     1      -4.025  42.253 -33.124  1.00  0.00    -0.091 C 
HETATM   32  C1  UNL     1      -5.378  41.616 -33.278  1.00  0.00     0.042 C 
HETATM   33  C3  UNL     1      -2.871  41.325 -33.400  1.00  0.00     0.042 C 
ENDBRANCH  29  30
ENDBRANCH  28  29
ENDBRANCH  26  28
ENDBRANCH   1  26
BRANCH  21  34
HETATM   34  O4  UNL     1     -14.578  46.430 -27.279  1.00  0.00    -0.395 OA
HETATM   35  H39 UNL     1     -15.427  46.128 -27.646  1.00  0.00     0.210 HD
ENDBRANCH  21  34
TORSDOF 5
ENDMDL
MODEL 5
REMARK minimizedAffinity -7.33831596
REMARK CNNscore 0.222979203
REMARK CNNaffinity 6.41990232
REMARK  5 active torsions:
REMARK  status: ('A' for Active; 'I' for Inactive)
REMARK    1  A    between atoms: C4_4  and  C5_5 
REMARK    2  A    between atoms: C5_5  and  C6_6 
REMARK    3  A    between atoms: C6_6  and  C7_7 
REMARK    4  A    between atoms: C7_7  and  C9_9 
REMARK    5  A    between atoms: C26_29  and  O4_30 
ROOT
HETATM    1  C9  UNL     1      -2.617  52.868 -11.397  1.00  0.00    -0.001 C 
HETATM    2  C10 UNL     1      -3.180  53.033  -9.952  1.00  0.00     0.007 C 
HETATM    3  C11 UNL     1      -1.989  53.254  -9.003  1.00  0.00     0.024 C 
HETATM    4  C12 UNL     1      -0.798  53.380  -9.920  1.00  0.00     0.092 C 
HETATM    5  C13 UNL     1      -0.586  54.840 -10.392  1.00  0.00     0.272 C 
HETATM    6  O1  UNL     1      -1.422  55.722 -10.495  1.00  0.00    -0.264 OA
HETATM    7  O2  UNL     1       0.749  55.007 -10.708  1.00  0.00    -0.305 OA
HETATM    8  C14 UNL     1       1.449  53.761 -10.463  1.00  0.00     0.113 C 
HETATM    9  C15 UNL     1       1.333  52.931 -11.780  1.00  0.00     0.043 C 
HETATM   10  C16 UNL     1      -0.129  52.786 -12.290  1.00  0.00     0.014 C 
HETATM   11  C17 UNL     1      -1.127  52.466 -11.145  1.00  0.00    -0.020 C 
HETATM   12  C18 UNL     1      -1.021  50.955 -10.810  1.00  0.00     0.017 C 
HETATM   13  C19 UNL     1       0.571  53.141  -9.419  1.00  0.00     0.137 A 
HETATM   14  O3  UNL     1       0.935  51.947  -8.752  1.00  0.00    -0.364 OA
HETATM   15  C20 UNL     1       0.942  53.149  -7.953  1.00  0.00     0.162 A 
HETATM   16  C21 UNL     1       2.297  53.633  -7.528  1.00  0.00     0.041 C 
HETATM   17  C22 UNL     1       2.846  54.674  -8.530  1.00  0.00     0.009 C 
HETATM   18  C23 UNL     1       4.105  55.522  -8.057  1.00  0.00    -0.017 C 
HETATM   19  C24 UNL     1       3.670  57.017  -8.011  1.00  0.00     0.018 C 
HETATM   20  C25 UNL     1       4.561  55.172  -6.620  1.00  0.00     0.018 C 
HETATM   21  C26 UNL     1       5.331  55.443  -9.009  1.00  0.00     0.126 C 
HETATM   22  C27 UNL     1       5.020  55.473 -10.507  1.00  0.00     0.033 C 
HETATM   23  C28 UNL     1       3.587  55.107 -10.891  1.00  0.00     0.015 C 
HETATM   24  C29 UNL     1       2.922  54.053  -9.976  1.00  0.00    -0.004 C 
HETATM   25  C30 UNL     1       3.737  52.735 -10.027  1.00  0.00     0.019 C 
ENDROOT
BRANCH   1  26
HETATM   26  C7  UNL     1      -3.520  51.953 -12.278  1.00  0.00    -0.014 C 
HETATM   27  C8  UNL     1      -3.554  50.513 -11.749  1.00  0.00     0.010 C 
BRANCH  26  28
HETATM   28  C6  UNL     1      -3.037  51.941 -13.759  1.00  0.00     0.008 C 
BRANCH  28  29
HETATM   29  C5  UNL     1      -2.420  50.605 -14.204  1.00  0.00     0.028 C 
BRANCH  29  30
HETATM   30  C4  UNL     1      -1.478  50.728 -15.369  1.00  0.00    -0.025 C 
HETATM   31  C2  UNL     1      -0.396  49.975 -15.650  1.00  0.00    -0.091 C 
HETATM   32  C1  UNL     1       0.101  48.822 -14.823  1.00  0.00     0.042 C 
HETATM   33  C3  UNL     1       0.442  50.269 -16.866  1.00  0.00     0.042 C 
ENDBRANCH  29  30
ENDBRANCH  28  29
ENDBRANCH  26  28
ENDBRANCH   1  26
BRANCH  21  34
HETATM   34  O4  UNL     1       6.114  54.285  -8.716  1.00  0.00    -0.395 OA
HETATM   35  H39 UNL     1       6.939  54.346  -9.230  1.00  0.00     0.210 HD
ENDBRANCH  21  34
TORSDOF 5
ENDMDL
MODEL 6
REMARK minimizedAffinity -7.49128389
REMARK CNNscore 0.205528393
REMARK CNNaffinity 6.53903151
REMARK  5 active torsions:
REMARK  status: ('A' for Active; 'I' for Inactive)
REMARK    1  A    between atoms: C4_4  and  C5_5 
REMARK    2  A    between atoms: C5_5  and  C6_6 
REMARK    3  A    between atoms: C6_6  and  C7_7 
REMARK    4  A    between atoms: C7_7  and  C9_9 
REMARK    5  A    between atoms: C26_29  and  O4_30 
ROOT
HETATM    1  C9  UNL     1      -2.734  50.182 -21.716  1.00  0.00    -0.001 C 
HETATM    2  C10 UNL     1      -3.599  51.436 -21.381  1.00  0.00     0.007 C 
HETATM    3  C11 UNL     1      -3.598  51.616 -19.853  1.00  0.00     0.024 C 
HETATM    4  C12 UNL     1      -2.614  50.586 -19.355  1.00  0.00     0.092 C 
HETATM    5  C13 UNL     1      -1.165  51.135 -19.338  1.00  0.00     0.272 C 
HETATM    6  O1  UNL     1      -0.692  52.020 -20.030  1.00  0.00    -0.264 OA
HETATM    7  O2  UNL     1      -0.446  50.436 -18.387  1.00  0.00    -0.305 OA
HETATM    8  C14 UNL     1      -1.320  49.467 -17.755  1.00  0.00     0.113 C 
HETATM    9  C15 UNL     1      -1.245  48.177 -18.631  1.00  0.00     0.043 C 
HETATM   10  C16 UNL     1      -1.521  48.440 -20.139  1.00  0.00     0.014 C 
HETATM   11  C17 UNL     1      -2.722  49.397 -20.364  1.00  0.00    -0.020 C 
HETATM   12  C18 UNL     1      -4.034  48.586 -20.196  1.00  0.00     0.017 C 
HETATM   13  C19 UNL     1      -2.656  50.114 -17.956  1.00  0.00     0.137 A 
HETATM   14  O3  UNL     1      -3.833  49.593 -17.368  1.00  0.00    -0.364 OA
HETATM   15  C20 UNL     1      -3.364  50.852 -16.842  1.00  0.00     0.162 A 
HETATM   16  C21 UNL     1      -2.815  50.803 -15.447  1.00  0.00     0.041 C 
HETATM   17  C22 UNL     1      -1.282  50.602 -15.468  1.00  0.00     0.009 C 
HETATM   18  C23 UNL     1      -0.512  50.861 -14.102  1.00  0.00    -0.017 C 
HETATM   19  C24 UNL     1       0.470  52.046 -14.336  1.00  0.00     0.018 C 
HETATM   20  C25 UNL     1      -1.451  51.312 -12.956  1.00  0.00     0.018 C 
HETATM   21  C26 UNL     1       0.346  49.662 -13.607  1.00  0.00     0.126 C 
HETATM   22  C27 UNL     1       1.119  48.901 -14.687  1.00  0.00     0.033 C 
HETATM   23  C28 UNL     1       0.613  49.087 -16.116  1.00  0.00     0.015 C 
HETATM   24  C29 UNL     1      -0.915  49.279 -16.241  1.00  0.00    -0.004 C 
HETATM   25  C30 UNL     1      -1.642  48.030 -15.680  1.00  0.00     0.019 C 
ENDROOT
BRANCH   1  26
HETATM   26  C7  UNL     1      -3.214  49.467 -23.015  1.00  0.00    -0.014 C 
HETATM   27  C8  UNL     1      -2.538  48.102 -23.193  1.00  0.00     0.010 C 
BRANCH  26  28
HETATM   28  C6  UNL     1      -2.940  50.340 -24.275  1.00  0.00     0.008 C 
BRANCH  28  29
HETATM   29  C5  UNL     1      -1.487  50.831 -24.391  1.00  0.00     0.028 C 
BRANCH  29  30
HETATM   30  C4  UNL     1      -0.977  50.893 -25.803  1.00  0.00    -0.025 C 
HETATM   31  C2  UNL     1       0.168  51.445 -26.252  1.00  0.00    -0.091 C 
HETATM   32  C1  UNL     1       1.197  52.132 -25.398  1.00  0.00     0.042 C 
HETATM   33  C3  UNL     1       0.498  51.426 -27.721  1.00  0.00     0.042 C 
ENDBRANCH  29  30
ENDBRANCH  28  29
ENDBRANCH  26  28
ENDBRANCH   1  26
BRANCH  21  34
HETATM   34  O4  UNL     1      -0.463  48.741 -12.874  1.00  0.00    -0.395 OA
HETATM   35  H39 UNL     1       0.131  48.086 -12.465  1.00  0.00     0.210 HD
ENDBRANCH  21  34
TORSDOF 5
ENDMDL
MODEL 7
REMARK minimizedAffinity -7.58137226
REMARK CNNscore 0.205164045
REMARK CNNaffinity 5.63217926
REMARK  5 active torsions:
REMARK  status: ('A' for Active; 'I' for Inactive)
REMARK    1  A    between atoms: C4_4  and  C5_5 
REMARK    2  A    between atoms: C5_5  and  C6_6 
REMARK    3  A    between atoms: C6_6  and  C7_7 
REMARK    4  A    between atoms: C7_7  and  C9_9 
REMARK    5  A    between atoms: C26_29  and  O4_30 
ROOT
HETATM    1  C9  UNL     1      -6.821  46.978 -23.322  1.00  0.00    -0.001 C 
HETATM    2  C10 UNL     1      -7.990  46.719 -22.322  1.00  0.00     0.007 C 
HETATM    3  C11 UNL     1      -9.299  46.669 -23.129  1.00  0.00     0.024 C 
HETATM    4  C12 UNL     1      -8.854  46.727 -24.570  1.00  0.00     0.092 C 
HETATM    5  C13 UNL     1      -8.547  45.318 -25.136  1.00  0.00     0.272 C 
HETATM    6  O1  UNL     1      -8.202  44.324 -24.520  1.00  0.00    -0.264 OA
HETATM    7  O2  UNL     1      -8.718  45.352 -26.507  1.00  0.00    -0.305 OA
HETATM    8  C14 UNL     1      -9.133  46.686 -26.895  1.00  0.00     0.113 C 
HETATM    9  C15 UNL     1      -7.822  47.500 -27.127  1.00  0.00     0.043 C 
HETATM   10  C16 UNL     1      -6.835  47.433 -25.927  1.00  0.00     0.014 C 
HETATM   11  C17 UNL     1      -7.552  47.593 -24.560  1.00  0.00    -0.020 C 
HETATM   12  C18 UNL     1      -7.837  49.100 -24.329  1.00  0.00     0.017 C 
HETATM   13  C19 UNL     1      -9.784  47.161 -25.632  1.00  0.00     0.137 A 
HETATM   14  O3  UNL     1     -10.483  48.391 -25.570  1.00  0.00    -0.364 OA
HETATM   15  C20 UNL     1     -11.287  47.197 -25.469  1.00  0.00     0.162 A 
HETATM   16  C21 UNL     1     -12.172  46.914 -26.647  1.00  0.00     0.041 C 
HETATM   17  C22 UNL     1     -11.466  45.973 -27.650  1.00  0.00     0.009 C 
HETATM   18  C23 UNL     1     -12.380  45.316 -28.773  1.00  0.00    -0.017 C 
HETATM   19  C24 UNL     1     -12.339  43.773 -28.564  1.00  0.00     0.018 C 
HETATM   20  C25 UNL     1     -13.870  45.718 -28.649  1.00  0.00     0.018 C 
HETATM   21  C26 UNL     1     -11.905  45.582 -30.229  1.00  0.00     0.126 C 
HETATM   22  C27 UNL     1     -10.394  45.520 -30.463  1.00  0.00     0.033 C 
HETATM   23  C28 UNL     1      -9.526  45.673 -29.216  1.00  0.00     0.015 C 
HETATM   24  C29 UNL     1     -10.109  46.610 -28.134  1.00  0.00    -0.004 C 
HETATM   25  C30 UNL     1     -10.285  48.034 -28.721  1.00  0.00     0.019 C 
ENDROOT
BRANCH   1  26
HETATM   26  C7  UNL     1      -5.644  47.757 -22.661  1.00  0.00    -0.014 C 
HETATM   27  C8  UNL     1      -6.151  48.848 -21.709  1.00  0.00     0.010 C 
BRANCH  26  28
HETATM   28  C6  UNL     1      -4.723  48.406 -23.735  1.00  0.00     0.008 C 
BRANCH  28  29
HETATM   29  C5  UNL     1      -3.320  48.767 -23.220  1.00  0.00     0.028 C 
BRANCH  29  30
HETATM   30  C4  UNL     1      -2.507  49.582 -24.186  1.00  0.00    -0.025 C 
HETATM   31  C2  UNL     1      -2.431  49.455 -25.525  1.00  0.00    -0.091 C 
HETATM   32  C1  UNL     1      -3.170  48.436 -26.348  1.00  0.00     0.042 C 
HETATM   33  C3  UNL     1      -1.535  50.363 -26.327  1.00  0.00     0.042 C 
ENDBRANCH  29  30
ENDBRANCH  28  29
ENDBRANCH  26  28
ENDBRANCH   1  26
BRANCH  21  34
HETATM   34  O4  UNL     1     -12.399  46.841 -30.690  1.00  0.00    -0.395 OA
HETATM   35  H39 UNL     1     -12.203  46.906 -31.642  1.00  0.00     0.210 HD
ENDBRANCH  21  34
TORSDOF 5
ENDMDL
MODEL 8
REMARK minimizedAffinity -8.42245579
REMARK CNNscore 0.196703821
REMARK CNNaffinity 6.77686501
REMARK  5 active torsions:
REMARK  status: ('A' for Active; 'I' for Inactive)
REMARK    1  A    between atoms: C4_4  and  C5_5 
REMARK    2  A    between atoms: C5_5  and  C6_6 
REMARK    3  A    between atoms: C6_6  and  C7_7 
REMARK    4  A    between atoms: C7_7  and  C9_9 
REMARK    5  A    between atoms: C26_29  and  O4_30 
ROOT
HETATM    1  C9  UNL     1      -3.149  50.245 -22.591  1.00  0.00    -0.001 C 
HETATM    2  C10 UNL     1      -4.527  49.593 -22.259  1.00  0.00     0.007 C 
HETATM    3  C11 UNL     1      -4.498  49.150 -20.786  1.00  0.00     0.024 C 
HETATM    4  C12 UNL     1      -3.195  49.696 -20.256  1.00  0.00     0.092 C 
HETATM    5  C13 UNL     1      -3.348  51.146 -19.731  1.00  0.00     0.272 C 
HETATM    6  O1  UNL     1      -4.166  51.982 -20.074  1.00  0.00    -0.264 OA
HETATM    7  O2  UNL     1      -2.370  51.371 -18.781  1.00  0.00    -0.305 OA
HETATM    8  C14 UNL     1      -1.582  50.164 -18.623  1.00  0.00     0.113 C 
HETATM    9  C15 UNL     1      -0.443  50.246 -19.687  1.00  0.00     0.043 C 
HETATM   10  C16 UNL     1      -0.963  50.519 -21.127  1.00  0.00     0.014 C 
HETATM   11  C17 UNL     1      -2.216  49.671 -21.475  1.00  0.00    -0.020 C 
HETATM   12  C18 UNL     1      -1.752  48.236 -21.840  1.00  0.00     0.017 C 
HETATM   13  C19 UNL     1      -2.570  49.121 -19.048  1.00  0.00     0.137 A 
HETATM   14  O3  UNL     1      -2.294  47.738 -18.924  1.00  0.00    -0.364 OA
HETATM   15  C20 UNL     1      -3.311  48.264 -18.046  1.00  0.00     0.162 A 
HETATM   16  C21 UNL     1      -2.940  48.324 -16.593  1.00  0.00     0.041 C 
HETATM   17  C22 UNL     1      -2.359  49.711 -16.233  1.00  0.00     0.009 C 
HETATM   18  C23 UNL     1      -2.231  50.048 -14.685  1.00  0.00    -0.017 C 
HETATM   19  C24 UNL     1      -3.147  51.274 -14.397  1.00  0.00     0.018 C 
HETATM   20  C25 UNL     1      -2.752  48.910 -13.775  1.00  0.00     0.018 C 
HETATM   21  C26 UNL     1      -0.799  50.444 -14.227  1.00  0.00     0.126 C 
HETATM   22  C27 UNL     1      -0.015  51.345 -15.184  1.00  0.00     0.033 C 
HETATM   23  C28 UNL     1      -0.510  51.363 -16.629  1.00  0.00     0.015 C 
HETATM   24  C29 UNL     1      -1.100  50.025 -17.127  1.00  0.00    -0.004 C 
HETATM   25  C30 UNL     1      -0.015  48.920 -17.051  1.00  0.00     0.019 C 
ENDROOT
BRANCH   1  26
HETATM   26  C7  UNL     1      -2.757  50.062 -24.088  1.00  0.00    -0.014 C 
HETATM   27  C8  UNL     1      -3.025  48.631 -24.572  1.00  0.00     0.010 C 
BRANCH  26  28
HETATM   28  C6  UNL     1      -1.257  50.408 -24.325  1.00  0.00     0.008 C 
BRANCH  28  29
HETATM   29  C5  UNL     1      -0.939  50.856 -25.761  1.00  0.00     0.028 C 
BRANCH  29  30
HETATM   30  C4  UNL     1       0.527  51.056 -26.026  1.00  0.00    -0.025 C 
HETATM   31  C2  UNL     1       1.114  51.555 -27.131  1.00  0.00    -0.091 C 
HETATM   32  C1  UNL     1       0.392  52.028 -28.363  1.00  0.00     0.042 C 
HETATM   33  C3  UNL     1       2.614  51.659 -27.217  1.00  0.00     0.042 C 
ENDBRANCH  29  30
ENDBRANCH  28  29
ENDBRANCH  26  28
ENDBRANCH   1  26
BRANCH  21  34
HETATM   34  O4  UNL     1      -0.026  49.276 -13.945  1.00  0.00    -0.395 OA
HETATM   35  H39 UNL     1       0.806  49.563 -13.530  1.00  0.00     0.210 HD
ENDBRANCH  21  34
TORSDOF 5
ENDMDL
MODEL 9
REMARK minimizedAffinity -7.60290909
REMARK CNNscore 0.178081185
REMARK CNNaffinity 5.41495323
REMARK  5 active torsions:
REMARK  status: ('A' for Active; 'I' for Inactive)
REMARK    1  A    between atoms: C4_4  and  C5_5 
REMARK    2  A    between atoms: C5_5  and  C6_6 
REMARK    3  A    between atoms: C6_6  and  C7_7 
REMARK    4  A    between atoms: C7_7  and  C9_9 
REMARK    5  A    between atoms: C26_29  and  O4_30 
ROOT
HETATM    1  C9  UNL     1     -13.361  46.207 -25.514  1.00  0.00    -0.001 C 
HETATM    2  C10 UNL     1     -12.450  45.138 -24.835  1.00  0.00     0.007 C 
HETATM    3  C11 UNL     1     -11.237  44.899 -25.752  1.00  0.00     0.024 C 
HETATM    4  C12 UNL     1     -11.380  45.937 -26.838  1.00  0.00     0.092 C 
HETATM    5  C13 UNL     1     -10.713  47.279 -26.445  1.00  0.00     0.272 C 
HETATM    6  O1  UNL     1     -10.521  47.717 -25.323  1.00  0.00    -0.264 OA
HETATM    7  O2  UNL     1     -10.362  47.948 -27.602  1.00  0.00    -0.305 OA
HETATM    8  C14 UNL     1     -10.734  47.136 -28.744  1.00  0.00     0.113 C 
HETATM    9  C15 UNL     1     -12.211  47.510 -29.082  1.00  0.00     0.043 C 
HETATM   10  C16 UNL     1     -13.166  47.415 -27.858  1.00  0.00     0.014 C 
HETATM   11  C17 UNL     1     -12.920  46.137 -27.012  1.00  0.00    -0.020 C 
HETATM   12  C18 UNL     1     -13.603  44.939 -27.724  1.00  0.00     0.017 C 
HETATM   13  C19 UNL     1     -10.706  45.764 -28.141  1.00  0.00     0.137 A 
HETATM   14  O3  UNL     1     -10.868  44.600 -28.929  1.00  0.00    -0.364 OA
HETATM   15  C20 UNL     1      -9.554  44.812 -28.372  1.00  0.00     0.162 A 
HETATM   16  C21 UNL     1      -8.482  45.161 -29.362  1.00  0.00     0.041 C 
HETATM   17  C22 UNL     1      -8.331  46.695 -29.486  1.00  0.00     0.009 C 
HETATM   18  C23 UNL     1      -7.029  47.223 -30.231  1.00  0.00    -0.017 C 
HETATM   19  C24 UNL     1      -6.207  48.054 -29.203  1.00  0.00     0.018 C 
HETATM   20  C25 UNL     1      -6.093  46.079 -30.693  1.00  0.00     0.018 C 
HETATM   21  C26 UNL     1      -7.312  48.160 -31.439  1.00  0.00     0.126 C 
HETATM   22  C27 UNL     1      -8.442  49.175 -31.248  1.00  0.00     0.033 C 
HETATM   23  C28 UNL     1      -9.438  48.854 -30.136  1.00  0.00     0.015 C 
HETATM   24  C29 UNL     1      -9.699  47.346 -29.917  1.00  0.00    -0.004 C 
HETATM   25  C30 UNL     1     -10.280  46.728 -31.215  1.00  0.00     0.019 C 
ENDROOT
BRANCH   1  26
HETATM   26  C7  UNL     1     -14.863  46.016 -25.146  1.00  0.00    -0.014 C 
HETATM   27  C8  UNL     1     -15.735  45.848 -26.397  1.00  0.00     0.010 C 
BRANCH  26  28
HETATM   28  C6  UNL     1     -15.397  47.217 -24.311  1.00  0.00     0.008 C 
BRANCH  28  29
HETATM   29  C5  UNL     1     -16.016  46.815 -22.962  1.00  0.00     0.028 C 
BRANCH  29  30
HETATM   30  C4  UNL     1     -17.295  46.036 -23.088  1.00  0.00    -0.025 C 
HETATM   31  C2  UNL     1     -18.305  45.944 -22.200  1.00  0.00    -0.091 C 
HETATM   32  C1  UNL     1     -18.354  46.626 -20.861  1.00  0.00     0.042 C 
HETATM   33  C3  UNL     1     -19.508  45.089 -22.501  1.00  0.00     0.042 C 
ENDBRANCH  29  30
ENDBRANCH  28  29
ENDBRANCH  26  28
ENDBRANCH   1  26
BRANCH  21  34
HETATM   34  O4  UNL     1      -7.566  47.392 -32.616  1.00  0.00    -0.395 OA
HETATM   35  H39 UNL     1      -7.597  48.007 -33.370  1.00  0.00     0.210 HD
ENDBRANCH  21  34
TORSDOF 5
ENDMDL
