MODEL 1
REMARK minimizedAffinity -6.67413139
REMARK CNNscore 0.632076025
REMARK CNNaffinity 6.33039331
REMARK  6 active torsions:
REMARK  status: ('A' for Active; 'I' for Inactive)
REMARK    1  A    between atoms: C2_2  and  C4_4 
REMARK    2  A    between atoms: C11_11  and  C12_12 
REMARK    3  A    between atoms: C12_12  and  O2_14 
REMARK    4  A    between atoms: C21_23  and  O3_24 
REMARK    5  A    between atoms: C22_25  and  C24_27 
REMARK    6  A    between atoms: C24_27  and  O4_28 
ROOT
HETATM    1  C4  UNL     1       5.517  12.861  21.770  1.00  0.00     0.018 C 
HETATM    2  C5  UNL     1       6.061  11.904  22.868  1.00  0.00     0.010 C 
HETATM    3  C6  UNL     1       5.056  10.746  22.989  1.00  0.00     0.010 C 
HETATM    4  C7  UNL     1       3.762  11.303  22.383  1.00  0.00    -0.039 C 
HETATM    5  C8  UNL     1       3.064  12.180  23.455  1.00  0.00     0.015 C 
HETATM    6  C9  UNL     1       2.785  10.235  21.876  1.00  0.00     0.011 C 
HETATM    7  C10 UNL     1       1.660  10.857  21.022  1.00  0.00     0.022 C 
HETATM    8  C11 UNL     1       2.168  11.743  19.821  1.00  0.00     0.057 C 
HETATM    9  C13 UNL     1       3.208  12.795  20.394  1.00  0.00     0.011 C 
HETATM   10  C14 UNL     1       3.701  13.795  19.343  1.00  0.00     0.007 C 
HETATM   11  C15 UNL     1       2.561  14.478  18.589  1.00  0.00     0.006 C 
HETATM   12  C16 UNL     1       1.578  13.469  17.958  1.00  0.00     0.003 C 
HETATM   13  C17 UNL     1       0.555  14.107  16.909  1.00  0.00    -0.035 C 
HETATM   14  C18 UNL     1      -0.299  15.230  17.543  1.00  0.00     0.016 C 
HETATM   15  C19 UNL     1       1.368  14.744  15.738  1.00  0.00     0.012 C 
HETATM   16  C20 UNL     1       0.528  15.131  14.525  1.00  0.00     0.033 C 
HETATM   17  C21 UNL     1      -0.294  13.968  13.984  1.00  0.00     0.128 C 
HETATM   18  C22 UNL     1      -1.189  13.271  15.054  1.00  0.00     0.007 C 
HETATM   19  C23 UNL     1      -2.421  14.139  15.395  1.00  0.00     0.020 C 
HETATM   20  C25 UNL     1      -0.296  12.926  16.306  1.00  0.00     0.007 C 
HETATM   21  C26 UNL     1      -1.016  12.138  17.419  1.00  0.00     0.007 C 
HETATM   22  C27 UNL     1      -0.005  11.505  18.378  1.00  0.00     0.011 C 
HETATM   23  C28 UNL     1       0.962  12.513  19.061  1.00  0.00    -0.022 C 
HETATM   24  C29 UNL     1       0.117  13.306  20.100  1.00  0.00     0.017 C 
HETATM   25  C30 UNL     1       4.336  12.067  21.163  1.00  0.00     0.007 C 
ENDROOT
BRANCH   8  26
HETATM   26  C12 UNL     1       2.890  10.797  18.818  1.00  0.00     0.149 C 
HETATM   27  O1  UNL     1       3.877  11.041  18.145  1.00  0.00    -0.649 OA
BRANCH  26  28
HETATM   28  O2  UNL     1       2.315   9.586  18.676  1.00  0.00    -0.776 OA
HETATM   29  H18 UNL     1       2.887   9.135  18.020  1.00  0.00     0.167 HD
ENDBRANCH  26  28
ENDBRANCH   8  26
BRANCH   1  30
HETATM   30  C2  UNL     1       6.654  13.335  20.878  1.00  0.00    -0.089 C 
HETATM   31  C1  UNL     1       7.432  12.537  20.129  1.00  0.00     0.014 C 
HETATM   32  C3  UNL     1       6.887  14.825  20.887  1.00  0.00     0.043 C 
ENDBRANCH   1  30
BRANCH  18  33
HETATM   33  C24 UNL     1      -1.734  11.945  14.431  1.00  0.00     0.176 C 
BRANCH  33  34
HETATM   34  O4  UNL     1      -0.674  11.092  13.998  1.00  0.00    -0.400 OA
HETATM   35  H39 UNL     1      -1.089  10.325  13.564  1.00  0.00     0.209 HD
ENDBRANCH  33  34
ENDBRANCH  18  33
BRANCH  17  36
HETATM   36  O3  UNL     1      -1.062  14.465  12.888  1.00  0.00    -0.395 OA
HETATM   37  H33 UNL     1      -1.678  13.739  12.644  1.00  0.00     0.210 HD
ENDBRANCH  17  36
TORSDOF 6
ENDMDL
MODEL 2
REMARK minimizedAffinity -5.77024555
REMARK CNNscore 0.5600366
REMARK CNNaffinity 6.39156485
REMARK  6 active torsions:
REMARK  status: ('A' for Active; 'I' for Inactive)
REMARK    1  A    between atoms: C2_2  and  C4_4 
REMARK    2  A    between atoms: C11_11  and  C12_12 
REMARK    3  A    between atoms: C12_12  and  O2_14 
REMARK    4  A    between atoms: C21_23  and  O3_24 
REMARK    5  A    between atoms: C22_25  and  C24_27 
REMARK    6  A    between atoms: C24_27  and  O4_28 
ROOT
HETATM    1  C4  UNL     1     -13.884   5.354  23.752  1.00  0.00     0.018 C 
HETATM    2  C5  UNL     1     -13.809   4.723  22.333  1.00  0.00     0.010 C 
HETATM    3  C6  UNL     1     -14.048   3.214  22.501  1.00  0.00     0.010 C 
HETATM    4  C7  UNL     1     -13.737   2.943  23.978  1.00  0.00    -0.039 C 
HETATM    5  C8  UNL     1     -12.197   2.839  24.136  1.00  0.00     0.015 C 
HETATM    6  C9  UNL     1     -14.399   1.683  24.549  1.00  0.00     0.011 C 
HETATM    7  C10 UNL     1     -14.289   1.635  26.089  1.00  0.00     0.022 C 
HETATM    8  C11 UNL     1     -14.839   2.918  26.821  1.00  0.00     0.057 C 
HETATM    9  C13 UNL     1     -14.158   4.189  26.160  1.00  0.00     0.011 C 
HETATM   10  C14 UNL     1     -14.525   5.505  26.855  1.00  0.00     0.007 C 
HETATM   11  C15 UNL     1     -14.302   5.464  28.366  1.00  0.00     0.006 C 
HETATM   12  C16 UNL     1     -15.021   4.275  29.040  1.00  0.00     0.003 C 
HETATM   13  C17 UNL     1     -15.081   4.356  30.634  1.00  0.00    -0.035 C 
HETATM   14  C18 UNL     1     -13.670   4.444  31.264  1.00  0.00     0.016 C 
HETATM   15  C19 UNL     1     -15.856   5.648  31.043  1.00  0.00     0.012 C 
HETATM   16  C20 UNL     1     -16.246   5.710  32.517  1.00  0.00     0.033 C 
HETATM   17  C21 UNL     1     -17.041   4.491  32.966  1.00  0.00     0.128 C 
HETATM   18  C22 UNL     1     -16.348   3.129  32.653  1.00  0.00     0.007 C 
HETATM   19  C23 UNL     1     -15.174   2.870  33.623  1.00  0.00     0.020 C 
HETATM   20  C25 UNL     1     -15.923   3.121  31.135  1.00  0.00     0.007 C 
HETATM   21  C26 UNL     1     -15.311   1.796  30.640  1.00  0.00     0.007 C 
HETATM   22  C27 UNL     1     -15.309   1.735  29.110  1.00  0.00     0.011 C 
HETATM   23  C28 UNL     1     -14.547   2.899  28.414  1.00  0.00    -0.022 C 
HETATM   24  C29 UNL     1     -13.031   2.648  28.661  1.00  0.00     0.017 C 
HETATM   25  C30 UNL     1     -14.393   4.186  24.630  1.00  0.00     0.007 C 
ENDROOT
BRANCH   8  26
HETATM   26  C12 UNL     1     -16.376   2.970  26.578  1.00  0.00     0.149 C 
HETATM   27  O1  UNL     1     -17.099   3.953  26.599  1.00  0.00    -0.649 OA
BRANCH  26  28
HETATM   28  O2  UNL     1     -16.949   1.771  26.352  1.00  0.00    -0.776 OA
HETATM   29  H18 UNL     1     -17.896   1.990  26.226  1.00  0.00     0.167 HD
ENDBRANCH  26  28
ENDBRANCH   8  26
BRANCH   1  30
HETATM   30  C2  UNL     1     -14.657   6.663  23.704  1.00  0.00    -0.089 C 
HETATM   31  C1  UNL     1     -15.965   6.778  23.423  1.00  0.00     0.014 C 
HETATM   32  C3  UNL     1     -13.834   7.894  23.987  1.00  0.00     0.043 C 
ENDBRANCH   1  30
BRANCH  18  33
HETATM   33  C24 UNL     1     -17.393   1.993  32.899  1.00  0.00     0.176 C 
BRANCH  33  34
HETATM   34  O4  UNL     1     -16.899   1.013  33.813  1.00  0.00    -0.400 OA
HETATM   35  H39 UNL     1     -17.571   0.310  33.863  1.00  0.00     0.209 HD
ENDBRANCH  33  34
ENDBRANCH  18  33
BRANCH  17  36
HETATM   36  O3  UNL     1     -17.305   4.646  34.360  1.00  0.00    -0.395 OA
HETATM   37  H33 UNL     1     -17.697   3.794  34.653  1.00  0.00     0.210 HD
ENDBRANCH  17  36
TORSDOF 6
ENDMDL
MODEL 3
REMARK minimizedAffinity -7.17366457
REMARK CNNscore 0.516009569
REMARK CNNaffinity 6.33285713
REMARK  6 active torsions:
REMARK  status: ('A' for Active; 'I' for Inactive)
REMARK    1  A    between atoms: C2_2  and  C4_4 
REMARK    2  A    between atoms: C11_11  and  C12_12 
REMARK    3  A    between atoms: C12_12  and  O2_14 
REMARK    4  A    between atoms: C21_23  and  O3_24 
REMARK    5  A    between atoms: C22_25  and  C24_27 
REMARK    6  A    between atoms: C24_27  and  O4_28 
ROOT
HETATM    1  C4  UNL     1       2.074   7.262  10.387  1.00  0.00     0.018 C 
HETATM    2  C5  UNL     1       0.557   7.492  10.134  1.00  0.00     0.010 C 
HETATM    3  C6  UNL     1       0.043   8.383  11.276  1.00  0.00     0.010 C 
HETATM    4  C7  UNL     1       1.086   8.214  12.388  1.00  0.00    -0.039 C 
HETATM    5  C8  UNL     1       0.789   6.884  13.131  1.00  0.00     0.015 C 
HETATM    6  C9  UNL     1       1.135   9.367  13.397  1.00  0.00     0.011 C 
HETATM    7  C10 UNL     1       2.386   9.277  14.298  1.00  0.00     0.022 C 
HETATM    8  C11 UNL     1       3.749   9.184  13.512  1.00  0.00     0.057 C 
HETATM    9  C13 UNL     1       3.625   8.010  12.453  1.00  0.00     0.011 C 
HETATM   10  C14 UNL     1       4.926   7.739  11.691  1.00  0.00     0.007 C 
HETATM   11  C15 UNL     1       6.128   7.545  12.613  1.00  0.00     0.006 C 
HETATM   12  C16 UNL     1       6.313   8.716  13.603  1.00  0.00     0.003 C 
HETATM   13  C17 UNL     1       7.713   8.719  14.371  1.00  0.00    -0.035 C 
HETATM   14  C18 UNL     1       7.938   7.414  15.172  1.00  0.00     0.016 C 
HETATM   15  C19 UNL     1       8.863   8.826  13.320  1.00  0.00     0.012 C 
HETATM   16  C20 UNL     1      10.234   9.133  13.915  1.00  0.00     0.033 C 
HETATM   17  C21 UNL     1      10.232  10.388  14.778  1.00  0.00     0.128 C 
HETATM   18  C22 UNL     1       9.151  10.384  15.902  1.00  0.00     0.007 C 
HETATM   19  C23 UNL     1       9.558   9.445  17.059  1.00  0.00     0.020 C 
HETATM   20  C25 UNL     1       7.759  10.022  15.256  1.00  0.00     0.007 C 
HETATM   21  C26 UNL     1       6.561  10.076  16.225  1.00  0.00     0.007 C 
HETATM   22  C27 UNL     1       5.239  10.116  15.454  1.00  0.00     0.011 C 
HETATM   23  C28 UNL     1       5.015   8.918  14.488  1.00  0.00    -0.022 C 
HETATM   24  C29 UNL     1       4.729   7.675  15.380  1.00  0.00     0.017 C 
HETATM   25  C30 UNL     1       2.389   8.234  11.549  1.00  0.00     0.007 C 
ENDROOT
BRANCH   8  26
HETATM   26  C12 UNL     1       3.949  10.535  12.764  1.00  0.00     0.149 C 
HETATM   27  O1  UNL     1       4.782  10.797  11.912  1.00  0.00    -0.649 OA
BRANCH  26  28
HETATM   28  O2  UNL     1       3.109  11.517  13.147  1.00  0.00    -0.776 OA
HETATM   29  H18 UNL     1       3.374  12.277  12.587  1.00  0.00     0.167 HD
ENDBRANCH  26  28
ENDBRANCH   8  26
BRANCH   1  30
HETATM   30  C2  UNL     1       2.845   7.363   9.080  1.00  0.00    -0.089 C 
HETATM   31  C1  UNL     1       3.437   8.476   8.617  1.00  0.00     0.014 C 
HETATM   32  C3  UNL     1       2.901   6.087   8.278  1.00  0.00     0.043 C 
ENDBRANCH   1  30
BRANCH  18  33
HETATM   33  C24 UNL     1       9.079  11.827  16.501  1.00  0.00     0.176 C 
BRANCH  33  34
HETATM   34  O4  UNL     1       9.212  11.814  17.922  1.00  0.00    -0.400 OA
HETATM   35  H39 UNL     1       9.090  12.732  18.225  1.00  0.00     0.209 HD
ENDBRANCH  33  34
ENDBRANCH  18  33
BRANCH  17  36
HETATM   36  O3  UNL     1      11.550  10.542  15.307  1.00  0.00    -0.395 OA
HETATM   37  H33 UNL     1      11.490  11.272  15.961  1.00  0.00     0.210 HD
ENDBRANCH  17  36
TORSDOF 6
ENDMDL
MODEL 4
REMARK minimizedAffinity -7.64797735
REMARK CNNscore 0.420960337
REMARK CNNaffinity 6.39018583
REMARK  6 active torsions:
REMARK  status: ('A' for Active; 'I' for Inactive)
REMARK    1  A    between atoms: C2_2  and  C4_4 
REMARK    2  A    between atoms: C11_11  and  C12_12 
REMARK    3  A    between atoms: C12_12  and  O2_14 
REMARK    4  A    between atoms: C21_23  and  O3_24 
REMARK    5  A    between atoms: C22_25  and  C24_27 
REMARK    6  A    between atoms: C24_27  and  O4_28 
ROOT
HETATM    1  C4  UNL     1      -2.793  12.538  16.501  1.00  0.00     0.018 C 
HETATM    2  C5  UNL     1      -2.707  13.280  17.865  1.00  0.00     0.010 C 
HETATM    3  C6  UNL     1      -1.484  12.714  18.606  1.00  0.00     0.010 C 
HETATM    4  C7  UNL     1      -1.224  11.363  17.930  1.00  0.00    -0.039 C 
HETATM    5  C8  UNL     1      -2.214  10.327  18.525  1.00  0.00     0.015 C 
HETATM    6  C9  UNL     1       0.212  10.844  18.074  1.00  0.00     0.011 C 
HETATM    7  C10 UNL     1       0.478   9.648  17.134  1.00  0.00     0.022 C 
HETATM    8  C11 UNL     1       0.150   9.926  15.618  1.00  0.00     0.057 C 
HETATM    9  C13 UNL     1      -1.326  10.503  15.534  1.00  0.00     0.011 C 
HETATM   10  C14 UNL     1      -1.813  10.717  14.097  1.00  0.00     0.007 C 
HETATM   11  C15 UNL     1      -1.638   9.479  13.218  1.00  0.00     0.006 C 
HETATM   12  C16 UNL     1      -0.189   8.945  13.226  1.00  0.00     0.003 C 
HETATM   13  C17 UNL     1       0.121   7.856  12.099  1.00  0.00    -0.035 C 
HETATM   14  C18 UNL     1      -0.811   6.627  12.208  1.00  0.00     0.016 C 
HETATM   15  C19 UNL     1      -0.118   8.502  10.697  1.00  0.00     0.012 C 
HETATM   16  C20 UNL     1       0.415   7.681   9.526  1.00  0.00     0.033 C 
HETATM   17  C21 UNL     1       1.892   7.342   9.670  1.00  0.00     0.128 C 
HETATM   18  C22 UNL     1       2.256   6.648  11.019  1.00  0.00     0.007 C 
HETATM   19  C23 UNL     1       1.795   5.174  11.025  1.00  0.00     0.020 C 
HETATM   20  C25 UNL     1       1.653   7.501  12.200  1.00  0.00     0.007 C 
HETATM   21  C26 UNL     1       2.013   6.999  13.612  1.00  0.00     0.007 C 
HETATM   22  C27 UNL     1       1.744   8.082  14.660  1.00  0.00     0.011 C 
HETATM   23  C28 UNL     1       0.277   8.598  14.699  1.00  0.00    -0.022 C 
HETATM   24  C29 UNL     1      -0.578   7.454  15.318  1.00  0.00     0.017 C 
HETATM   25  C30 UNL     1      -1.467  11.744  16.448  1.00  0.00     0.007 C 
ENDROOT
BRANCH   8  26
HETATM   26  C12 UNL     1       1.155  11.001  15.113  1.00  0.00     0.149 C 
HETATM   27  O1  UNL     1       2.353  11.064  15.338  1.00  0.00    -0.649 OA
BRANCH  26  28
HETATM   28  O2  UNL     1       0.602  11.980  14.370  1.00  0.00    -0.776 OA
HETATM   29  H18 UNL     1       1.363  12.556  14.145  1.00  0.00     0.167 HD
ENDBRANCH  26  28
ENDBRANCH   8  26
BRANCH   1  30
HETATM   30  C2  UNL     1      -3.138  13.519  15.392  1.00  0.00    -0.089 C 
HETATM   31  C1  UNL     1      -2.244  14.176  14.635  1.00  0.00     0.014 C 
HETATM   32  C3  UNL     1      -4.615  13.743  15.181  1.00  0.00     0.043 C 
ENDBRANCH   1  30
BRANCH  18  33
HETATM   33  C24 UNL     1       3.815   6.631  11.142  1.00  0.00     0.176 C 
BRANCH  33  34
HETATM   34  O4  UNL     1       4.396   5.611  10.328  1.00  0.00    -0.400 OA
HETATM   35  H39 UNL     1       5.353   5.618  10.509  1.00  0.00     0.209 HD
ENDBRANCH  33  34
ENDBRANCH  18  33
BRANCH  17  36
HETATM   36  O3  UNL     1       2.257   6.543   8.545  1.00  0.00    -0.395 OA
HETATM   37  H33 UNL     1       3.169   6.228   8.727  1.00  0.00     0.210 HD
ENDBRANCH  17  36
TORSDOF 6
ENDMDL
MODEL 5
REMARK minimizedAffinity -7.57449865
REMARK CNNscore 0.347290099
REMARK CNNaffinity 5.41934538
REMARK  6 active torsions:
REMARK  status: ('A' for Active; 'I' for Inactive)
REMARK    1  A    between atoms: C2_2  and  C4_4 
REMARK    2  A    between atoms: C11_11  and  C12_12 
REMARK    3  A    between atoms: C12_12  and  O2_14 
REMARK    4  A    between atoms: C21_23  and  O3_24 
REMARK    5  A    between atoms: C22_25  and  C24_27 
REMARK    6  A    between atoms: C24_27  and  O4_28 
ROOT
HETATM    1  C4  UNL     1       6.635  13.094  20.776  1.00  0.00     0.018 C 
HETATM    2  C5  UNL     1       7.417  12.910  22.107  1.00  0.00     0.010 C 
HETATM    3  C6  UNL     1       6.435  12.308  23.124  1.00  0.00     0.010 C 
HETATM    4  C7  UNL     1       5.050  12.639  22.555  1.00  0.00    -0.039 C 
HETATM    5  C8  UNL     1       4.716  14.109  22.922  1.00  0.00     0.015 C 
HETATM    6  C9  UNL     1       3.924  11.719  23.042  1.00  0.00     0.011 C 
HETATM    7  C10 UNL     1       2.635  11.916  22.215  1.00  0.00     0.022 C 
HETATM    8  C11 UNL     1       2.830  11.759  20.659  1.00  0.00     0.057 C 
HETATM    9  C13 UNL     1       4.034  12.695  20.220  1.00  0.00     0.011 C 
HETATM   10  C14 UNL     1       4.261  12.720  18.704  1.00  0.00     0.007 C 
HETATM   11  C15 UNL     1       2.989  13.027  17.916  1.00  0.00     0.006 C 
HETATM   12  C16 UNL     1       1.825  12.077  18.274  1.00  0.00     0.003 C 
HETATM   13  C17 UNL     1       0.583  12.146  17.273  1.00  0.00    -0.035 C 
HETATM   14  C18 UNL     1      -0.012  13.572  17.184  1.00  0.00     0.016 C 
HETATM   15  C19 UNL     1       1.068  11.752  15.842  1.00  0.00     0.012 C 
HETATM   16  C20 UNL     1      -0.058  11.490  14.845  1.00  0.00     0.033 C 
HETATM   17  C21 UNL     1      -1.048  10.445  15.338  1.00  0.00     0.128 C 
HETATM   18  C22 UNL     1      -1.643  10.748  16.748  1.00  0.00     0.007 C 
HETATM   19  C23 UNL     1      -2.692  11.879  16.674  1.00  0.00     0.020 C 
HETATM   20  C25 UNL     1      -0.455  11.054  17.737  1.00  0.00     0.007 C 
HETATM   21  C26 UNL     1      -0.873  11.276  19.204  1.00  0.00     0.007 C 
HETATM   22  C27 UNL     1       0.335  11.160  20.138  1.00  0.00     0.011 C 
HETATM   23  C28 UNL     1       1.497  12.143  19.822  1.00  0.00    -0.022 C 
HETATM   24  C29 UNL     1       1.009  13.559  20.245  1.00  0.00     0.017 C 
HETATM   25  C30 UNL     1       5.298  12.365  21.050  1.00  0.00     0.007 C 
ENDROOT
BRANCH   8  26
HETATM   26  C12 UNL     1       3.203  10.274  20.383  1.00  0.00     0.149 C 
HETATM   27  O1  UNL     1       3.831   9.517  21.106  1.00  0.00    -0.649 OA
BRANCH  26  28
HETATM   28  O2  UNL     1       2.798   9.808  19.185  1.00  0.00    -0.776 OA
HETATM   29  H18 UNL     1       3.113   8.879  19.181  1.00  0.00     0.167 HD
ENDBRANCH  26  28
ENDBRANCH   8  26
BRANCH   1  30
HETATM   30  C2  UNL     1       7.500  12.676  19.597  1.00  0.00    -0.089 C 
HETATM   31  C1  UNL     1       7.769  11.408  19.246  1.00  0.00     0.014 C 
HETATM   32  C3  UNL     1       8.087  13.819  18.807  1.00  0.00     0.043 C 
ENDBRANCH   1  30
BRANCH  18  33
HETATM   33  C24 UNL     1      -2.398   9.467  17.233  1.00  0.00     0.176 C 
BRANCH  33  34
HETATM   34  O4  UNL     1      -3.739   9.764  17.625  1.00  0.00    -0.400 OA
HETATM   35  H39 UNL     1      -4.119   8.939  17.976  1.00  0.00     0.209 HD
ENDBRANCH  33  34
ENDBRANCH  18  33
BRANCH  17  36
HETATM   36  O3  UNL     1      -2.067  10.322  14.345  1.00  0.00    -0.395 OA
HETATM   37  H33 UNL     1      -2.758   9.748  14.742  1.00  0.00     0.210 HD
ENDBRANCH  17  36
TORSDOF 6
ENDMDL
MODEL 6
REMARK minimizedAffinity -6.36004639
REMARK CNNscore 0.337139964
REMARK CNNaffinity 5.71357584
REMARK  6 active torsions:
REMARK  status: ('A' for Active; 'I' for Inactive)
REMARK    1  A    between atoms: C2_2  and  C4_4 
REMARK    2  A    between atoms: C11_11  and  C12_12 
REMARK    3  A    between atoms: C12_12  and  O2_14 
REMARK    4  A    between atoms: C21_23  and  O3_24 
REMARK    5  A    between atoms: C22_25  and  C24_27 
REMARK    6  A    between atoms: C24_27  and  O4_28 
ROOT
HETATM    1  C4  UNL     1     -14.851  -6.473   7.055  1.00  0.00     0.018 C 
HETATM    2  C5  UNL     1     -16.389  -6.299   7.207  1.00  0.00     0.010 C 
HETATM    3  C6  UNL     1     -16.820  -7.157   8.408  1.00  0.00     0.010 C 
HETATM    4  C7  UNL     1     -15.680  -8.169   8.579  1.00  0.00    -0.039 C 
HETATM    5  C8  UNL     1     -15.883  -9.305   7.541  1.00  0.00     0.015 C 
HETATM    6  C9  UNL     1     -15.567  -8.771   9.985  1.00  0.00     0.011 C 
HETATM    7  C10 UNL     1     -14.241  -9.540  10.166  1.00  0.00     0.022 C 
HETATM    8  C11 UNL     1     -12.951  -8.700   9.828  1.00  0.00     0.057 C 
HETATM    9  C13 UNL     1     -13.142  -8.065   8.387  1.00  0.00     0.011 C 
HETATM   10  C14 UNL     1     -11.907  -7.307   7.889  1.00  0.00     0.007 C 
HETATM   11  C15 UNL     1     -10.625  -8.134   7.977  1.00  0.00     0.006 C 
HETATM   12  C16 UNL     1     -10.379  -8.699   9.393  1.00  0.00     0.003 C 
HETATM   13  C17 UNL     1      -8.917  -9.301   9.622  1.00  0.00    -0.035 C 
HETATM   14  C18 UNL     1      -8.596 -10.437   8.622  1.00  0.00     0.016 C 
HETATM   15  C19 UNL     1      -7.867  -8.168   9.395  1.00  0.00     0.012 C 
HETATM   16  C20 UNL     1      -6.455  -8.516   9.860  1.00  0.00     0.033 C 
HETATM   17  C21 UNL     1      -6.408  -8.953  11.318  1.00  0.00     0.128 C 
HETATM   18  C22 UNL     1      -7.387 -10.117  11.665  1.00  0.00     0.007 C 
HETATM   19  C23 UNL     1      -6.861 -11.463  11.120  1.00  0.00     0.020 C 
HETATM   20  C25 UNL     1      -8.822  -9.740  11.132  1.00  0.00     0.007 C 
HETATM   21  C26 UNL     1      -9.931 -10.749  11.487  1.00  0.00     0.007 C 
HETATM   22  C27 UNL     1     -11.316 -10.125  11.298  1.00  0.00     0.011 C 
HETATM   23  C28 UNL     1     -11.599  -9.593   9.864  1.00  0.00    -0.022 C 
HETATM   24  C29 UNL     1     -11.779 -10.844   8.955  1.00  0.00     0.017 C 
HETATM   25  C30 UNL     1     -14.457  -7.250   8.333  1.00  0.00     0.007 C 
ENDROOT
BRANCH   8  26
HETATM   26  C12 UNL     1     -12.845  -7.562  10.885  1.00  0.00     0.149 C 
HETATM   27  O1  UNL     1     -13.381  -6.467  10.854  1.00  0.00    -0.649 OA
BRANCH  26  28
HETATM   28  O2  UNL     1     -12.037  -7.839  11.928  1.00  0.00    -0.776 OA
HETATM   29  H18 UNL     1     -12.088  -7.030  12.479  1.00  0.00     0.167 HD
ENDBRANCH  26  28
ENDBRANCH   8  26
BRANCH   1  30
HETATM   30  C2  UNL     1     -14.200  -5.133   6.748  1.00  0.00    -0.089 C 
HETATM   31  C1  UNL     1     -13.550  -4.832   5.613  1.00  0.00     0.014 C 
HETATM   32  C3  UNL     1     -14.313  -4.108   7.849  1.00  0.00     0.043 C 
ENDBRANCH   1  30
BRANCH  18  33
HETATM   33  C24 UNL     1      -7.437 -10.252  13.222  1.00  0.00     0.176 C 
BRANCH  33  34
HETATM   34  O4  UNL     1      -6.879  -9.106  13.868  1.00  0.00    -0.400 OA
HETATM   35  H39 UNL     1      -6.883  -9.292  14.824  1.00  0.00     0.209 HD
ENDBRANCH  33  34
ENDBRANCH  18  33
BRANCH  17  36
HETATM   36  O3  UNL     1      -5.053  -9.289  11.618  1.00  0.00    -0.395 OA
HETATM   37  H33 UNL     1      -5.071  -9.692  12.513  1.00  0.00     0.210 HD
ENDBRANCH  17  36
TORSDOF 6
ENDMDL
MODEL 7
REMARK minimizedAffinity -6.49525356
REMARK CNNscore 0.30247882
REMARK CNNaffinity 6.011271
REMARK  6 active torsions:
REMARK  status: ('A' for Active; 'I' for Inactive)
REMARK    1  A    between atoms: C2_2  and  C4_4 
REMARK    2  A    between atoms: C11_11  and  C12_12 
REMARK    3  A    between atoms: C12_12  and  O2_14 
REMARK    4  A    between atoms: C21_23  and  O3_24 
REMARK    5  A    between atoms: C22_25  and  C24_27 
REMARK    6  A    between atoms: C24_27  and  O4_28 
ROOT
HETATM    1  C4  UNL     1      -4.494  14.920  16.753  1.00  0.00     0.018 C 
HETATM    2  C5  UNL     1      -4.112  16.266  17.429  1.00  0.00     0.010 C 
HETATM    3  C6  UNL     1      -2.664  16.123  17.927  1.00  0.00     0.010 C 
HETATM    4  C7  UNL     1      -2.439  14.608  18.004  1.00  0.00    -0.039 C 
HETATM    5  C8  UNL     1      -3.071  14.092  19.323  1.00  0.00     0.015 C 
HETATM    6  C9  UNL     1      -0.969  14.178  17.934  1.00  0.00     0.011 C 
HETATM    7  C10 UNL     1      -0.834  12.655  17.719  1.00  0.00     0.022 C 
HETATM    8  C11 UNL     1      -1.622  12.103  16.471  1.00  0.00     0.057 C 
HETATM    9  C13 UNL     1      -3.120  12.616  16.569  1.00  0.00     0.011 C 
HETATM   10  C14 UNL     1      -4.026  12.058  15.467  1.00  0.00     0.007 C 
HETATM   11  C15 UNL     1      -3.956  10.536  15.351  1.00  0.00     0.006 C 
HETATM   12  C16 UNL     1      -2.511  10.020  15.176  1.00  0.00     0.003 C 
HETATM   13  C17 UNL     1      -2.402   8.487  14.742  1.00  0.00    -0.035 C 
HETATM   14  C18 UNL     1      -3.096   7.547  15.757  1.00  0.00     0.016 C 
HETATM   15  C19 UNL     1      -3.120   8.302  13.368  1.00  0.00     0.012 C 
HETATM   16  C20 UNL     1      -2.849   6.962  12.690  1.00  0.00     0.033 C 
HETATM   17  C21 UNL     1      -1.362   6.683  12.515  1.00  0.00     0.128 C 
HETATM   18  C22 UNL     1      -0.536   6.792  13.833  1.00  0.00     0.007 C 
HETATM   19  C23 UNL     1      -0.780   5.568  14.743  1.00  0.00     0.020 C 
HETATM   20  C25 UNL     1      -0.875   8.168  14.524  1.00  0.00     0.007 C 
HETATM   21  C26 UNL     1      -0.058   8.474  15.795  1.00  0.00     0.007 C 
HETATM   22  C27 UNL     1      -0.150   9.959  16.156  1.00  0.00     0.011 C 
HETATM   23  C28 UNL     1      -1.596  10.485  16.383  1.00  0.00    -0.022 C 
HETATM   24  C29 UNL     1      -2.079   9.884  17.735  1.00  0.00     0.017 C 
HETATM   25  C30 UNL     1      -3.149  14.157  16.702  1.00  0.00     0.007 C 
ENDROOT
BRANCH   8  26
HETATM   26  C12 UNL     1      -0.954  12.699  15.197  1.00  0.00     0.149 C 
HETATM   27  O1  UNL     1       0.116  13.280  15.120  1.00  0.00    -0.649 OA
BRANCH  26  28
HETATM   28  O2  UNL     1      -1.683  12.570  14.070  1.00  0.00    -0.776 OA
HETATM   29  H18 UNL     1      -1.123  12.993  13.385  1.00  0.00     0.167 HD
ENDBRANCH  26  28
ENDBRANCH   8  26
BRANCH   1  30
HETATM   30  C2  UNL     1      -5.270  15.179  15.471  1.00  0.00    -0.089 C 
HETATM   31  C1  UNL     1      -6.577  14.925  15.294  1.00  0.00     0.014 C 
HETATM   32  C3  UNL     1      -4.452  15.752  14.341  1.00  0.00     0.043 C 
ENDBRANCH   1  30
BRANCH  18  33
HETATM   33  C24 UNL     1       0.980   6.770  13.450  1.00  0.00     0.176 C 
BRANCH  33  34
HETATM   34  O4  UNL     1       1.761   6.086  14.431  1.00  0.00    -0.400 OA
HETATM   35  H39 UNL     1       2.693   6.173  14.159  1.00  0.00     0.209 HD
ENDBRANCH  33  34
ENDBRANCH  18  33
BRANCH  17  36
HETATM   36  O3  UNL     1      -1.240   5.393  11.915  1.00  0.00    -0.395 OA
HETATM   37  H33 UNL     1      -0.281   5.180  11.936  1.00  0.00     0.210 HD
ENDBRANCH  17  36
TORSDOF 6
ENDMDL
MODEL 8
REMARK minimizedAffinity -6.18994951
REMARK CNNscore 0.253651798
REMARK CNNaffinity 5.39207792
REMARK  6 active torsions:
REMARK  status: ('A' for Active; 'I' for Inactive)
REMARK    1  A    between atoms: C2_2  and  C4_4 
REMARK    2  A    between atoms: C11_11  and  C12_12 
REMARK    3  A    between atoms: C12_12  and  O2_14 
REMARK    4  A    between atoms: C21_23  and  O3_24 
REMARK    5  A    between atoms: C22_25  and  C24_27 
REMARK    6  A    between atoms: C24_27  and  O4_28 
ROOT
HETATM    1  C4  UNL     1     -18.099  -2.747  16.072  1.00  0.00     0.018 C 
HETATM    2  C5  UNL     1     -17.466  -4.025  15.453  1.00  0.00     0.010 C 
HETATM    3  C6  UNL     1     -16.336  -3.558  14.521  1.00  0.00     0.010 C 
HETATM    4  C7  UNL     1     -16.673  -2.092  14.223  1.00  0.00    -0.039 C 
HETATM    5  C8  UNL     1     -17.760  -2.061  13.117  1.00  0.00     0.015 C 
HETATM    6  C9  UNL     1     -15.475  -1.238  13.790  1.00  0.00     0.011 C 
HETATM    7  C10 UNL     1     -15.821   0.267  13.795  1.00  0.00     0.022 C 
HETATM    8  C11 UNL     1     -16.400   0.796  15.162  1.00  0.00     0.057 C 
HETATM    9  C13 UNL     1     -17.602  -0.150  15.584  1.00  0.00     0.011 C 
HETATM   10  C14 UNL     1     -18.329   0.320  16.849  1.00  0.00     0.007 C 
HETATM   11  C15 UNL     1     -18.758   1.785  16.781  1.00  0.00     0.006 C 
HETATM   12  C16 UNL     1     -17.585   2.732  16.446  1.00  0.00     0.003 C 
HETATM   13  C17 UNL     1     -17.902   4.282  16.665  1.00  0.00    -0.035 C 
HETATM   14  C18 UNL     1     -19.113   4.751  15.823  1.00  0.00     0.016 C 
HETATM   15  C19 UNL     1     -18.260   4.514  18.167  1.00  0.00     0.012 C 
HETATM   16  C20 UNL     1     -18.301   5.981  18.586  1.00  0.00     0.033 C 
HETATM   17  C21 UNL     1     -17.009   6.720  18.264  1.00  0.00     0.128 C 
HETATM   18  C22 UNL     1     -16.565   6.602  16.773  1.00  0.00     0.007 C 
HETATM   19  C23 UNL     1     -17.441   7.490  15.862  1.00  0.00     0.020 C 
HETATM   20  C25 UNL     1     -16.576   5.079  16.367  1.00  0.00     0.007 C 
HETATM   21  C26 UNL     1     -16.061   4.784  14.944  1.00  0.00     0.007 C 
HETATM   22  C27 UNL     1     -15.726   3.299  14.784  1.00  0.00     0.011 C 
HETATM   23  C28 UNL     1     -16.910   2.331  15.070  1.00  0.00    -0.022 C 
HETATM   24  C29 UNL     1     -17.901   2.478  13.879  1.00  0.00     0.017 C 
HETATM   25  C30 UNL     1     -17.133  -1.624  15.626  1.00  0.00     0.007 C 
ENDROOT
BRANCH   8  26
HETATM   26  C12 UNL     1     -15.264   0.692  16.221  1.00  0.00     0.149 C 
HETATM   27  O1  UNL     1     -15.382   0.624  17.433  1.00  0.00    -0.649 OA
BRANCH  26  28
HETATM   28  O2  UNL     1     -14.017   0.713  15.709  1.00  0.00    -0.776 OA
HETATM   29  H18 UNL     1     -13.443   0.642  16.501  1.00  0.00     0.167 HD
ENDBRANCH  26  28
ENDBRANCH   8  26
BRANCH   1  30
HETATM   30  C2  UNL     1     -18.381  -2.965  17.551  1.00  0.00    -0.089 C 
HETATM   31  C1  UNL     1     -19.594  -3.186  18.082  1.00  0.00     0.014 C 
HETATM   32  C3  UNL     1     -17.166  -2.902  18.442  1.00  0.00     0.043 C 
ENDBRANCH   1  30
BRANCH  18  33
HETATM   33  C24 UNL     1     -15.105   7.151  16.665  1.00  0.00     0.176 C 
BRANCH  33  34
HETATM   34  O4  UNL     1     -14.497   7.286  17.950  1.00  0.00    -0.400 OA
HETATM   35  H39 UNL     1     -13.623   7.694  17.807  1.00  0.00     0.209 HD
ENDBRANCH  33  34
ENDBRANCH  18  33
BRANCH  17  36
HETATM   36  O3  UNL     1     -17.187   8.080  18.660  1.00  0.00    -0.395 OA
HETATM   37  H33 UNL     1     -16.400   8.561  18.322  1.00  0.00     0.210 HD
ENDBRANCH  17  36
TORSDOF 6
ENDMDL
MODEL 9
REMARK minimizedAffinity -6.56393003
REMARK CNNscore 0.245373964
REMARK CNNaffinity 5.20961046
REMARK  6 active torsions:
REMARK  status: ('A' for Active; 'I' for Inactive)
REMARK    1  A    between atoms: C2_2  and  C4_4 
REMARK    2  A    between atoms: C11_11  and  C12_12 
REMARK    3  A    between atoms: C12_12  and  O2_14 
REMARK    4  A    between atoms: C21_23  and  O3_24 
REMARK    5  A    between atoms: C22_25  and  C24_27 
REMARK    6  A    between atoms: C24_27  and  O4_28 
ROOT
HETATM    1  C4  UNL     1      18.550  -6.176   9.690  1.00  0.00     0.018 C 
HETATM    2  C5  UNL     1      18.574  -6.593  11.187  1.00  0.00     0.010 C 
HETATM    3  C6  UNL     1      18.662  -5.298  12.011  1.00  0.00     0.010 C 
HETATM    4  C7  UNL     1      19.199  -4.256  11.023  1.00  0.00    -0.039 C 
HETATM    5  C8  UNL     1      20.737  -4.436  10.919  1.00  0.00     0.015 C 
HETATM    6  C9  UNL     1      18.875  -2.802  11.389  1.00  0.00     0.011 C 
HETATM    7  C10 UNL     1      19.180  -1.843  10.219  1.00  0.00     0.022 C 
HETATM    8  C11 UNL     1      18.481  -2.229   8.861  1.00  0.00     0.057 C 
HETATM    9  C13 UNL     1      18.809  -3.751   8.556  1.00  0.00     0.011 C 
HETATM   10  C14 UNL     1      18.276  -4.228   7.201  1.00  0.00     0.007 C 
HETATM   11  C15 UNL     1      18.687  -3.318   6.045  1.00  0.00     0.006 C 
HETATM   12  C16 UNL     1      18.306  -1.841   6.288  1.00  0.00     0.003 C 
HETATM   13  C17 UNL     1      18.427  -0.905   4.999  1.00  0.00    -0.035 C 
HETATM   14  C18 UNL     1      19.858  -0.910   4.411  1.00  0.00     0.016 C 
HETATM   15  C19 UNL     1      17.466  -1.447   3.894  1.00  0.00     0.012 C 
HETATM   16  C20 UNL     1      17.255  -0.494   2.720  1.00  0.00     0.033 C 
HETATM   17  C21 UNL     1      16.779   0.884   3.160  1.00  0.00     0.128 C 
HETATM   18  C22 UNL     1      17.686   1.555   4.237  1.00  0.00     0.007 C 
HETATM   19  C23 UNL     1      18.997   2.077   3.610  1.00  0.00     0.020 C 
HETATM   20  C25 UNL     1      17.914   0.527   5.410  1.00  0.00     0.007 C 
HETATM   21  C26 UNL     1      18.712   1.078   6.609  1.00  0.00     0.007 C 
HETATM   22  C27 UNL     1      18.539   0.180   7.837  1.00  0.00     0.011 C 
HETATM   23  C28 UNL     1      18.963  -1.301   7.624  1.00  0.00    -0.022 C 
HETATM   24  C29 UNL     1      20.518  -1.310   7.544  1.00  0.00     0.017 C 
HETATM   25  C30 UNL     1      18.394  -4.638   9.755  1.00  0.00     0.007 C 
ENDROOT
BRANCH   8  26
HETATM   26  C12 UNL     1      16.946  -2.063   9.063  1.00  0.00     0.149 C 
HETATM   27  O1  UNL     1      16.066  -2.850   8.755  1.00  0.00    -0.649 OA
BRANCH  26  28
HETATM   28  O2  UNL     1      16.578  -0.890   9.616  1.00  0.00    -0.776 OA
HETATM   29  H18 UNL     1      15.601  -0.957   9.665  1.00  0.00     0.167 HD
ENDBRANCH  26  28
ENDBRANCH   8  26
BRANCH   1  30
HETATM   30  C2  UNL     1      17.533  -7.012   8.929  1.00  0.00    -0.089 C 
HETATM   31  C1  UNL     1      16.252  -6.668   8.719  1.00  0.00     0.014 C 
HETATM   32  C3  UNL     1      18.057  -8.326   8.406  1.00  0.00     0.043 C 
ENDBRANCH   1  30
BRANCH  18  33
HETATM   33  C24 UNL     1      16.925   2.804   4.791  1.00  0.00     0.176 C 
BRANCH  33  34
HETATM   34  O4  UNL     1      17.729   3.983   4.721  1.00  0.00    -0.400 OA
HETATM   35  H39 UNL     1      17.217   4.698   5.142  1.00  0.00     0.209 HD
ENDBRANCH  33  34
ENDBRANCH  18  33
BRANCH  17  36
HETATM   36  O3  UNL     1      16.662   1.688   1.986  1.00  0.00    -0.395 OA
HETATM   37  H33 UNL     1      16.486   2.600   2.305  1.00  0.00     0.210 HD
ENDBRANCH  17  36
TORSDOF 6
ENDMDL
